MODEL 1
REMARK VINA RESULT:      -4.2      0.000      0.000
REMARK  4 active torsions:
REMARK  status: ('A' for Active; 'I' for Inactive)
REMARK    1  A    between atoms: C5_5  and  C6_6 
REMARK    2  A    between atoms: C5_5  and  C7_7 
REMARK    3  A    between atoms: C6_6  and  C8_8 
REMARK    4  A    between atoms: C7_7  and  C9_9 
ROOT
HETATM    1  C5  UNL     1     -32.935   6.251   2.579  1.00 20.00     0.002 C 
ENDROOT
BRANCH   1   2
HETATM    2  C6  UNL     1     -32.278   7.504   1.982  1.00 20.00     0.020 C 
BRANCH   2   3
HETATM    3  C8  UNL     1     -33.184   8.358   1.083  1.00 20.00     0.078 C 
HETATM    4  C1  UNL     1     -33.015   8.075  -0.403  1.00 20.00     0.026 C 
HETATM    5 CL10 UNL     1     -32.924  10.100   1.395  1.00 20.00    -0.125 Cl
ENDBRANCH   2   3
ENDBRANCH   1   2
BRANCH   1   6
HETATM    6  C7  UNL     1     -33.632   6.580   3.906  1.00 20.00     0.008 C 
BRANCH   6   7
HETATM    7  C9  UNL     1     -34.557   5.470   4.476  1.00 20.00    -0.051 C 
HETATM    8  C2  UNL     1     -34.080   4.073   4.045  1.00 20.00     0.014 C 
HETATM    9  C3  UNL     1     -34.622   5.532   6.010  1.00 20.00     0.014 C 
HETATM   10  C4  UNL     1     -35.976   5.694   3.917  1.00 20.00     0.014 C 
ENDBRANCH   6   7
ENDBRANCH   1   6
TORSDOF 4
ENDMDL
MODEL 2
REMARK VINA RESULT:      -4.1     10.841     11.877
REMARK  4 active torsions:
REMARK  status: ('A' for Active; 'I' for Inactive)
REMARK    1  A    between atoms: C5_5  and  C6_6 
REMARK    2  A    between atoms: C5_5  and  C7_7 
REMARK    3  A    between atoms: C6_6  and  C8_8 
REMARK    4  A    between atoms: C7_7  and  C9_9 
ROOT
HETATM    1  C5  UNL     1     -33.641  14.698  -4.173  1.00 20.00     0.002 C 
ENDROOT
BRANCH   1   2
HETATM    2  C6  UNL     1     -34.109  14.911  -5.620  1.00 20.00     0.020 C 
BRANCH   2   3
HETATM    3  C8  UNL     1     -35.587  14.592  -5.888  1.00 20.00     0.078 C 
HETATM    4  C1  UNL     1     -36.459  15.828  -6.062  1.00 20.00     0.026 C 
HETATM    5 CL10 UNL     1     -36.258  13.563  -4.588  1.00 20.00    -0.125 Cl
ENDBRANCH   2   3
ENDBRANCH   1   2
BRANCH   1   6
HETATM    6  C7  UNL     1     -33.018  15.982  -3.607  1.00 20.00     0.008 C 
BRANCH   6   7
HETATM    7  C9  UNL     1     -33.952  16.852  -2.723  1.00 20.00    -0.051 C 
HETATM    8  C2  UNL     1     -35.072  16.005  -2.094  1.00 20.00     0.014 C 
HETATM    9  C3  UNL     1     -33.165  17.558  -1.607  1.00 20.00     0.014 C 
HETATM   10  C4  UNL     1     -34.598  17.926  -3.620  1.00 20.00     0.014 C 
ENDBRANCH   6   7
ENDBRANCH   1   6
TORSDOF 4
ENDMDL
MODEL 3
REMARK VINA RESULT:      -4.0     10.817     11.907
REMARK  4 active torsions:
REMARK  status: ('A' for Active; 'I' for Inactive)
REMARK    1  A    between atoms: C5_5  and  C6_6 
REMARK    2  A    between atoms: C5_5  and  C7_7 
REMARK    3  A    between atoms: C6_6  and  C8_8 
REMARK    4  A    between atoms: C7_7  and  C9_9 
ROOT
HETATM    1  C5  UNL     1     -33.680  14.758  -4.025  1.00 20.00     0.002 C 
ENDROOT
BRANCH   1   2
HETATM    2  C6  UNL     1     -34.107  14.940  -5.488  1.00 20.00     0.020 C 
BRANCH   2   3
HETATM    3  C8  UNL     1     -35.572  14.601  -5.794  1.00 20.00     0.078 C 
HETATM    4  C1  UNL     1     -36.458  15.825  -5.985  1.00 20.00     0.026 C 
HETATM    5 CL10 UNL     1     -36.261  13.557  -4.516  1.00 20.00    -0.125 Cl
ENDBRANCH   2   3
ENDBRANCH   1   2
BRANCH   1   6
HETATM    6  C7  UNL     1     -33.075  16.055  -3.467  1.00 20.00     0.008 C 
BRANCH   6   7
HETATM    7  C9  UNL     1     -34.035  16.940  -2.627  1.00 20.00    -0.051 C 
HETATM    8  C2  UNL     1     -34.702  18.019  -3.496  1.00 20.00     0.014 C 
HETATM    9  C3  UNL     1     -35.124  16.093  -1.949  1.00 20.00     0.014 C 
HETATM   10  C4  UNL     1     -33.206  17.639  -1.531  1.00 20.00     0.014 C 
ENDBRANCH   6   7
ENDBRANCH   1   6
TORSDOF 4
ENDMDL
MODEL 4
REMARK VINA RESULT:      -3.9     10.740     11.910
REMARK  4 active torsions:
REMARK  status: ('A' for Active; 'I' for Inactive)
REMARK    1  A    between atoms: C5_5  and  C6_6 
REMARK    2  A    between atoms: C5_5  and  C7_7 
REMARK    3  A    between atoms: C6_6  and  C8_8 
REMARK    4  A    between atoms: C7_7  and  C9_9 
ROOT
HETATM    1  C5  UNL     1     -34.756  14.301  -3.743  1.00 20.00     0.002 C 
ENDROOT
BRANCH   1   2
HETATM    2  C6  UNL     1     -35.876  13.950  -4.734  1.00 20.00     0.020 C 
BRANCH   2   3
HETATM    3  C8  UNL     1     -35.753  14.593  -6.122  1.00 20.00     0.078 C 
HETATM    4  C1  UNL     1     -34.342  15.054  -6.461  1.00 20.00     0.026 C 
HETATM    5 CL10 UNL     1     -36.888  15.965  -6.288  1.00 20.00    -0.125 Cl
ENDBRANCH   2   3
ENDBRANCH   1   2
BRANCH   1   6
HETATM    6  C7  UNL     1     -35.216  15.391  -2.765  1.00 20.00     0.008 C 
BRANCH   6   7
HETATM    7  C9  UNL     1     -34.368  16.693  -2.758  1.00 20.00    -0.051 C 
HETATM    8  C2  UNL     1     -34.938  17.733  -3.738  1.00 20.00     0.014 C 
HETATM    9  C3  UNL     1     -34.301  17.308  -1.351  1.00 20.00     0.014 C 
HETATM   10  C4  UNL     1     -32.937  16.335  -3.204  1.00 20.00     0.014 C 
ENDBRANCH   6   7
ENDBRANCH   1   6
TORSDOF 4
ENDMDL
MODEL 5
REMARK VINA RESULT:      -3.9     10.687     11.796
REMARK  4 active torsions:
REMARK  status: ('A' for Active; 'I' for Inactive)
REMARK    1  A    between atoms: C5_5  and  C6_6 
REMARK    2  A    between atoms: C5_5  and  C7_7 
REMARK    3  A    between atoms: C6_6  and  C8_8 
REMARK    4  A    between atoms: C7_7  and  C9_9 
ROOT
HETATM    1  C5  UNL     1     -34.301  17.140  -2.428  1.00 20.00     0.002 C 
ENDROOT
BRANCH   1   2
HETATM    2  C6  UNL     1     -32.829  17.415  -2.090  1.00 20.00     0.020 C 
BRANCH   2   3
HETATM    3  C8  UNL     1     -32.590  18.405  -0.941  1.00 20.00     0.078 C 
HETATM    4  C1  UNL     1     -31.183  18.346  -0.363  1.00 20.00     0.026 C 
HETATM    5 CL10 UNL     1     -33.785  18.156   0.367  1.00 20.00    -0.125 Cl
ENDBRANCH   2   3
ENDBRANCH   1   2
BRANCH   1   6
HETATM    6  C7  UNL     1     -34.552  15.634  -2.586  1.00 20.00     0.008 C 
BRANCH   6   7
HETATM    7  C9  UNL     1     -34.561  15.099  -4.044  1.00 20.00    -0.051 C 
HETATM    8  C2  UNL     1     -35.578  13.959  -4.213  1.00 20.00     0.014 C 
HETATM    9  C3  UNL     1     -34.886  16.219  -5.046  1.00 20.00     0.014 C 
HETATM   10  C4  UNL     1     -33.156  14.551  -4.362  1.00 20.00     0.014 C 
ENDBRANCH   6   7
ENDBRANCH   1   6
TORSDOF 4
ENDMDL
MODEL 6
REMARK VINA RESULT:      -3.9     10.826     11.904
REMARK  4 active torsions:
REMARK  status: ('A' for Active; 'I' for Inactive)
REMARK    1  A    between atoms: C5_5  and  C6_6 
REMARK    2  A    between atoms: C5_5  and  C7_7 
REMARK    3  A    between atoms: C6_6  and  C8_8 
REMARK    4  A    between atoms: C7_7  and  C9_9 
ROOT
HETATM    1  C5  UNL     1     -35.063  17.170  -2.093  1.00 20.00     0.002 C 
ENDROOT
BRANCH   1   2
HETATM    2  C6  UNL     1     -33.994  17.727  -1.141  1.00 20.00     0.020 C 
BRANCH   2   3
HETATM    3  C8  UNL     1     -32.575  17.810  -1.720  1.00 20.00     0.078 C 
HETATM    4  C1  UNL     1     -31.540  18.332  -0.733  1.00 20.00     0.026 C 
HETATM    5 CL10 UNL     1     -32.553  18.815  -3.200  1.00 20.00    -0.125 Cl
ENDBRANCH   2   3
ENDBRANCH   1   2
BRANCH   1   6
HETATM    6  C7  UNL     1     -34.820  15.681  -2.374  1.00 20.00     0.008 C 
BRANCH   6   7
HETATM    7  C9  UNL     1     -34.577  15.305  -3.862  1.00 20.00    -0.051 C 
HETATM    8  C2  UNL     1     -35.024  16.437  -4.802  1.00 20.00     0.014 C 
HETATM    9  C3  UNL     1     -33.095  14.988  -4.121  1.00 20.00     0.014 C 
HETATM   10  C4  UNL     1     -35.409  14.048  -4.181  1.00 20.00     0.014 C 
ENDBRANCH   6   7
ENDBRANCH   1   6
TORSDOF 4
ENDMDL
MODEL 7
REMARK VINA RESULT:      -3.9     10.805     11.989
REMARK  4 active torsions:
REMARK  status: ('A' for Active; 'I' for Inactive)
REMARK    1  A    between atoms: C5_5  and  C6_6 
REMARK    2  A    between atoms: C5_5  and  C7_7 
REMARK    3  A    between atoms: C6_6  and  C8_8 
REMARK    4  A    between atoms: C7_7  and  C9_9 
ROOT
HETATM    1  C5  UNL     1     -33.172  17.543  -1.781  1.00 20.00     0.002 C 
ENDROOT
BRANCH   1   2
HETATM    2  C6  UNL     1     -31.903  18.256  -1.290  1.00 20.00     0.020 C 
BRANCH   2   3
HETATM    3  C8  UNL     1     -31.936  18.729   0.170  1.00 20.00     0.078 C 
HETATM    4  C1  UNL     1     -30.752  18.246   0.997  1.00 20.00     0.026 C 
HETATM    5 CL10 UNL     1     -33.462  18.234   0.962  1.00 20.00    -0.125 Cl
ENDBRANCH   2   3
ENDBRANCH   1   2
BRANCH   1   6
HETATM    6  C7  UNL     1     -32.880  16.715  -3.040  1.00 20.00     0.008 C 
BRANCH   6   7
HETATM    7  C9  UNL     1     -34.076  15.902  -3.606  1.00 20.00    -0.051 C 
HETATM    8  C2  UNL     1     -33.609  14.560  -4.194  1.00 20.00     0.014 C 
HETATM    9  C3  UNL     1     -35.133  15.638  -2.522  1.00 20.00     0.014 C 
HETATM   10  C4  UNL     1     -34.727  16.729  -4.732  1.00 20.00     0.014 C 
ENDBRANCH   6   7
ENDBRANCH   1   6
TORSDOF 4
ENDMDL
MODEL 8
REMARK VINA RESULT:      -3.9     10.822     12.057
REMARK  4 active torsions:
REMARK  status: ('A' for Active; 'I' for Inactive)
REMARK    1  A    between atoms: C5_5  and  C6_6 
REMARK    2  A    between atoms: C5_5  and  C7_7 
REMARK    3  A    between atoms: C6_6  and  C8_8 
REMARK    4  A    between atoms: C7_7  and  C9_9 
ROOT
HETATM    1  C5  UNL     1     -33.247  17.498  -1.799  1.00 20.00     0.002 C 
ENDROOT
BRANCH   1   2
HETATM    2  C6  UNL     1     -32.070  18.402  -1.404  1.00 20.00     0.020 C 
BRANCH   2   3
HETATM    3  C8  UNL     1     -31.995  18.774   0.083  1.00 20.00     0.078 C 
HETATM    4  C1  UNL     1     -30.778  18.204   0.797  1.00 20.00     0.026 C 
HETATM    5 CL10 UNL     1     -33.483  18.269   0.938  1.00 20.00    -0.125 Cl
ENDBRANCH   2   3
ENDBRANCH   1   2
BRANCH   1   6
HETATM    6  C7  UNL     1     -32.867  16.590  -2.977  1.00 20.00     0.008 C 
BRANCH   6   7
HETATM    7  C9  UNL     1     -34.047  15.862  -3.677  1.00 20.00    -0.051 C 
HETATM    8  C2  UNL     1     -34.657  16.733  -4.788  1.00 20.00     0.014 C 
HETATM    9  C3  UNL     1     -33.598  14.520  -4.276  1.00 20.00     0.014 C 
HETATM   10  C4  UNL     1     -35.134  15.586  -2.620  1.00 20.00     0.014 C 
ENDBRANCH   6   7
ENDBRANCH   1   6
TORSDOF 4
ENDMDL
MODEL 9
REMARK VINA RESULT:      -3.9     10.594     11.715
REMARK  4 active torsions:
REMARK  status: ('A' for Active; 'I' for Inactive)
REMARK    1  A    between atoms: C5_5  and  C6_6 
REMARK    2  A    between atoms: C5_5  and  C7_7 
REMARK    3  A    between atoms: C6_6  and  C8_8 
REMARK    4  A    between atoms: C7_7  and  C9_9 
ROOT
HETATM    1  C5  UNL     1     -33.669  16.772  -2.219  1.00 20.00     0.002 C 
ENDROOT
BRANCH   1   2
HETATM    2  C6  UNL     1     -34.148  17.577  -1.002  1.00 20.00     0.020 C 
BRANCH   2   3
HETATM    3  C8  UNL     1     -33.094  18.491  -0.361  1.00 20.00     0.078 C 
HETATM    4  C1  UNL     1     -31.685  18.269  -0.894  1.00 20.00     0.026 C 
HETATM    5 CL10 UNL     1     -33.097  18.310   1.418  1.00 20.00    -0.125 Cl
ENDBRANCH   2   3
ENDBRANCH   1   2
BRANCH   1   6
HETATM    6  C7  UNL     1     -34.700  15.701  -2.605  1.00 20.00     0.008 C 
BRANCH   6   7
HETATM    7  C9  UNL     1     -34.557  15.110  -4.034  1.00 20.00    -0.051 C 
HETATM    8  C2  UNL     1     -34.968  16.134  -5.104  1.00 20.00     0.014 C 
HETATM    9  C3  UNL     1     -33.116  14.647  -4.303  1.00 20.00     0.014 C 
HETATM   10  C4  UNL     1     -35.491  13.889  -4.142  1.00 20.00     0.014 C 
ENDBRANCH   6   7
ENDBRANCH   1   6
TORSDOF 4
ENDMDL
