MODEL 1
REMARK VINA RESULT:      -5.4      0.000      0.000
REMARK  3 active torsions:
REMARK  status: ('A' for Active; 'I' for Inactive)
REMARK    1  A    between atoms: C4_4  and  C7_7 
REMARK    2  A    between atoms: C7_7  and  C9_9 
REMARK    3  A    between atoms: C8_8  and  C9_9 
ROOT
HETATM    1  C1  UNL     1     -34.399   4.183   4.012  1.00 20.00     0.002 C 
HETATM    2  C2  UNL     1     -33.265   4.830   3.211  1.00 20.00     0.006 C 
HETATM    3  C3  UNL     1     -35.300   5.328   4.477  1.00 20.00     0.020 C 
HETATM    4  C4  UNL     1     -33.596   6.325   3.163  1.00 20.00     0.004 C 
HETATM    5  C5  UNL     1     -34.411   6.569   4.439  1.00 20.00     0.086 C 
HETATM    6 CL10 UNL     1     -33.411   6.644   5.922  1.00 20.00    -0.125 Cl
ENDROOT
BRANCH   4   7
HETATM    7  C7  UNL     1     -32.397   7.202   2.976  1.00 20.00     0.006 C 
BRANCH   7   8
HETATM    8  C9  UNL     1     -32.169   7.530   1.501  1.00 20.00     0.000 C 
BRANCH   8   9
HETATM    9  C8  UNL     1     -32.926   8.792   1.089  1.00 20.00    -0.005 C 
HETATM   10  C6  UNL     1     -33.390   8.716  -0.357  1.00 20.00     0.005 C 
ENDBRANCH   8   9
ENDBRANCH   7   8
ENDBRANCH   4   7
TORSDOF 3
ENDMDL
MODEL 2
REMARK VINA RESULT:      -5.3      1.541      2.082
REMARK  3 active torsions:
REMARK  status: ('A' for Active; 'I' for Inactive)
REMARK    1  A    between atoms: C4_4  and  C7_7 
REMARK    2  A    between atoms: C7_7  and  C9_9 
REMARK    3  A    between atoms: C8_8  and  C9_9 
ROOT
HETATM    1  C1  UNL     1     -34.247   6.565   6.142  1.00 20.00     0.002 C 
HETATM    2  C2  UNL     1     -33.437   6.965   4.904  1.00 20.00     0.006 C 
HETATM    3  C3  UNL     1     -34.744   5.142   5.886  1.00 20.00     0.020 C 
HETATM    4  C4  UNL     1     -33.418   5.723   4.007  1.00 20.00     0.004 C 
HETATM    5  C5  UNL     1     -34.710   4.981   4.368  1.00 20.00     0.086 C 
HETATM    6 CL10 UNL     1     -36.177   5.711   3.648  1.00 20.00    -0.125 Cl
ENDROOT
BRANCH   4   7
HETATM    7  C7  UNL     1     -33.224   6.031   2.555  1.00 20.00     0.006 C 
BRANCH   7   8
HETATM    8  C9  UNL     1     -32.511   7.368   2.357  1.00 20.00     0.000 C 
BRANCH   8   9
HETATM    9  C8  UNL     1     -32.476   7.766   0.882  1.00 20.00    -0.005 C 
HETATM   10  C6  UNL     1     -32.947   9.198   0.680  1.00 20.00     0.005 C 
ENDBRANCH   8   9
ENDBRANCH   7   8
ENDBRANCH   4   7
TORSDOF 3
ENDMDL
MODEL 3
REMARK VINA RESULT:      -4.2     11.235     12.275
REMARK  3 active torsions:
REMARK  status: ('A' for Active; 'I' for Inactive)
REMARK    1  A    between atoms: C4_4  and  C7_7 
REMARK    2  A    between atoms: C7_7  and  C9_9 
REMARK    3  A    between atoms: C8_8  and  C9_9 
ROOT
HETATM    1  C1  UNL     1     -34.860  15.063  -3.189  1.00 20.00     0.002 C 
HETATM    2  C2  UNL     1     -35.029  16.103  -2.077  1.00 20.00     0.006 C 
HETATM    3  C3  UNL     1     -33.487  15.321  -3.811  1.00 20.00     0.020 C 
HETATM    4  C4  UNL     1     -33.706  16.875  -2.033  1.00 20.00     0.004 C 
HETATM    5  C5  UNL     1     -33.164  16.772  -3.464  1.00 20.00     0.086 C 
HETATM    6 CL10 UNL     1     -33.984  17.867  -4.618  1.00 20.00    -0.125 Cl
ENDROOT
BRANCH   4   7
HETATM    7  C7  UNL     1     -33.835  18.261  -1.481  1.00 20.00     0.006 C 
BRANCH   7   8
HETATM    8  C9  UNL     1     -33.003  18.437  -0.211  1.00 20.00     0.000 C 
BRANCH   8   9
HETATM    9  C8  UNL     1     -31.507  18.344  -0.509  1.00 20.00    -0.005 C 
HETATM   10  C6  UNL     1     -30.688  18.270   0.770  1.00 20.00     0.005 C 
ENDBRANCH   8   9
ENDBRANCH   7   8
ENDBRANCH   4   7
TORSDOF 3
ENDMDL
MODEL 4
REMARK VINA RESULT:      -4.2     10.846     11.792
REMARK  3 active torsions:
REMARK  status: ('A' for Active; 'I' for Inactive)
REMARK    1  A    between atoms: C4_4  and  C7_7 
REMARK    2  A    between atoms: C7_7  and  C9_9 
REMARK    3  A    between atoms: C8_8  and  C9_9 
ROOT
HETATM    1  C1  UNL     1     -36.530  14.865  -3.895  1.00 20.00     0.002 C 
HETATM    2  C2  UNL     1     -35.690  15.970  -3.246  1.00 20.00     0.006 C 
HETATM    3  C3  UNL     1     -35.574  13.701  -4.160  1.00 20.00     0.020 C 
HETATM    4  C4  UNL     1     -34.289  15.374  -3.076  1.00 20.00     0.004 C 
HETATM    5  C5  UNL     1     -34.186  14.334  -4.198  1.00 20.00     0.086 C 
HETATM    6 CL10 UNL     1     -33.891  15.052  -5.811  1.00 20.00    -0.125 Cl
ENDROOT
BRANCH   4   7
HETATM    7  C7  UNL     1     -33.199  16.399  -3.032  1.00 20.00     0.006 C 
BRANCH   7   8
HETATM    8  C9  UNL     1     -33.373  17.350  -1.848  1.00 20.00     0.000 C 
BRANCH   8   9
HETATM    9  C8  UNL     1     -32.281  18.419  -1.829  1.00 20.00    -0.005 C 
HETATM   10  C6  UNL     1     -31.426  18.320  -0.576  1.00 20.00     0.005 C 
ENDBRANCH   8   9
ENDBRANCH   7   8
ENDBRANCH   4   7
TORSDOF 3
ENDMDL
MODEL 5
REMARK VINA RESULT:      -4.2     10.683     11.732
REMARK  3 active torsions:
REMARK  status: ('A' for Active; 'I' for Inactive)
REMARK    1  A    between atoms: C4_4  and  C7_7 
REMARK    2  A    between atoms: C7_7  and  C9_9 
REMARK    3  A    between atoms: C8_8  and  C9_9 
ROOT
HETATM    1  C1  UNL     1     -33.604  17.910  -1.546  1.00 20.00     0.002 C 
HETATM    2  C2  UNL     1     -33.106  17.043  -2.706  1.00 20.00     0.006 C 
HETATM    3  C3  UNL     1     -34.808  17.178  -0.952  1.00 20.00     0.020 C 
HETATM    4  C4  UNL     1     -33.986  15.789  -2.690  1.00 20.00     0.004 C 
HETATM    5  C5  UNL     1     -35.306  16.267  -2.071  1.00 20.00     0.086 C 
HETATM    6 CL10 UNL     1     -36.328  17.202  -3.204  1.00 20.00    -0.125 Cl
ENDROOT
BRANCH   4   7
HETATM    7  C7  UNL     1     -34.096  15.112  -4.021  1.00 20.00     0.006 C 
BRANCH   7   8
HETATM    8  C9  UNL     1     -34.935  13.838  -3.933  1.00 20.00     0.000 C 
BRANCH   8   9
HETATM    9  C8  UNL     1     -36.127  13.891  -4.888  1.00 20.00    -0.005 C 
HETATM   10  C6  UNL     1     -35.775  14.613  -6.179  1.00 20.00     0.005 C 
ENDBRANCH   8   9
ENDBRANCH   7   8
ENDBRANCH   4   7
TORSDOF 3
ENDMDL
MODEL 6
REMARK VINA RESULT:      -4.1     11.148     11.926
REMARK  3 active torsions:
REMARK  status: ('A' for Active; 'I' for Inactive)
REMARK    1  A    between atoms: C4_4  and  C7_7 
REMARK    2  A    between atoms: C7_7  and  C9_9 
REMARK    3  A    between atoms: C8_8  and  C9_9 
ROOT
HETATM    1  C1  UNL     1     -33.350  17.587  -1.981  1.00 20.00     0.002 C 
HETATM    2  C2  UNL     1     -33.143  16.385  -2.909  1.00 20.00     0.006 C 
HETATM    3  C3  UNL     1     -34.730  17.404  -1.347  1.00 20.00     0.020 C 
HETATM    4  C4  UNL     1     -34.376  15.497  -2.712  1.00 20.00     0.004 C 
HETATM    5  C5  UNL     1     -35.481  16.477  -2.299  1.00 20.00     0.086 C 
HETATM    6 CL10 UNL     1     -36.144  17.422  -3.666  1.00 20.00    -0.125 Cl
ENDROOT
BRANCH   4   7
HETATM    7  C7  UNL     1     -34.684  14.623  -3.888  1.00 20.00     0.006 C 
BRANCH   7   8
HETATM    8  C9  UNL     1     -33.580  14.696  -4.943  1.00 20.00     0.000 C 
BRANCH   8   9
HETATM    9  C8  UNL     1     -34.148  15.045  -6.318  1.00 20.00    -0.005 C 
HETATM   10  C6  UNL     1     -35.621  14.681  -6.421  1.00 20.00     0.005 C 
ENDBRANCH   8   9
ENDBRANCH   7   8
ENDBRANCH   4   7
TORSDOF 3
ENDMDL
MODEL 7
REMARK VINA RESULT:      -4.1     16.144     16.794
REMARK  3 active torsions:
REMARK  status: ('A' for Active; 'I' for Inactive)
REMARK    1  A    between atoms: C4_4  and  C7_7 
REMARK    2  A    between atoms: C7_7  and  C9_9 
REMARK    3  A    between atoms: C8_8  and  C9_9 
ROOT
HETATM    1  C1  UNL     1     -23.362  18.603   9.202  1.00 20.00     0.002 C 
HETATM    2  C2  UNL     1     -24.716  18.387   9.885  1.00 20.00     0.006 C 
HETATM    3  C3  UNL     1     -22.453  17.474   9.689  1.00 20.00     0.020 C 
HETATM    4  C4  UNL     1     -24.573  17.084  10.679  1.00 20.00     0.004 C 
HETATM    5  C5  UNL     1     -23.075  17.005  11.001  1.00 20.00     0.086 C 
HETATM    6 CL10 UNL     1     -22.574  18.093  12.332  1.00 20.00    -0.125 Cl
ENDROOT
BRANCH   4   7
HETATM    7  C7  UNL     1     -25.500  16.986  11.850  1.00 20.00     0.006 C 
BRANCH   7   8
HETATM    8  C9  UNL     1     -26.137  18.337  12.173  1.00 20.00     0.000 C 
BRANCH   8   9
HETATM    9  C8  UNL     1     -27.663  18.254  12.140  1.00 20.00    -0.005 C 
HETATM   10  C6  UNL     1     -28.255  19.260  11.166  1.00 20.00     0.005 C 
ENDBRANCH   8   9
ENDBRANCH   7   8
ENDBRANCH   4   7
TORSDOF 3
ENDMDL
MODEL 8
REMARK VINA RESULT:      -4.1     15.143     16.197
REMARK  3 active torsions:
REMARK  status: ('A' for Active; 'I' for Inactive)
REMARK    1  A    between atoms: C4_4  and  C7_7 
REMARK    2  A    between atoms: C7_7  and  C9_9 
REMARK    3  A    between atoms: C8_8  and  C9_9 
ROOT
HETATM    1  C1  UNL     1     -22.971  16.987  11.957  1.00 20.00     0.002 C 
HETATM    2  C2  UNL     1     -22.722  17.972  10.810  1.00 20.00     0.006 C 
HETATM    3  C3  UNL     1     -24.401  16.477  11.779  1.00 20.00     0.020 C 
HETATM    4  C4  UNL     1     -23.990  17.932   9.951  1.00 20.00     0.004 C 
HETATM    5  C5  UNL     1     -25.098  17.543  10.938  1.00 20.00     0.086 C 
HETATM    6 CL10 UNL     1     -25.623  18.895  11.989  1.00 20.00    -0.125 Cl
ENDROOT
BRANCH   4   7
HETATM    7  C7  UNL     1     -24.225  19.183   9.164  1.00 20.00     0.006 C 
BRANCH   7   8
HETATM    8  C9  UNL     1     -24.572  18.871   7.709  1.00 20.00     0.000 C 
BRANCH   8   9
HETATM    9  C8  UNL     1     -26.041  19.171   7.412  1.00 20.00    -0.005 C 
HETATM   10  C6  UNL     1     -26.431  18.717   6.014  1.00 20.00     0.005 C 
ENDBRANCH   8   9
ENDBRANCH   7   8
ENDBRANCH   4   7
TORSDOF 3
ENDMDL
MODEL 9
REMARK VINA RESULT:      -4.0     11.136     12.127
REMARK  3 active torsions:
REMARK  status: ('A' for Active; 'I' for Inactive)
REMARK    1  A    between atoms: C4_4  and  C7_7 
REMARK    2  A    between atoms: C7_7  and  C9_9 
REMARK    3  A    between atoms: C8_8  and  C9_9 
ROOT
HETATM    1  C1  UNL     1     -36.307  14.020  -4.910  1.00 20.00     0.002 C 
HETATM    2  C2  UNL     1     -35.361  14.344  -3.749  1.00 20.00     0.006 C 
HETATM    3  C3  UNL     1     -35.615  14.523  -6.178  1.00 20.00     0.020 C 
HETATM    4  C4  UNL     1     -34.109  14.946  -4.395  1.00 20.00     0.004 C 
HETATM    5  C5  UNL     1     -34.625  15.579  -5.693  1.00 20.00     0.086 C 
HETATM    6 CL10 UNL     1     -35.475  17.135  -5.440  1.00 20.00    -0.125 Cl
ENDROOT
BRANCH   4   7
HETATM    7  C7  UNL     1     -33.339  15.853  -3.487  1.00 20.00     0.006 C 
BRANCH   7   8
HETATM    8  C9  UNL     1     -34.151  16.223  -2.246  1.00 20.00     0.000 C 
BRANCH   8   9
HETATM    9  C8  UNL     1     -33.622  17.501  -1.596  1.00 20.00    -0.005 C 
HETATM   10  C6  UNL     1     -32.631  18.217  -2.501  1.00 20.00     0.005 C 
ENDBRANCH   8   9
ENDBRANCH   7   8
ENDBRANCH   4   7
TORSDOF 3
ENDMDL
