MODEL 1
REMARK VINA RESULT:      -5.1      0.000      0.000
REMARK  0 active torsions:
REMARK  status: ('A' for Active; 'I' for Inactive)
ROOT
HETATM    1  C1  UNL     1     -35.223  16.768  -1.319  1.00 20.00     0.019 A 
HETATM    2  C2  UNL     1     -34.732  16.021  -2.394  1.00 20.00    -0.033 A 
HETATM    3  C3  UNL     1     -34.419  17.719  -0.704  1.00 20.00    -0.021 A 
HETATM    4  C4  UNL     1     -33.430  16.285  -2.828  1.00 20.00     0.042 A 
HETATM    5  C5  UNL     1     -33.140  17.898  -1.196  1.00 20.00     0.132 A 
HETATM    6  C6  UNL     1     -35.621  15.022  -3.083  1.00 20.00     0.040 C 
HETATM    7  C7  UNL     1     -32.813  15.505  -3.959  1.00 20.00     0.060 C 
HETATM    8  C8  UNL     1     -34.854  14.054  -3.983  1.00 20.00     0.005 C 
HETATM    9  C9  UNL     1     -33.846  14.807  -4.843  1.00 20.00     0.006 C 
HETATM   10  C10 UNL     1     -34.955  18.504   0.443  1.00 20.00     0.051 C 
HETATM   11  N11 UNL     1     -32.626  17.206  -2.237  1.00 20.00    -0.240 NA
HETATM   12 CL12 UNL     1     -32.046  19.041  -0.522  1.00 20.00    -0.062 Cl
ENDROOT
TORSDOF 0
ENDMDL
MODEL 2
REMARK VINA RESULT:      -5.0      2.420      4.807
REMARK  0 active torsions:
REMARK  status: ('A' for Active; 'I' for Inactive)
ROOT
HETATM    1  C1  UNL     1     -32.959  16.326  -3.251  1.00 20.00     0.019 A 
HETATM    2  C2  UNL     1     -33.311  17.033  -2.097  1.00 20.00    -0.033 A 
HETATM    3  C3  UNL     1     -33.871  15.465  -3.848  1.00 20.00    -0.021 A 
HETATM    4  C4  UNL     1     -34.604  16.855  -1.595  1.00 20.00     0.042 A 
HETATM    5  C5  UNL     1     -35.120  15.345  -3.269  1.00 20.00     0.132 A 
HETATM    6  C6  UNL     1     -32.335  17.996  -1.479  1.00 20.00     0.040 C 
HETATM    7  C7  UNL     1     -35.054  17.556  -0.340  1.00 20.00     0.060 C 
HETATM    8  C8  UNL     1     -32.718  18.413  -0.060  1.00 20.00     0.005 C 
HETATM    9  C9  UNL     1     -34.198  18.771   0.012  1.00 20.00     0.006 C 
HETATM   10  C10 UNL     1     -33.479  14.715  -5.074  1.00 20.00     0.051 C 
HETATM   11  N11 UNL     1     -35.507  16.014  -2.160  1.00 20.00    -0.240 NA
HETATM   12 CL12 UNL     1     -36.337  14.312  -3.910  1.00 20.00    -0.062 Cl
ENDROOT
TORSDOF 0
ENDMDL
MODEL 3
REMARK VINA RESULT:      -5.0      2.138      4.227
REMARK  0 active torsions:
REMARK  status: ('A' for Active; 'I' for Inactive)
ROOT
HETATM    1  C1  UNL     1     -35.411  15.911  -2.187  1.00 20.00     0.019 A 
HETATM    2  C2  UNL     1     -34.517  16.823  -1.620  1.00 20.00    -0.033 A 
HETATM    3  C3  UNL     1     -35.082  15.251  -3.364  1.00 20.00    -0.021 A 
HETATM    4  C4  UNL     1     -33.291  17.019  -2.264  1.00 20.00     0.042 A 
HETATM    5  C5  UNL     1     -33.853  15.522  -3.935  1.00 20.00     0.132 A 
HETATM    6  C6  UNL     1     -34.860  17.503  -0.322  1.00 20.00     0.040 C 
HETATM    7  C7  UNL     1     -32.283  18.005  -1.735  1.00 20.00     0.060 C 
HETATM    8  C8  UNL     1     -33.967  18.706  -0.020  1.00 20.00     0.005 C 
HETATM    9  C9  UNL     1     -32.503  18.363  -0.266  1.00 20.00     0.006 C 
HETATM   10  C10 UNL     1     -36.049  14.286  -3.961  1.00 20.00     0.051 C 
HETATM   11  N11 UNL     1     -32.954  16.388  -3.418  1.00 20.00    -0.240 NA
HETATM   12 CL12 UNL     1     -33.329  14.773  -5.392  1.00 20.00    -0.062 Cl
ENDROOT
TORSDOF 0
ENDMDL
MODEL 4
REMARK VINA RESULT:      -5.0      1.469      2.342
REMARK  0 active torsions:
REMARK  status: ('A' for Active; 'I' for Inactive)
ROOT
HETATM    1  C1  UNL     1     -32.754  17.244  -2.106  1.00 20.00     0.019 A 
HETATM    2  C2  UNL     1     -33.486  16.290  -2.820  1.00 20.00    -0.033 A 
HETATM    3  C3  UNL     1     -33.330  17.900  -1.025  1.00 20.00    -0.021 A 
HETATM    4  C4  UNL     1     -34.789  16.016  -2.392  1.00 20.00     0.042 A 
HETATM    5  C5  UNL     1     -34.629  17.572  -0.688  1.00 20.00     0.132 A 
HETATM    6  C6  UNL     1     -32.844  15.551  -3.962  1.00 20.00     0.040 C 
HETATM    7  C7  UNL     1     -35.656  15.025  -3.123  1.00 20.00     0.060 C 
HETATM    8  C8  UNL     1     -33.853  14.820  -4.848  1.00 20.00     0.005 C 
HETATM    9  C9  UNL     1     -34.860  14.057  -3.996  1.00 20.00     0.006 C 
HETATM   10  C10 UNL     1     -32.539  18.918  -0.277  1.00 20.00     0.051 C 
HETATM   11  N11 UNL     1     -35.371  16.652  -1.343  1.00 20.00    -0.240 NA
HETATM   12 CL12 UNL     1     -35.454  18.313   0.626  1.00 20.00    -0.062 Cl
ENDROOT
TORSDOF 0
ENDMDL
MODEL 5
REMARK VINA RESULT:      -4.9     13.127     14.854
REMARK  0 active torsions:
REMARK  status: ('A' for Active; 'I' for Inactive)
ROOT
HETATM    1  C1  UNL     1     -25.796  18.685   8.569  1.00 20.00     0.019 A 
HETATM    2  C2  UNL     1     -24.557  18.405   9.153  1.00 20.00    -0.033 A 
HETATM    3  C3  UNL     1     -25.881  18.960   7.210  1.00 20.00    -0.021 A 
HETATM    4  C4  UNL     1     -23.434  18.391   8.320  1.00 20.00     0.042 A 
HETATM    5  C5  UNL     1     -24.712  18.938   6.472  1.00 20.00     0.132 A 
HETATM    6  C6  UNL     1     -24.476  18.065  10.616  1.00 20.00     0.040 C 
HETATM    7  C7  UNL     1     -22.058  18.127   8.874  1.00 20.00     0.060 C 
HETATM    8  C8  UNL     1     -23.053  18.132  11.171  1.00 20.00     0.005 C 
HETATM    9  C9  UNL     1     -22.079  17.430  10.233  1.00 20.00     0.006 C 
HETATM   10  C10 UNL     1     -27.208  19.263   6.603  1.00 20.00     0.051 C 
HETATM   11  N11 UNL     1     -23.495  18.663   6.991  1.00 20.00    -0.240 NA
HETATM   12 CL12 UNL     1     -24.683  19.263   4.783  1.00 20.00    -0.062 Cl
ENDROOT
TORSDOF 0
ENDMDL
MODEL 6
REMARK VINA RESULT:      -4.8     13.958     15.758
REMARK  0 active torsions:
REMARK  status: ('A' for Active; 'I' for Inactive)
ROOT
HETATM    1  C1  UNL     1     -25.058  19.242   8.385  1.00 20.00     0.019 A 
HETATM    2  C2  UNL     1     -25.113  18.842   9.724  1.00 20.00    -0.033 A 
HETATM    3  C3  UNL     1     -24.011  18.823   7.574  1.00 20.00    -0.021 A 
HETATM    4  C4  UNL     1     -24.101  17.999  10.193  1.00 20.00     0.042 A 
HETATM    5  C5  UNL     1     -23.049  18.003   8.133  1.00 20.00     0.132 A 
HETATM    6  C6  UNL     1     -26.271  19.263  10.587  1.00 20.00     0.040 C 
HETATM    7  C7  UNL     1     -24.069  17.546  11.629  1.00 20.00     0.060 C 
HETATM    8  C8  UNL     1     -26.017  19.052  12.079  1.00 20.00     0.005 C 
HETATM    9  C9  UNL     1     -25.419  17.673  12.331  1.00 20.00     0.006 C 
HETATM   10  C10 UNL     1     -23.963  19.262   6.151  1.00 20.00     0.051 C 
HETATM   11  N11 UNL     1     -23.066  17.584   9.417  1.00 20.00    -0.240 NA
HETATM   12 CL12 UNL     1     -21.703  17.418   7.235  1.00 20.00    -0.062 Cl
ENDROOT
TORSDOF 0
ENDMDL
MODEL 7
REMARK VINA RESULT:      -4.8     11.035     12.488
REMARK  0 active torsions:
REMARK  status: ('A' for Active; 'I' for Inactive)
ROOT
HETATM    1  C1  UNL     1     -26.647  19.130   7.464  1.00 20.00     0.019 A 
HETATM    2  C2  UNL     1     -26.358  19.036   6.099  1.00 20.00    -0.033 A 
HETATM    3  C3  UNL     1     -25.617  19.146   8.396  1.00 20.00    -0.021 A 
HETATM    4  C4  UNL     1     -25.013  18.985   5.721  1.00 20.00     0.042 A 
HETATM    5  C5  UNL     1     -24.319  19.076   7.925  1.00 20.00     0.132 A 
HETATM    6  C6  UNL     1     -27.475  19.062   5.092  1.00 20.00     0.040 C 
HETATM    7  C7  UNL     1     -24.616  18.853   4.274  1.00 20.00     0.060 C 
HETATM    8  C8  UNL     1     -27.040  18.603   3.700  1.00 20.00     0.005 C 
HETATM    9  C9  UNL     1     -25.724  19.262   3.306  1.00 20.00     0.006 C 
HETATM   10  C10 UNL     1     -25.940  19.241   9.847  1.00 20.00     0.051 C 
HETATM   11  N11 UNL     1     -23.993  18.993   6.617  1.00 20.00    -0.240 NA
HETATM   12 CL12 UNL     1     -22.957  19.085   8.976  1.00 20.00    -0.062 Cl
ENDROOT
TORSDOF 0
ENDMDL
MODEL 8
REMARK VINA RESULT:      -4.5      1.330      1.930
REMARK  0 active torsions:
REMARK  status: ('A' for Active; 'I' for Inactive)
ROOT
HETATM    1  C1  UNL     1     -34.431  17.879   0.253  1.00 20.00     0.019 A 
HETATM    2  C2  UNL     1     -34.333  17.297  -1.014  1.00 20.00    -0.033 A 
HETATM    3  C3  UNL     1     -33.328  18.501   0.824  1.00 20.00    -0.021 A 
HETATM    4  C4  UNL     1     -33.106  17.388  -1.678  1.00 20.00     0.042 A 
HETATM    5  C5  UNL     1     -32.153  18.526   0.096  1.00 20.00     0.132 A 
HETATM    6  C6  UNL     1     -35.542  16.663  -1.646  1.00 20.00     0.040 C 
HETATM    7  C7  UNL     1     -32.906  16.762  -3.033  1.00 20.00     0.060 C 
HETATM    8  C8  UNL     1     -35.200  15.778  -2.844  1.00 20.00     0.005 C 
HETATM    9  C9  UNL     1     -34.216  16.485  -3.768  1.00 20.00     0.006 C 
HETATM   10  C10 UNL     1     -33.447  19.112   2.178  1.00 20.00     0.051 C 
HETATM   11  N11 UNL     1     -32.014  17.986  -1.134  1.00 20.00    -0.240 NA
HETATM   12 CL12 UNL     1     -30.718  19.263   0.691  1.00 20.00    -0.062 Cl
ENDROOT
TORSDOF 0
ENDMDL
MODEL 9
REMARK VINA RESULT:      -4.4     13.973     15.838
REMARK  0 active torsions:
REMARK  status: ('A' for Active; 'I' for Inactive)
ROOT
HETATM    1  C1  UNL     1     -23.290  18.702   8.032  1.00 20.00     0.019 A 
HETATM    2  C2  UNL     1     -23.252  18.419   9.400  1.00 20.00    -0.033 A 
HETATM    3  C3  UNL     1     -24.502  18.967   7.407  1.00 20.00    -0.021 A 
HETATM    4  C4  UNL     1     -24.462  18.436  10.102  1.00 20.00     0.042 A 
HETATM    5  C5  UNL     1     -25.646  18.946   8.182  1.00 20.00     0.132 A 
HETATM    6  C6  UNL     1     -21.933  18.175  10.081  1.00 20.00     0.040 C 
HETATM    7  C7  UNL     1     -24.514  18.112  11.572  1.00 20.00     0.060 C 
HETATM    8  C8  UNL     1     -22.078  17.542  11.465  1.00 20.00     0.005 C 
HETATM    9  C9  UNL     1     -23.162  18.252  12.268  1.00 20.00     0.006 C 
HETATM   10  C10 UNL     1     -24.526  19.262   5.946  1.00 20.00     0.051 C 
HETATM   11  N11 UNL     1     -25.657  18.686   9.507  1.00 20.00    -0.240 NA
HETATM   12 CL12 UNL     1     -27.207  19.255   7.527  1.00 20.00    -0.062 Cl
ENDROOT
TORSDOF 0
ENDMDL
