MODEL 1
REMARK VINA RESULT:      -4.4      0.000      0.000
REMARK  4 active torsions:
REMARK  status: ('A' for Active; 'I' for Inactive)
REMARK    1  A    between atoms: C2_2  and  C6_6 
REMARK    2  A    between atoms: C6_6  and  C7_7 
REMARK    3  A    between atoms: C7_7  and  C8_8 
REMARK    4  A    between atoms: C8_8  and  O9_9 
ROOT
HETATM    1  C4  UNL     1     -33.285   4.730   2.073  1.00 20.00     0.012 C 
HETATM    2  C7  UNL     1     -32.932   5.791   3.127  1.00 20.00     0.014 C 
ENDROOT
BRANCH   2   3
HETATM    3  C6  UNL     1     -34.250   6.309   3.758  1.00 20.00     0.039 C 
BRANCH   3   4
HETATM    4  C2  UNL     1     -34.386   6.063   5.243  1.00 20.00    -0.093 C 
HETATM    5  C1  UNL     1     -34.967   4.951   5.720  1.00 20.00     0.014 C 
HETATM    6  C3  UNL     1     -33.809   7.100   6.164  1.00 20.00     0.042 C 
ENDBRANCH   3   4
ENDBRANCH   2   3
BRANCH   2   7
HETATM    7  C8  UNL     1     -32.071   6.936   2.543  1.00 20.00     0.118 C 
HETATM    8  C5  UNL     1     -32.837   7.837   1.579  1.00 20.00     0.040 C 
BRANCH   7   9
HETATM    9  O9  UNL     1     -31.545   7.736   3.600  1.00 20.00    -0.396 OA
HETATM   10  H25 UNL     1     -30.840   7.216   4.015  1.00 20.00     0.210 HD
ENDBRANCH   7   9
ENDBRANCH   2   7
TORSDOF 4
ENDMDL
MODEL 2
REMARK VINA RESULT:      -4.1     15.237     16.040
REMARK  4 active torsions:
REMARK  status: ('A' for Active; 'I' for Inactive)
REMARK    1  A    between atoms: C2_2  and  C6_6 
REMARK    2  A    between atoms: C6_6  and  C7_7 
REMARK    3  A    between atoms: C7_7  and  C8_8 
REMARK    4  A    between atoms: C8_8  and  O9_9 
ROOT
HETATM    1  C4  UNL     1     -24.691  19.068   8.704  1.00 20.00     0.012 C 
HETATM    2  C7  UNL     1     -24.072  17.810   9.331  1.00 20.00     0.014 C 
ENDROOT
BRANCH   2   3
HETATM    3  C6  UNL     1     -24.041  17.998  10.870  1.00 20.00     0.039 C 
BRANCH   3   4
HETATM    4  C2  UNL     1     -24.938  17.060  11.645  1.00 20.00    -0.093 C 
HETATM    5  C1  UNL     1     -24.665  15.750  11.746  1.00 20.00     0.014 C 
HETATM    6  C3  UNL     1     -26.129  17.665  12.331  1.00 20.00     0.042 C 
ENDBRANCH   3   4
ENDBRANCH   2   3
BRANCH   2   7
HETATM    7  C8  UNL     1     -22.674  17.490   8.751  1.00 20.00     0.118 C 
HETATM    8  C5  UNL     1     -21.568  18.374   9.317  1.00 20.00     0.040 C 
BRANCH   7   9
HETATM    9  O9  UNL     1     -22.346  16.125   9.000  1.00 20.00    -0.396 OA
HETATM   10  H25 UNL     1     -21.379  16.080   9.058  1.00 20.00     0.210 HD
ENDBRANCH   7   9
ENDBRANCH   2   7
TORSDOF 4
ENDMDL
MODEL 3
REMARK VINA RESULT:      -4.0     11.611     12.343
REMARK  4 active torsions:
REMARK  status: ('A' for Active; 'I' for Inactive)
REMARK    1  A    between atoms: C2_2  and  C6_6 
REMARK    2  A    between atoms: C6_6  and  C7_7 
REMARK    3  A    between atoms: C7_7  and  C8_8 
REMARK    4  A    between atoms: C8_8  and  O9_9 
ROOT
HETATM    1  C4  UNL     1     -36.218  13.682  -4.544  1.00 20.00     0.012 C 
HETATM    2  C7  UNL     1     -35.002  14.620  -4.541  1.00 20.00     0.014 C 
ENDROOT
BRANCH   2   3
HETATM    3  C6  UNL     1     -35.393  15.924  -3.801  1.00 20.00     0.039 C 
BRANCH   3   4
HETATM    4  C2  UNL     1     -34.474  16.315  -2.666  1.00 20.00    -0.093 C 
HETATM    5  C1  UNL     1     -33.154  16.470  -2.853  1.00 20.00     0.014 C 
HETATM    6  C3  UNL     1     -35.107  16.558  -1.326  1.00 20.00     0.042 C 
ENDBRANCH   3   4
ENDBRANCH   2   3
BRANCH   2   7
HETATM    7  C8  UNL     1     -34.465  14.892  -5.966  1.00 20.00     0.118 C 
HETATM    8  C5  UNL     1     -34.622  16.345  -6.404  1.00 20.00     0.040 C 
BRANCH   7   9
HETATM    9  O9  UNL     1     -33.087  14.535  -6.043  1.00 20.00    -0.396 OA
HETATM   10  H25 UNL     1     -32.657  14.924  -5.266  1.00 20.00     0.210 HD
ENDBRANCH   7   9
ENDBRANCH   2   7
TORSDOF 4
ENDMDL
MODEL 4
REMARK VINA RESULT:      -4.0     11.717     12.393
REMARK  4 active torsions:
REMARK  status: ('A' for Active; 'I' for Inactive)
REMARK    1  A    between atoms: C2_2  and  C6_6 
REMARK    2  A    between atoms: C6_6  and  C7_7 
REMARK    3  A    between atoms: C7_7  and  C8_8 
REMARK    4  A    between atoms: C8_8  and  O9_9 
ROOT
HETATM    1  C4  UNL     1     -34.085  15.453  -6.231  1.00 20.00     0.012 C 
HETATM    2  C7  UNL     1     -34.851  15.252  -4.915  1.00 20.00     0.014 C 
ENDROOT
BRANCH   2   3
HETATM    3  C6  UNL     1     -33.820  15.099  -3.768  1.00 20.00     0.039 C 
BRANCH   3   4
HETATM    4  C2  UNL     1     -33.891  16.165  -2.699  1.00 20.00    -0.093 C 
HETATM    5  C1  UNL     1     -32.920  17.080  -2.556  1.00 20.00     0.014 C 
HETATM    6  C3  UNL     1     -35.114  16.180  -1.828  1.00 20.00     0.042 C 
ENDBRANCH   3   4
ENDBRANCH   2   3
BRANCH   2   7
HETATM    7  C8  UNL     1     -35.835  14.060  -4.984  1.00 20.00     0.118 C 
HETATM    8  C5  UNL     1     -37.203  14.370  -4.384  1.00 20.00     0.040 C 
BRANCH   7   9
HETATM    9  O9  UNL     1     -36.009  13.650  -6.338  1.00 20.00    -0.396 OA
HETATM   10  H25 UNL     1     -35.174  13.241  -6.612  1.00 20.00     0.210 HD
ENDBRANCH   7   9
ENDBRANCH   2   7
TORSDOF 4
ENDMDL
MODEL 5
REMARK VINA RESULT:      -4.0     15.190     16.515
REMARK  4 active torsions:
REMARK  status: ('A' for Active; 'I' for Inactive)
REMARK    1  A    between atoms: C2_2  and  C6_6 
REMARK    2  A    between atoms: C6_6  and  C7_7 
REMARK    3  A    between atoms: C7_7  and  C8_8 
REMARK    4  A    between atoms: C8_8  and  O9_9 
ROOT
HETATM    1  C4  UNL     1     -24.408  15.631  11.587  1.00 20.00     0.012 C 
HETATM    2  C7  UNL     1     -24.798  17.068  11.211  1.00 20.00     0.014 C 
ENDROOT
BRANCH   2   3
HETATM    3  C6  UNL     1     -23.522  17.947  11.256  1.00 20.00     0.039 C 
BRANCH   3   4
HETATM    4  C2  UNL     1     -22.938  18.295   9.906  1.00 20.00    -0.093 C 
HETATM    5  C1  UNL     1     -21.698  17.915   9.559  1.00 20.00     0.014 C 
HETATM    6  C3  UNL     1     -23.818  19.052   8.954  1.00 20.00     0.042 C 
ENDBRANCH   3   4
ENDBRANCH   2   3
BRANCH   2   7
HETATM    7  C8  UNL     1     -25.927  17.626  12.109  1.00 20.00     0.118 C 
HETATM    8  C5  UNL     1     -26.290  19.074  11.795  1.00 20.00     0.040 C 
BRANCH   7   9
HETATM    9  O9  UNL     1     -27.095  16.819  11.978  1.00 20.00    -0.396 OA
HETATM   10  H25 UNL     1     -27.794  17.261  12.484  1.00 20.00     0.210 HD
ENDBRANCH   7   9
ENDBRANCH   2   7
TORSDOF 4
ENDMDL
MODEL 6
REMARK VINA RESULT:      -4.0     11.370     12.137
REMARK  4 active torsions:
REMARK  status: ('A' for Active; 'I' for Inactive)
REMARK    1  A    between atoms: C2_2  and  C6_6 
REMARK    2  A    between atoms: C6_6  and  C7_7 
REMARK    3  A    between atoms: C7_7  and  C8_8 
REMARK    4  A    between atoms: C8_8  and  O9_9 
ROOT
HETATM    1  C4  UNL     1     -36.332  16.523  -4.448  1.00 20.00     0.012 C 
HETATM    2  C7  UNL     1     -36.153  15.111  -3.869  1.00 20.00     0.014 C 
ENDROOT
BRANCH   2   3
HETATM    3  C6  UNL     1     -34.741  15.018  -3.238  1.00 20.00     0.039 C 
BRANCH   3   4
HETATM    4  C2  UNL     1     -34.364  16.177  -2.342  1.00 20.00    -0.093 C 
HETATM    5  C1  UNL     1     -35.125  16.528  -1.294  1.00 20.00     0.014 C 
HETATM    6  C3  UNL     1     -33.082  16.893  -2.652  1.00 20.00     0.042 C 
ENDBRANCH   3   4
ENDBRANCH   2   3
BRANCH   2   7
HETATM    7  C8  UNL     1     -36.399  14.007  -4.924  1.00 20.00     0.118 C 
HETATM    8  C5  UNL     1     -35.810  14.337  -6.292  1.00 20.00     0.040 C 
BRANCH   7   9
HETATM    9  O9  UNL     1     -35.848  12.772  -4.472  1.00 20.00    -0.396 OA
HETATM   10  H25 UNL     1     -36.060  12.704  -3.528  1.00 20.00     0.210 HD
ENDBRANCH   7   9
ENDBRANCH   2   7
TORSDOF 4
ENDMDL
MODEL 7
REMARK VINA RESULT:      -4.0      1.247      3.945
REMARK  4 active torsions:
REMARK  status: ('A' for Active; 'I' for Inactive)
REMARK    1  A    between atoms: C2_2  and  C6_6 
REMARK    2  A    between atoms: C6_6  and  C7_7 
REMARK    3  A    between atoms: C7_7  and  C8_8 
REMARK    4  A    between atoms: C8_8  and  O9_9 
ROOT
HETATM    1  C4  UNL     1     -33.117   4.844   2.582  1.00 20.00     0.012 C 
HETATM    2  C7  UNL     1     -33.604   6.276   2.848  1.00 20.00     0.014 C 
ENDROOT
BRANCH   2   3
HETATM    3  C6  UNL     1     -32.418   7.246   2.613  1.00 20.00     0.039 C 
BRANCH   3   4
HETATM    4  C2  UNL     1     -32.482   8.032   1.323  1.00 20.00    -0.093 C 
HETATM    5  C1  UNL     1     -31.909   7.580   0.197  1.00 20.00     0.014 C 
HETATM    6  C3  UNL     1     -33.249   9.323   1.345  1.00 20.00     0.042 C 
ENDBRANCH   3   4
ENDBRANCH   2   3
BRANCH   2   7
HETATM    7  C8  UNL     1     -34.221   6.435   4.258  1.00 20.00     0.118 C 
HETATM    8  C5  UNL     1     -34.782   5.133   4.822  1.00 20.00     0.040 C 
BRANCH   7   9
HETATM    9  O9  UNL     1     -33.244   6.945   5.162  1.00 20.00    -0.396 OA
HETATM   10  H25 UNL     1     -32.454   6.392   5.056  1.00 20.00     0.210 HD
ENDBRANCH   7   9
ENDBRANCH   2   7
TORSDOF 4
ENDMDL
MODEL 8
REMARK VINA RESULT:      -4.0     11.378     12.164
REMARK  4 active torsions:
REMARK  status: ('A' for Active; 'I' for Inactive)
REMARK    1  A    between atoms: C2_2  and  C6_6 
REMARK    2  A    between atoms: C6_6  and  C7_7 
REMARK    3  A    between atoms: C7_7  and  C8_8 
REMARK    4  A    between atoms: C8_8  and  O9_9 
ROOT
HETATM    1  C4  UNL     1     -36.225  16.536  -4.497  1.00 20.00     0.012 C 
HETATM    2  C7  UNL     1     -36.081  15.129  -3.898  1.00 20.00     0.014 C 
ENDROOT
BRANCH   2   3
HETATM    3  C6  UNL     1     -34.659  14.998  -3.296  1.00 20.00     0.039 C 
BRANCH   3   4
HETATM    4  C2  UNL     1     -34.228  16.153  -2.420  1.00 20.00    -0.093 C 
HETATM    5  C1  UNL     1     -33.097  16.833  -2.662  1.00 20.00     0.014 C 
HETATM    6  C3  UNL     1     -35.139  16.531  -1.288  1.00 20.00     0.042 C 
ENDBRANCH   3   4
ENDBRANCH   2   3
BRANCH   2   7
HETATM    7  C8  UNL     1     -36.386  14.016  -4.928  1.00 20.00     0.118 C 
HETATM    8  C5  UNL     1     -35.833  14.312  -6.319  1.00 20.00     0.040 C 
BRANCH   7   9
HETATM    9  O9  UNL     1     -35.851  12.774  -4.475  1.00 20.00    -0.396 OA
HETATM   10  H25 UNL     1     -36.102  12.109  -5.135  1.00 20.00     0.210 HD
ENDBRANCH   7   9
ENDBRANCH   2   7
TORSDOF 4
ENDMDL
MODEL 9
REMARK VINA RESULT:      -3.9     11.739     12.892
REMARK  4 active torsions:
REMARK  status: ('A' for Active; 'I' for Inactive)
REMARK    1  A    between atoms: C2_2  and  C6_6 
REMARK    2  A    between atoms: C6_6  and  C7_7 
REMARK    3  A    between atoms: C7_7  and  C8_8 
REMARK    4  A    between atoms: C8_8  and  O9_9 
ROOT
HETATM    1  C4  UNL     1     -34.415  17.525  -5.318  1.00 20.00     0.012 C 
HETATM    2  C7  UNL     1     -34.492  16.045  -4.914  1.00 20.00     0.014 C 
ENDROOT
BRANCH   2   3
HETATM    3  C6  UNL     1     -33.503  15.807  -3.744  1.00 20.00     0.039 C 
BRANCH   3   4
HETATM    4  C2  UNL     1     -33.864  16.503  -2.451  1.00 20.00    -0.093 C 
HETATM    5  C1  UNL     1     -35.003  16.225  -1.799  1.00 20.00     0.014 C 
HETATM    6  C3  UNL     1     -32.873  17.491  -1.907  1.00 20.00     0.042 C 
ENDBRANCH   3   4
ENDBRANCH   2   3
BRANCH   2   7
HETATM    7  C8  UNL     1     -34.232  15.094  -6.106  1.00 20.00     0.118 C 
HETATM    8  C5  UNL     1     -34.235  15.804  -7.456  1.00 20.00     0.040 C 
BRANCH   7   9
HETATM    9  O9  UNL     1     -32.979  14.435  -5.936  1.00 20.00    -0.396 OA
HETATM   10  H25 UNL     1     -32.293  15.092  -6.127  1.00 20.00     0.210 HD
ENDBRANCH   7   9
ENDBRANCH   2   7
TORSDOF 4
ENDMDL
