MODEL 1
REMARK VINA RESULT:      -4.5      0.000      0.000
REMARK  3 active torsions:
REMARK  status: ('A' for Active; 'I' for Inactive)
REMARK    1  A    between atoms: C4_4  and  C10_10 
REMARK    2  A    between atoms: C5_5  and  C11_11 
REMARK    3  A    between atoms: C6_6  and  C12_12 
ROOT
HETATM    1  C7  UNL     1     -25.627  19.262   9.663  1.00 20.00     0.009 C 
HETATM    2  C8  UNL     1     -24.399  18.605   9.032  1.00 20.00     0.010 C 
HETATM    3  C9  UNL     1     -24.893  18.429  11.941  1.00 20.00     0.017 C 
HETATM    4  C10 UNL     1     -26.063  18.551  10.951  1.00 20.00     0.008 C 
HETATM    5  C11 UNL     1     -23.241  18.505  10.037  1.00 20.00     0.015 C 
HETATM    6  C12 UNL     1     -23.657  17.745  11.321  1.00 20.00     0.015 C 
ENDROOT
BRANCH   4   7
HETATM    7  C4  UNL     1     -27.215  19.263  11.590  1.00 20.00    -0.032 C 
HETATM    8  C1  UNL     1     -28.493  18.891  11.454  1.00 20.00     0.007 C 
ENDBRANCH   4   7
BRANCH   6   9
HETATM    9  C6  UNL     1     -23.922  16.278  11.109  1.00 20.00    -0.031 C 
HETATM   10  C3  UNL     1     -24.609  15.510  11.962  1.00 20.00     0.007 C 
ENDBRANCH   6   9
BRANCH   5  11
HETATM   11  C5  UNL     1     -22.010  17.935   9.395  1.00 20.00    -0.031 C 
HETATM   12  C2  UNL     1     -21.971  17.453   8.148  1.00 20.00     0.007 C 
ENDBRANCH   5  11
TORSDOF 3
ENDMDL
MODEL 2
REMARK VINA RESULT:      -4.5     14.856     16.213
REMARK  3 active torsions:
REMARK  status: ('A' for Active; 'I' for Inactive)
REMARK    1  A    between atoms: C4_4  and  C10_10 
REMARK    2  A    between atoms: C5_5  and  C11_11 
REMARK    3  A    between atoms: C6_6  and  C12_12 
ROOT
HETATM    1  C7  UNL     1     -32.774  17.757  -1.405  1.00 20.00     0.009 C 
HETATM    2  C8  UNL     1     -32.991  17.050  -2.744  1.00 20.00     0.010 C 
HETATM    3  C9  UNL     1     -35.108  17.084  -0.681  1.00 20.00     0.017 C 
HETATM    4  C10 UNL     1     -34.095  18.236  -0.787  1.00 20.00     0.008 C 
HETATM    5  C11 UNL     1     -33.999  15.897  -2.610  1.00 20.00     0.015 C 
HETATM    6  C12 UNL     1     -35.352  16.380  -2.031  1.00 20.00     0.015 C 
ENDROOT
BRANCH   4   7
HETATM    7  C4  UNL     1     -33.861  18.851   0.559  1.00 20.00    -0.032 C 
HETATM    8  C1  UNL     1     -33.902  18.170   1.710  1.00 20.00     0.007 C 
ENDBRANCH   4   7
BRANCH   6   9
HETATM    9  C6  UNL     1     -36.131  17.277  -2.956  1.00 20.00    -0.031 C 
HETATM   10  C3  UNL     1     -37.378  17.024  -3.370  1.00 20.00     0.007 C 
ENDBRANCH   6   9
BRANCH   5  11
HETATM   11  C5  UNL     1     -34.150  15.152  -3.903  1.00 20.00    -0.031 C 
HETATM   12  C2  UNL     1     -34.826  14.005  -4.032  1.00 20.00     0.007 C 
ENDBRANCH   5  11
TORSDOF 3
ENDMDL
MODEL 3
REMARK VINA RESULT:      -4.4     15.598     16.909
REMARK  3 active torsions:
REMARK  status: ('A' for Active; 'I' for Inactive)
REMARK    1  A    between atoms: C4_4  and  C10_10 
REMARK    2  A    between atoms: C5_5  and  C11_11 
REMARK    3  A    between atoms: C6_6  and  C12_12 
ROOT
HETATM    1  C7  UNL     1     -33.753  15.290  -3.862  1.00 20.00     0.009 C 
HETATM    2  C8  UNL     1     -33.006  16.283  -2.970  1.00 20.00     0.010 C 
HETATM    3  C9  UNL     1     -35.958  16.287  -3.109  1.00 20.00     0.017 C 
HETATM    4  C10 UNL     1     -35.162  14.990  -3.333  1.00 20.00     0.008 C 
HETATM    5  C11 UNL     1     -33.816  17.574  -2.770  1.00 20.00     0.015 C 
HETATM    6  C12 UNL     1     -35.224  17.285  -2.192  1.00 20.00     0.015 C 
ENDROOT
BRANCH   4   7
HETATM    7  C4  UNL     1     -35.899  14.080  -4.267  1.00 20.00    -0.032 C 
HETATM    8  C1  UNL     1     -35.977  14.267  -5.589  1.00 20.00     0.007 C 
ENDBRANCH   4   7
BRANCH   6   9
HETATM    9  C6  UNL     1     -35.214  16.782  -0.772  1.00 20.00    -0.031 C 
HETATM   10  C3  UNL     1     -35.778  17.427   0.254  1.00 20.00     0.007 C 
ENDBRANCH   6   9
BRANCH   5  11
HETATM   11  C5  UNL     1     -33.049  18.580  -1.964  1.00 20.00    -0.031 C 
HETATM   12  C2  UNL     1     -31.935  18.298  -1.278  1.00 20.00     0.007 C 
ENDBRANCH   5  11
TORSDOF 3
ENDMDL
MODEL 4
REMARK VINA RESULT:      -4.4     16.072     17.596
REMARK  3 active torsions:
REMARK  status: ('A' for Active; 'I' for Inactive)
REMARK    1  A    between atoms: C4_4  and  C10_10 
REMARK    2  A    between atoms: C5_5  and  C11_11 
REMARK    3  A    between atoms: C6_6  and  C12_12 
ROOT
HETATM    1  C7  UNL     1     -35.738  15.572  -4.353  1.00 20.00     0.009 C 
HETATM    2  C8  UNL     1     -36.008  16.414  -3.106  1.00 20.00     0.010 C 
HETATM    3  C9  UNL     1     -33.268  15.537  -3.785  1.00 20.00     0.017 C 
HETATM    4  C10 UNL     1     -34.314  15.775  -4.888  1.00 20.00     0.008 C 
HETATM    5  C11 UNL     1     -34.957  16.151  -2.015  1.00 20.00     0.015 C 
HETATM    6  C12 UNL     1     -33.518  16.400  -2.532  1.00 20.00     0.015 C 
ENDROOT
BRANCH   4   7
HETATM    7  C4  UNL     1     -34.051  14.879  -6.059  1.00 20.00    -0.032 C 
HETATM    8  C1  UNL     1     -33.932  15.310  -7.319  1.00 20.00     0.007 C 
ENDBRANCH   4   7
BRANCH   6   9
HETATM    9  C6  UNL     1     -33.210  17.845  -2.821  1.00 20.00    -0.031 C 
HETATM   10  C3  UNL     1     -32.307  18.567  -2.149  1.00 20.00     0.007 C 
ENDBRANCH   6   9
BRANCH   5  11
HETATM   11  C5  UNL     1     -35.268  16.915  -0.762  1.00 20.00    -0.031 C 
HETATM   12  C2  UNL     1     -36.276  17.786  -0.647  1.00 20.00     0.007 C 
ENDBRANCH   5  11
TORSDOF 3
ENDMDL
MODEL 5
REMARK VINA RESULT:      -4.4     14.322     15.769
REMARK  3 active torsions:
REMARK  status: ('A' for Active; 'I' for Inactive)
REMARK    1  A    between atoms: C4_4  and  C10_10 
REMARK    2  A    between atoms: C5_5  and  C11_11 
REMARK    3  A    between atoms: C6_6  and  C12_12 
ROOT
HETATM    1  C7  UNL     1     -35.139  16.702  -1.112  1.00 20.00     0.009 C 
HETATM    2  C8  UNL     1     -34.514  17.938  -0.463  1.00 20.00     0.010 C 
HETATM    3  C9  UNL     1     -33.211  16.597  -2.753  1.00 20.00     0.017 C 
HETATM    4  C10 UNL     1     -34.739  16.562  -2.587  1.00 20.00     0.008 C 
HETATM    5  C11 UNL     1     -32.986  17.946  -0.634  1.00 20.00     0.015 C 
HETATM    6  C12 UNL     1     -32.573  17.852  -2.124  1.00 20.00     0.015 C 
ENDROOT
BRANCH   4   7
HETATM    7  C4  UNL     1     -35.298  15.302  -3.173  1.00 20.00    -0.032 C 
HETATM    8  C1  UNL     1     -34.574  14.409  -3.857  1.00 20.00     0.007 C 
ENDBRANCH   4   7
BRANCH   6   9
HETATM    9  C6  UNL     1     -32.914  19.076  -2.934  1.00 20.00    -0.031 C 
HETATM   10  C3  UNL     1     -32.655  19.205  -4.240  1.00 20.00     0.007 C 
ENDBRANCH   6   9
BRANCH   5  11
HETATM   11  C5  UNL     1     -32.365  19.114   0.072  1.00 20.00    -0.031 C 
HETATM   12  C2  UNL     1     -31.098  19.142   0.503  1.00 20.00     0.007 C 
ENDBRANCH   5  11
TORSDOF 3
ENDMDL
MODEL 6
REMARK VINA RESULT:      -4.3      1.092      4.834
REMARK  3 active torsions:
REMARK  status: ('A' for Active; 'I' for Inactive)
REMARK    1  A    between atoms: C4_4  and  C10_10 
REMARK    2  A    between atoms: C5_5  and  C11_11 
REMARK    3  A    between atoms: C6_6  and  C12_12 
ROOT
HETATM    1  C7  UNL     1     -23.678  16.542  10.632  1.00 20.00     0.009 C 
HETATM    2  C8  UNL     1     -25.047  16.953  11.177  1.00 20.00     0.010 C 
HETATM    3  C9  UNL     1     -23.463  18.796   9.493  1.00 20.00     0.017 C 
HETATM    4  C10 UNL     1     -23.336  17.273   9.327  1.00 20.00     0.008 C 
HETATM    5  C11 UNL     1     -25.146  18.478  11.345  1.00 20.00     0.015 C 
HETATM    6  C12 UNL     1     -24.849  19.223  10.019  1.00 20.00     0.015 C 
ENDROOT
BRANCH   4   7
HETATM    7  C4  UNL     1     -21.959  16.913   8.860  1.00 20.00    -0.032 C 
HETATM    8  C1  UNL     1     -21.466  17.240   7.660  1.00 20.00     0.007 C 
ENDBRANCH   4   7
BRANCH   6   9
HETATM    9  C6  UNL     1     -25.897  19.027   8.956  1.00 20.00    -0.031 C 
HETATM   10  C3  UNL     1     -25.649  19.083   7.642  1.00 20.00     0.007 C 
ENDBRANCH   6   9
BRANCH   5  11
HETATM   11  C5  UNL     1     -26.457  18.875  11.956  1.00 20.00    -0.031 C 
HETATM   12  C2  UNL     1     -27.433  18.012  12.262  1.00 20.00     0.007 C 
ENDBRANCH   5  11
TORSDOF 3
ENDMDL
MODEL 7
REMARK VINA RESULT:      -4.3      1.643      2.918
REMARK  3 active torsions:
REMARK  status: ('A' for Active; 'I' for Inactive)
REMARK    1  A    between atoms: C4_4  and  C10_10 
REMARK    2  A    between atoms: C5_5  and  C11_11 
REMARK    3  A    between atoms: C6_6  and  C12_12 
ROOT
HETATM    1  C7  UNL     1     -23.524  18.570   7.804  1.00 20.00     0.009 C 
HETATM    2  C8  UNL     1     -22.566  17.808   8.720  1.00 20.00     0.010 C 
HETATM    3  C9  UNL     1     -25.138  18.850   9.738  1.00 20.00     0.017 C 
HETATM    4  C10 UNL     1     -24.983  18.442   8.263  1.00 20.00     0.008 C 
HETATM    5  C11 UNL     1     -22.732  18.240  10.186  1.00 20.00     0.015 C 
HETATM    6  C12 UNL     1     -24.193  18.070  10.674  1.00 20.00     0.015 C 
ENDROOT
BRANCH   4   7
HETATM    7  C4  UNL     1     -25.888  19.263   7.397  1.00 20.00    -0.032 C 
HETATM    8  C1  UNL     1     -26.175  18.969   6.124  1.00 20.00     0.007 C 
ENDBRANCH   4   7
BRANCH   6   9
HETATM    9  C6  UNL     1     -24.638  16.636  10.791  1.00 20.00    -0.031 C 
HETATM   10  C3  UNL     1     -24.717  15.969  11.948  1.00 20.00     0.007 C 
ENDBRANCH   6   9
BRANCH   5  11
HETATM   11  C5  UNL     1     -21.736  17.553  11.073  1.00 20.00    -0.031 C 
HETATM   12  C2  UNL     1     -21.459  17.937  12.325  1.00 20.00     0.007 C 
ENDBRANCH   5  11
TORSDOF 3
ENDMDL
MODEL 8
REMARK VINA RESULT:      -4.3     15.167     16.605
REMARK  3 active torsions:
REMARK  status: ('A' for Active; 'I' for Inactive)
REMARK    1  A    between atoms: C4_4  and  C10_10 
REMARK    2  A    between atoms: C5_5  and  C11_11 
REMARK    3  A    between atoms: C6_6  and  C12_12 
ROOT
HETATM    1  C7  UNL     1     -34.151  17.679  -0.873  1.00 20.00     0.009 C 
HETATM    2  C8  UNL     1     -35.140  16.664  -1.449  1.00 20.00     0.010 C 
HETATM    3  C9  UNL     1     -32.955  17.768  -3.106  1.00 20.00     0.017 C 
HETATM    4  C10 UNL     1     -32.792  17.624  -1.583  1.00 20.00     0.008 C 
HETATM    5  C11 UNL     1     -35.294  16.835  -2.969  1.00 20.00     0.015 C 
HETATM    6  C12 UNL     1     -33.932  16.734  -3.700  1.00 20.00     0.015 C 
ENDROOT
BRANCH   4   7
HETATM    7  C4  UNL     1     -31.871  18.681  -1.055  1.00 20.00    -0.032 C 
HETATM    8  C1  UNL     1     -30.993  18.482  -0.065  1.00 20.00     0.007 C 
ENDBRANCH   4   7
BRANCH   6   9
HETATM    9  C6  UNL     1     -33.320  15.358  -3.671  1.00 20.00    -0.031 C 
HETATM   10  C3  UNL     1     -33.165  14.585  -4.752  1.00 20.00     0.007 C 
ENDBRANCH   6   9
BRANCH   5  11
HETATM   11  C5  UNL     1     -36.325  15.896  -3.522  1.00 20.00    -0.031 C 
HETATM   12  C2  UNL     1     -36.943  16.069  -4.696  1.00 20.00     0.007 C 
ENDBRANCH   5  11
TORSDOF 3
ENDMDL
MODEL 9
REMARK VINA RESULT:      -4.3     15.320     16.675
REMARK  3 active torsions:
REMARK  status: ('A' for Active; 'I' for Inactive)
REMARK    1  A    between atoms: C4_4  and  C10_10 
REMARK    2  A    between atoms: C5_5  and  C11_11 
REMARK    3  A    between atoms: C6_6  and  C12_12 
ROOT
HETATM    1  C7  UNL     1     -35.071  16.059  -1.767  1.00 20.00     0.009 C 
HETATM    2  C8  UNL     1     -34.427  17.339  -1.232  1.00 20.00     0.010 C 
HETATM    3  C9  UNL     1     -33.530  16.133  -3.777  1.00 20.00     0.017 C 
HETATM    4  C10 UNL     1     -34.981  15.965  -3.296  1.00 20.00     0.008 C 
HETATM    5  C11 UNL     1     -32.975  17.479  -1.718  1.00 20.00     0.015 C 
HETATM    6  C12 UNL     1     -32.879  17.433  -3.263  1.00 20.00     0.015 C 
ENDROOT
BRANCH   4   7
HETATM    7  C4  UNL     1     -35.546  14.667  -3.784  1.00 20.00    -0.032 C 
HETATM    8  C1  UNL     1     -36.811  14.505  -4.188  1.00 20.00     0.007 C 
ENDBRANCH   4   7
BRANCH   6   9
HETATM    9  C6  UNL     1     -33.483  18.629  -3.952  1.00 20.00    -0.031 C 
HETATM   10  C3  UNL     1     -33.777  18.672  -5.256  1.00 20.00     0.007 C 
ENDBRANCH   6   9
BRANCH   5  11
HETATM   11  C5  UNL     1     -32.317  18.691  -1.128  1.00 20.00    -0.031 C 
HETATM   12  C2  UNL     1     -31.243  18.647  -0.332  1.00 20.00     0.007 C 
ENDBRANCH   5  11
TORSDOF 3
ENDMDL
