MODEL 1
REMARK VINA RESULT:      -4.5      0.000      0.000
REMARK  4 active torsions:
REMARK  status: ('A' for Active; 'I' for Inactive)
REMARK    1  A    between atoms: C6_6  and  C7_7 
REMARK    2  A    between atoms: C7_7  and  C9_9 
REMARK    3  A    between atoms: C8_8  and  C9_9 
REMARK    4  A    between atoms: C8_8  and  N11_11 
ROOT
HETATM    1  C1  UNL     1     -36.951  14.168  -4.553  1.00 20.00     0.095 C 
HETATM    2  C8  UNL     1     -35.557  14.348  -4.999  1.00 20.00     0.331 C 
HETATM    3  N10 UNL     1     -38.048  14.021  -4.205  1.00 20.00    -0.195 NA
ENDROOT
BRANCH   2   4
HETATM    4  C9  UNL     1     -34.558  14.437  -3.810  1.00 20.00     0.029 C 
HETATM    5  C3  UNL     1     -33.116  14.720  -4.259  1.00 20.00     0.013 C 
BRANCH   4   6
HETATM    6  C7  UNL     1     -35.042  15.472  -2.764  1.00 20.00     0.007 C 
BRANCH   6   7
HETATM    7  C6  UNL     1     -33.955  16.461  -2.336  1.00 20.00    -0.004 C 
HETATM    8  C2  UNL     1     -34.408  17.305  -1.154  1.00 20.00     0.005 C 
ENDBRANCH   6   7
ENDBRANCH   4   6
ENDBRANCH   2   4
BRANCH   2   9
HETATM    9  N11 UNL     1     -35.464  15.538  -5.848  1.00 20.00     0.098 N 
HETATM   10  C4  UNL     1     -36.694  16.322  -5.761  1.00 20.00     0.311 C 
HETATM   11  C5  UNL     1     -35.196  15.154  -7.233  1.00 20.00     0.311 C 
ENDBRANCH   2   9
TORSDOF 4
ENDMDL
MODEL 2
REMARK VINA RESULT:      -4.3      1.092      1.092
REMARK  4 active torsions:
REMARK  status: ('A' for Active; 'I' for Inactive)
REMARK    1  A    between atoms: C6_6  and  C7_7 
REMARK    2  A    between atoms: C7_7  and  C9_9 
REMARK    3  A    between atoms: C8_8  and  C9_9 
REMARK    4  A    between atoms: C8_8  and  N11_11 
ROOT
HETATM    1  C1  UNL     1     -37.041  14.505  -4.475  1.00 20.00     0.095 C 
HETATM    2  C8  UNL     1     -35.740  15.138  -4.757  1.00 20.00     0.331 C 
HETATM    3  N10 UNL     1     -38.065  14.004  -4.258  1.00 20.00    -0.195 NA
ENDROOT
BRANCH   2   4
HETATM    4  C9  UNL     1     -34.654  14.761  -3.710  1.00 20.00     0.029 C 
HETATM    5  C3  UNL     1     -33.283  14.474  -4.344  1.00 20.00     0.013 C 
BRANCH   4   6
HETATM    6  C7  UNL     1     -34.557  15.843  -2.607  1.00 20.00     0.007 C 
BRANCH   6   7
HETATM    7  C6  UNL     1     -33.222  16.593  -2.604  1.00 20.00    -0.004 C 
HETATM    8  C2  UNL     1     -33.198  17.677  -1.537  1.00 20.00     0.005 C 
ENDBRANCH   6   7
ENDBRANCH   4   6
ENDBRANCH   2   4
BRANCH   2   9
HETATM    9  N11 UNL     1     -35.907  16.591  -4.834  1.00 20.00     0.098 N 
HETATM   10  C4  UNL     1     -37.327  16.938  -4.871  1.00 20.00     0.311 C 
HETATM   11  C5  UNL     1     -35.219  17.121  -6.010  1.00 20.00     0.311 C 
ENDBRANCH   2   9
TORSDOF 4
ENDMDL
MODEL 3
REMARK VINA RESULT:      -4.3      1.157      1.779
REMARK  4 active torsions:
REMARK  status: ('A' for Active; 'I' for Inactive)
REMARK    1  A    between atoms: C6_6  and  C7_7 
REMARK    2  A    between atoms: C7_7  and  C9_9 
REMARK    3  A    between atoms: C8_8  and  C9_9 
REMARK    4  A    between atoms: C8_8  and  N11_11 
ROOT
HETATM    1  C1  UNL     1     -37.080  14.262  -4.505  1.00 20.00     0.095 C 
HETATM    2  C8  UNL     1     -35.664  14.616  -4.714  1.00 20.00     0.331 C 
HETATM    3  N10 UNL     1     -38.193  13.979  -4.337  1.00 20.00    -0.195 NA
ENDROOT
BRANCH   2   4
HETATM    4  C9  UNL     1     -35.268  15.938  -3.997  1.00 20.00     0.029 C 
HETATM    5  C3  UNL     1     -36.483  16.734  -3.494  1.00 20.00     0.013 C 
BRANCH   4   6
HETATM    6  C7  UNL     1     -34.257  15.661  -2.858  1.00 20.00     0.007 C 
BRANCH   6   7
HETATM    7  C6  UNL     1     -33.052  16.607  -2.868  1.00 20.00    -0.004 C 
HETATM    8  C2  UNL     1     -33.111  17.590  -1.709  1.00 20.00     0.005 C 
ENDBRANCH   6   7
ENDBRANCH   4   6
ENDBRANCH   2   4
BRANCH   2   9
HETATM    9  N11 UNL     1     -35.387  14.699  -6.150  1.00 20.00     0.098 N 
HETATM   10  C4  UNL     1     -33.974  14.996  -6.379  1.00 20.00     0.311 C 
HETATM   11  C5  UNL     1     -36.232  15.716  -6.774  1.00 20.00     0.311 C 
ENDBRANCH   2   9
TORSDOF 4
ENDMDL
MODEL 4
REMARK VINA RESULT:      -4.3      1.607      1.792
REMARK  4 active torsions:
REMARK  status: ('A' for Active; 'I' for Inactive)
REMARK    1  A    between atoms: C6_6  and  C7_7 
REMARK    2  A    between atoms: C7_7  and  C9_9 
REMARK    3  A    between atoms: C8_8  and  C9_9 
REMARK    4  A    between atoms: C8_8  and  N11_11 
ROOT
HETATM    1  C1  UNL     1     -35.573  13.892  -4.420  1.00 20.00     0.095 C 
HETATM    2  C8  UNL     1     -35.077  15.276  -4.311  1.00 20.00     0.331 C 
HETATM    3  N10 UNL     1     -35.960  12.801  -4.510  1.00 20.00    -0.195 NA
ENDROOT
BRANCH   2   4
HETATM    4  C9  UNL     1     -34.312  15.532  -2.981  1.00 20.00     0.029 C 
HETATM    5  C3  UNL     1     -33.061  16.405  -3.169  1.00 20.00     0.013 C 
BRANCH   4   6
HETATM    6  C7  UNL     1     -35.260  16.117  -1.907  1.00 20.00     0.007 C 
BRANCH   6   7
HETATM    7  C6  UNL     1     -34.612  17.207  -1.049  1.00 20.00    -0.004 C 
HETATM    8  C2  UNL     1     -35.280  17.309   0.314  1.00 20.00     0.005 C 
ENDBRANCH   6   7
ENDBRANCH   4   6
ENDBRANCH   2   4
BRANCH   2   9
HETATM    9  N11 UNL     1     -36.195  16.210  -4.457  1.00 20.00     0.098 N 
HETATM   10  C4  UNL     1     -37.396  15.501  -4.895  1.00 20.00     0.311 C 
HETATM   11  C5  UNL     1     -35.852  17.271  -5.402  1.00 20.00     0.311 C 
ENDBRANCH   2   9
TORSDOF 4
ENDMDL
MODEL 5
REMARK VINA RESULT:      -4.3      1.303      2.310
REMARK  4 active torsions:
REMARK  status: ('A' for Active; 'I' for Inactive)
REMARK    1  A    between atoms: C6_6  and  C7_7 
REMARK    2  A    between atoms: C7_7  and  C9_9 
REMARK    3  A    between atoms: C8_8  and  C9_9 
REMARK    4  A    between atoms: C8_8  and  N11_11 
ROOT
HETATM    1  C1  UNL     1     -36.744  14.333  -4.152  1.00 20.00     0.095 C 
HETATM    2  C8  UNL     1     -35.427  14.857  -3.748  1.00 20.00     0.331 C 
HETATM    3  N10 UNL     1     -37.781  13.916  -4.467  1.00 20.00    -0.195 NA
ENDROOT
BRANCH   2   4
HETATM    4  C9  UNL     1     -35.514  16.288  -3.147  1.00 20.00     0.029 C 
HETATM    5  C3  UNL     1     -36.914  16.909  -3.278  1.00 20.00     0.013 C 
BRANCH   4   6
HETATM    6  C7  UNL     1     -35.022  16.297  -1.679  1.00 20.00     0.007 C 
BRANCH   6   7
HETATM    7  C6  UNL     1     -34.073  17.456  -1.360  1.00 20.00    -0.004 C 
HETATM    8  C2  UNL     1     -32.883  17.474  -2.306  1.00 20.00     0.005 C 
ENDBRANCH   6   7
ENDBRANCH   4   6
ENDBRANCH   2   4
BRANCH   2   9
HETATM    9  N11 UNL     1     -34.515  14.827  -4.893  1.00 20.00     0.098 N 
HETATM   10  C4  UNL     1     -33.163  14.480  -4.458  1.00 20.00     0.311 C 
HETATM   11  C5  UNL     1     -34.518  16.118  -5.580  1.00 20.00     0.311 C 
ENDBRANCH   2   9
TORSDOF 4
ENDMDL
MODEL 6
REMARK VINA RESULT:      -4.3      1.386      2.496
REMARK  4 active torsions:
REMARK  status: ('A' for Active; 'I' for Inactive)
REMARK    1  A    between atoms: C6_6  and  C7_7 
REMARK    2  A    between atoms: C7_7  and  C9_9 
REMARK    3  A    between atoms: C8_8  and  C9_9 
REMARK    4  A    between atoms: C8_8  and  N11_11 
ROOT
HETATM    1  C1  UNL     1     -34.373  15.194  -5.554  1.00 20.00     0.095 C 
HETATM    2  C8  UNL     1     -35.115  15.786  -4.426  1.00 20.00     0.331 C 
HETATM    3  N10 UNL     1     -33.789  14.733  -6.445  1.00 20.00    -0.195 NA
ENDROOT
BRANCH   2   4
HETATM    4  C9  UNL     1     -34.348  15.662  -3.079  1.00 20.00     0.029 C 
HETATM    5  C3  UNL     1     -33.001  16.403  -3.085  1.00 20.00     0.013 C 
BRANCH   4   6
HETATM    6  C7  UNL     1     -35.241  16.113  -1.897  1.00 20.00     0.007 C 
BRANCH   6   7
HETATM    7  C6  UNL     1     -34.621  17.232  -1.056  1.00 20.00    -0.004 C 
HETATM    8  C2  UNL     1     -35.252  17.301   0.326  1.00 20.00     0.005 C 
ENDBRANCH   6   7
ENDBRANCH   4   6
ENDBRANCH   2   4
BRANCH   2   9
HETATM    9  N11 UNL     1     -36.439  15.167  -4.331  1.00 20.00     0.098 N 
HETATM   10  C4  UNL     1     -36.343  13.724  -4.543  1.00 20.00     0.311 C 
HETATM   11  C5  UNL     1     -37.352  15.769  -5.302  1.00 20.00     0.311 C 
ENDBRANCH   2   9
TORSDOF 4
ENDMDL
MODEL 7
REMARK VINA RESULT:      -4.1      1.251      2.116
REMARK  4 active torsions:
REMARK  status: ('A' for Active; 'I' for Inactive)
REMARK    1  A    between atoms: C6_6  and  C7_7 
REMARK    2  A    between atoms: C7_7  and  C9_9 
REMARK    3  A    between atoms: C8_8  and  C9_9 
REMARK    4  A    between atoms: C8_8  and  N11_11 
ROOT
HETATM    1  C1  UNL     1     -35.957  14.989  -5.992  1.00 20.00     0.095 C 
HETATM    2  C8  UNL     1     -35.879  15.698  -4.703  1.00 20.00     0.331 C 
HETATM    3  N10 UNL     1     -36.016  14.434  -7.010  1.00 20.00    -0.195 NA
ENDROOT
BRANCH   2   4
HETATM    4  C9  UNL     1     -34.989  14.955  -3.666  1.00 20.00     0.029 C 
HETATM    5  C3  UNL     1     -33.656  14.472  -4.260  1.00 20.00     0.013 C 
BRANCH   4   6
HETATM    6  C7  UNL     1     -34.768  15.829  -2.407  1.00 20.00     0.007 C 
BRANCH   6   7
HETATM    7  C6  UNL     1     -33.500  16.685  -2.472  1.00 20.00    -0.004 C 
HETATM    8  C2  UNL     1     -33.457  17.698  -1.338  1.00 20.00     0.005 C 
ENDBRANCH   6   7
ENDBRANCH   4   6
ENDBRANCH   2   4
BRANCH   2   9
HETATM    9  N11 UNL     1     -37.230  15.907  -4.175  1.00 20.00     0.098 N 
HETATM   10  C4  UNL     1     -37.989  14.658  -4.213  1.00 20.00     0.311 C 
HETATM   11  C5  UNL     1     -37.918  16.949  -4.935  1.00 20.00     0.311 C 
ENDBRANCH   2   9
TORSDOF 4
ENDMDL
MODEL 8
REMARK VINA RESULT:      -4.1      1.717      2.029
REMARK  4 active torsions:
REMARK  status: ('A' for Active; 'I' for Inactive)
REMARK    1  A    between atoms: C6_6  and  C7_7 
REMARK    2  A    between atoms: C7_7  and  C9_9 
REMARK    3  A    between atoms: C8_8  and  C9_9 
REMARK    4  A    between atoms: C8_8  and  N11_11 
ROOT
HETATM    1  C1  UNL     1     -35.397  15.112  -6.418  1.00 20.00     0.095 C 
HETATM    2  C8  UNL     1     -34.432  15.825  -5.560  1.00 20.00     0.331 C 
HETATM    3  N10 UNL     1     -36.152  14.549  -7.095  1.00 20.00    -0.195 NA
ENDROOT
BRANCH   2   4
HETATM    4  C9  UNL     1     -34.509  15.374  -4.074  1.00 20.00     0.029 C 
HETATM    5  C3  UNL     1     -34.677  13.854  -3.917  1.00 20.00     0.013 C 
BRANCH   4   6
HETATM    6  C7  UNL     1     -33.288  15.897  -3.279  1.00 20.00     0.007 C 
BRANCH   6   7
HETATM    7  C6  UNL     1     -33.662  16.863  -2.151  1.00 20.00    -0.004 C 
HETATM    8  C2  UNL     1     -35.070  16.599  -1.640  1.00 20.00     0.005 C 
ENDBRANCH   6   7
ENDBRANCH   4   6
ENDBRANCH   2   4
BRANCH   2   9
HETATM    9  N11 UNL     1     -34.644  17.269  -5.678  1.00 20.00     0.098 N 
HETATM   10  C4  UNL     1     -35.998  17.620  -5.254  1.00 20.00     0.311 C 
HETATM   11  C5  UNL     1     -34.408  17.707  -7.053  1.00 20.00     0.311 C 
ENDBRANCH   2   9
TORSDOF 4
ENDMDL
MODEL 9
REMARK VINA RESULT:      -4.1      1.456      1.923
REMARK  4 active torsions:
REMARK  status: ('A' for Active; 'I' for Inactive)
REMARK    1  A    between atoms: C6_6  and  C7_7 
REMARK    2  A    between atoms: C7_7  and  C9_9 
REMARK    3  A    between atoms: C8_8  and  C9_9 
REMARK    4  A    between atoms: C8_8  and  N11_11 
ROOT
HETATM    1  C1  UNL     1     -35.213  13.983  -4.635  1.00 20.00     0.095 C 
HETATM    2  C8  UNL     1     -34.298  15.131  -4.767  1.00 20.00     0.331 C 
HETATM    3  N10 UNL     1     -35.930  13.076  -4.531  1.00 20.00    -0.195 NA
ENDROOT
BRANCH   2   4
HETATM    4  C9  UNL     1     -34.403  16.118  -3.570  1.00 20.00     0.029 C 
HETATM    5  C3  UNL     1     -35.265  15.575  -2.420  1.00 20.00     0.013 C 
BRANCH   4   6
HETATM    6  C7  UNL     1     -32.995  16.536  -3.080  1.00 20.00     0.007 C 
BRANCH   6   7
HETATM    7  C6  UNL     1     -33.024  17.468  -1.865  1.00 20.00    -0.004 C 
HETATM    8  C2  UNL     1     -32.328  18.787  -2.162  1.00 20.00     0.005 C 
ENDBRANCH   6   7
ENDBRANCH   4   6
ENDBRANCH   2   4
BRANCH   2   9
HETATM    9  N11 UNL     1     -34.553  15.819  -6.035  1.00 20.00     0.098 N 
HETATM   10  C4  UNL     1     -35.988  16.026  -6.220  1.00 20.00     0.311 C 
HETATM   11  C5  UNL     1     -33.997  15.054  -7.150  1.00 20.00     0.311 C 
ENDBRANCH   2   9
TORSDOF 4
ENDMDL
