MODEL 1
REMARK VINA RESULT:      -4.1      0.000      0.000
REMARK  3 active torsions:
REMARK  status: ('A' for Active; 'I' for Inactive)
REMARK    1  A    between atoms: C1_1  and  C7_7 
REMARK    2  A    between atoms: C5_5  and  N8_8 
REMARK    3  A    between atoms: C7_7  and  N8_8 
ROOT
HETATM    1  C2  UNL     1     -24.275  16.355  11.065  1.00 20.00     0.047 C 
HETATM    2  C3  UNL     1     -25.208  16.167  12.251  1.00 20.00     0.076 C 
HETATM    3  C4  UNL     1     -25.273  18.579  11.067  1.00 20.00     0.109 C 
HETATM    4  C5  UNL     1     -23.938  17.844  11.021  1.00 20.00     0.233 C 
HETATM    5  S10 UNL     1     -26.280  17.633  12.246  1.00 20.00    -0.167 SA
ENDROOT
BRANCH   4   6
HETATM    6  N8  UNL     1     -23.179  18.200   9.829  1.00 20.00     0.096 N 
HETATM    7  C6  UNL     1     -23.981  19.044   8.939  1.00 20.00     0.310 C 
BRANCH   6   8
HETATM    8  C7  UNL     1     -22.733  16.998   9.123  1.00 20.00     0.341 C 
BRANCH   8   9
HETATM    9  C1  UNL     1     -21.745  17.407   8.067  1.00 20.00     0.261 C 
HETATM   10  O9  UNL     1     -21.607  16.789   7.015  1.00 20.00    -0.305 OA
ENDBRANCH   8   9
ENDBRANCH   6   8
ENDBRANCH   4   6
TORSDOF 3
ENDMDL
MODEL 2
REMARK VINA RESULT:      -3.9     16.823     17.476
REMARK  3 active torsions:
REMARK  status: ('A' for Active; 'I' for Inactive)
REMARK    1  A    between atoms: C1_1  and  C7_7 
REMARK    2  A    between atoms: C5_5  and  N8_8 
REMARK    3  A    between atoms: C7_7  and  N8_8 
ROOT
HETATM    1  C2  UNL     1     -32.881  16.653  -2.829  1.00 20.00     0.047 C 
HETATM    2  C3  UNL     1     -33.032  17.920  -2.002  1.00 20.00     0.076 C 
HETATM    3  C4  UNL     1     -35.062  16.165  -1.855  1.00 20.00     0.109 C 
HETATM    4  C5  UNL     1     -34.299  16.200  -3.174  1.00 20.00     0.233 C 
HETATM    5  S10 UNL     1     -34.480  17.628  -0.948  1.00 20.00    -0.167 SA
ENDROOT
BRANCH   4   6
HETATM    6  N8  UNL     1     -34.314  14.897  -3.828  1.00 20.00     0.096 N 
HETATM    7  C6  UNL     1     -33.003  14.592  -4.405  1.00 20.00     0.310 C 
BRANCH   6   8
HETATM    8  C7  UNL     1     -35.347  14.852  -4.865  1.00 20.00     0.341 C 
BRANCH   8   9
HETATM    9  C1  UNL     1     -36.248  13.683  -4.587  1.00 20.00     0.261 C 
HETATM   10  O9  UNL     1     -35.833  12.529  -4.519  1.00 20.00    -0.305 OA
ENDBRANCH   8   9
ENDBRANCH   6   8
ENDBRANCH   4   6
TORSDOF 3
ENDMDL
MODEL 3
REMARK VINA RESULT:      -3.9     16.952     17.584
REMARK  3 active torsions:
REMARK  status: ('A' for Active; 'I' for Inactive)
REMARK    1  A    between atoms: C1_1  and  C7_7 
REMARK    2  A    between atoms: C5_5  and  N8_8 
REMARK    3  A    between atoms: C7_7  and  N8_8 
ROOT
HETATM    1  C2  UNL     1     -34.782  16.376  -1.919  1.00 20.00     0.047 C 
HETATM    2  C3  UNL     1     -34.127  17.488  -1.114  1.00 20.00     0.076 C 
HETATM    3  C4  UNL     1     -33.286  17.212  -3.652  1.00 20.00     0.109 C 
HETATM    4  C5  UNL     1     -33.751  15.938  -2.957  1.00 20.00     0.233 C 
HETATM    5  S10 UNL     1     -33.171  18.446  -2.323  1.00 20.00    -0.167 SA
ENDROOT
BRANCH   4   6
HETATM    6  N8  UNL     1     -34.304  14.987  -3.913  1.00 20.00     0.096 N 
HETATM    7  C6  UNL     1     -34.003  15.399  -5.286  1.00 20.00     0.310 C 
BRANCH   6   8
HETATM    8  C7  UNL     1     -35.750  14.850  -3.729  1.00 20.00     0.341 C 
BRANCH   8   9
HETATM    9  C1  UNL     1     -36.236  13.727  -4.599  1.00 20.00     0.261 C 
HETATM   10  O9  UNL     1     -35.863  12.566  -4.451  1.00 20.00    -0.305 OA
ENDBRANCH   8   9
ENDBRANCH   6   8
ENDBRANCH   4   6
TORSDOF 3
ENDMDL
MODEL 4
REMARK VINA RESULT:      -3.7      1.571      2.301
REMARK  3 active torsions:
REMARK  status: ('A' for Active; 'I' for Inactive)
REMARK    1  A    between atoms: C1_1  and  C7_7 
REMARK    2  A    between atoms: C5_5  and  N8_8 
REMARK    3  A    between atoms: C7_7  and  N8_8 
ROOT
HETATM    1  C2  UNL     1     -25.041  18.601  11.108  1.00 20.00     0.047 C 
HETATM    2  C3  UNL     1     -26.061  17.940  12.022  1.00 20.00     0.076 C 
HETATM    3  C4  UNL     1     -24.158  16.331  11.015  1.00 20.00     0.109 C 
HETATM    4  C5  UNL     1     -24.565  17.515  10.146  1.00 20.00     0.233 C 
HETATM    5  S10 UNL     1     -25.409  16.274  12.331  1.00 20.00    -0.167 SA
ENDROOT
BRANCH   4   6
HETATM    6  N8  UNL     1     -23.457  17.966   9.314  1.00 20.00     0.096 N 
HETATM    7  C6  UNL     1     -22.222  18.049  10.099  1.00 20.00     0.310 C 
BRANCH   6   8
HETATM    8  C7  UNL     1     -23.760  19.263   8.707  1.00 20.00     0.341 C 
BRANCH   8   9
HETATM    9  C1  UNL     1     -24.488  19.024   7.415  1.00 20.00     0.261 C 
HETATM   10  O9  UNL     1     -23.910  18.951   6.333  1.00 20.00    -0.305 OA
ENDBRANCH   8   9
ENDBRANCH   6   8
ENDBRANCH   4   6
TORSDOF 3
ENDMDL
MODEL 5
REMARK VINA RESULT:      -3.6     15.754     16.232
REMARK  3 active torsions:
REMARK  status: ('A' for Active; 'I' for Inactive)
REMARK    1  A    between atoms: C1_1  and  C7_7 
REMARK    2  A    between atoms: C5_5  and  N8_8 
REMARK    3  A    between atoms: C7_7  and  N8_8 
ROOT
HETATM    1  C2  UNL     1     -33.300   6.942   4.821  1.00 20.00     0.047 C 
HETATM    2  C3  UNL     1     -34.064   6.820   6.130  1.00 20.00     0.076 C 
HETATM    3  C4  UNL     1     -34.566   4.928   4.288  1.00 20.00     0.109 C 
HETATM    4  C5  UNL     1     -34.184   6.303   3.752  1.00 20.00     0.233 C 
HETATM    5  S10 UNL     1     -34.864   5.192   6.060  1.00 20.00    -0.167 SA
ENDROOT
BRANCH   4   6
HETATM    6  N8  UNL     1     -33.503   6.199   2.467  1.00 20.00     0.096 N 
HETATM    7  C6  UNL     1     -32.993   4.841   2.261  1.00 20.00     0.310 C 
BRANCH   6   8
HETATM    8  C7  UNL     1     -32.410   7.170   2.381  1.00 20.00     0.341 C 
BRANCH   8   9
HETATM    9  C1  UNL     1     -32.540   7.918   1.085  1.00 20.00     0.261 C 
HETATM   10  O9  UNL     1     -32.906   9.089   1.030  1.00 20.00    -0.305 OA
ENDBRANCH   8   9
ENDBRANCH   6   8
ENDBRANCH   4   6
TORSDOF 3
ENDMDL
MODEL 6
REMARK VINA RESULT:      -3.5     18.317     18.992
REMARK  3 active torsions:
REMARK  status: ('A' for Active; 'I' for Inactive)
REMARK    1  A    between atoms: C1_1  and  C7_7 
REMARK    2  A    between atoms: C5_5  and  N8_8 
REMARK    3  A    between atoms: C7_7  and  N8_8 
ROOT
HETATM    1  C2  UNL     1     -34.677  15.682  -2.951  1.00 20.00     0.047 C 
HETATM    2  C3  UNL     1     -33.502  16.519  -2.470  1.00 20.00     0.076 C 
HETATM    3  C4  UNL     1     -34.439  17.095  -4.923  1.00 20.00     0.109 C 
HETATM    4  C5  UNL     1     -34.577  15.645  -4.475  1.00 20.00     0.233 C 
HETATM    5  S10 UNL     1     -33.344  17.856  -3.688  1.00 20.00    -0.167 SA
ENDROOT
BRANCH   4   6
HETATM    6  N8  UNL     1     -35.739  15.012  -5.085  1.00 20.00     0.096 N 
HETATM    7  C6  UNL     1     -35.511  14.781  -6.514  1.00 20.00     0.310 C 
BRANCH   6   8
HETATM    8  C7  UNL     1     -36.937  15.830  -4.888  1.00 20.00     0.341 C 
BRANCH   8   9
HETATM    9  C1  UNL     1     -38.059  14.932  -4.452  1.00 20.00     0.261 C 
HETATM   10  O9  UNL     1     -37.920  13.720  -4.308  1.00 20.00    -0.305 OA
ENDBRANCH   8   9
ENDBRANCH   6   8
ENDBRANCH   4   6
TORSDOF 3
ENDMDL
MODEL 7
REMARK VINA RESULT:      -3.5     15.453     16.137
REMARK  3 active torsions:
REMARK  status: ('A' for Active; 'I' for Inactive)
REMARK    1  A    between atoms: C1_1  and  C7_7 
REMARK    2  A    between atoms: C5_5  and  N8_8 
REMARK    3  A    between atoms: C7_7  and  N8_8 
ROOT
HETATM    1  C2  UNL     1     -33.487  15.808  -3.274  1.00 20.00     0.047 C 
HETATM    2  C3  UNL     1     -34.220  14.660  -3.951  1.00 20.00     0.076 C 
HETATM    3  C4  UNL     1     -35.764  16.501  -2.747  1.00 20.00     0.109 C 
HETATM    4  C5  UNL     1     -34.388  16.273  -2.132  1.00 20.00     0.233 C 
HETATM    5  S10 UNL     1     -35.971  15.139  -3.931  1.00 20.00    -0.167 SA
ENDROOT
BRANCH   4   6
HETATM    6  N8  UNL     1     -33.887  17.484  -1.495  1.00 20.00     0.096 N 
HETATM    7  C6  UNL     1     -34.760  18.623  -1.789  1.00 20.00     0.310 C 
BRANCH   6   8
HETATM    8  C7  UNL     1     -32.518  17.769  -1.932  1.00 20.00     0.341 C 
BRANCH   8   9
HETATM    9  C1  UNL     1     -31.792  18.448  -0.806  1.00 20.00     0.261 C 
HETATM   10  O9  UNL     1     -30.581  18.335  -0.637  1.00 20.00    -0.305 OA
ENDBRANCH   8   9
ENDBRANCH   6   8
ENDBRANCH   4   6
TORSDOF 3
ENDMDL
MODEL 8
REMARK VINA RESULT:      -3.5      3.320      4.703
REMARK  3 active torsions:
REMARK  status: ('A' for Active; 'I' for Inactive)
REMARK    1  A    between atoms: C1_1  and  C7_7 
REMARK    2  A    between atoms: C5_5  and  N8_8 
REMARK    3  A    between atoms: C7_7  and  N8_8 
ROOT
HETATM    1  C2  UNL     1     -24.636  18.587   9.478  1.00 20.00     0.047 C 
HETATM    2  C3  UNL     1     -23.804  18.928   8.252  1.00 20.00     0.076 C 
HETATM    3  C4  UNL     1     -22.777  17.066   9.896  1.00 20.00     0.109 C 
HETATM    4  C5  UNL     1     -23.647  18.133  10.550  1.00 20.00     0.233 C 
HETATM    5  S10 UNL     1     -22.489  17.677   8.209  1.00 20.00    -0.167 SA
ENDROOT
BRANCH   4   6
HETATM    6  N8  UNL     1     -24.320  17.613  11.733  1.00 20.00     0.096 N 
HETATM    7  C6  UNL     1     -24.625  16.189  11.571  1.00 20.00     0.310 C 
BRANCH   6   8
HETATM    8  C7  UNL     1     -25.546  18.367  12.004  1.00 20.00     0.341 C 
BRANCH   8   9
HETATM    9  C1  UNL     1     -26.641  17.392  12.332  1.00 20.00     0.261 C 
HETATM   10  O9  UNL     1     -27.830  17.653  12.170  1.00 20.00    -0.305 OA
ENDBRANCH   8   9
ENDBRANCH   6   8
ENDBRANCH   4   6
TORSDOF 3
ENDMDL
MODEL 9
REMARK VINA RESULT:      -3.5     18.341     19.053
REMARK  3 active torsions:
REMARK  status: ('A' for Active; 'I' for Inactive)
REMARK    1  A    between atoms: C1_1  and  C7_7 
REMARK    2  A    between atoms: C5_5  and  N8_8 
REMARK    3  A    between atoms: C7_7  and  N8_8 
ROOT
HETATM    1  C2  UNL     1     -34.469  16.982  -5.200  1.00 20.00     0.047 C 
HETATM    2  C3  UNL     1     -34.094  18.065  -4.201  1.00 20.00     0.076 C 
HETATM    3  C4  UNL     1     -33.810  15.529  -3.357  1.00 20.00     0.109 C 
HETATM    4  C5  UNL     1     -34.918  15.778  -4.373  1.00 20.00     0.233 C 
HETATM    5  S10 UNL     1     -33.283  17.188  -2.834  1.00 20.00    -0.167 SA
ENDROOT
BRANCH   4   6
HETATM    6  N8  UNL     1     -35.151  14.601  -5.200  1.00 20.00     0.096 N 
HETATM    7  C6  UNL     1     -35.616  14.989  -6.534  1.00 20.00     0.310 C 
BRANCH   6   8
HETATM    8  C7  UNL     1     -36.122  13.707  -4.564  1.00 20.00     0.341 C 
BRANCH   8   9
HETATM    9  C1  UNL     1     -37.375  14.487  -4.287  1.00 20.00     0.261 C 
HETATM   10  O9  UNL     1     -38.496  13.995  -4.383  1.00 20.00    -0.305 OA
ENDBRANCH   8   9
ENDBRANCH   6   8
ENDBRANCH   4   6
TORSDOF 3
ENDMDL
