MODEL 1
REMARK VINA RESULT:      -4.4      0.000      0.000
REMARK  3 active torsions:
REMARK  status: ('A' for Active; 'I' for Inactive)
REMARK    1  A    between atoms: C1_1  and  C3_3 
REMARK    2  A    between atoms: C1_1  and  C4_4 
REMARK    3  A    between atoms: C3_3  and  C5_5 
ROOT
HETATM    1  C1  UNL     1     -34.159   4.551   3.673  1.00 20.00     0.140 C 
HETATM    2  O6  UNL     1     -34.080   3.371   4.011  1.00 20.00    -0.297 OA
ENDROOT
BRANCH   1   3
HETATM    3  C3  UNL     1     -35.055   5.540   4.405  1.00 20.00     0.079 C 
BRANCH   3   4
HETATM    4  C5  UNL     1     -34.707   5.718   5.882  1.00 20.00     0.003 C 
HETATM    5  C2  UNL     1     -33.844   6.946   6.135  1.00 20.00     0.005 C 
ENDBRANCH   3   4
ENDBRANCH   1   3
BRANCH   1   6
HETATM    6  C4  UNL     1     -33.413   5.119   2.485  1.00 20.00     0.192 C 
HETATM    7 CL7  UNL     1     -32.745   6.713   2.865  1.00 20.00    -0.123 Cl
ENDBRANCH   1   6
TORSDOF 3
ENDMDL
MODEL 2
REMARK VINA RESULT:      -4.3      2.122      3.192
REMARK  3 active torsions:
REMARK  status: ('A' for Active; 'I' for Inactive)
REMARK    1  A    between atoms: C1_1  and  C3_3 
REMARK    2  A    between atoms: C1_1  and  C4_4 
REMARK    3  A    between atoms: C3_3  and  C5_5 
ROOT
HETATM    1  C1  UNL     1     -34.038   5.039   3.643  1.00 20.00     0.140 C 
HETATM    2  O6  UNL     1     -34.310   3.848   3.779  1.00 20.00    -0.297 OA
ENDROOT
BRANCH   1   3
HETATM    3  C3  UNL     1     -33.171   5.541   2.496  1.00 20.00     0.079 C 
BRANCH   3   4
HETATM    4  C5  UNL     1     -32.538   6.909   2.750  1.00 20.00     0.003 C 
HETATM    5  C2  UNL     1     -32.540   7.793   1.511  1.00 20.00     0.005 C 
ENDBRANCH   3   4
ENDBRANCH   1   3
BRANCH   1   6
HETATM    6  C4  UNL     1     -34.499   6.106   4.613  1.00 20.00     0.192 C 
HETATM    7 CL7  UNL     1     -34.797   5.414   6.214  1.00 20.00    -0.123 Cl
ENDBRANCH   1   6
TORSDOF 3
ENDMDL
MODEL 3
REMARK VINA RESULT:      -4.2      1.751      2.060
REMARK  3 active torsions:
REMARK  status: ('A' for Active; 'I' for Inactive)
REMARK    1  A    between atoms: C1_1  and  C3_3 
REMARK    2  A    between atoms: C1_1  and  C4_4 
REMARK    3  A    between atoms: C3_3  and  C5_5 
ROOT
HETATM    1  C1  UNL     1     -33.108   6.180   2.992  1.00 20.00     0.140 C 
HETATM    2  O6  UNL     1     -33.169   5.081   2.445  1.00 20.00    -0.297 OA
ENDROOT
BRANCH   1   3
HETATM    3  C3  UNL     1     -34.043   6.567   4.130  1.00 20.00     0.079 C 
BRANCH   3   4
HETATM    4  C5  UNL     1     -34.947   5.430   4.604  1.00 20.00     0.003 C 
HETATM    5  C2  UNL     1     -34.766   5.117   6.082  1.00 20.00     0.005 C 
ENDBRANCH   3   4
ENDBRANCH   1   3
BRANCH   1   6
HETATM    6  C4  UNL     1     -32.136   7.259   2.565  1.00 20.00     0.192 C 
HETATM    7 CL7  UNL     1     -32.763   8.158   1.176  1.00 20.00    -0.123 Cl
ENDBRANCH   1   6
TORSDOF 3
ENDMDL
MODEL 4
REMARK VINA RESULT:      -4.0      2.818      3.916
REMARK  3 active torsions:
REMARK  status: ('A' for Active; 'I' for Inactive)
REMARK    1  A    between atoms: C1_1  and  C3_3 
REMARK    2  A    between atoms: C1_1  and  C4_4 
REMARK    3  A    between atoms: C3_3  and  C5_5 
ROOT
HETATM    1  C1  UNL     1     -33.271   6.252   3.108  1.00 20.00     0.140 C 
HETATM    2  O6  UNL     1     -33.274   5.164   2.536  1.00 20.00    -0.297 OA
ENDROOT
BRANCH   1   3
HETATM    3  C3  UNL     1     -32.453   7.430   2.596  1.00 20.00     0.079 C 
BRANCH   3   4
HETATM    4  C5  UNL     1     -32.542   7.637   1.085  1.00 20.00     0.003 C 
HETATM    5  C2  UNL     1     -32.921   9.063   0.711  1.00 20.00     0.005 C 
ENDBRANCH   3   4
ENDBRANCH   1   3
BRANCH   1   6
HETATM    6  C4  UNL     1     -34.041   6.513   4.385  1.00 20.00     0.192 C 
HETATM    7 CL7  UNL     1     -35.089   5.143   4.779  1.00 20.00    -0.123 Cl
ENDBRANCH   1   6
TORSDOF 3
ENDMDL
MODEL 5
REMARK VINA RESULT:      -3.9      2.839      3.796
REMARK  3 active torsions:
REMARK  status: ('A' for Active; 'I' for Inactive)
REMARK    1  A    between atoms: C1_1  and  C3_3 
REMARK    2  A    between atoms: C1_1  and  C4_4 
REMARK    3  A    between atoms: C3_3  and  C5_5 
ROOT
HETATM    1  C1  UNL     1     -33.661   6.362   4.038  1.00 20.00     0.140 C 
HETATM    2  O6  UNL     1     -33.208   7.168   4.848  1.00 20.00    -0.297 OA
ENDROOT
BRANCH   1   3
HETATM    3  C3  UNL     1     -33.094   6.230   2.630  1.00 20.00     0.079 C 
BRANCH   3   4
HETATM    4  C5  UNL     1     -32.195   7.393   2.212  1.00 20.00     0.003 C 
HETATM    5  C2  UNL     1     -32.809   8.237   1.105  1.00 20.00     0.005 C 
ENDBRANCH   3   4
ENDBRANCH   1   3
BRANCH   1   6
HETATM    6  C4  UNL     1     -34.838   5.460   4.342  1.00 20.00     0.192 C 
HETATM    7 CL7  UNL     1     -34.924   5.101   6.073  1.00 20.00    -0.123 Cl
ENDBRANCH   1   6
TORSDOF 3
ENDMDL
MODEL 6
REMARK VINA RESULT:      -3.8      2.633      2.883
REMARK  3 active torsions:
REMARK  status: ('A' for Active; 'I' for Inactive)
REMARK    1  A    between atoms: C1_1  and  C3_3 
REMARK    2  A    between atoms: C1_1  and  C4_4 
REMARK    3  A    between atoms: C3_3  and  C5_5 
ROOT
HETATM    1  C1  UNL     1     -32.511   7.128   2.967  1.00 20.00     0.140 C 
HETATM    2  O6  UNL     1     -31.674   7.624   3.718  1.00 20.00    -0.297 OA
ENDROOT
BRANCH   1   3
HETATM    3  C3  UNL     1     -33.624   6.227   3.485  1.00 20.00     0.079 C 
BRANCH   3   4
HETATM    4  C5  UNL     1     -34.050   6.531   4.921  1.00 20.00     0.003 C 
HETATM    5  C2  UNL     1     -34.797   5.372   5.566  1.00 20.00     0.005 C 
ENDBRANCH   3   4
ENDBRANCH   1   3
BRANCH   1   6
HETATM    6  C4  UNL     1     -32.493   7.327   1.466  1.00 20.00     0.192 C 
HETATM    7 CL7  UNL     1     -32.931   8.989   1.047  1.00 20.00    -0.123 Cl
ENDBRANCH   1   6
TORSDOF 3
ENDMDL
MODEL 7
REMARK VINA RESULT:      -3.7      2.933      3.927
REMARK  3 active torsions:
REMARK  status: ('A' for Active; 'I' for Inactive)
REMARK    1  A    between atoms: C1_1  and  C3_3 
REMARK    2  A    between atoms: C1_1  and  C4_4 
REMARK    3  A    between atoms: C3_3  and  C5_5 
ROOT
HETATM    1  C1  UNL     1     -33.164   6.540   3.356  1.00 20.00     0.140 C 
HETATM    2  O6  UNL     1     -33.685   6.856   4.424  1.00 20.00    -0.297 OA
ENDROOT
BRANCH   1   3
HETATM    3  C3  UNL     1     -32.243   7.486   2.598  1.00 20.00     0.079 C 
BRANCH   3   4
HETATM    4  C5  UNL     1     -32.595   7.640   1.119  1.00 20.00     0.003 C 
HETATM    5  C2  UNL     1     -32.890   9.083   0.735  1.00 20.00     0.005 C 
ENDBRANCH   3   4
ENDBRANCH   1   3
BRANCH   1   6
HETATM    6  C4  UNL     1     -33.415   5.209   2.679  1.00 20.00     0.192 C 
HETATM    7 CL7  UNL     1     -34.209   4.080   3.786  1.00 20.00    -0.123 Cl
ENDBRANCH   1   6
TORSDOF 3
ENDMDL
MODEL 8
REMARK VINA RESULT:      -3.7      2.392      2.571
REMARK  3 active torsions:
REMARK  status: ('A' for Active; 'I' for Inactive)
REMARK    1  A    between atoms: C1_1  and  C3_3 
REMARK    2  A    between atoms: C1_1  and  C4_4 
REMARK    3  A    between atoms: C3_3  and  C5_5 
ROOT
HETATM    1  C1  UNL     1     -32.763   7.024   3.553  1.00 20.00     0.140 C 
HETATM    2  O6  UNL     1     -31.798   7.656   3.979  1.00 20.00    -0.297 OA
ENDROOT
BRANCH   1   3
HETATM    3  C3  UNL     1     -34.081   6.957   4.313  1.00 20.00     0.079 C 
BRANCH   3   4
HETATM    4  C5  UNL     1     -33.938   6.502   5.765  1.00 20.00     0.003 C 
HETATM    5  C2  UNL     1     -34.714   5.225   6.056  1.00 20.00     0.005 C 
ENDBRANCH   3   4
ENDBRANCH   1   3
BRANCH   1   6
HETATM    6  C4  UNL     1     -32.723   6.227   2.267  1.00 20.00     0.192 C 
HETATM    7 CL7  UNL     1     -33.312   4.579   2.530  1.00 20.00    -0.123 Cl
ENDBRANCH   1   6
TORSDOF 3
ENDMDL
MODEL 9
REMARK VINA RESULT:      -3.6     12.393     12.883
REMARK  3 active torsions:
REMARK  status: ('A' for Active; 'I' for Inactive)
REMARK    1  A    between atoms: C1_1  and  C3_3 
REMARK    2  A    between atoms: C1_1  and  C4_4 
REMARK    3  A    between atoms: C3_3  and  C5_5 
ROOT
HETATM    1  C1  UNL     1     -36.041  14.044  -4.857  1.00 20.00     0.140 C 
HETATM    2  O6  UNL     1     -37.117  13.536  -4.544  1.00 20.00    -0.297 OA
ENDROOT
BRANCH   1   3
HETATM    3  C3  UNL     1     -34.866  14.100  -3.890  1.00 20.00     0.079 C 
BRANCH   3   4
HETATM    4  C5  UNL     1     -34.862  15.334  -2.989  1.00 20.00     0.003 C 
HETATM    5  C2  UNL     1     -33.532  16.073  -3.016  1.00 20.00     0.005 C 
ENDBRANCH   3   4
ENDBRANCH   1   3
BRANCH   1   6
HETATM    6  C4  UNL     1     -35.796  14.691  -6.203  1.00 20.00     0.192 C 
HETATM    7 CL7  UNL     1     -34.064  14.897  -6.496  1.00 20.00    -0.123 Cl
ENDBRANCH   1   6
TORSDOF 3
ENDMDL
