MODEL 1
REMARK VINA RESULT:      -3.8      0.000      0.000
REMARK  2 active torsions:
REMARK  status: ('A' for Active; 'I' for Inactive)
REMARK    1  A    between atoms: C1_1  and  C7_7 
REMARK    2  A    between atoms: C7_7  and  N8_8 
ROOT
HETATM    1  C2  UNL     1     -34.401  16.132  -2.273  1.00 20.00     0.040 C 
HETATM    2  C3  UNL     1     -34.246  15.361  -3.588  1.00 20.00     0.273 C 
HETATM    3  C4  UNL     1     -34.415  16.793  -5.551  1.00 20.00     0.283 C 
HETATM    4  C5  UNL     1     -34.399  17.655  -2.324  1.00 20.00     0.075 C 
HETATM    5  C6  UNL     1     -34.253  18.214  -5.008  1.00 20.00     0.104 C 
HETATM    6  N8  UNL     1     -35.125  15.851  -4.663  1.00 20.00     0.095 N 
HETATM    7  S10 UNL     1     -33.229  18.360  -3.515  1.00 20.00    -0.167 SA
ENDROOT
BRANCH   6   8
HETATM    8  C7  UNL     1     -35.604  14.714  -5.460  1.00 20.00     0.341 C 
BRANCH   8   9
HETATM    9  C1  UNL     1     -36.199  13.697  -4.528  1.00 20.00     0.261 C 
HETATM   10  O9  UNL     1     -35.832  12.525  -4.506  1.00 20.00    -0.305 OA
ENDBRANCH   8   9
ENDBRANCH   6   8
TORSDOF 2
ENDMDL
MODEL 2
REMARK VINA RESULT:      -3.8      0.872      1.000
REMARK  2 active torsions:
REMARK  status: ('A' for Active; 'I' for Inactive)
REMARK    1  A    between atoms: C1_1  and  C7_7 
REMARK    2  A    between atoms: C7_7  and  N8_8 
ROOT
HETATM    1  C2  UNL     1     -34.760  16.665  -1.671  1.00 20.00     0.040 C 
HETATM    2  C3  UNL     1     -35.058  15.517  -2.642  1.00 20.00     0.273 C 
HETATM    3  C4  UNL     1     -35.257  16.259  -4.954  1.00 20.00     0.283 C 
HETATM    4  C5  UNL     1     -34.398  18.027  -2.253  1.00 20.00     0.075 C 
HETATM    5  C6  UNL     1     -34.652  17.664  -4.963  1.00 20.00     0.104 C 
HETATM    6  N8  UNL     1     -35.985  15.888  -3.724  1.00 20.00     0.095 N 
HETATM    7  S10 UNL     1     -33.350  17.953  -3.729  1.00 20.00    -0.167 SA
ENDROOT
BRANCH   6   8
HETATM    8  C7  UNL     1     -36.873  14.756  -4.018  1.00 20.00     0.341 C 
BRANCH   8   9
HETATM    9  C1  UNL     1     -36.128  13.780  -4.883  1.00 20.00     0.261 C 
HETATM   10  O9  UNL     1     -35.879  12.632  -4.523  1.00 20.00    -0.305 OA
ENDBRANCH   8   9
ENDBRANCH   6   8
TORSDOF 2
ENDMDL
MODEL 3
REMARK VINA RESULT:      -3.7      1.681      1.941
REMARK  2 active torsions:
REMARK  status: ('A' for Active; 'I' for Inactive)
REMARK    1  A    between atoms: C1_1  and  C7_7 
REMARK    2  A    between atoms: C7_7  and  N8_8 
ROOT
HETATM    1  C2  UNL     1     -32.865  17.247  -2.207  1.00 20.00     0.040 C 
HETATM    2  C3  UNL     1     -33.340  16.472  -3.441  1.00 20.00     0.273 C 
HETATM    3  C4  UNL     1     -35.760  16.204  -3.518  1.00 20.00     0.283 C 
HETATM    4  C5  UNL     1     -33.913  17.938  -1.341  1.00 20.00     0.075 C 
HETATM    5  C6  UNL     1     -36.294  17.215  -2.501  1.00 20.00     0.104 C 
HETATM    6  N8  UNL     1     -34.473  15.571  -3.169  1.00 20.00     0.095 N 
HETATM    7  S10 UNL     1     -35.269  18.698  -2.273  1.00 20.00    -0.167 SA
ENDROOT
BRANCH   6   8
HETATM    8  C7  UNL     1     -34.318  14.340  -3.954  1.00 20.00     0.341 C 
BRANCH   8   9
HETATM    9  C1  UNL     1     -35.686  13.806  -4.275  1.00 20.00     0.261 C 
HETATM   10  O9  UNL     1     -35.894  12.619  -4.511  1.00 20.00    -0.305 OA
ENDBRANCH   8   9
ENDBRANCH   6   8
TORSDOF 2
ENDMDL
MODEL 4
REMARK VINA RESULT:      -3.7      2.151      2.467
REMARK  2 active torsions:
REMARK  status: ('A' for Active; 'I' for Inactive)
REMARK    1  A    between atoms: C1_1  and  C7_7 
REMARK    2  A    between atoms: C7_7  and  N8_8 
ROOT
HETATM    1  C2  UNL     1     -34.601  15.911  -2.657  1.00 20.00     0.040 C 
HETATM    2  C3  UNL     1     -35.822  15.311  -3.362  1.00 20.00     0.273 C 
HETATM    3  C4  UNL     1     -35.450  14.926  -5.739  1.00 20.00     0.283 C 
HETATM    4  C5  UNL     1     -33.283  15.969  -3.421  1.00 20.00     0.075 C 
HETATM    5  C6  UNL     1     -33.932  15.015  -5.912  1.00 20.00     0.104 C 
HETATM    6  N8  UNL     1     -36.027  15.830  -4.725  1.00 20.00     0.095 N 
HETATM    7  S10 UNL     1     -32.957  14.521  -4.460  1.00 20.00    -0.167 SA
ENDROOT
BRANCH   6   8
HETATM    8  C7  UNL     1     -37.466  15.977  -4.981  1.00 20.00     0.341 C 
BRANCH   8   9
HETATM    9  C1  UNL     1     -38.207  15.013  -4.099  1.00 20.00     0.261 C 
HETATM   10  O9  UNL     1     -38.554  13.898  -4.481  1.00 20.00    -0.305 OA
ENDBRANCH   8   9
ENDBRANCH   6   8
TORSDOF 2
ENDMDL
MODEL 5
REMARK VINA RESULT:      -3.6      1.112      2.160
REMARK  2 active torsions:
REMARK  status: ('A' for Active; 'I' for Inactive)
REMARK    1  A    between atoms: C1_1  and  C7_7 
REMARK    2  A    between atoms: C7_7  and  N8_8 
ROOT
HETATM    1  C2  UNL     1     -35.459  18.189  -4.880  1.00 20.00     0.040 C 
HETATM    2  C3  UNL     1     -36.103  17.164  -3.940  1.00 20.00     0.273 C 
HETATM    3  C4  UNL     1     -34.488  15.610  -2.985  1.00 20.00     0.283 C 
HETATM    4  C5  UNL     1     -33.938  18.276  -4.922  1.00 20.00     0.075 C 
HETATM    5  C6  UNL     1     -33.127  16.259  -3.245  1.00 20.00     0.104 C 
HETATM    6  N8  UNL     1     -35.503  15.822  -4.036  1.00 20.00     0.095 N 
HETATM    7  S10 UNL     1     -33.135  18.075  -3.310  1.00 20.00    -0.167 SA
ENDROOT
BRANCH   6   8
HETATM    8  C7  UNL     1     -36.554  14.805  -3.895  1.00 20.00     0.341 C 
BRANCH   8   9
HETATM    9  C1  UNL     1     -36.256  13.681  -4.845  1.00 20.00     0.261 C 
HETATM   10  O9  UNL     1     -35.848  12.585  -4.467  1.00 20.00    -0.305 OA
ENDBRANCH   8   9
ENDBRANCH   6   8
TORSDOF 2
ENDMDL
MODEL 6
REMARK VINA RESULT:      -3.6      1.985      2.924
REMARK  2 active torsions:
REMARK  status: ('A' for Active; 'I' for Inactive)
REMARK    1  A    between atoms: C1_1  and  C7_7 
REMARK    2  A    between atoms: C7_7  and  N8_8 
ROOT
HETATM    1  C2  UNL     1     -34.637  15.291  -5.688  1.00 20.00     0.040 C 
HETATM    2  C3  UNL     1     -35.749  16.269  -5.293  1.00 20.00     0.273 C 
HETATM    3  C4  UNL     1     -35.955  16.544  -2.881  1.00 20.00     0.283 C 
HETATM    4  C5  UNL     1     -33.677  14.814  -4.605  1.00 20.00     0.075 C 
HETATM    5  C6  UNL     1     -34.658  15.964  -2.313  1.00 20.00     0.104 C 
HETATM    6  N8  UNL     1     -36.483  15.865  -4.082  1.00 20.00     0.095 N 
HETATM    7  S10 UNL     1     -33.211  16.089  -3.405  1.00 20.00    -0.167 SA
ENDROOT
BRANCH   6   8
HETATM    8  C7  UNL     1     -37.904  16.204  -4.235  1.00 20.00     0.341 C 
BRANCH   8   9
HETATM    9  C1  UNL     1     -38.692  14.927  -4.301  1.00 20.00     0.261 C 
HETATM   10  O9  UNL     1     -38.158  13.821  -4.348  1.00 20.00    -0.305 OA
ENDBRANCH   8   9
ENDBRANCH   6   8
TORSDOF 2
ENDMDL
MODEL 7
REMARK VINA RESULT:      -3.6      1.479      1.801
REMARK  2 active torsions:
REMARK  status: ('A' for Active; 'I' for Inactive)
REMARK    1  A    between atoms: C1_1  and  C7_7 
REMARK    2  A    between atoms: C7_7  and  N8_8 
ROOT
HETATM    1  C2  UNL     1     -36.495  17.405  -3.052  1.00 20.00     0.040 C 
HETATM    2  C3  UNL     1     -36.180  15.954  -3.432  1.00 20.00     0.273 C 
HETATM    3  C4  UNL     1     -33.789  15.503  -3.547  1.00 20.00     0.283 C 
HETATM    4  C5  UNL     1     -35.350  18.291  -2.576  1.00 20.00     0.075 C 
HETATM    5  C6  UNL     1     -33.137  16.687  -2.830  1.00 20.00     0.104 C 
HETATM    6  N8  UNL     1     -35.010  15.819  -4.315  1.00 20.00     0.095 N 
HETATM    7  S10 UNL     1     -34.141  17.448  -1.522  1.00 20.00    -0.167 SA
ENDROOT
BRANCH   6   8
HETATM    8  C7  UNL     1     -35.252  14.746  -5.288  1.00 20.00     0.341 C 
BRANCH   8   9
HETATM    9  C1  UNL     1     -36.173  13.737  -4.664  1.00 20.00     0.261 C 
HETATM   10  O9  UNL     1     -35.841  12.571  -4.464  1.00 20.00    -0.305 OA
ENDBRANCH   8   9
ENDBRANCH   6   8
TORSDOF 2
ENDMDL
MODEL 8
REMARK VINA RESULT:      -3.4      3.641      5.034
REMARK  2 active torsions:
REMARK  status: ('A' for Active; 'I' for Inactive)
REMARK    1  A    between atoms: C1_1  and  C7_7 
REMARK    2  A    between atoms: C7_7  and  N8_8 
ROOT
HETATM    1  C2  UNL     1     -34.266  16.005  -2.446  1.00 20.00     0.040 C 
HETATM    2  C3  UNL     1     -34.295  17.229  -1.524  1.00 20.00     0.273 C 
HETATM    3  C4  UNL     1     -33.064  19.126  -2.429  1.00 20.00     0.283 C 
HETATM    4  C5  UNL     1     -33.713  16.177  -3.856  1.00 20.00     0.075 C 
HETATM    5  C6  UNL     1     -32.861  18.786  -3.907  1.00 20.00     0.104 C 
HETATM    6  N8  UNL     1     -33.027  17.978  -1.502  1.00 20.00     0.095 N 
HETATM    7  S10 UNL     1     -34.155  17.746  -4.646  1.00 20.00    -0.167 SA
ENDROOT
BRANCH   6   8
HETATM    8  C7  UNL     1     -32.773  18.471  -0.142  1.00 20.00     0.341 C 
BRANCH   8   9
HETATM    9  C1  UNL     1     -31.331  18.882  -0.048  1.00 20.00     0.261 C 
HETATM   10  O9  UNL     1     -30.414  18.185  -0.474  1.00 20.00    -0.305 OA
ENDBRANCH   8   9
ENDBRANCH   6   8
TORSDOF 2
ENDMDL
MODEL 9
REMARK VINA RESULT:      -3.3     11.297     13.086
REMARK  2 active torsions:
REMARK  status: ('A' for Active; 'I' for Inactive)
REMARK    1  A    between atoms: C1_1  and  C7_7 
REMARK    2  A    between atoms: C7_7  and  N8_8 
ROOT
HETATM    1  C2  UNL     1     -42.119   4.902  -1.478  1.00 20.00     0.040 C 
HETATM    2  C3  UNL     1     -41.187   5.967  -0.890  1.00 20.00     0.273 C 
HETATM    3  C4  UNL     1     -42.203   7.207   0.944  1.00 20.00     0.283 C 
HETATM    4  C5  UNL     1     -43.411   4.584  -0.735  1.00 20.00     0.075 C 
HETATM    5  C6  UNL     1     -43.417   6.369   1.351  1.00 20.00     0.104 C 
HETATM    6  N8  UNL     1     -41.883   7.204  -0.497  1.00 20.00     0.095 N 
HETATM    7  S10 UNL     1     -43.254   4.581   1.070  1.00 20.00    -0.167 SA
ENDROOT
BRANCH   6   8
HETATM    8  C7  UNL     1     -41.033   8.362  -0.799  1.00 20.00     0.341 C 
BRANCH   8   9
HETATM    9  C1  UNL     1     -41.056   9.289   0.383  1.00 20.00     0.261 C 
HETATM   10  O9  UNL     1     -41.542  10.417   0.330  1.00 20.00    -0.305 OA
ENDBRANCH   8   9
ENDBRANCH   6   8
TORSDOF 2
ENDMDL
