MODEL 1
REMARK VINA RESULT:      -5.2      0.000      0.000
REMARK  0 active torsions:
REMARK  status: ('A' for Active; 'I' for Inactive)
ROOT
HETATM    1  C1  UNL     1     -32.942   7.416   3.584  1.00 20.00     0.055 A 
HETATM    2  C2  UNL     1     -33.592   6.588   4.466  1.00 20.00    -0.029 A 
HETATM    3  C3  UNL     1     -33.996   5.335   4.038  1.00 20.00     0.063 A 
HETATM    4  C4  UNL     1     -32.755   6.918   2.308  1.00 20.00     0.148 A 
HETATM    5  C5  UNL     1     -33.919   6.800   5.906  1.00 20.00     0.041 C 
HETATM    6  C6  UNL     1     -34.634   4.562   5.153  1.00 20.00     0.062 C 
HETATM    7  C7  UNL     1     -34.965   5.696   6.135  1.00 20.00     0.011 C 
HETATM    8  N8  UNL     1     -33.795   4.867   2.796  1.00 20.00    -0.153 NA
HETATM    9  N9  UNL     1     -33.165   5.684   1.910  1.00 20.00    -0.138 NA
HETATM   10 CL10 UNL     1     -31.963   7.839   1.098  1.00 20.00    -0.060 Cl
ENDROOT
TORSDOF 0
ENDMDL
MODEL 2
REMARK VINA RESULT:      -5.1      1.557      2.005
REMARK  0 active torsions:
REMARK  status: ('A' for Active; 'I' for Inactive)
ROOT
HETATM    1  C1  UNL     1     -33.572   6.133   2.564  1.00 20.00     0.055 A 
HETATM    2  C2  UNL     1     -34.036   5.939   3.842  1.00 20.00    -0.029 A 
HETATM    3  C3  UNL     1     -33.510   6.701   4.871  1.00 20.00     0.063 A 
HETATM    4  C4  UNL     1     -32.583   7.088   2.415  1.00 20.00     0.148 A 
HETATM    5  C5  UNL     1     -35.107   5.026   4.337  1.00 20.00     0.041 C 
HETATM    6  C6  UNL     1     -34.180   6.386   6.175  1.00 20.00     0.062 C 
HETATM    7  C7  UNL     1     -34.819   5.028   5.848  1.00 20.00     0.011 C 
HETATM    8  N8  UNL     1     -32.556   7.630   4.702  1.00 20.00    -0.153 NA
HETATM    9  N9  UNL     1     -32.078   7.820   3.443  1.00 20.00    -0.138 NA
HETATM   10 CL10 UNL     1     -31.903   7.436   0.880  1.00 20.00    -0.060 Cl
ENDROOT
TORSDOF 0
ENDMDL
MODEL 3
REMARK VINA RESULT:      -4.9     16.057     16.607
REMARK  0 active torsions:
REMARK  status: ('A' for Active; 'I' for Inactive)
ROOT
HETATM    1  C1  UNL     1     -25.098  18.773   8.738  1.00 20.00     0.055 A 
HETATM    2  C2  UNL     1     -24.205  18.395   9.711  1.00 20.00    -0.029 A 
HETATM    3  C3  UNL     1     -22.902  18.101   9.350  1.00 20.00     0.063 A 
HETATM    4  C4  UNL     1     -24.606  18.813   7.446  1.00 20.00     0.148 A 
HETATM    5  C5  UNL     1     -24.397  18.284  11.186  1.00 20.00     0.041 C 
HETATM    6  C6  UNL     1     -22.070  17.766  10.552  1.00 20.00     0.062 C 
HETATM    7  C7  UNL     1     -23.167  17.450  11.581  1.00 20.00     0.011 C 
HETATM    8  N8  UNL     1     -22.443  18.157   8.090  1.00 20.00    -0.153 NA
HETATM    9  N9  UNL     1     -23.321  18.515   7.116  1.00 20.00    -0.138 NA
HETATM   10 CL10 UNL     1     -25.604  19.263   6.126  1.00 20.00    -0.060 Cl
ENDROOT
TORSDOF 0
ENDMDL
MODEL 4
REMARK VINA RESULT:      -4.8     11.832     12.405
REMARK  0 active torsions:
REMARK  status: ('A' for Active; 'I' for Inactive)
ROOT
HETATM    1  C1  UNL     1     -36.998  15.886  -3.938  1.00 20.00     0.055 A 
HETATM    2  C2  UNL     1     -35.643  15.667  -3.930  1.00 20.00    -0.029 A 
HETATM    3  C3  UNL     1     -35.165  14.404  -4.238  1.00 20.00     0.063 A 
HETATM    4  C4  UNL     1     -37.789  14.795  -4.247  1.00 20.00     0.148 A 
HETATM    5  C5  UNL     1     -34.526  16.622  -3.676  1.00 20.00     0.041 C 
HETATM    6  C6  UNL     1     -33.666  14.377  -4.232  1.00 20.00     0.062 C 
HETATM    7  C7  UNL     1     -33.359  15.651  -3.428  1.00 20.00     0.011 C 
HETATM    8  N8  UNL     1     -35.951  13.361  -4.546  1.00 20.00    -0.153 NA
HETATM    9  N9  UNL     1     -37.295  13.563  -4.542  1.00 20.00    -0.138 NA
HETATM   10 CL10 UNL     1     -39.499  14.916  -4.293  1.00 20.00    -0.060 Cl
ENDROOT
TORSDOF 0
ENDMDL
MODEL 5
REMARK VINA RESULT:      -4.7     14.951     15.718
REMARK  0 active torsions:
REMARK  status: ('A' for Active; 'I' for Inactive)
ROOT
HETATM    1  C1  UNL     1     -26.379  19.025   6.924  1.00 20.00     0.055 A 
HETATM    2  C2  UNL     1     -26.445  18.985   5.553  1.00 20.00    -0.029 A 
HETATM    3  C3  UNL     1     -25.272  19.063   4.821  1.00 20.00     0.063 A 
HETATM    4  C4  UNL     1     -25.115  19.157   7.469  1.00 20.00     0.148 A 
HETATM    5  C5  UNL     1     -27.629  18.816   4.662  1.00 20.00     0.041 C 
HETATM    6  C6  UNL     1     -25.543  18.947   3.351  1.00 20.00     0.062 C 
HETATM    7  C7  UNL     1     -27.046  19.263   3.311  1.00 20.00     0.011 C 
HETATM    8  N8  UNL     1     -24.053  19.182   5.371  1.00 20.00    -0.153 NA
HETATM    9  N9  UNL     1     -23.977  19.237   6.727  1.00 20.00    -0.138 NA
HETATM   10 CL10 UNL     1     -24.876  19.225   9.165  1.00 20.00    -0.060 Cl
ENDROOT
TORSDOF 0
ENDMDL
MODEL 6
REMARK VINA RESULT:      -4.5     11.571     12.108
REMARK  0 active torsions:
REMARK  status: ('A' for Active; 'I' for Inactive)
ROOT
HETATM    1  C1  UNL     1     -35.539  15.382  -2.802  1.00 20.00     0.055 A 
HETATM    2  C2  UNL     1     -34.709  16.340  -2.274  1.00 20.00    -0.029 A 
HETATM    3  C3  UNL     1     -33.412  16.441  -2.746  1.00 20.00     0.063 A 
HETATM    4  C4  UNL     1     -34.986  14.570  -3.776  1.00 20.00     0.148 A 
HETATM    5  C5  UNL     1     -34.995  17.385  -1.248  1.00 20.00     0.041 C 
HETATM    6  C6  UNL     1     -32.685  17.577  -2.090  1.00 20.00     0.062 C 
HETATM    7  C7  UNL     1     -33.570  17.811  -0.857  1.00 20.00     0.011 C 
HETATM    8  N8  UNL     1     -32.899  15.649  -3.700  1.00 20.00    -0.153 NA
HETATM    9  N9  UNL     1     -33.706  14.687  -4.220  1.00 20.00    -0.138 NA
HETATM   10 CL10 UNL     1     -35.899  13.327  -4.525  1.00 20.00    -0.060 Cl
ENDROOT
TORSDOF 0
ENDMDL
MODEL 7
REMARK VINA RESULT:      -4.4     11.903     12.418
REMARK  0 active torsions:
REMARK  status: ('A' for Active; 'I' for Inactive)
ROOT
HETATM    1  C1  UNL     1     -32.759  17.401  -2.012  1.00 20.00     0.055 A 
HETATM    2  C2  UNL     1     -33.507  16.454  -2.667  1.00 20.00    -0.029 A 
HETATM    3  C3  UNL     1     -34.773  16.153  -2.196  1.00 20.00     0.063 A 
HETATM    4  C4  UNL     1     -33.346  17.976  -0.900  1.00 20.00     0.148 A 
HETATM    5  C5  UNL     1     -33.190  15.678  -3.902  1.00 20.00     0.041 C 
HETATM    6  C6  UNL     1     -35.451  15.142  -3.072  1.00 20.00     0.062 C 
HETATM    7  C7  UNL     1     -34.244  14.561  -3.826  1.00 20.00     0.011 C 
HETATM    8  N8  UNL     1     -35.328  16.731  -1.119  1.00 20.00    -0.153 NA
HETATM    9  N9  UNL     1     -34.591  17.659  -0.453  1.00 20.00    -0.138 NA
HETATM   10 CL10 UNL     1     -32.532  19.171   0.021  1.00 20.00    -0.060 Cl
ENDROOT
TORSDOF 0
ENDMDL
MODEL 8
REMARK VINA RESULT:      -4.3     11.938     12.451
REMARK  0 active torsions:
REMARK  status: ('A' for Active; 'I' for Inactive)
ROOT
HETATM    1  C1  UNL     1     -35.310  16.542  -1.405  1.00 20.00     0.055 A 
HETATM    2  C2  UNL     1     -34.727  15.881  -2.459  1.00 20.00    -0.029 A 
HETATM    3  C3  UNL     1     -33.448  16.236  -2.850  1.00 20.00     0.063 A 
HETATM    4  C4  UNL     1     -34.553  17.540  -0.820  1.00 20.00     0.148 A 
HETATM    5  C5  UNL     1     -35.248  14.747  -3.277  1.00 20.00     0.041 C 
HETATM    6  C6  UNL     1     -32.965  15.369  -3.973  1.00 20.00     0.062 C 
HETATM    7  C7  UNL     1     -34.295  14.792  -4.483  1.00 20.00     0.011 C 
HETATM    8  N8  UNL     1     -32.726  17.202  -2.261  1.00 20.00    -0.153 NA
HETATM    9  N9  UNL     1     -33.298  17.873  -1.226  1.00 20.00    -0.138 NA
HETATM   10 CL10 UNL     1     -35.149  18.453   0.502  1.00 20.00    -0.060 Cl
ENDROOT
TORSDOF 0
ENDMDL
MODEL 9
REMARK VINA RESULT:      -4.2     11.849     12.493
REMARK  0 active torsions:
REMARK  status: ('A' for Active; 'I' for Inactive)
ROOT
HETATM    1  C1  UNL     1     -32.994  16.468  -2.982  1.00 20.00     0.055 A 
HETATM    2  C2  UNL     1     -33.069  17.362  -1.943  1.00 20.00    -0.029 A 
HETATM    3  C3  UNL     1     -34.198  17.369  -1.142  1.00 20.00     0.063 A 
HETATM    4  C4  UNL     1     -34.087  15.639  -3.151  1.00 20.00     0.148 A 
HETATM    5  C5  UNL     1     -32.065  18.359  -1.471  1.00 20.00     0.041 C 
HETATM    6  C6  UNL     1     -34.070  18.371  -0.034  1.00 20.00     0.062 C 
HETATM    7  C7  UNL     1     -32.938  19.256  -0.577  1.00 20.00     0.011 C 
HETATM    8  N8  UNL     1     -35.245  16.547  -1.318  1.00 20.00    -0.153 NA
HETATM    9  N9  UNL     1     -35.188  15.667  -2.352  1.00 20.00    -0.138 NA
HETATM   10 CL10 UNL     1     -34.138  14.474  -4.408  1.00 20.00    -0.060 Cl
ENDROOT
TORSDOF 0
ENDMDL
