MODEL 1
REMARK VINA RESULT:      -5.8      0.000      0.000
REMARK  2 active torsions:
REMARK  status: ('A' for Active; 'I' for Inactive)
REMARK    1  A    between atoms: C2_2  and  C3_3 
REMARK    2  A    between atoms: C3_3  and  C8_8 
ROOT
HETATM    1  C3  UNL     1     -32.567   7.178   3.166  1.00 20.00     0.159 C 
HETATM    2  O11 UNL     1     -31.517   7.638   3.637  1.00 20.00    -0.292 OA
ENDROOT
BRANCH   1   3
HETATM    3  C2  UNL     1     -33.511   6.493   3.992  1.00 20.00    -0.016 C 
HETATM    4  C1  UNL     1     -34.287   5.467   3.623  1.00 20.00    -0.016 C 
HETATM    5  C4  UNL     1     -35.168   5.013   4.740  1.00 20.00     0.028 C 
HETATM    6  C6  UNL     1     -34.558   5.708   5.957  1.00 20.00     0.009 C 
HETATM    7  C5  UNL     1     -33.750   6.888   5.414  1.00 20.00     0.042 C 
ENDBRANCH   1   3
BRANCH   1   8
HETATM    8  C8  UNL     1     -32.872   7.325   1.689  1.00 20.00     0.064 A 
HETATM    9  C7  UNL     1     -31.732   7.561   0.770  1.00 20.00     0.018 A 
HETATM   10  C9  UNL     1     -32.694   8.677   1.081  1.00 20.00    -0.006 A 
HETATM   11  C10 UNL     1     -33.668   9.138   0.052  1.00 20.00     0.011 C 
ENDBRANCH   1   8
TORSDOF 2
ENDMDL
MODEL 2
REMARK VINA RESULT:      -5.2     10.422     11.503
REMARK  2 active torsions:
REMARK  status: ('A' for Active; 'I' for Inactive)
REMARK    1  A    between atoms: C2_2  and  C3_3 
REMARK    2  A    between atoms: C3_3  and  C8_8 
ROOT
HETATM    1  C3  UNL     1     -35.006  14.054  -4.118  1.00 20.00     0.159 C 
HETATM    2  O11 UNL     1     -34.616  12.891  -3.934  1.00 20.00    -0.292 OA
ENDROOT
BRANCH   1   3
HETATM    3  C2  UNL     1     -34.436  15.148  -3.396  1.00 20.00    -0.016 C 
HETATM    4  C1  UNL     1     -33.240  15.706  -3.620  1.00 20.00    -0.016 C 
HETATM    5  C4  UNL     1     -32.962  16.815  -2.660  1.00 20.00     0.028 C 
HETATM    6  C6  UNL     1     -34.330  17.070  -2.030  1.00 20.00     0.009 C 
HETATM    7  C5  UNL     1     -35.146  15.795  -2.251  1.00 20.00     0.042 C 
ENDBRANCH   1   3
BRANCH   1   8
HETATM    8  C8  UNL     1     -36.111  14.341  -5.113  1.00 20.00     0.064 A 
HETATM    9  C7  UNL     1     -35.720  14.608  -6.519  1.00 20.00     0.018 A 
HETATM   10  C9  UNL     1     -36.212  15.733  -5.647  1.00 20.00    -0.006 A 
HETATM   11  C10 UNL     1     -37.561  16.322  -5.870  1.00 20.00     0.011 C 
ENDBRANCH   1   8
TORSDOF 2
ENDMDL
MODEL 3
REMARK VINA RESULT:      -5.1     10.437     11.488
REMARK  2 active torsions:
REMARK  status: ('A' for Active; 'I' for Inactive)
REMARK    1  A    between atoms: C2_2  and  C3_3 
REMARK    2  A    between atoms: C3_3  and  C8_8 
ROOT
HETATM    1  C3  UNL     1     -34.993  14.076  -4.117  1.00 20.00     0.159 C 
HETATM    2  O11 UNL     1     -34.537  12.938  -3.935  1.00 20.00    -0.292 OA
ENDROOT
BRANCH   1   3
HETATM    3  C2  UNL     1     -34.517  15.193  -3.364  1.00 20.00    -0.016 C 
HETATM    4  C1  UNL     1     -35.135  15.768  -2.325  1.00 20.00    -0.016 C 
HETATM    5  C4  UNL     1     -34.357  16.926  -1.793  1.00 20.00     0.028 C 
HETATM    6  C6  UNL     1     -32.993  16.753  -2.460  1.00 20.00     0.009 C 
HETATM    7  C5  UNL     1     -33.228  15.875  -3.691  1.00 20.00     0.042 C 
ENDBRANCH   1   3
BRANCH   1   8
HETATM    8  C8  UNL     1     -36.081  14.308  -5.145  1.00 20.00     0.064 A 
HETATM    9  C7  UNL     1     -35.664  14.600  -6.538  1.00 20.00     0.018 A 
HETATM   10  C9  UNL     1     -36.240  15.694  -5.678  1.00 20.00    -0.006 A 
HETATM   11  C10 UNL     1     -37.612  16.211  -5.941  1.00 20.00     0.011 C 
ENDBRANCH   1   8
TORSDOF 2
ENDMDL
MODEL 4
REMARK VINA RESULT:      -4.6     10.749     11.689
REMARK  2 active torsions:
REMARK  status: ('A' for Active; 'I' for Inactive)
REMARK    1  A    between atoms: C2_2  and  C3_3 
REMARK    2  A    between atoms: C3_3  and  C8_8 
ROOT
HETATM    1  C3  UNL     1     -33.518  15.456  -4.135  1.00 20.00     0.159 C 
HETATM    2  O11 UNL     1     -32.622  14.602  -4.186  1.00 20.00    -0.292 OA
ENDROOT
BRANCH   1   3
HETATM    3  C2  UNL     1     -33.788  16.174  -2.929  1.00 20.00    -0.016 C 
HETATM    4  C1  UNL     1     -33.009  17.111  -2.375  1.00 20.00    -0.016 C 
HETATM    5  C4  UNL     1     -33.594  17.634  -1.105  1.00 20.00     0.028 C 
HETATM    6  C6  UNL     1     -35.028  17.109  -1.151  1.00 20.00     0.009 C 
HETATM    7  C5  UNL     1     -35.018  15.922  -2.117  1.00 20.00     0.042 C 
ENDBRANCH   1   3
BRANCH   1   8
HETATM    8  C8  UNL     1     -34.362  15.754  -5.358  1.00 20.00     0.064 A 
HETATM    9  C7  UNL     1     -35.298  14.702  -5.822  1.00 20.00     0.018 A 
HETATM   10  C9  UNL     1     -34.049  15.001  -6.609  1.00 20.00    -0.006 A 
HETATM   11  C10 UNL     1     -34.137  15.709  -7.916  1.00 20.00     0.011 C 
ENDBRANCH   1   8
TORSDOF 2
ENDMDL
MODEL 5
REMARK VINA RESULT:      -4.6      1.484      1.812
REMARK  2 active torsions:
REMARK  status: ('A' for Active; 'I' for Inactive)
REMARK    1  A    between atoms: C2_2  and  C3_3 
REMARK    2  A    between atoms: C3_3  and  C8_8 
ROOT
HETATM    1  C3  UNL     1     -33.314   5.388   2.679  1.00 20.00     0.159 C 
HETATM    2  O11 UNL     1     -33.545   4.350   2.042  1.00 20.00    -0.292 OA
ENDROOT
BRANCH   1   3
HETATM    3  C2  UNL     1     -33.886   5.608   3.969  1.00 20.00    -0.016 C 
HETATM    4  C1  UNL     1     -34.689   4.767   4.633  1.00 20.00    -0.016 C 
HETATM    5  C4  UNL     1     -35.116   5.334   5.946  1.00 20.00     0.028 C 
HETATM    6  C6  UNL     1     -34.166   6.516   6.131  1.00 20.00     0.009 C 
HETATM    7  C5  UNL     1     -33.650   6.870   4.734  1.00 20.00     0.042 C 
ENDBRANCH   1   3
BRANCH   1   8
HETATM    8  C8  UNL     1     -32.417   6.459   2.093  1.00 20.00     0.064 A 
HETATM    9  C7  UNL     1     -32.101   7.634   2.942  1.00 20.00     0.018 A 
HETATM   10  C9  UNL     1     -33.040   7.778   1.773  1.00 20.00    -0.006 A 
HETATM   11  C10 UNL     1     -32.604   8.501   0.546  1.00 20.00     0.011 C 
ENDBRANCH   1   8
TORSDOF 2
ENDMDL
MODEL 6
REMARK VINA RESULT:      -4.6     10.934     11.990
REMARK  2 active torsions:
REMARK  status: ('A' for Active; 'I' for Inactive)
REMARK    1  A    between atoms: C2_2  and  C3_3 
REMARK    2  A    between atoms: C3_3  and  C8_8 
ROOT
HETATM    1  C3  UNL     1     -32.303  18.612  -0.940  1.00 20.00     0.159 C 
HETATM    2  O11 UNL     1     -31.422  19.105  -1.659  1.00 20.00    -0.292 OA
ENDROOT
BRANCH   1   3
HETATM    3  C2  UNL     1     -33.261  17.693  -1.468  1.00 20.00    -0.016 C 
HETATM    4  C1  UNL     1     -33.072  16.858  -2.497  1.00 20.00    -0.016 C 
HETATM    5  C4  UNL     1     -34.298  16.057  -2.788  1.00 20.00     0.028 C 
HETATM    6  C6  UNL     1     -35.160  16.293  -1.549  1.00 20.00     0.009 C 
HETATM    7  C5  UNL     1     -34.642  17.583  -0.909  1.00 20.00     0.042 C 
ENDBRANCH   1   3
BRANCH   1   8
HETATM    8  C8  UNL     1     -32.390  18.984   0.526  1.00 20.00     0.064 A 
HETATM    9  C7  UNL     1     -31.122  19.263   1.243  1.00 20.00     0.018 A 
HETATM   10  C9  UNL     1     -31.880  17.991   1.519  1.00 20.00    -0.006 A 
HETATM   11  C10 UNL     1     -32.613  17.818   2.805  1.00 20.00     0.011 C 
ENDBRANCH   1   8
TORSDOF 2
ENDMDL
MODEL 7
REMARK VINA RESULT:      -4.6     10.615     11.644
REMARK  2 active torsions:
REMARK  status: ('A' for Active; 'I' for Inactive)
REMARK    1  A    between atoms: C2_2  and  C3_3 
REMARK    2  A    between atoms: C3_3  and  C8_8 
ROOT
HETATM    1  C3  UNL     1     -36.119  13.964  -4.382  1.00 20.00     0.159 C 
HETATM    2  O11 UNL     1     -36.021  12.730  -4.308  1.00 20.00    -0.292 OA
ENDROOT
BRANCH   1   3
HETATM    3  C2  UNL     1     -35.109  14.819  -3.843  1.00 20.00    -0.016 C 
HETATM    4  C1  UNL     1     -35.128  15.405  -2.640  1.00 20.00    -0.016 C 
HETATM    5  C4  UNL     1     -33.916  16.248  -2.418  1.00 20.00     0.028 C 
HETATM    6  C6  UNL     1     -32.986  15.809  -3.548  1.00 20.00     0.009 C 
HETATM    7  C5  UNL     1     -33.882  15.178  -4.617  1.00 20.00     0.042 C 
ENDBRANCH   1   3
BRANCH   1   8
HETATM    8  C8  UNL     1     -37.326  14.597  -5.043  1.00 20.00     0.064 A 
HETATM    9  C7  UNL     1     -37.472  16.069  -4.946  1.00 20.00     0.018 A 
HETATM   10  C9  UNL     1     -38.379  15.167  -4.151  1.00 20.00    -0.006 A 
HETATM   11  C10 UNL     1     -39.810  15.012  -4.536  1.00 20.00     0.011 C 
ENDBRANCH   1   8
TORSDOF 2
ENDMDL
MODEL 8
REMARK VINA RESULT:      -4.6     10.545     12.496
REMARK  2 active torsions:
REMARK  status: ('A' for Active; 'I' for Inactive)
REMARK    1  A    between atoms: C2_2  and  C3_3 
REMARK    2  A    between atoms: C3_3  and  C8_8 
ROOT
HETATM    1  C3  UNL     1     -35.302  14.197  -4.614  1.00 20.00     0.159 C 
HETATM    2  O11 UNL     1     -35.916  13.124  -4.513  1.00 20.00    -0.292 OA
ENDROOT
BRANCH   1   3
HETATM    3  C2  UNL     1     -35.255  14.908  -5.852  1.00 20.00    -0.016 C 
HETATM    4  C1  UNL     1     -36.268  15.571  -6.423  1.00 20.00    -0.016 C 
HETATM    5  C4  UNL     1     -35.864  16.179  -7.725  1.00 20.00     0.028 C 
HETATM    6  C6  UNL     1     -34.340  16.069  -7.693  1.00 20.00     0.009 C 
HETATM    7  C5  UNL     1     -34.013  14.968  -6.683  1.00 20.00     0.042 C 
ENDBRANCH   1   3
BRANCH   1   8
HETATM    8  C8  UNL     1     -34.574  14.776  -3.419  1.00 20.00     0.064 A 
HETATM    9  C7  UNL     1     -35.326  15.696  -2.532  1.00 20.00     0.018 A 
HETATM   10  C9  UNL     1     -34.258  16.236  -3.447  1.00 20.00    -0.006 A 
HETATM   11  C10 UNL     1     -32.957  16.701  -2.889  1.00 20.00     0.011 C 
ENDBRANCH   1   8
TORSDOF 2
ENDMDL
MODEL 9
REMARK VINA RESULT:      -4.5     10.572     11.630
REMARK  2 active torsions:
REMARK  status: ('A' for Active; 'I' for Inactive)
REMARK    1  A    between atoms: C2_2  and  C3_3 
REMARK    2  A    between atoms: C3_3  and  C8_8 
ROOT
HETATM    1  C3  UNL     1     -33.364  17.535  -1.582  1.00 20.00     0.159 C 
HETATM    2  O11 UNL     1     -32.175  17.874  -1.486  1.00 20.00    -0.292 OA
ENDROOT
BRANCH   1   3
HETATM    3  C2  UNL     1     -33.769  16.506  -2.486  1.00 20.00    -0.016 C 
HETATM    4  C1  UNL     1     -33.008  15.934  -3.427  1.00 20.00    -0.016 C 
HETATM    5  C4  UNL     1     -33.767  14.908  -4.201  1.00 20.00     0.028 C 
HETATM    6  C6  UNL     1     -35.021  14.701  -3.353  1.00 20.00     0.009 C 
HETATM    7  C5  UNL     1     -35.158  15.952  -2.482  1.00 20.00     0.042 C 
ENDBRANCH   1   3
BRANCH   1   8
HETATM    8  C8  UNL     1     -34.424  18.219  -0.742  1.00 20.00     0.064 A 
HETATM    9  C7  UNL     1     -33.970  19.035   0.410  1.00 20.00     0.018 A 
HETATM   10  C9  UNL     1     -34.639  17.706   0.644  1.00 20.00    -0.006 A 
HETATM   11  C10 UNL     1     -36.027  17.649   1.182  1.00 20.00     0.011 C 
ENDBRANCH   1   8
TORSDOF 2
ENDMDL
