MODEL 1
REMARK VINA RESULT:      -5.8      0.000      0.000
REMARK  2 active torsions:
REMARK  status: ('A' for Active; 'I' for Inactive)
REMARK    1  A    between atoms: C2_2  and  C3_3 
REMARK    2  A    between atoms: C3_3  and  C9_9 
ROOT
HETATM    1  C1  UNL     1     -33.490   6.939   4.837  1.00 20.00    -0.016 C 
HETATM    2  C2  UNL     1     -33.261   6.461   3.605  1.00 20.00    -0.016 C 
HETATM    3  C4  UNL     1     -34.388   6.241   5.818  1.00 20.00     0.028 C 
HETATM    4  C5  UNL     1     -33.840   5.181   3.084  1.00 20.00     0.042 C 
HETATM    5  C6  UNL     1     -35.238   5.137   5.185  1.00 20.00     0.004 C 
HETATM    6  C7  UNL     1     -34.425   4.305   4.197  1.00 20.00     0.005 C 
ENDROOT
BRANCH   2   7
HETATM    7  C3  UNL     1     -32.374   7.233   2.729  1.00 20.00     0.159 C 
HETATM    8  O12 UNL     1     -31.409   7.843   3.193  1.00 20.00    -0.292 OA
BRANCH   7   9
HETATM    9  C9  UNL     1     -32.674   7.247   1.252  1.00 20.00     0.064 A 
HETATM   10  C8  UNL     1     -31.700   7.916   0.347  1.00 20.00     0.018 A 
HETATM   11  C10 UNL     1     -33.052   8.527   0.590  1.00 20.00    -0.006 A 
HETATM   12  C11 UNL     1     -33.165   9.825   1.312  1.00 20.00     0.011 C 
ENDBRANCH   7   9
ENDBRANCH   2   7
TORSDOF 2
ENDMDL
MODEL 2
REMARK VINA RESULT:      -5.1     10.736     11.630
REMARK  2 active torsions:
REMARK  status: ('A' for Active; 'I' for Inactive)
REMARK    1  A    between atoms: C2_2  and  C3_3 
REMARK    2  A    between atoms: C3_3  and  C9_9 
ROOT
HETATM    1  C1  UNL     1     -32.876  16.310  -3.170  1.00 20.00    -0.016 C 
HETATM    2  C2  UNL     1     -33.957  15.553  -3.407  1.00 20.00    -0.016 C 
HETATM    3  C4  UNL     1     -32.864  17.396  -2.134  1.00 20.00     0.028 C 
HETATM    4  C5  UNL     1     -35.247  15.680  -2.654  1.00 20.00     0.042 C 
HETATM    5  C6  UNL     1     -34.257  17.754  -1.612  1.00 20.00     0.004 C 
HETATM    6  C7  UNL     1     -35.100  16.505  -1.372  1.00 20.00     0.005 C 
ENDROOT
BRANCH   2   7
HETATM    7  C3  UNL     1     -33.857  14.529  -4.450  1.00 20.00     0.159 C 
HETATM    8  O12 UNL     1     -33.755  13.337  -4.153  1.00 20.00    -0.292 OA
BRANCH   7   9
HETATM    9  C9  UNL     1     -33.892  14.977  -5.889  1.00 20.00     0.064 A 
HETATM   10  C8  UNL     1     -34.488  16.306  -6.195  1.00 20.00     0.018 A 
HETATM   11  C10 UNL     1     -35.195  15.046  -6.608  1.00 20.00    -0.006 A 
HETATM   12  C11 UNL     1     -36.499  14.684  -5.984  1.00 20.00     0.011 C 
ENDBRANCH   7   9
ENDBRANCH   2   7
TORSDOF 2
ENDMDL
MODEL 3
REMARK VINA RESULT:      -5.0     10.650     11.549
REMARK  2 active torsions:
REMARK  status: ('A' for Active; 'I' for Inactive)
REMARK    1  A    between atoms: C2_2  and  C3_3 
REMARK    2  A    between atoms: C3_3  and  C9_9 
ROOT
HETATM    1  C1  UNL     1     -35.015  16.236  -1.815  1.00 20.00    -0.016 C 
HETATM    2  C2  UNL     1     -34.168  15.892  -2.797  1.00 20.00    -0.016 C 
HETATM    3  C4  UNL     1     -34.730  17.361  -0.862  1.00 20.00     0.028 C 
HETATM    4  C5  UNL     1     -32.875  16.598  -3.070  1.00 20.00     0.042 C 
HETATM    5  C6  UNL     1     -33.282  17.853  -0.919  1.00 20.00     0.004 C 
HETATM    6  C7  UNL     1     -32.783  17.951  -2.358  1.00 20.00     0.005 C 
ENDROOT
BRANCH   2   7
HETATM    7  C3  UNL     1     -34.546  14.770  -3.660  1.00 20.00     0.159 C 
HETATM    8  O12 UNL     1     -33.683  14.067  -4.191  1.00 20.00    -0.292 OA
BRANCH   7   9
HETATM    9  C9  UNL     1     -36.014  14.500  -3.870  1.00 20.00     0.064 A 
HETATM   10  C8  UNL     1     -36.414  13.686  -5.050  1.00 20.00     0.018 A 
HETATM   11  C10 UNL     1     -36.729  15.155  -5.000  1.00 20.00    -0.006 A 
HETATM   12  C11 UNL     1     -36.074  16.091  -5.957  1.00 20.00     0.011 C 
ENDBRANCH   7   9
ENDBRANCH   2   7
TORSDOF 2
ENDMDL
MODEL 4
REMARK VINA RESULT:      -4.9     10.907     12.225
REMARK  2 active torsions:
REMARK  status: ('A' for Active; 'I' for Inactive)
REMARK    1  A    between atoms: C2_2  and  C3_3 
REMARK    2  A    between atoms: C3_3  and  C9_9 
ROOT
HETATM    1  C1  UNL     1     -34.900  14.400  -4.427  1.00 20.00    -0.016 C 
HETATM    2  C2  UNL     1     -35.862  15.111  -3.822  1.00 20.00    -0.016 C 
HETATM    3  C4  UNL     1     -33.439  14.645  -4.180  1.00 20.00     0.028 C 
HETATM    4  C5  UNL     1     -35.596  16.195  -2.821  1.00 20.00     0.042 C 
HETATM    5  C6  UNL     1     -33.160  15.954  -3.437  1.00 20.00     0.004 C 
HETATM    6  C7  UNL     1     -34.155  16.172  -2.300  1.00 20.00     0.005 C 
ENDROOT
BRANCH   2   7
HETATM    7  C3  UNL     1     -37.254  14.790  -4.148  1.00 20.00     0.159 C 
HETATM    8  O12 UNL     1     -37.580  13.638  -4.447  1.00 20.00    -0.292 OA
BRANCH   7   9
HETATM    9  C9  UNL     1     -38.269  15.903  -4.099  1.00 20.00     0.064 A 
HETATM   10  C8  UNL     1     -39.519  15.746  -4.890  1.00 20.00     0.018 A 
HETATM   11  C10 UNL     1     -38.485  16.757  -5.299  1.00 20.00    -0.006 A 
HETATM   12  C11 UNL     1     -37.739  16.585  -6.577  1.00 20.00     0.011 C 
ENDBRANCH   7   9
ENDBRANCH   2   7
TORSDOF 2
ENDMDL
MODEL 5
REMARK VINA RESULT:      -4.9     10.659     11.595
REMARK  2 active torsions:
REMARK  status: ('A' for Active; 'I' for Inactive)
REMARK    1  A    between atoms: C2_2  and  C3_3 
REMARK    2  A    between atoms: C3_3  and  C9_9 
ROOT
HETATM    1  C1  UNL     1     -35.145  15.881  -2.240  1.00 20.00    -0.016 C 
HETATM    2  C2  UNL     1     -34.265  15.585  -3.208  1.00 20.00    -0.016 C 
HETATM    3  C4  UNL     1     -34.903  16.971  -1.235  1.00 20.00     0.028 C 
HETATM    4  C5  UNL     1     -32.972  16.315  -3.413  1.00 20.00     0.042 C 
HETATM    5  C6  UNL     1     -33.459  17.479  -1.228  1.00 20.00     0.004 C 
HETATM    6  C7  UNL     1     -32.917  17.639  -2.646  1.00 20.00     0.005 C 
ENDROOT
BRANCH   2   7
HETATM    7  C3  UNL     1     -34.604  14.494  -4.126  1.00 20.00     0.159 C 
HETATM    8  O12 UNL     1     -34.430  13.318  -3.796  1.00 20.00    -0.292 OA
BRANCH   7   9
HETATM    9  C9  UNL     1     -35.176  14.853  -5.474  1.00 20.00     0.064 A 
HETATM   10  C8  UNL     1     -35.802  16.193  -5.634  1.00 20.00     0.018 A 
HETATM   11  C10 UNL     1     -36.651  14.954  -5.644  1.00 20.00    -0.006 A 
HETATM   12  C11 UNL     1     -37.626  14.709  -4.544  1.00 20.00     0.011 C 
ENDBRANCH   7   9
ENDBRANCH   2   7
TORSDOF 2
ENDMDL
MODEL 6
REMARK VINA RESULT:      -4.6     10.734     12.028
REMARK  2 active torsions:
REMARK  status: ('A' for Active; 'I' for Inactive)
REMARK    1  A    between atoms: C2_2  and  C3_3 
REMARK    2  A    between atoms: C3_3  and  C9_9 
ROOT
HETATM    1  C1  UNL     1     -36.618  16.357  -3.374  1.00 20.00    -0.016 C 
HETATM    2  C2  UNL     1     -35.872  15.316  -3.773  1.00 20.00    -0.016 C 
HETATM    3  C4  UNL     1     -36.164  17.315  -2.311  1.00 20.00     0.028 C 
HETATM    4  C5  UNL     1     -34.507  15.012  -3.234  1.00 20.00     0.042 C 
HETATM    5  C6  UNL     1     -34.945  16.820  -1.528  1.00 20.00     0.004 C 
HETATM    6  C7  UNL     1     -33.909  16.186  -2.453  1.00 20.00     0.005 C 
ENDROOT
BRANCH   2   7
HETATM    7  C3  UNL     1     -36.422  14.442  -4.812  1.00 20.00     0.159 C 
HETATM    8  O12 UNL     1     -37.417  13.747  -4.586  1.00 20.00    -0.292 OA
BRANCH   7   9
HETATM    9  C9  UNL     1     -35.744  14.425  -6.158  1.00 20.00     0.064 A 
HETATM   10  C8  UNL     1     -34.834  15.552  -6.497  1.00 20.00     0.018 A 
HETATM   11  C10 UNL     1     -36.154  15.406  -7.201  1.00 20.00    -0.006 A 
HETATM   12  C11 UNL     1     -37.224  16.423  -6.999  1.00 20.00     0.011 C 
ENDBRANCH   7   9
ENDBRANCH   2   7
TORSDOF 2
ENDMDL
MODEL 7
REMARK VINA RESULT:      -4.6     10.720     11.527
REMARK  2 active torsions:
REMARK  status: ('A' for Active; 'I' for Inactive)
REMARK    1  A    between atoms: C2_2  and  C3_3 
REMARK    2  A    between atoms: C3_3  and  C9_9 
ROOT
HETATM    1  C1  UNL     1     -35.249  16.920  -1.189  1.00 20.00    -0.016 C 
HETATM    2  C2  UNL     1     -34.106  17.221  -1.821  1.00 20.00    -0.016 C 
HETATM    3  C4  UNL     1     -35.503  17.297   0.242  1.00 20.00     0.028 C 
HETATM    4  C5  UNL     1     -32.980  17.984  -1.192  1.00 20.00     0.042 C 
HETATM    5  C6  UNL     1     -34.245  17.763   0.980  1.00 20.00     0.004 C 
HETATM    6  C7  UNL     1     -33.396  18.682   0.106  1.00 20.00     0.005 C 
ENDROOT
BRANCH   2   7
HETATM    7  C3  UNL     1     -33.965  16.793  -3.216  1.00 20.00     0.159 C 
HETATM    8  O12 UNL     1     -34.167  17.585  -4.139  1.00 20.00    -0.292 OA
BRANCH   7   9
HETATM    9  C9  UNL     1     -33.560  15.365  -3.482  1.00 20.00     0.064 A 
HETATM   10  C8  UNL     1     -33.642  14.864  -4.881  1.00 20.00     0.018 A 
HETATM   11  C10 UNL     1     -34.599  14.359  -3.838  1.00 20.00    -0.006 A 
HETATM   12  C11 UNL     1     -36.051  14.677  -3.943  1.00 20.00     0.011 C 
ENDBRANCH   7   9
ENDBRANCH   2   7
TORSDOF 2
ENDMDL
MODEL 8
REMARK VINA RESULT:      -4.6     10.583     11.922
REMARK  2 active torsions:
REMARK  status: ('A' for Active; 'I' for Inactive)
REMARK    1  A    between atoms: C2_2  and  C3_3 
REMARK    2  A    between atoms: C3_3  and  C9_9 
ROOT
HETATM    1  C1  UNL     1     -33.142  16.230  -3.391  1.00 20.00    -0.016 C 
HETATM    2  C2  UNL     1     -34.188  16.736  -2.721  1.00 20.00    -0.016 C 
HETATM    3  C4  UNL     1     -33.215  14.928  -4.136  1.00 20.00     0.028 C 
HETATM    4  C5  UNL     1     -35.538  16.087  -2.665  1.00 20.00     0.042 C 
HETATM    5  C6  UNL     1     -34.463  14.107  -3.803  1.00 20.00     0.004 C 
HETATM    6  C7  UNL     1     -35.706  14.990  -3.721  1.00 20.00     0.005 C 
ENDROOT
BRANCH   2   7
HETATM    7  C3  UNL     1     -33.997  18.009  -2.021  1.00 20.00     0.159 C 
HETATM    8  O12 UNL     1     -33.921  19.067  -2.650  1.00 20.00    -0.292 OA
BRANCH   7   9
HETATM    9  C9  UNL     1     -33.906  17.984  -0.516  1.00 20.00     0.064 A 
HETATM   10  C8  UNL     1     -33.619  19.263   0.189  1.00 20.00     0.018 A 
HETATM   11  C10 UNL     1     -32.585  18.173   0.146  1.00 20.00    -0.006 A 
HETATM   12  C11 UNL     1     -31.313  18.381  -0.602  1.00 20.00     0.011 C 
ENDBRANCH   7   9
ENDBRANCH   2   7
TORSDOF 2
ENDMDL
MODEL 9
REMARK VINA RESULT:      -4.6     10.622     12.132
REMARK  2 active torsions:
REMARK  status: ('A' for Active; 'I' for Inactive)
REMARK    1  A    between atoms: C2_2  and  C3_3 
REMARK    2  A    between atoms: C3_3  and  C9_9 
ROOT
HETATM    1  C1  UNL     1     -38.165  14.484  -4.194  1.00 20.00    -0.016 C 
HETATM    2  C2  UNL     1     -37.103  14.885  -4.909  1.00 20.00    -0.016 C 
HETATM    3  C4  UNL     1     -39.476  15.217  -4.217  1.00 20.00     0.028 C 
HETATM    4  C5  UNL     1     -37.112  16.074  -5.822  1.00 20.00     0.042 C 
HETATM    5  C6  UNL     1     -39.388  16.600  -4.866  1.00 20.00     0.004 C 
HETATM    6  C7  UNL     1     -38.529  16.570  -6.127  1.00 20.00     0.005 C 
ENDROOT
BRANCH   2   7
HETATM    7  C3  UNL     1     -35.873  14.098  -4.800  1.00 20.00     0.159 C 
HETATM    8  O12 UNL     1     -35.920  12.887  -4.574  1.00 20.00    -0.292 OA
BRANCH   7   9
HETATM    9  C9  UNL     1     -34.556  14.811  -4.981  1.00 20.00     0.064 A 
HETATM   10  C8  UNL     1     -33.368  14.279  -4.261  1.00 20.00     0.018 A 
HETATM   11  C10 UNL     1     -33.979  15.590  -3.851  1.00 20.00    -0.006 A 
HETATM   12  C11 UNL     1     -34.638  15.722  -2.521  1.00 20.00     0.011 C 
ENDBRANCH   7   9
ENDBRANCH   2   7
TORSDOF 2
ENDMDL
