MODEL 1
REMARK VINA RESULT:      -5.8      0.000      0.000
REMARK  2 active torsions:
REMARK  status: ('A' for Active; 'I' for Inactive)
REMARK    1  A    between atoms: C2_2  and  C3_3 
REMARK    2  A    between atoms: C3_3  and  C9_9 
ROOT
HETATM    1  C1  UNL     1     -34.144   5.304   3.512  1.00 20.00    -0.016 C 
HETATM    2  C2  UNL     1     -33.513   6.434   3.848  1.00 20.00    -0.016 C 
HETATM    3  C4  UNL     1     -35.035   4.823   4.609  1.00 20.00     0.028 C 
HETATM    4  C5  UNL     1     -33.880   6.888   5.225  1.00 20.00     0.042 C 
HETATM    5  C6  UNL     1     -34.582   5.660   5.805  1.00 20.00     0.009 C 
ENDROOT
BRANCH   2   6
HETATM    6  C3  UNL     1     -32.603   7.171   3.028  1.00 20.00     0.159 C 
HETATM    7  O10 UNL     1     -31.512   7.561   3.470  1.00 20.00    -0.292 OA
BRANCH   6   8
HETATM    8  C9  UNL     1     -32.995   7.460   1.594  1.00 20.00     0.060 A 
HETATM    9  C7  UNL     1     -33.013   8.874   1.155  1.00 20.00     0.013 A 
HETATM   10  C8  UNL     1     -31.938   7.946   0.675  1.00 20.00     0.013 A 
ENDBRANCH   6   8
ENDBRANCH   2   6
TORSDOF 2
ENDMDL
MODEL 2
REMARK VINA RESULT:      -5.3      1.270      1.494
REMARK  2 active torsions:
REMARK  status: ('A' for Active; 'I' for Inactive)
REMARK    1  A    between atoms: C2_2  and  C3_3 
REMARK    2  A    between atoms: C3_3  and  C9_9 
ROOT
HETATM    1  C1  UNL     1     -34.596   5.046   4.314  1.00 20.00    -0.016 C 
HETATM    2  C2  UNL     1     -33.777   6.019   3.900  1.00 20.00    -0.016 C 
HETATM    3  C4  UNL     1     -35.093   5.296   5.699  1.00 20.00     0.028 C 
HETATM    4  C5  UNL     1     -33.596   7.075   4.943  1.00 20.00     0.042 C 
HETATM    5  C6  UNL     1     -34.172   6.410   6.194  1.00 20.00     0.009 C 
ENDROOT
BRANCH   2   6
HETATM    6  C3  UNL     1     -33.141   6.102   2.623  1.00 20.00     0.159 C 
HETATM    7  O10 UNL     1     -33.186   5.158   1.820  1.00 20.00    -0.292 OA
BRANCH   6   8
HETATM    8  C9  UNL     1     -32.414   7.380   2.260  1.00 20.00     0.060 A 
HETATM    9  C7  UNL     1     -32.062   7.594   0.837  1.00 20.00     0.013 A 
HETATM   10  C8  UNL     1     -33.155   8.397   1.477  1.00 20.00     0.013 A 
ENDBRANCH   6   8
ENDBRANCH   2   6
TORSDOF 2
ENDMDL
MODEL 3
REMARK VINA RESULT:      -4.9     10.611     11.528
REMARK  2 active torsions:
REMARK  status: ('A' for Active; 'I' for Inactive)
REMARK    1  A    between atoms: C2_2  and  C3_3 
REMARK    2  A    between atoms: C3_3  and  C9_9 
ROOT
HETATM    1  C1  UNL     1     -33.261  15.649  -3.680  1.00 20.00    -0.016 C 
HETATM    2  C2  UNL     1     -34.452  15.091  -3.435  1.00 20.00    -0.016 C 
HETATM    3  C4  UNL     1     -32.970  16.764  -2.732  1.00 20.00     0.028 C 
HETATM    4  C5  UNL     1     -35.147  15.747  -2.285  1.00 20.00     0.042 C 
HETATM    5  C6  UNL     1     -34.330  17.023  -2.085  1.00 20.00     0.009 C 
ENDROOT
BRANCH   2   6
HETATM    6  C3  UNL     1     -35.031  13.991  -4.140  1.00 20.00     0.159 C 
HETATM    7  O10 UNL     1     -34.675  12.825  -3.913  1.00 20.00    -0.292 OA
BRANCH   6   8
HETATM    8  C9  UNL     1     -36.104  14.276  -5.169  1.00 20.00     0.060 A 
HETATM    9  C7  UNL     1     -36.317  15.685  -5.573  1.00 20.00     0.013 A 
HETATM   10  C8  UNL     1     -35.668  14.716  -6.516  1.00 20.00     0.013 A 
ENDBRANCH   6   8
ENDBRANCH   2   6
TORSDOF 2
ENDMDL
MODEL 4
REMARK VINA RESULT:      -4.9     10.617     11.516
REMARK  2 active torsions:
REMARK  status: ('A' for Active; 'I' for Inactive)
REMARK    1  A    between atoms: C2_2  and  C3_3 
REMARK    2  A    between atoms: C3_3  and  C9_9 
ROOT
HETATM    1  C1  UNL     1     -35.164  15.694  -2.365  1.00 20.00    -0.016 C 
HETATM    2  C2  UNL     1     -34.564  15.115  -3.411  1.00 20.00    -0.016 C 
HETATM    3  C4  UNL     1     -34.383  16.861  -1.860  1.00 20.00     0.028 C 
HETATM    4  C5  UNL     1     -33.286  15.803  -3.771  1.00 20.00     0.042 C 
HETATM    5  C6  UNL     1     -33.032  16.691  -2.553  1.00 20.00     0.009 C 
ENDROOT
BRANCH   2   6
HETATM    6  C3  UNL     1     -35.048  13.988  -4.146  1.00 20.00     0.159 C 
HETATM    7  O10 UNL     1     -34.632  12.844  -3.913  1.00 20.00    -0.292 OA
BRANCH   6   8
HETATM    8  C9  UNL     1     -36.095  14.218  -5.216  1.00 20.00     0.060 A 
HETATM    9  C7  UNL     1     -36.355  15.613  -5.640  1.00 20.00     0.013 A 
HETATM   10  C8  UNL     1     -35.631  14.667  -6.550  1.00 20.00     0.013 A 
ENDBRANCH   6   8
ENDBRANCH   2   6
TORSDOF 2
ENDMDL
MODEL 5
REMARK VINA RESULT:      -4.5     10.842     11.507
REMARK  2 active torsions:
REMARK  status: ('A' for Active; 'I' for Inactive)
REMARK    1  A    between atoms: C2_2  and  C3_3 
REMARK    2  A    between atoms: C3_3  and  C9_9 
ROOT
HETATM    1  C1  UNL     1     -32.956  16.551  -2.928  1.00 20.00    -0.016 C 
HETATM    2  C2  UNL     1     -34.091  15.849  -2.847  1.00 20.00    -0.016 C 
HETATM    3  C4  UNL     1     -32.864  17.576  -1.847  1.00 20.00     0.028 C 
HETATM    4  C5  UNL     1     -34.940  16.294  -1.699  1.00 20.00     0.042 C 
HETATM    5  C6  UNL     1     -34.289  17.617  -1.297  1.00 20.00     0.009 C 
ENDROOT
BRANCH   2   6
HETATM    6  C3  UNL     1     -34.488  14.781  -3.710  1.00 20.00     0.159 C 
HETATM    7  O10 UNL     1     -33.647  14.067  -4.276  1.00 20.00    -0.292 OA
BRANCH   6   8
HETATM    8  C9  UNL     1     -35.967  14.528  -3.915  1.00 20.00     0.060 A 
HETATM    9  C7  UNL     1     -36.630  15.195  -5.059  1.00 20.00     0.013 A 
HETATM   10  C8  UNL     1     -36.373  13.718  -5.088  1.00 20.00     0.013 A 
ENDBRANCH   6   8
ENDBRANCH   2   6
TORSDOF 2
ENDMDL
MODEL 6
REMARK VINA RESULT:      -4.5     15.469     16.497
REMARK  2 active torsions:
REMARK  status: ('A' for Active; 'I' for Inactive)
REMARK    1  A    between atoms: C2_2  and  C3_3 
REMARK    2  A    between atoms: C3_3  and  C9_9 
ROOT
HETATM    1  C1  UNL     1     -23.404  16.656   9.340  1.00 20.00    -0.016 C 
HETATM    2  C2  UNL     1     -23.382  17.011  10.630  1.00 20.00    -0.016 C 
HETATM    3  C4  UNL     1     -22.193  17.140   8.615  1.00 20.00     0.028 C 
HETATM    4  C5  UNL     1     -22.151  17.789  10.972  1.00 20.00     0.042 C 
HETATM    5  C6  UNL     1     -21.589  18.145   9.595  1.00 20.00     0.009 C 
ENDROOT
BRANCH   2   6
HETATM    6  C3  UNL     1     -24.373  16.697  11.610  1.00 20.00     0.159 C 
HETATM    7  O10 UNL     1     -24.662  15.521  11.877  1.00 20.00    -0.292 OA
BRANCH   6   8
HETATM    8  C9  UNL     1     -25.063  17.836  12.332  1.00 20.00     0.060 A 
HETATM    9  C7  UNL     1     -25.755  18.856  11.511  1.00 20.00     0.013 A 
HETATM   10  C8  UNL     1     -26.544  17.867  12.315  1.00 20.00     0.013 A 
ENDBRANCH   6   8
ENDBRANCH   2   6
TORSDOF 2
ENDMDL
MODEL 7
REMARK VINA RESULT:      -4.3     15.668     16.372
REMARK  2 active torsions:
REMARK  status: ('A' for Active; 'I' for Inactive)
REMARK    1  A    between atoms: C2_2  and  C3_3 
REMARK    2  A    between atoms: C3_3  and  C9_9 
ROOT
HETATM    1  C1  UNL     1     -25.379  16.961  12.171  1.00 20.00    -0.016 C 
HETATM    2  C2  UNL     1     -24.804  17.965  11.500  1.00 20.00    -0.016 C 
HETATM    3  C4  UNL     1     -26.847  17.174  12.332  1.00 20.00     0.028 C 
HETATM    4  C5  UNL     1     -25.798  19.012  11.107  1.00 20.00     0.042 C 
HETATM    5  C6  UNL     1     -27.020  18.643  11.948  1.00 20.00     0.009 C 
ENDROOT
BRANCH   2   6
HETATM    6  C3  UNL     1     -23.421  18.071  11.156  1.00 20.00     0.159 C 
HETATM    7  O10 UNL     1     -22.538  18.030  12.026  1.00 20.00    -0.292 OA
BRANCH   6   8
HETATM    8  C9  UNL     1     -23.048  18.223   9.696  1.00 20.00     0.060 A 
HETATM    9  C7  UNL     1     -21.613  18.149   9.338  1.00 20.00     0.013 A 
HETATM   10  C8  UNL     1     -22.541  17.026   8.985  1.00 20.00     0.013 A 
ENDBRANCH   6   8
ENDBRANCH   2   6
TORSDOF 2
ENDMDL
MODEL 8
REMARK VINA RESULT:      -4.3     10.769     11.757
REMARK  2 active torsions:
REMARK  status: ('A' for Active; 'I' for Inactive)
REMARK    1  A    between atoms: C2_2  and  C3_3 
REMARK    2  A    between atoms: C3_3  and  C9_9 
ROOT
HETATM    1  C1  UNL     1     -32.999  15.806  -3.456  1.00 20.00    -0.016 C 
HETATM    2  C2  UNL     1     -33.997  16.205  -2.659  1.00 20.00    -0.016 C 
HETATM    3  C4  UNL     1     -33.447  14.754  -4.415  1.00 20.00     0.028 C 
HETATM    4  C5  UNL     1     -35.271  15.481  -2.959  1.00 20.00     0.042 C 
HETATM    5  C6  UNL     1     -34.798  14.327  -3.844  1.00 20.00     0.009 C 
ENDROOT
BRANCH   2   6
HETATM    6  C3  UNL     1     -33.919  17.207  -1.643  1.00 20.00     0.159 C 
HETATM    7  O10 UNL     1     -34.735  17.238  -0.709  1.00 20.00    -0.292 OA
BRANCH   6   8
HETATM    8  C9  UNL     1     -32.808  18.232  -1.723  1.00 20.00     0.060 A 
HETATM    9  C7  UNL     1     -32.742  19.263  -0.661  1.00 20.00     0.013 A 
HETATM   10  C8  UNL     1     -31.728  18.159  -0.710  1.00 20.00     0.013 A 
ENDBRANCH   6   8
ENDBRANCH   2   6
TORSDOF 2
ENDMDL
MODEL 9
REMARK VINA RESULT:      -4.3     14.762     15.528
REMARK  2 active torsions:
REMARK  status: ('A' for Active; 'I' for Inactive)
REMARK    1  A    between atoms: C2_2  and  C3_3 
REMARK    2  A    between atoms: C3_3  and  C9_9 
ROOT
HETATM    1  C1  UNL     1     -23.859  16.630  10.215  1.00 20.00    -0.016 C 
HETATM    2  C2  UNL     1     -24.254  17.819   9.748  1.00 20.00    -0.016 C 
HETATM    3  C4  UNL     1     -24.420  16.356  11.571  1.00 20.00     0.028 C 
HETATM    4  C5  UNL     1     -25.142  18.531  10.718  1.00 20.00     0.042 C 
HETATM    5  C6  UNL     1     -24.946  17.725  12.002  1.00 20.00     0.009 C 
ENDROOT
BRANCH   2   6
HETATM    6  C3  UNL     1     -23.917  18.384   8.479  1.00 20.00     0.159 C 
HETATM    7  O10 UNL     1     -22.816  18.166   7.952  1.00 20.00    -0.292 OA
BRANCH   6   8
HETATM    8  C9  UNL     1     -24.941  19.251   7.779  1.00 20.00     0.060 A 
HETATM    9  C7  UNL     1     -24.942  19.261   6.297  1.00 20.00     0.013 A 
HETATM   10  C8  UNL     1     -26.039  18.571   7.051  1.00 20.00     0.013 A 
ENDBRANCH   6   8
ENDBRANCH   2   6
TORSDOF 2
ENDMDL
