MODEL 1
REMARK VINA RESULT:      -5.2      0.000      0.000
REMARK  2 active torsions:
REMARK  status: ('A' for Active; 'I' for Inactive)
REMARK    1  A    between atoms: C2_2  and  C3_3 
REMARK    2  A    between atoms: C3_3  and  C11_11 
ROOT
HETATM    1  C7  UNL     1     -35.990  16.585  -7.863  1.00 20.00     0.005 C 
HETATM    2  C8  UNL     1     -35.661  15.085  -7.912  1.00 20.00     0.006 C 
HETATM    3  C9  UNL     1     -34.655  16.837  -5.754  1.00 20.00     0.017 C 
HETATM    4  C10 UNL     1     -36.671  15.573  -5.821  1.00 20.00     0.010 C 
HETATM    5  C11 UNL     1     -34.281  15.347  -5.849  1.00 20.00     0.065 C 
HETATM    6  C12 UNL     1     -36.074  16.873  -6.353  1.00 20.00    -0.013 C 
HETATM    7  C13 UNL     1     -35.561  14.706  -6.425  1.00 20.00    -0.003 C 
ENDROOT
BRANCH   5   8
HETATM    8  C3  UNL     1     -33.931  14.781  -4.507  1.00 20.00     0.159 C 
HETATM    9  O14 UNL     1     -33.676  13.590  -4.349  1.00 20.00    -0.292 OA
BRANCH   8  10
HETATM   10  C2  UNL     1     -33.909  15.676  -3.393  1.00 20.00    -0.016 C 
HETATM   11  C1  UNL     1     -32.948  16.561  -3.107  1.00 20.00    -0.016 C 
HETATM   12  C4  UNL     1     -33.246  17.314  -1.853  1.00 20.00     0.028 C 
HETATM   13  C6  UNL     1     -34.717  16.985  -1.602  1.00 20.00     0.009 C 
HETATM   14  C5  UNL     1     -35.003  15.696  -2.373  1.00 20.00     0.042 C 
ENDBRANCH   8  10
ENDBRANCH   5   8
TORSDOF 2
ENDMDL
MODEL 2
REMARK VINA RESULT:      -5.2      0.750      1.603
REMARK  2 active torsions:
REMARK  status: ('A' for Active; 'I' for Inactive)
REMARK    1  A    between atoms: C2_2  and  C3_3 
REMARK    2  A    between atoms: C3_3  and  C11_11 
ROOT
HETATM    1  C7  UNL     1     -36.717  16.239  -7.647  1.00 20.00     0.005 C 
HETATM    2  C8  UNL     1     -36.588  17.175  -6.435  1.00 20.00     0.006 C 
HETATM    3  C9  UNL     1     -35.815  14.324  -6.299  1.00 20.00     0.017 C 
HETATM    4  C10 UNL     1     -34.469  16.201  -6.873  1.00 20.00     0.010 C 
HETATM    5  C11 UNL     1     -35.750  15.256  -5.076  1.00 20.00     0.065 C 
HETATM    6  C12 UNL     1     -35.526  15.279  -7.474  1.00 20.00    -0.013 C 
HETATM    7  C13 UNL     1     -35.361  16.614  -5.698  1.00 20.00    -0.003 C 
ENDROOT
BRANCH   5   8
HETATM    8  C3  UNL     1     -34.732  14.787  -4.082  1.00 20.00     0.159 C 
HETATM    9  O14 UNL     1     -34.325  13.629  -4.064  1.00 20.00    -0.292 OA
BRANCH   8  10
HETATM   10  C2  UNL     1     -34.244  15.737  -3.132  1.00 20.00    -0.016 C 
HETATM   11  C1  UNL     1     -33.062  16.361  -3.173  1.00 20.00    -0.016 C 
HETATM   12  C4  UNL     1     -32.877  17.270  -2.003  1.00 20.00     0.028 C 
HETATM   13  C6  UNL     1     -34.286  17.359  -1.418  1.00 20.00     0.009 C 
HETATM   14  C5  UNL     1     -35.038  16.128  -1.927  1.00 20.00     0.042 C 
ENDBRANCH   8  10
ENDBRANCH   5   8
TORSDOF 2
ENDMDL
MODEL 3
REMARK VINA RESULT:      -5.1      2.261      3.820
REMARK  2 active torsions:
REMARK  status: ('A' for Active; 'I' for Inactive)
REMARK    1  A    between atoms: C2_2  and  C3_3 
REMARK    2  A    between atoms: C3_3  and  C11_11 
ROOT
HETATM    1  C7  UNL     1     -35.089  14.272  -4.198  1.00 20.00     0.005 C 
HETATM    2  C8  UNL     1     -35.778  15.140  -3.133  1.00 20.00     0.006 C 
HETATM    3  C9  UNL     1     -32.918  15.470  -3.808  1.00 20.00     0.017 C 
HETATM    4  C10 UNL     1     -34.804  16.565  -4.761  1.00 20.00     0.010 C 
HETATM    5  C11 UNL     1     -33.604  16.289  -2.700  1.00 20.00     0.065 C 
HETATM    6  C12 UNL     1     -34.059  15.235  -4.817  1.00 20.00    -0.013 C 
HETATM    7  C13 UNL     1     -35.034  16.481  -3.249  1.00 20.00    -0.003 C 
ENDROOT
BRANCH   5   8
HETATM    8  C3  UNL     1     -32.914  17.599  -2.477  1.00 20.00     0.159 C 
HETATM    9  O14 UNL     1     -32.539  18.305  -3.410  1.00 20.00    -0.292 OA
BRANCH   8  10
HETATM   10  C2  UNL     1     -32.690  18.011  -1.127  1.00 20.00    -0.016 C 
HETATM   11  C1  UNL     1     -33.622  18.157  -0.179  1.00 20.00    -0.016 C 
HETATM   12  C4  UNL     1     -33.031  18.624   1.109  1.00 20.00     0.028 C 
HETATM   13  C6  UNL     1     -31.533  18.410   0.892  1.00 20.00     0.009 C 
HETATM   14  C5  UNL     1     -31.325  18.359  -0.623  1.00 20.00     0.042 C 
ENDBRANCH   8  10
ENDBRANCH   5   8
TORSDOF 2
ENDMDL
MODEL 4
REMARK VINA RESULT:      -5.0      2.367      3.639
REMARK  2 active torsions:
REMARK  status: ('A' for Active; 'I' for Inactive)
REMARK    1  A    between atoms: C2_2  and  C3_3 
REMARK    2  A    between atoms: C3_3  and  C11_11 
ROOT
HETATM    1  C7  UNL     1     -34.067  14.886  -5.167  1.00 20.00     0.005 C 
HETATM    2  C8  UNL     1     -32.947  14.999  -4.122  1.00 20.00     0.006 C 
HETATM    3  C9  UNL     1     -34.876  17.190  -4.588  1.00 20.00     0.017 C 
HETATM    4  C10 UNL     1     -35.028  15.381  -3.049  1.00 20.00     0.010 C 
HETATM    5  C11 UNL     1     -33.712  17.315  -3.590  1.00 20.00     0.065 C 
HETATM    6  C12 UNL     1     -35.218  15.689  -4.532  1.00 20.00    -0.013 C 
HETATM    7  C13 UNL     1     -33.580  15.881  -3.033  1.00 20.00    -0.003 C 
ENDROOT
BRANCH   5   8
HETATM    8  C3  UNL     1     -34.018  18.305  -2.509  1.00 20.00     0.159 C 
HETATM    9  O14 UNL     1     -34.955  19.095  -2.596  1.00 20.00    -0.292 OA
BRANCH   8  10
HETATM   10  C2  UNL     1     -33.173  18.315  -1.357  1.00 20.00    -0.016 C 
HETATM   11  C1  UNL     1     -31.845  18.476  -1.351  1.00 20.00    -0.016 C 
HETATM   12  C4  UNL     1     -31.287  18.409   0.032  1.00 20.00     0.028 C 
HETATM   13  C6  UNL     1     -32.535  18.525   0.906  1.00 20.00     0.009 C 
HETATM   14  C5  UNL     1     -33.715  18.115   0.023  1.00 20.00     0.042 C 
ENDBRANCH   8  10
ENDBRANCH   5   8
TORSDOF 2
ENDMDL
MODEL 5
REMARK VINA RESULT:      -4.9      2.308      3.841
REMARK  2 active torsions:
REMARK  status: ('A' for Active; 'I' for Inactive)
REMARK    1  A    between atoms: C2_2  and  C3_3 
REMARK    2  A    between atoms: C3_3  and  C11_11 
ROOT
HETATM    1  C7  UNL     1     -33.495  14.390  -4.508  1.00 20.00     0.005 C 
HETATM    2  C8  UNL     1     -34.809  13.938  -3.851  1.00 20.00     0.006 C 
HETATM    3  C9  UNL     1     -33.384  16.378  -2.980  1.00 20.00     0.017 C 
HETATM    4  C10 UNL     1     -35.077  16.161  -4.639  1.00 20.00     0.010 C 
HETATM    5  C11 UNL     1     -34.666  15.881  -2.290  1.00 20.00     0.065 C 
HETATM    6  C12 UNL     1     -33.582  15.926  -4.440  1.00 20.00    -0.013 C 
HETATM    7  C13 UNL     1     -35.471  15.269  -3.457  1.00 20.00    -0.003 C 
ENDROOT
BRANCH   5   8
HETATM    8  C3  UNL     1     -35.407  17.004  -1.632  1.00 20.00     0.159 C 
HETATM    9  O14 UNL     1     -36.425  17.486  -2.120  1.00 20.00    -0.292 OA
BRANCH   8  10
HETATM   10  C2  UNL     1     -34.887  17.514  -0.403  1.00 20.00    -0.016 C 
HETATM   11  C1  UNL     1     -35.378  17.287   0.820  1.00 20.00    -0.016 C 
HETATM   12  C4  UNL     1     -34.594  17.999   1.872  1.00 20.00     0.028 C 
HETATM   13  C6  UNL     1     -33.332  18.424   1.122  1.00 20.00     0.009 C 
HETATM   14  C5  UNL     1     -33.694  18.416  -0.364  1.00 20.00     0.042 C 
ENDBRANCH   8  10
ENDBRANCH   5   8
TORSDOF 2
ENDMDL
MODEL 6
REMARK VINA RESULT:      -4.9      1.171      4.558
REMARK  2 active torsions:
REMARK  status: ('A' for Active; 'I' for Inactive)
REMARK    1  A    between atoms: C2_2  and  C3_3 
REMARK    2  A    between atoms: C3_3  and  C11_11 
ROOT
HETATM    1  C7  UNL     1     -35.057  18.177  -1.954  1.00 20.00     0.005 C 
HETATM    2  C8  UNL     1     -34.965  16.830  -1.220  1.00 20.00     0.006 C 
HETATM    3  C9  UNL     1     -35.482  16.996  -4.127  1.00 20.00     0.017 C 
HETATM    4  C10 UNL     1     -33.393  16.836  -2.998  1.00 20.00     0.010 C 
HETATM    5  C11 UNL     1     -35.450  15.657  -3.370  1.00 20.00     0.065 C 
HETATM    6  C12 UNL     1     -34.473  17.857  -3.343  1.00 20.00    -0.013 C 
HETATM    7  C13 UNL     1     -34.374  15.896  -2.290  1.00 20.00    -0.003 C 
ENDROOT
BRANCH   5   8
HETATM    8  C3  UNL     1     -35.086  14.521  -4.276  1.00 20.00     0.159 C 
HETATM    9  O14 UNL     1     -34.834  13.399  -3.845  1.00 20.00    -0.292 OA
BRANCH   8  10
HETATM   10  C2  UNL     1     -35.030  14.782  -5.680  1.00 20.00    -0.016 C 
HETATM   11  C1  UNL     1     -36.073  14.852  -6.514  1.00 20.00    -0.016 C 
HETATM   12  C4  UNL     1     -35.640  15.120  -7.918  1.00 20.00     0.028 C 
HETATM   13  C6  UNL     1     -34.182  15.544  -7.747  1.00 20.00     0.009 C 
HETATM   14  C5  UNL     1     -33.732  14.992  -6.394  1.00 20.00     0.042 C 
ENDBRANCH   8  10
ENDBRANCH   5   8
TORSDOF 2
ENDMDL
MODEL 7
REMARK VINA RESULT:      -4.8      2.482      4.529
REMARK  2 active torsions:
REMARK  status: ('A' for Active; 'I' for Inactive)
REMARK    1  A    between atoms: C2_2  and  C3_3 
REMARK    2  A    between atoms: C3_3  and  C11_11 
ROOT
HETATM    1  C7  UNL     1     -33.046  15.796  -3.390  1.00 20.00     0.005 C 
HETATM    2  C8  UNL     1     -34.279  16.051  -2.509  1.00 20.00     0.006 C 
HETATM    3  C9  UNL     1     -34.465  15.904  -5.456  1.00 20.00     0.017 C 
HETATM    4  C10 UNL     1     -34.694  14.148  -3.866  1.00 20.00     0.010 C 
HETATM    5  C11 UNL     1     -35.681  16.221  -4.568  1.00 20.00     0.065 C 
HETATM    6  C12 UNL     1     -33.619  14.978  -4.562  1.00 20.00    -0.013 C 
HETATM    7  C13 UNL     1     -35.413  15.379  -3.303  1.00 20.00    -0.003 C 
ENDROOT
BRANCH   5   8
HETATM    8  C3  UNL     1     -36.965  15.832  -5.234  1.00 20.00     0.159 C 
HETATM    9  O14 UNL     1     -36.996  15.386  -6.378  1.00 20.00    -0.292 OA
BRANCH   8  10
HETATM   10  C2  UNL     1     -38.176  16.001  -4.495  1.00 20.00    -0.016 C 
HETATM   11  C1  UNL     1     -38.631  17.146  -3.973  1.00 20.00    -0.016 C 
HETATM   12  C4  UNL     1     -39.919  16.948  -3.246  1.00 20.00     0.028 C 
HETATM   13  C6  UNL     1     -40.354  15.555  -3.701  1.00 20.00     0.009 C 
HETATM   14  C5  UNL     1     -39.088  14.854  -4.198  1.00 20.00     0.042 C 
ENDBRANCH   8  10
ENDBRANCH   5   8
TORSDOF 2
ENDMDL
MODEL 8
REMARK VINA RESULT:      -4.8      2.366      3.502
REMARK  2 active torsions:
REMARK  status: ('A' for Active; 'I' for Inactive)
REMARK    1  A    between atoms: C2_2  and  C3_3 
REMARK    2  A    between atoms: C3_3  and  C11_11 
ROOT
HETATM    1  C7  UNL     1     -39.750  17.966  -5.078  1.00 20.00     0.005 C 
HETATM    2  C8  UNL     1     -38.313  18.317  -4.663  1.00 20.00     0.006 C 
HETATM    3  C9  UNL     1     -39.346  15.550  -4.536  1.00 20.00     0.017 C 
HETATM    4  C10 UNL     1     -38.232  16.637  -6.337  1.00 20.00     0.010 C 
HETATM    5  C11 UNL     1     -37.930  15.924  -4.064  1.00 20.00     0.065 C 
HETATM    6  C12 UNL     1     -39.605  16.554  -5.675  1.00 20.00    -0.013 C 
HETATM    7  C13 UNL     1     -37.527  17.050  -5.040  1.00 20.00    -0.003 C 
ENDROOT
BRANCH   5   8
HETATM    8  C3  UNL     1     -36.996  14.756  -4.146  1.00 20.00     0.159 C 
HETATM    9  O14 UNL     1     -37.390  13.626  -4.422  1.00 20.00    -0.292 OA
BRANCH   8  10
HETATM   10  C2  UNL     1     -35.611  14.992  -3.884  1.00 20.00    -0.016 C 
HETATM   11  C1  UNL     1     -34.588  14.663  -4.681  1.00 20.00    -0.016 C 
HETATM   12  C4  UNL     1     -33.276  15.041  -4.078  1.00 20.00     0.028 C 
HETATM   13  C6  UNL     1     -33.684  15.967  -2.933  1.00 20.00     0.009 C 
HETATM   14  C5  UNL     1     -35.145  15.642  -2.621  1.00 20.00     0.042 C 
ENDBRANCH   8  10
ENDBRANCH   5   8
TORSDOF 2
ENDMDL
MODEL 9
REMARK VINA RESULT:      -4.7      1.100      4.388
REMARK  2 active torsions:
REMARK  status: ('A' for Active; 'I' for Inactive)
REMARK    1  A    between atoms: C2_2  and  C3_3 
REMARK    2  A    between atoms: C3_3  and  C11_11 
ROOT
HETATM    1  C7  UNL     1     -33.893  17.610  -1.727  1.00 20.00     0.005 C 
HETATM    2  C8  UNL     1     -32.927  17.291  -2.878  1.00 20.00     0.006 C 
HETATM    3  C9  UNL     1     -35.249  15.568  -2.264  1.00 20.00     0.017 C 
HETATM    4  C10 UNL     1     -35.130  17.424  -3.749  1.00 20.00     0.010 C 
HETATM    5  C11 UNL     1     -34.240  15.227  -3.374  1.00 20.00     0.065 C 
HETATM    6  C12 UNL     1     -35.248  17.109  -2.261  1.00 20.00    -0.013 C 
HETATM    7  C13 UNL     1     -33.839  16.615  -3.915  1.00 20.00    -0.003 C 
ENDROOT
BRANCH   5   8
HETATM    8  C3  UNL     1     -34.858  14.372  -4.437  1.00 20.00     0.159 C 
HETATM    9  O14 UNL     1     -35.365  13.282  -4.183  1.00 20.00    -0.292 OA
BRANCH   8  10
HETATM   10  C2  UNL     1     -34.837  14.861  -5.780  1.00 20.00    -0.016 C 
HETATM   11  C1  UNL     1     -33.764  14.947  -6.574  1.00 20.00    -0.016 C 
HETATM   12  C4  UNL     1     -34.109  15.527  -7.905  1.00 20.00     0.028 C 
HETATM   13  C6  UNL     1     -35.636  15.463  -7.918  1.00 20.00     0.009 C 
HETATM   14  C5  UNL     1     -36.071  15.371  -6.454  1.00 20.00     0.042 C 
ENDBRANCH   8  10
ENDBRANCH   5   8
TORSDOF 2
ENDMDL
