MODEL 1
REMARK VINA RESULT:      -5.9      0.000      0.000
REMARK  4 active torsions:
REMARK  status: ('A' for Active; 'I' for Inactive)
REMARK    1  A    between atoms: C2_2  and  C11_11 
REMARK    2  A    between atoms: C9_9  and  C10_10 
REMARK    3  A    between atoms: C10_10  and  C11_11 
REMARK    4  A    between atoms: C11_11  and  O12_12 
ROOT
HETATM    1  C11 UNL     1     -32.396   6.599   2.732  1.00 20.00     0.147 C 
ENDROOT
BRANCH   1   2
HETATM    2  C2  UNL     1     -33.324   6.261   3.861  1.00 20.00    -0.055 C 
HETATM    3  C1  UNL     1     -33.342   6.970   5.003  1.00 20.00    -0.021 C 
HETATM    4  C3  UNL     1     -34.227   6.644   6.170  1.00 20.00     0.027 C 
HETATM    5  C5  UNL     1     -34.863   5.257   6.077  1.00 20.00     0.004 C 
HETATM    6  C6  UNL     1     -35.369   4.981   4.666  1.00 20.00     0.005 C 
HETATM    7  C4  UNL     1     -34.235   5.079   3.642  1.00 20.00     0.036 C 
ENDBRANCH   1   2
BRANCH   1   8
HETATM    8  C10 UNL     1     -33.157   7.048   1.493  1.00 20.00     0.041 C 
BRANCH   8   9
HETATM    9  C9  UNL     1     -32.509   8.239   0.805  1.00 20.00    -0.012 A 
HETATM   10  C7  UNL     1     -33.157   8.863  -0.399  1.00 20.00     0.005 A 
HETATM   11  C8  UNL     1     -33.132   9.604   0.909  1.00 20.00     0.005 A 
ENDBRANCH   8   9
ENDBRANCH   1   8
BRANCH   1  12
HETATM   12  O12 UNL     1     -31.609   7.679   3.208  1.00 20.00    -0.391 OA
HETATM   13  H30 UNL     1     -32.224   8.388   3.458  1.00 20.00     0.210 HD
ENDBRANCH   1  12
TORSDOF 4
ENDMDL
MODEL 2
REMARK VINA RESULT:      -5.1     10.790     11.761
REMARK  4 active torsions:
REMARK  status: ('A' for Active; 'I' for Inactive)
REMARK    1  A    between atoms: C2_2  and  C11_11 
REMARK    2  A    between atoms: C9_9  and  C10_10 
REMARK    3  A    between atoms: C10_10  and  C11_11 
REMARK    4  A    between atoms: C11_11  and  O12_12 
ROOT
HETATM    1  C11 UNL     1     -33.483  14.585  -4.542  1.00 20.00     0.147 C 
ENDROOT
BRANCH   1   2
HETATM    2  C2  UNL     1     -33.747  15.602  -3.470  1.00 20.00    -0.055 C 
HETATM    3  C1  UNL     1     -32.881  16.595  -3.205  1.00 20.00    -0.021 C 
HETATM    4  C3  UNL     1     -33.089  17.609  -2.118  1.00 20.00     0.027 C 
HETATM    5  C5  UNL     1     -34.195  17.225  -1.136  1.00 20.00     0.004 C 
HETATM    6  C6  UNL     1     -35.410  16.670  -1.871  1.00 20.00     0.005 C 
HETATM    7  C4  UNL     1     -35.039  15.443  -2.708  1.00 20.00     0.036 C 
ENDBRANCH   1   2
BRANCH   1   8
HETATM    8  C10 UNL     1     -33.902  15.093  -5.914  1.00 20.00     0.041 C 
BRANCH   8   9
HETATM    9  C9  UNL     1     -35.328  14.708  -6.274  1.00 20.00    -0.012 A 
HETATM   10  C7  UNL     1     -36.440  15.710  -6.139  1.00 20.00     0.005 A 
HETATM   11  C8  UNL     1     -35.978  15.279  -7.504  1.00 20.00     0.005 A 
ENDBRANCH   8   9
ENDBRANCH   1   8
BRANCH   1  12
HETATM   12  O12 UNL     1     -32.078  14.389  -4.531  1.00 20.00    -0.391 OA
HETATM   13  H30 UNL     1     -31.672  15.237  -4.774  1.00 20.00     0.210 HD
ENDBRANCH   1  12
TORSDOF 4
ENDMDL
MODEL 3
REMARK VINA RESULT:      -5.1     10.759     11.832
REMARK  4 active torsions:
REMARK  status: ('A' for Active; 'I' for Inactive)
REMARK    1  A    between atoms: C2_2  and  C11_11 
REMARK    2  A    between atoms: C9_9  and  C10_10 
REMARK    3  A    between atoms: C10_10  and  C11_11 
REMARK    4  A    between atoms: C11_11  and  O12_12 
ROOT
HETATM    1  C11 UNL     1     -33.519  14.594  -4.532  1.00 20.00     0.147 C 
ENDROOT
BRANCH   1   2
HETATM    2  C2  UNL     1     -33.813  15.572  -3.432  1.00 20.00    -0.055 C 
HETATM    3  C1  UNL     1     -34.899  15.453  -2.648  1.00 20.00    -0.021 C 
HETATM    4  C3  UNL     1     -35.250  16.427  -1.563  1.00 20.00     0.027 C 
HETATM    5  C5  UNL     1     -34.455  17.730  -1.640  1.00 20.00     0.004 C 
HETATM    6  C6  UNL     1     -32.985  17.457  -1.940  1.00 20.00     0.005 C 
HETATM    7  C4  UNL     1     -32.822  16.695  -3.258  1.00 20.00     0.036 C 
ENDBRANCH   1   2
BRANCH   1   8
HETATM    8  C10 UNL     1     -33.949  15.130  -5.890  1.00 20.00     0.041 C 
BRANCH   8   9
HETATM    9  C9  UNL     1     -35.372  14.735  -6.253  1.00 20.00    -0.012 A 
HETATM   10  C7  UNL     1     -36.502  15.709  -6.057  1.00 20.00     0.005 A 
HETATM   11  C8  UNL     1     -36.048  15.354  -7.445  1.00 20.00     0.005 A 
ENDBRANCH   8   9
ENDBRANCH   1   8
BRANCH   1  12
HETATM   12  O12 UNL     1     -32.109  14.437  -4.524  1.00 20.00    -0.391 OA
HETATM   13  H30 UNL     1     -31.908  13.662  -5.073  1.00 20.00     0.210 HD
ENDBRANCH   1  12
TORSDOF 4
ENDMDL
MODEL 4
REMARK VINA RESULT:      -4.7     10.956     12.156
REMARK  4 active torsions:
REMARK  status: ('A' for Active; 'I' for Inactive)
REMARK    1  A    between atoms: C2_2  and  C11_11 
REMARK    2  A    between atoms: C9_9  and  C10_10 
REMARK    3  A    between atoms: C10_10  and  C11_11 
REMARK    4  A    between atoms: C11_11  and  O12_12 
ROOT
HETATM    1  C11 UNL     1     -32.061  18.893  -0.750  1.00 20.00     0.147 C 
ENDROOT
BRANCH   1   2
HETATM    2  C2  UNL     1     -33.022  17.898  -1.333  1.00 20.00    -0.055 C 
HETATM    3  C1  UNL     1     -32.678  17.093  -2.354  1.00 20.00    -0.021 C 
HETATM    4  C3  UNL     1     -33.617  16.111  -2.990  1.00 20.00     0.027 C 
HETATM    5  C5  UNL     1     -35.078  16.333  -2.600  1.00 20.00     0.004 C 
HETATM    6  C6  UNL     1     -35.209  16.620  -1.108  1.00 20.00     0.005 C 
HETATM    7  C4  UNL     1     -34.393  17.853  -0.708  1.00 20.00     0.036 C 
ENDBRANCH   1   2
BRANCH   1   8
HETATM    8  C10 UNL     1     -32.431  19.260   0.679  1.00 20.00     0.041 C 
BRANCH   8   9
HETATM    9  C9  UNL     1     -31.769  18.357   1.708  1.00 20.00    -0.012 A 
HETATM   10  C7  UNL     1     -31.547  18.844   3.113  1.00 20.00     0.005 A 
HETATM   11  C8  UNL     1     -32.575  17.782   2.840  1.00 20.00     0.005 A 
ENDBRANCH   8   9
ENDBRANCH   1   8
BRANCH   1  12
HETATM   12  O12 UNL     1     -30.802  18.239  -0.749  1.00 20.00    -0.391 OA
HETATM   13  H30 UNL     1     -30.349  18.498  -1.568  1.00 20.00     0.210 HD
ENDBRANCH   1  12
TORSDOF 4
ENDMDL
MODEL 5
REMARK VINA RESULT:      -4.7     10.862     11.969
REMARK  4 active torsions:
REMARK  status: ('A' for Active; 'I' for Inactive)
REMARK    1  A    between atoms: C2_2  and  C11_11 
REMARK    2  A    between atoms: C9_9  and  C10_10 
REMARK    3  A    between atoms: C10_10  and  C11_11 
REMARK    4  A    between atoms: C11_11  and  O12_12 
ROOT
HETATM    1  C11 UNL     1     -33.616  17.786  -1.182  1.00 20.00     0.147 C 
ENDROOT
BRANCH   1   2
HETATM    2  C2  UNL     1     -34.008  16.724  -2.168  1.00 20.00    -0.055 C 
HETATM    3  C1  UNL     1     -35.251  16.214  -2.206  1.00 20.00    -0.021 C 
HETATM    4  C3  UNL     1     -35.674  15.126  -3.149  1.00 20.00     0.027 C 
HETATM    5  C5  UNL     1     -34.498  14.426  -3.830  1.00 20.00     0.004 C 
HETATM    6  C6  UNL     1     -33.451  15.436  -4.289  1.00 20.00     0.005 C 
HETATM    7  C4  UNL     1     -32.925  16.262  -3.111  1.00 20.00     0.036 C 
ENDBRANCH   1   2
BRANCH   1   8
HETATM    8  C10 UNL     1     -32.158  18.191  -1.342  1.00 20.00     0.041 C 
BRANCH   8   9
HETATM    9  C9  UNL     1     -31.608  18.899  -0.114  1.00 20.00    -0.012 A 
HETATM   10  C7  UNL     1     -32.099  18.530   1.258  1.00 20.00     0.005 A 
HETATM   11  C8  UNL     1     -30.702  18.168   0.838  1.00 20.00     0.005 A 
ENDBRANCH   8   9
ENDBRANCH   1   8
BRANCH   1  12
HETATM   12  O12 UNL     1     -34.441  18.899  -1.487  1.00 20.00    -0.391 OA
HETATM   13  H30 UNL     1     -34.364  19.055  -2.443  1.00 20.00     0.210 HD
ENDBRANCH   1  12
TORSDOF 4
ENDMDL
MODEL 6
REMARK VINA RESULT:      -4.6     10.850     11.750
REMARK  4 active torsions:
REMARK  status: ('A' for Active; 'I' for Inactive)
REMARK    1  A    between atoms: C2_2  and  C11_11 
REMARK    2  A    between atoms: C9_9  and  C10_10 
REMARK    3  A    between atoms: C10_10  and  C11_11 
REMARK    4  A    between atoms: C11_11  and  O12_12 
ROOT
HETATM    1  C11 UNL     1     -34.770  17.527  -1.724  1.00 20.00     0.147 C 
ENDROOT
BRANCH   1   2
HETATM    2  C2  UNL     1     -33.618  17.920  -0.846  1.00 20.00    -0.055 C 
HETATM    3  C1  UNL     1     -32.372  18.064  -1.330  1.00 20.00    -0.021 C 
HETATM    4  C3  UNL     1     -31.187  18.419  -0.481  1.00 20.00     0.027 C 
HETATM    5  C5  UNL     1     -31.455  18.283   1.018  1.00 20.00     0.004 C 
HETATM    6  C6  UNL     1     -32.822  18.850   1.383  1.00 20.00     0.005 C 
HETATM    7  C4  UNL     1     -33.940  18.144   0.611  1.00 20.00     0.036 C 
ENDBRANCH   1   2
BRANCH   1   8
HETATM    8  C10 UNL     1     -34.294  16.969  -3.058  1.00 20.00     0.041 C 
BRANCH   8   9
HETATM    9  C9  UNL     1     -34.097  15.462  -3.027  1.00 20.00    -0.012 A 
HETATM   10  C7  UNL     1     -34.918  14.572  -3.919  1.00 20.00     0.005 A 
HETATM   11  C8  UNL     1     -33.452  14.760  -4.190  1.00 20.00     0.005 A 
ENDBRANCH   8   9
ENDBRANCH   1   8
BRANCH   1  12
HETATM   12  O12 UNL     1     -35.450  16.506  -1.012  1.00 20.00    -0.391 OA
HETATM   13  H30 UNL     1     -35.493  15.733  -1.599  1.00 20.00     0.210 HD
ENDBRANCH   1  12
TORSDOF 4
ENDMDL
MODEL 7
REMARK VINA RESULT:      -4.6     10.972     12.050
REMARK  4 active torsions:
REMARK  status: ('A' for Active; 'I' for Inactive)
REMARK    1  A    between atoms: C2_2  and  C11_11 
REMARK    2  A    between atoms: C9_9  and  C10_10 
REMARK    3  A    between atoms: C10_10  and  C11_11 
REMARK    4  A    between atoms: C11_11  and  O12_12 
ROOT
HETATM    1  C11 UNL     1     -36.489  14.002  -4.368  1.00 20.00     0.147 C 
ENDROOT
BRANCH   1   2
HETATM    2  C2  UNL     1     -35.304  14.772  -3.863  1.00 20.00    -0.055 C 
HETATM    3  C1  UNL     1     -35.358  15.494  -2.730  1.00 20.00    -0.021 C 
HETATM    4  C3  UNL     1     -34.210  16.307  -2.209  1.00 20.00     0.027 C 
HETATM    5  C5  UNL     1     -33.094  16.506  -3.235  1.00 20.00     0.004 C 
HETATM    6  C6  UNL     1     -32.802  15.209  -3.983  1.00 20.00     0.005 C 
HETATM    7  C4  UNL     1     -34.052  14.689  -4.699  1.00 20.00     0.036 C 
ENDBRANCH   1   2
BRANCH   1   8
HETATM    8  C10 UNL     1     -37.730  14.877  -4.461  1.00 20.00     0.041 C 
BRANCH   8   9
HETATM    9  C9  UNL     1     -37.592  15.985  -5.494  1.00 20.00    -0.012 A 
HETATM   10  C7  UNL     1     -38.792  16.794  -5.902  1.00 20.00     0.005 A 
HETATM   11  C8  UNL     1     -37.705  17.426  -5.078  1.00 20.00     0.005 A 
ENDBRANCH   8   9
ENDBRANCH   1   8
BRANCH   1  12
HETATM   12  O12 UNL     1     -36.127  13.574  -5.672  1.00 20.00    -0.391 OA
HETATM   13  H30 UNL     1     -36.844  13.847  -6.268  1.00 20.00     0.210 HD
ENDBRANCH   1  12
TORSDOF 4
ENDMDL
MODEL 8
REMARK VINA RESULT:      -4.6      9.877     10.759
REMARK  4 active torsions:
REMARK  status: ('A' for Active; 'I' for Inactive)
REMARK    1  A    between atoms: C2_2  and  C11_11 
REMARK    2  A    between atoms: C9_9  and  C10_10 
REMARK    3  A    between atoms: C10_10  and  C11_11 
REMARK    4  A    between atoms: C11_11  and  O12_12 
ROOT
HETATM    1  C11 UNL     1     -41.851   4.642  -1.117  1.00 20.00     0.147 C 
ENDROOT
BRANCH   1   2
HETATM    2  C2  UNL     1     -42.116   6.084  -0.794  1.00 20.00    -0.055 C 
HETATM    3  C1  UNL     1     -41.312   6.788   0.020  1.00 20.00    -0.021 C 
HETATM    4  C3  UNL     1     -41.560   8.219   0.399  1.00 20.00     0.027 C 
HETATM    5  C5  UNL     1     -42.967   8.702   0.046  1.00 20.00     0.004 C 
HETATM    6  C6  UNL     1     -43.377   8.223  -1.342  1.00 20.00     0.005 C 
HETATM    7  C4  UNL     1     -43.337   6.695  -1.435  1.00 20.00     0.036 C 
ENDBRANCH   1   2
BRANCH   1   8
HETATM    8  C10 UNL     1     -42.681   4.170  -2.303  1.00 20.00     0.041 C 
BRANCH   8   9
HETATM    9  C9  UNL     1     -41.995   3.071  -3.100  1.00 20.00    -0.012 A 
HETATM   10  C7  UNL     1     -42.730   1.801  -3.426  1.00 20.00     0.005 A 
HETATM   11  C8  UNL     1     -42.416   2.789  -4.515  1.00 20.00     0.005 A 
ENDBRANCH   8   9
ENDBRANCH   1   8
BRANCH   1  12
HETATM   12  O12 UNL     1     -40.477   4.584  -1.463  1.00 20.00    -0.391 OA
HETATM   13  H30 UNL     1     -40.420   4.728  -2.422  1.00 20.00     0.210 HD
ENDBRANCH   1  12
TORSDOF 4
ENDMDL
MODEL 9
REMARK VINA RESULT:      -4.5     10.859     11.791
REMARK  4 active torsions:
REMARK  status: ('A' for Active; 'I' for Inactive)
REMARK    1  A    between atoms: C2_2  and  C11_11 
REMARK    2  A    between atoms: C9_9  and  C10_10 
REMARK    3  A    between atoms: C10_10  and  C11_11 
REMARK    4  A    between atoms: C11_11  and  O12_12 
ROOT
HETATM    1  C11 UNL     1     -34.784  17.540  -1.727  1.00 20.00     0.147 C 
ENDROOT
BRANCH   1   2
HETATM    2  C2  UNL     1     -33.668  17.947  -0.810  1.00 20.00    -0.055 C 
HETATM    3  C1  UNL     1     -33.852  18.084   0.515  1.00 20.00    -0.021 C 
HETATM    4  C3  UNL     1     -32.775  18.524   1.462  1.00 20.00     0.027 C 
HETATM    5  C5  UNL     1     -31.555  19.115   0.757  1.00 20.00     0.004 C 
HETATM    6  C6  UNL     1     -31.172  18.283  -0.462  1.00 20.00     0.005 C 
HETATM    7  C4  UNL     1     -32.331  18.196  -1.460  1.00 20.00     0.036 C 
ENDBRANCH   1   2
BRANCH   1   8
HETATM    8  C10 UNL     1     -34.256  16.977  -3.038  1.00 20.00     0.041 C 
BRANCH   8   9
HETATM    9  C9  UNL     1     -34.099  15.465  -3.008  1.00 20.00    -0.012 A 
HETATM   10  C7  UNL     1     -34.928  14.599  -3.915  1.00 20.00     0.005 A 
HETATM   11  C8  UNL     1     -33.453  14.749  -4.162  1.00 20.00     0.005 A 
ENDBRANCH   8   9
ENDBRANCH   1   8
BRANCH   1  12
HETATM   12  O12 UNL     1     -35.483  16.519  -1.034  1.00 20.00    -0.391 OA
HETATM   13  H30 UNL     1     -35.292  15.684  -1.493  1.00 20.00     0.210 HD
ENDBRANCH   1  12
TORSDOF 4
ENDMDL
