MODEL 1
REMARK VINA RESULT:      -3.9      0.000      0.000
REMARK  4 active torsions:
REMARK  status: ('A' for Active; 'I' for Inactive)
REMARK    1  A    between atoms: C4_4  and  C6_6 
REMARK    2  A    between atoms: C5_5  and  C7_7 
REMARK    3  A    between atoms: C6_6  and  C7_7 
REMARK    4  A    between atoms: C7_7  and  N8_8 
ROOT
HETATM    1  C1  UNL     1     -32.432   7.888   1.907  1.00 20.00     0.158 C 
HETATM    2  N8  UNL     1     -31.997   7.409   2.885  1.00 20.00    -0.270 NA
HETATM    3  S9  UNL     1     -32.994   8.561   0.577  1.00 20.00    -0.055 SA
ENDROOT
BRANCH   2   4
HETATM    4  C7  UNL     1     -32.820   6.338   3.462  1.00 20.00     0.109 C 
BRANCH   4   5
HETATM    5  C5  UNL     1     -33.317   5.425   2.334  1.00 20.00     0.023 C 
HETATM    6  C3  UNL     1     -33.731   4.048   2.835  1.00 20.00     0.007 C 
ENDBRANCH   4   5
BRANCH   4   7
HETATM    7  C6  UNL     1     -33.999   6.963   4.221  1.00 20.00     0.027 C 
BRANCH   7   8
HETATM    8  C4  UNL     1     -33.963   6.647   5.720  1.00 20.00    -0.002 C 
HETATM    9  C2  UNL     1     -34.743   5.382   6.039  1.00 20.00     0.005 C 
ENDBRANCH   7   8
ENDBRANCH   4   7
ENDBRANCH   2   4
TORSDOF 4
ENDMDL
MODEL 2
REMARK VINA RESULT:      -3.8     11.330     12.118
REMARK  4 active torsions:
REMARK  status: ('A' for Active; 'I' for Inactive)
REMARK    1  A    between atoms: C4_4  and  C6_6 
REMARK    2  A    between atoms: C5_5  and  C7_7 
REMARK    3  A    between atoms: C6_6  and  C7_7 
REMARK    4  A    between atoms: C7_7  and  N8_8 
ROOT
HETATM    1  C1  UNL     1     -35.348  14.747  -6.491  1.00 20.00     0.158 C 
HETATM    2  N8  UNL     1     -35.954  13.858  -6.023  1.00 20.00    -0.270 NA
HETATM    3  S9  UNL     1     -34.530  15.939  -7.157  1.00 20.00    -0.055 SA
ENDROOT
BRANCH   2   4
HETATM    4  C7  UNL     1     -36.146  13.944  -4.569  1.00 20.00     0.109 C 
BRANCH   4   5
HETATM    5  C5  UNL     1     -37.070  15.127  -4.255  1.00 20.00     0.023 C 
HETATM    6  C3  UNL     1     -38.541  14.734  -4.244  1.00 20.00     0.007 C 
ENDBRANCH   4   5
BRANCH   4   7
HETATM    7  C6  UNL     1     -34.779  14.120  -3.891  1.00 20.00     0.027 C 
BRANCH   7   8
HETATM    8  C4  UNL     1     -34.736  15.345  -2.972  1.00 20.00    -0.002 C 
HETATM    9  C2  UNL     1     -33.423  16.100  -3.115  1.00 20.00     0.005 C 
ENDBRANCH   7   8
ENDBRANCH   4   7
ENDBRANCH   2   4
TORSDOF 4
ENDMDL
MODEL 3
REMARK VINA RESULT:      -3.8     11.381     12.262
REMARK  4 active torsions:
REMARK  status: ('A' for Active; 'I' for Inactive)
REMARK    1  A    between atoms: C4_4  and  C6_6 
REMARK    2  A    between atoms: C5_5  and  C7_7 
REMARK    3  A    between atoms: C6_6  and  C7_7 
REMARK    4  A    between atoms: C7_7  and  N8_8 
ROOT
HETATM    1  C1  UNL     1     -38.332  14.636  -4.271  1.00 20.00     0.158 C 
HETATM    2  N8  UNL     1     -37.388  13.982  -4.509  1.00 20.00    -0.270 NA
HETATM    3  S9  UNL     1     -39.632  15.494  -3.943  1.00 20.00    -0.055 SA
ENDROOT
BRANCH   2   4
HETATM    4  C7  UNL     1     -36.170  14.748  -4.807  1.00 20.00     0.109 C 
BRANCH   4   5
HETATM    5  C5  UNL     1     -35.718  14.434  -6.238  1.00 20.00     0.023 C 
HETATM    6  C3  UNL     1     -34.370  15.057  -6.576  1.00 20.00     0.007 C 
ENDBRANCH   4   5
BRANCH   4   7
HETATM    7  C6  UNL     1     -35.080  14.374  -3.792  1.00 20.00     0.027 C 
BRANCH   7   8
HETATM    8  C4  UNL     1     -34.768  15.517  -2.821  1.00 20.00    -0.002 C 
HETATM    9  C2  UNL     1     -33.420  16.152  -3.125  1.00 20.00     0.005 C 
ENDBRANCH   7   8
ENDBRANCH   4   7
ENDBRANCH   2   4
TORSDOF 4
ENDMDL
MODEL 4
REMARK VINA RESULT:      -3.7     11.338     11.819
REMARK  4 active torsions:
REMARK  status: ('A' for Active; 'I' for Inactive)
REMARK    1  A    between atoms: C4_4  and  C6_6 
REMARK    2  A    between atoms: C5_5  and  C7_7 
REMARK    3  A    between atoms: C6_6  and  C7_7 
REMARK    4  A    between atoms: C7_7  and  N8_8 
ROOT
HETATM    1  C1  UNL     1     -34.058  14.886  -5.973  1.00 20.00     0.158 C 
HETATM    2  N8  UNL     1     -33.786  14.291  -5.000  1.00 20.00    -0.270 NA
HETATM    3  S9  UNL     1     -34.397  15.684  -7.309  1.00 20.00    -0.055 SA
ENDROOT
BRANCH   2   4
HETATM    4  C7  UNL     1     -34.838  14.279  -3.974  1.00 20.00     0.109 C 
BRANCH   4   5
HETATM    5  C5  UNL     1     -36.091  13.607  -4.548  1.00 20.00     0.023 C 
HETATM    6  C3  UNL     1     -37.352  14.429  -4.320  1.00 20.00     0.007 C 
ENDBRANCH   4   5
BRANCH   4   7
HETATM    7  C6  UNL     1     -35.137  15.723  -3.543  1.00 20.00     0.027 C 
BRANCH   7   8
HETATM    8  C4  UNL     1     -34.419  16.107  -2.246  1.00 20.00    -0.002 C 
HETATM    9  C2  UNL     1     -33.132  16.867  -2.529  1.00 20.00     0.005 C 
ENDBRANCH   7   8
ENDBRANCH   4   7
ENDBRANCH   2   4
TORSDOF 4
ENDMDL
MODEL 5
REMARK VINA RESULT:      -3.5     11.591     12.777
REMARK  4 active torsions:
REMARK  status: ('A' for Active; 'I' for Inactive)
REMARK    1  A    between atoms: C4_4  and  C6_6 
REMARK    2  A    between atoms: C5_5  and  C7_7 
REMARK    3  A    between atoms: C6_6  and  C7_7 
REMARK    4  A    between atoms: C7_7  and  N8_8 
ROOT
HETATM    1  C1  UNL     1     -38.299  14.580  -4.269  1.00 20.00     0.158 C 
HETATM    2  N8  UNL     1     -37.437  13.802  -4.436  1.00 20.00    -0.270 NA
HETATM    3  S9  UNL     1     -39.491  15.609  -4.039  1.00 20.00    -0.055 SA
ENDROOT
BRANCH   2   4
HETATM    4  C7  UNL     1     -36.105  14.393  -4.622  1.00 20.00     0.109 C 
BRANCH   4   5
HETATM    5  C5  UNL     1     -35.670  15.070  -3.317  1.00 20.00     0.023 C 
HETATM    6  C3  UNL     1     -34.179  15.377  -3.285  1.00 20.00     0.007 C 
ENDBRANCH   4   5
BRANCH   4   7
HETATM    7  C6  UNL     1     -36.161  15.406  -5.775  1.00 20.00     0.027 C 
BRANCH   7   8
HETATM    8  C4  UNL     1     -35.510  14.871  -7.054  1.00 20.00    -0.002 C 
HETATM    9  C2  UNL     1     -34.016  15.156  -7.077  1.00 20.00     0.005 C 
ENDBRANCH   7   8
ENDBRANCH   4   7
ENDBRANCH   2   4
TORSDOF 4
ENDMDL
MODEL 6
REMARK VINA RESULT:      -3.5     15.845     16.652
REMARK  4 active torsions:
REMARK  status: ('A' for Active; 'I' for Inactive)
REMARK    1  A    between atoms: C4_4  and  C6_6 
REMARK    2  A    between atoms: C5_5  and  C7_7 
REMARK    3  A    between atoms: C6_6  and  C7_7 
REMARK    4  A    between atoms: C7_7  and  N8_8 
ROOT
HETATM    1  C1  UNL     1     -22.764  17.089   9.056  1.00 20.00     0.158 C 
HETATM    2  N8  UNL     1     -23.607  16.932   9.855  1.00 20.00    -0.270 NA
HETATM    3  S9  UNL     1     -21.627  17.270   7.954  1.00 20.00    -0.055 SA
ENDROOT
BRANCH   2   4
HETATM    4  C7  UNL     1     -23.758  18.038  10.811  1.00 20.00     0.109 C 
BRANCH   4   5
HETATM    5  C5  UNL     1     -23.219  17.597  12.177  1.00 20.00     0.023 C 
HETATM    6  C3  UNL     1     -21.728  17.865  12.332  1.00 20.00     0.007 C 
ENDBRANCH   4   5
BRANCH   4   7
HETATM    7  C6  UNL     1     -25.242  18.422  10.905  1.00 20.00     0.027 C 
BRANCH   7   8
HETATM    8  C4  UNL     1     -25.788  18.303  12.331  1.00 20.00    -0.002 C 
HETATM    9  C2  UNL     1     -27.261  17.925  12.332  1.00 20.00     0.005 C 
ENDBRANCH   7   8
ENDBRANCH   4   7
ENDBRANCH   2   4
TORSDOF 4
ENDMDL
MODEL 7
REMARK VINA RESULT:      -3.3      2.466      4.025
REMARK  4 active torsions:
REMARK  status: ('A' for Active; 'I' for Inactive)
REMARK    1  A    between atoms: C4_4  and  C6_6 
REMARK    2  A    between atoms: C5_5  and  C7_7 
REMARK    3  A    between atoms: C6_6  and  C7_7 
REMARK    4  A    between atoms: C7_7  and  N8_8 
ROOT
HETATM    1  C1  UNL     1     -33.990   6.366   5.000  1.00 20.00     0.158 C 
HETATM    2  N8  UNL     1     -33.390   7.114   4.326  1.00 20.00    -0.270 NA
HETATM    3  S9  UNL     1     -34.803   5.374   5.944  1.00 20.00    -0.055 SA
ENDROOT
BRANCH   2   4
HETATM    4  C7  UNL     1     -33.225   6.685   2.930  1.00 20.00     0.109 C 
BRANCH   4   5
HETATM    5  C5  UNL     1     -32.804   5.210   2.905  1.00 20.00     0.023 C 
HETATM    6  C3  UNL     1     -33.558   4.404   1.857  1.00 20.00     0.007 C 
ENDBRANCH   4   5
BRANCH   4   7
HETATM    7  C6  UNL     1     -32.168   7.569   2.253  1.00 20.00     0.027 C 
BRANCH   7   8
HETATM    8  C4  UNL     1     -32.536   7.916   0.807  1.00 20.00    -0.002 C 
HETATM    9  C2  UNL     1     -33.009   9.356   0.684  1.00 20.00     0.005 C 
ENDBRANCH   7   8
ENDBRANCH   4   7
ENDBRANCH   2   4
TORSDOF 4
ENDMDL
MODEL 8
REMARK VINA RESULT:      -3.2     11.009     11.997
REMARK  4 active torsions:
REMARK  status: ('A' for Active; 'I' for Inactive)
REMARK    1  A    between atoms: C4_4  and  C6_6 
REMARK    2  A    between atoms: C5_5  and  C7_7 
REMARK    3  A    between atoms: C6_6  and  C7_7 
REMARK    4  A    between atoms: C7_7  and  N8_8 
ROOT
HETATM    1  C1  UNL     1     -33.439  16.173  -3.065  1.00 20.00     0.158 C 
HETATM    2  N8  UNL     1     -32.915  15.402  -3.776  1.00 20.00    -0.270 NA
HETATM    3  S9  UNL     1     -34.118  17.229  -2.085  1.00 20.00    -0.055 SA
ENDROOT
BRANCH   2   4
HETATM    4  C7  UNL     1     -33.827  14.672  -4.667  1.00 20.00     0.109 C 
BRANCH   4   5
HETATM    5  C5  UNL     1     -34.344  15.629  -5.748  1.00 20.00     0.023 C 
HETATM    6  C3  UNL     1     -33.895  15.229  -7.147  1.00 20.00     0.007 C 
ENDBRANCH   4   5
BRANCH   4   7
HETATM    7  C6  UNL     1     -34.987  14.099  -3.840  1.00 20.00     0.027 C 
BRANCH   7   8
HETATM    8  C4  UNL     1     -36.189  13.714  -4.708  1.00 20.00    -0.002 C 
HETATM    9  C2  UNL     1     -37.445  14.455  -4.277  1.00 20.00     0.005 C 
ENDBRANCH   7   8
ENDBRANCH   4   7
ENDBRANCH   2   4
TORSDOF 4
ENDMDL
MODEL 9
REMARK VINA RESULT:      -3.2     11.541     12.295
REMARK  4 active torsions:
REMARK  status: ('A' for Active; 'I' for Inactive)
REMARK    1  A    between atoms: C4_4  and  C6_6 
REMARK    2  A    between atoms: C5_5  and  C7_7 
REMARK    3  A    between atoms: C6_6  and  C7_7 
REMARK    4  A    between atoms: C7_7  and  N8_8 
ROOT
HETATM    1  C1  UNL     1     -35.810  17.776  -0.133  1.00 20.00     0.158 C 
HETATM    2  N8  UNL     1     -34.704  17.455  -0.355  1.00 20.00    -0.270 NA
HETATM    3  S9  UNL     1     -37.304  18.213   0.203  1.00 20.00    -0.055 SA
ENDROOT
BRANCH   2   4
HETATM    4  C7  UNL     1     -34.384  17.302  -1.781  1.00 20.00     0.109 C 
BRANCH   4   5
HETATM    5  C5  UNL     1     -34.868  15.928  -2.259  1.00 20.00     0.023 C 
HETATM    6  C3  UNL     1     -34.015  15.367  -3.388  1.00 20.00     0.007 C 
ENDBRANCH   4   5
BRANCH   4   7
HETATM    7  C6  UNL     1     -32.868  17.448  -1.975  1.00 20.00     0.027 C 
BRANCH   7   8
HETATM    8  C4  UNL     1     -32.300  18.668  -1.242  1.00 20.00    -0.002 C 
HETATM    9  C2  UNL     1     -31.128  18.285  -0.352  1.00 20.00     0.005 C 
ENDBRANCH   7   8
ENDBRANCH   4   7
ENDBRANCH   2   4
TORSDOF 4
ENDMDL
