MODEL 1
REMARK VINA RESULT:      -4.4      0.000      0.000
REMARK  3 active torsions:
REMARK  status: ('A' for Active; 'I' for Inactive)
REMARK    1  A    between atoms: C6_6  and  N10_10 
REMARK    2  A    between atoms: C7_7  and  C8_8 
REMARK    3  A    between atoms: C8_8  and  N10_10 
ROOT
HETATM    1  C1  UNL     1     -23.116  18.155   8.462  1.00 20.00     0.094 C 
HETATM    2  C2  UNL     1     -25.283  19.250   8.026  1.00 20.00     0.059 C 
HETATM    3  C6  UNL     1     -24.481  18.359   8.966  1.00 20.00     0.322 C 
HETATM    4  N9  UNL     1     -22.039  17.992   8.063  1.00 20.00    -0.195 NA
ENDROOT
BRANCH   3   5
HETATM    5  N10 UNL     1     -24.436  18.932  10.307  1.00 20.00     0.105 N 
HETATM    6  H26 UNL     1     -24.705  19.916  10.255  1.00 20.00     0.318 HD
BRANCH   5   7
HETATM    7  C8  UNL     1     -25.330  18.231  11.206  1.00 20.00     0.221 C 
HETATM    8  C5  UNL     1     -26.181  19.253  11.957  1.00 20.00     0.043 C 
BRANCH   7   9
HETATM    9  C7  UNL     1     -24.543  17.291  12.147  1.00 20.00     0.010 C 
HETATM   10  C3  UNL     1     -24.548  15.823  11.709  1.00 20.00     0.011 C 
HETATM   11  C4  UNL     1     -23.098  17.770  12.332  1.00 20.00     0.011 C 
ENDBRANCH   7   9
ENDBRANCH   5   7
ENDBRANCH   3   5
TORSDOF 3
ENDMDL
MODEL 2
REMARK VINA RESULT:      -4.2     16.701     18.128
REMARK  3 active torsions:
REMARK  status: ('A' for Active; 'I' for Inactive)
REMARK    1  A    between atoms: C6_6  and  N10_10 
REMARK    2  A    between atoms: C7_7  and  C8_8 
REMARK    3  A    between atoms: C8_8  and  N10_10 
ROOT
HETATM    1  C1  UNL     1     -36.338  13.891  -4.345  1.00 20.00     0.094 C 
HETATM    2  C2  UNL     1     -37.840  15.737  -4.990  1.00 20.00     0.059 C 
HETATM    3  C6  UNL     1     -36.849  15.213  -3.959  1.00 20.00     0.322 C 
HETATM    4  N9  UNL     1     -35.937  12.845  -4.647  1.00 20.00    -0.195 NA
ENDROOT
BRANCH   3   5
HETATM    5  N10 UNL     1     -35.739  16.145  -3.791  1.00 20.00     0.105 N 
HETATM    6  H26 UNL     1     -36.114  17.077  -3.607  1.00 20.00     0.318 HD
BRANCH   5   7
HETATM    7  C8  UNL     1     -34.878  15.743  -2.697  1.00 20.00     0.221 C 
HETATM    8  C5  UNL     1     -35.265  16.527  -1.446  1.00 20.00     0.043 C 
BRANCH   7   9
HETATM    9  C7  UNL     1     -33.388  15.905  -3.077  1.00 20.00     0.010 C 
HETATM   10  C3  UNL     1     -32.931  14.985  -4.214  1.00 20.00     0.011 C 
HETATM   11  C4  UNL     1     -33.058  17.361  -3.426  1.00 20.00     0.011 C 
ENDBRANCH   7   9
ENDBRANCH   5   7
ENDBRANCH   3   5
TORSDOF 3
ENDMDL
MODEL 3
REMARK VINA RESULT:      -4.1      1.365      2.688
REMARK  3 active torsions:
REMARK  status: ('A' for Active; 'I' for Inactive)
REMARK    1  A    between atoms: C6_6  and  N10_10 
REMARK    2  A    between atoms: C7_7  and  C8_8 
REMARK    3  A    between atoms: C8_8  and  N10_10 
ROOT
HETATM    1  C1  UNL     1     -23.450  18.528   8.150  1.00 20.00     0.094 C 
HETATM    2  C2  UNL     1     -21.358  17.371   8.757  1.00 20.00     0.059 C 
HETATM    3  C6  UNL     1     -22.570  18.144   9.261  1.00 20.00     0.322 C 
HETATM    4  N9  UNL     1     -24.144  18.834   7.271  1.00 20.00    -0.195 NA
ENDROOT
BRANCH   3   5
HETATM    5  N10 UNL     1     -23.316  17.354  10.235  1.00 20.00     0.105 N 
HETATM    6  H26 UNL     1     -22.846  16.456  10.363  1.00 20.00     0.318 HD
BRANCH   5   7
HETATM    7  C8  UNL     1     -23.406  18.040  11.508  1.00 20.00     0.221 C 
HETATM    8  C5  UNL     1     -22.159  17.725  12.332  1.00 20.00     0.043 C 
BRANCH   7   9
HETATM    9  C7  UNL     1     -24.721  17.683  12.238  1.00 20.00     0.010 C 
HETATM   10  C3  UNL     1     -25.879  18.641  11.941  1.00 20.00     0.011 C 
HETATM   11  C4  UNL     1     -25.151  16.243  11.937  1.00 20.00     0.011 C 
ENDBRANCH   7   9
ENDBRANCH   5   7
ENDBRANCH   3   5
TORSDOF 3
ENDMDL
MODEL 4
REMARK VINA RESULT:      -4.1     16.653     18.495
REMARK  3 active torsions:
REMARK  status: ('A' for Active; 'I' for Inactive)
REMARK    1  A    between atoms: C6_6  and  N10_10 
REMARK    2  A    between atoms: C7_7  and  C8_8 
REMARK    3  A    between atoms: C8_8  and  N10_10 
ROOT
HETATM    1  C1  UNL     1     -37.424  14.500  -4.566  1.00 20.00     0.094 C 
HETATM    2  C2  UNL     1     -35.711  14.570  -6.340  1.00 20.00     0.059 C 
HETATM    3  C6  UNL     1     -36.091  14.999  -4.928  1.00 20.00     0.322 C 
HETATM    4  N9  UNL     1     -38.478  14.108  -4.281  1.00 20.00    -0.195 NA
ENDROOT
BRANCH   3   5
HETATM    5  N10 UNL     1     -35.104  14.526  -3.963  1.00 20.00     0.105 N 
HETATM    6  H26 UNL     1     -34.861  13.559  -4.185  1.00 20.00     0.318 HD
BRANCH   5   7
HETATM    7  C8  UNL     1     -33.910  15.346  -3.990  1.00 20.00     0.221 C 
HETATM    8  C5  UNL     1     -32.715  14.471  -4.366  1.00 20.00     0.043 C 
BRANCH   7   9
HETATM    9  C7  UNL     1     -33.718  16.090  -2.649  1.00 20.00     0.010 C 
HETATM   10  C3  UNL     1     -33.084  17.477  -2.790  1.00 20.00     0.011 C 
HETATM   11  C4  UNL     1     -35.040  16.202  -1.880  1.00 20.00     0.011 C 
ENDBRANCH   7   9
ENDBRANCH   5   7
ENDBRANCH   3   5
TORSDOF 3
ENDMDL
MODEL 5
REMARK VINA RESULT:      -4.1     16.807     18.510
REMARK  3 active torsions:
REMARK  status: ('A' for Active; 'I' for Inactive)
REMARK    1  A    between atoms: C6_6  and  N10_10 
REMARK    2  A    between atoms: C7_7  and  C8_8 
REMARK    3  A    between atoms: C8_8  and  N10_10 
ROOT
HETATM    1  C1  UNL     1     -36.078  13.814  -4.991  1.00 20.00     0.094 C 
HETATM    2  C2  UNL     1     -35.743  15.250  -6.969  1.00 20.00     0.059 C 
HETATM    3  C6  UNL     1     -36.252  15.167  -5.535  1.00 20.00     0.322 C 
HETATM    4  N9  UNL     1     -35.943  12.745  -4.562  1.00 20.00    -0.195 NA
ENDROOT
BRANCH   3   5
HETATM    5  N10 UNL     1     -35.565  16.136  -4.688  1.00 20.00     0.105 N 
HETATM    6  H26 UNL     1     -35.722  17.073  -5.062  1.00 20.00     0.318 HD
BRANCH   5   7
HETATM    7  C8  UNL     1     -36.044  16.072  -3.322  1.00 20.00     0.221 C 
HETATM    8  C5  UNL     1     -36.917  17.293  -3.044  1.00 20.00     0.043 C 
BRANCH   7   9
HETATM    9  C7  UNL     1     -34.868  15.928  -2.329  1.00 20.00     0.010 C 
HETATM   10  C3  UNL     1     -33.489  16.142  -2.961  1.00 20.00     0.011 C 
HETATM   11  C4  UNL     1     -35.038  16.865  -1.127  1.00 20.00     0.011 C 
ENDBRANCH   7   9
ENDBRANCH   5   7
ENDBRANCH   3   5
TORSDOF 3
ENDMDL
MODEL 6
REMARK VINA RESULT:      -3.9     15.783     17.608
REMARK  3 active torsions:
REMARK  status: ('A' for Active; 'I' for Inactive)
REMARK    1  A    between atoms: C6_6  and  N10_10 
REMARK    2  A    between atoms: C7_7  and  C8_8 
REMARK    3  A    between atoms: C8_8  and  N10_10 
ROOT
HETATM    1  C1  UNL     1     -36.264  14.249  -4.565  1.00 20.00     0.094 C 
HETATM    2  C2  UNL     1     -33.836  14.060  -4.174  1.00 20.00     0.059 C 
HETATM    3  C6  UNL     1     -34.971  14.935  -4.690  1.00 20.00     0.322 C 
HETATM    4  N9  UNL     1     -37.285  13.707  -4.470  1.00 20.00    -0.195 NA
ENDROOT
BRANCH   3   5
HETATM    5  N10 UNL     1     -35.010  16.204  -3.972  1.00 20.00     0.105 N 
HETATM    6  H26 UNL     1     -35.980  16.418  -3.731  1.00 20.00     0.318 HD
BRANCH   5   7
HETATM    7  C8  UNL     1     -34.211  16.148  -2.764  1.00 20.00     0.221 C 
HETATM    8  C5  UNL     1     -35.122  16.347  -1.555  1.00 20.00     0.043 C 
BRANCH   7   9
HETATM    9  C7  UNL     1     -33.050  17.167  -2.822  1.00 20.00     0.010 C 
HETATM   10  C3  UNL     1     -33.229  18.258  -3.882  1.00 20.00     0.011 C 
HETATM   11  C4  UNL     1     -32.807  17.812  -1.452  1.00 20.00     0.011 C 
ENDBRANCH   7   9
ENDBRANCH   5   7
ENDBRANCH   3   5
TORSDOF 3
ENDMDL
MODEL 7
REMARK VINA RESULT:      -3.9     15.791     17.560
REMARK  3 active torsions:
REMARK  status: ('A' for Active; 'I' for Inactive)
REMARK    1  A    between atoms: C6_6  and  N10_10 
REMARK    2  A    between atoms: C7_7  and  C8_8 
REMARK    3  A    between atoms: C8_8  and  N10_10 
ROOT
HETATM    1  C1  UNL     1     -36.192  13.909  -4.315  1.00 20.00     0.094 C 
HETATM    2  C2  UNL     1     -36.356  16.324  -4.790  1.00 20.00     0.059 C 
HETATM    3  C6  UNL     1     -36.461  15.231  -3.734  1.00 20.00     0.322 C 
HETATM    4  N9  UNL     1     -35.982  12.865  -4.774  1.00 20.00    -0.195 NA
ENDROOT
BRANCH   3   5
HETATM    5  N10 UNL     1     -35.539  15.488  -2.633  1.00 20.00     0.105 N 
HETATM    6  H26 UNL     1     -35.070  14.615  -2.385  1.00 20.00     0.318 HD
BRANCH   5   7
HETATM    7  C8  UNL     1     -34.552  16.484  -2.997  1.00 20.00     0.221 C 
HETATM    8  C5  UNL     1     -33.251  15.779  -3.374  1.00 20.00     0.043 C 
BRANCH   7   9
HETATM    9  C7  UNL     1     -34.373  17.525  -1.868  1.00 20.00     0.010 C 
HETATM   10  C3  UNL     1     -35.101  17.166  -0.569  1.00 20.00     0.011 C 
HETATM   11  C4  UNL     1     -32.890  17.779  -1.576  1.00 20.00     0.011 C 
ENDBRANCH   7   9
ENDBRANCH   5   7
ENDBRANCH   3   5
TORSDOF 3
ENDMDL
MODEL 8
REMARK VINA RESULT:      -3.9     16.606     18.454
REMARK  3 active torsions:
REMARK  status: ('A' for Active; 'I' for Inactive)
REMARK    1  A    between atoms: C6_6  and  N10_10 
REMARK    2  A    between atoms: C7_7  and  C8_8 
REMARK    3  A    between atoms: C8_8  and  N10_10 
ROOT
HETATM    1  C1  UNL     1     -35.828  13.860  -5.037  1.00 20.00     0.094 C 
HETATM    2  C2  UNL     1     -35.675  14.999  -7.219  1.00 20.00     0.059 C 
HETATM    3  C6  UNL     1     -35.623  15.152  -5.704  1.00 20.00     0.322 C 
HETATM    4  N9  UNL     1     -35.994  12.839  -4.510  1.00 20.00    -0.195 NA
ENDROOT
BRANCH   3   5
HETATM    5  N10 UNL     1     -34.349  15.729  -5.288  1.00 20.00     0.105 N 
HETATM    6  H26 UNL     1     -33.886  16.132  -6.105  1.00 20.00     0.318 HD
BRANCH   5   7
HETATM    7  C8  UNL     1     -34.542  16.755  -4.284  1.00 20.00     0.221 C 
HETATM    8  C5  UNL     1     -33.959  18.070  -4.798  1.00 20.00     0.043 C 
BRANCH   7   9
HETATM    9  C7  UNL     1     -33.947  16.319  -2.925  1.00 20.00     0.010 C 
HETATM   10  C3  UNL     1     -32.912  17.294  -2.356  1.00 20.00     0.011 C 
HETATM   11  C4  UNL     1     -35.049  16.072  -1.888  1.00 20.00     0.011 C 
ENDBRANCH   7   9
ENDBRANCH   5   7
ENDBRANCH   3   5
TORSDOF 3
ENDMDL
MODEL 9
REMARK VINA RESULT:      -3.9     15.928     17.719
REMARK  3 active torsions:
REMARK  status: ('A' for Active; 'I' for Inactive)
REMARK    1  A    between atoms: C6_6  and  N10_10 
REMARK    2  A    between atoms: C7_7  and  C8_8 
REMARK    3  A    between atoms: C8_8  and  N10_10 
ROOT
HETATM    1  C1  UNL     1     -37.103  14.507  -4.170  1.00 20.00     0.094 C 
HETATM    2  C2  UNL     1     -34.666  14.214  -3.926  1.00 20.00     0.059 C 
HETATM    3  C6  UNL     1     -35.841  15.179  -3.832  1.00 20.00     0.322 C 
HETATM    4  N9  UNL     1     -38.099  13.977  -4.439  1.00 20.00    -0.195 NA
ENDROOT
BRANCH   3   5
HETATM    5  N10 UNL     1     -35.928  15.757  -2.495  1.00 20.00     0.105 N 
HETATM    6  H26 UNL     1     -35.420  15.158  -1.842  1.00 20.00     0.318 HD
BRANCH   5   7
HETATM    7  C8  UNL     1     -35.368  17.093  -2.465  1.00 20.00     0.221 C 
HETATM    8  C5  UNL     1     -35.374  17.667  -3.880  1.00 20.00     0.043 C 
BRANCH   7   9
HETATM    9  C7  UNL     1     -33.965  17.091  -1.817  1.00 20.00     0.010 C 
HETATM   10  C3  UNL     1     -32.836  17.489  -2.774  1.00 20.00     0.011 C 
HETATM   11  C4  UNL     1     -33.925  17.983  -0.571  1.00 20.00     0.011 C 
ENDBRANCH   7   9
ENDBRANCH   5   7
ENDBRANCH   3   5
TORSDOF 3
ENDMDL
