MODEL 1
REMARK VINA RESULT:      -4.2      0.000      0.000
REMARK  4 active torsions:
REMARK  status: ('A' for Active; 'I' for Inactive)
REMARK    1  A    between atoms: C4_4  and  C6_6 
REMARK    2  A    between atoms: C5_5  and  C7_7 
REMARK    3  A    between atoms: C6_6  and  C7_7 
REMARK    4  A    between atoms: C7_7  and  N8_8 
ROOT
HETATM    1  C1  UNL     1     -32.601   7.825   1.714  1.00 20.00     0.158 C 
HETATM    2  N8  UNL     1     -32.364   7.142   2.636  1.00 20.00    -0.270 NA
HETATM    3  S9  UNL     1     -32.889   8.753   0.453  1.00 20.00    -0.055 SA
ENDROOT
BRANCH   2   4
HETATM    4  C7  UNL     1     -33.530   6.799   3.462  1.00 20.00     0.109 C 
BRANCH   4   5
HETATM    5  C5  UNL     1     -34.079   5.438   3.016  1.00 20.00     0.023 C 
HETATM    6  C3  UNL     1     -32.983   4.488   2.554  1.00 20.00     0.007 C 
ENDBRANCH   4   5
BRANCH   4   7
HETATM    7  C6  UNL     1     -33.107   6.763   4.938  1.00 20.00     0.027 C 
BRANCH   7   8
HETATM    8  C4  UNL     1     -34.306   6.685   5.887  1.00 20.00    -0.002 C 
HETATM    9  C2  UNL     1     -34.730   5.243   6.127  1.00 20.00     0.005 C 
ENDBRANCH   7   8
ENDBRANCH   4   7
ENDBRANCH   2   4
TORSDOF 4
ENDMDL
MODEL 2
REMARK VINA RESULT:      -4.0     11.447     12.270
REMARK  4 active torsions:
REMARK  status: ('A' for Active; 'I' for Inactive)
REMARK    1  A    between atoms: C4_4  and  C6_6 
REMARK    2  A    between atoms: C5_5  and  C7_7 
REMARK    3  A    between atoms: C6_6  and  C7_7 
REMARK    4  A    between atoms: C7_7  and  N8_8 
ROOT
HETATM    1  C1  UNL     1     -38.113  14.512  -4.359  1.00 20.00     0.158 C 
HETATM    2  N8  UNL     1     -37.231  13.744  -4.435  1.00 20.00    -0.270 NA
HETATM    3  S9  UNL     1     -39.334  15.528  -4.251  1.00 20.00    -0.055 SA
ENDROOT
BRANCH   2   4
HETATM    4  C7  UNL     1     -35.911  14.346  -4.672  1.00 20.00     0.109 C 
BRANCH   4   5
HETATM    5  C5  UNL     1     -35.774  14.684  -6.162  1.00 20.00     0.023 C 
HETATM    6  C3  UNL     1     -34.340  15.008  -6.558  1.00 20.00     0.007 C 
ENDBRANCH   4   5
BRANCH   4   7
HETATM    7  C6  UNL     1     -35.773  15.608  -3.809  1.00 20.00     0.027 C 
BRANCH   7   8
HETATM    8  C4  UNL     1     -34.705  15.458  -2.722  1.00 20.00    -0.002 C 
HETATM    9  C2  UNL     1     -33.409  16.148  -3.120  1.00 20.00     0.005 C 
ENDBRANCH   7   8
ENDBRANCH   4   7
ENDBRANCH   2   4
TORSDOF 4
ENDMDL
MODEL 3
REMARK VINA RESULT:      -3.9     11.304     12.044
REMARK  4 active torsions:
REMARK  status: ('A' for Active; 'I' for Inactive)
REMARK    1  A    between atoms: C4_4  and  C6_6 
REMARK    2  A    between atoms: C5_5  and  C7_7 
REMARK    3  A    between atoms: C6_6  and  C7_7 
REMARK    4  A    between atoms: C7_7  and  N8_8 
ROOT
HETATM    1  C1  UNL     1     -36.696  14.117  -4.478  1.00 20.00     0.158 C 
HETATM    2  N8  UNL     1     -35.646  13.608  -4.599  1.00 20.00    -0.270 NA
HETATM    3  S9  UNL     1     -38.135  14.777  -4.318  1.00 20.00    -0.055 SA
ENDROOT
BRANCH   2   4
HETATM    4  C7  UNL     1     -34.503  14.525  -4.490  1.00 20.00     0.109 C 
BRANCH   4   5
HETATM    5  C5  UNL     1     -34.570  15.549  -5.630  1.00 20.00     0.023 C 
HETATM    6  C3  UNL     1     -33.931  15.038  -6.914  1.00 20.00     0.007 C 
ENDBRANCH   4   5
BRANCH   4   7
HETATM    7  C6  UNL     1     -34.547  15.222  -3.123  1.00 20.00     0.027 C 
BRANCH   7   8
HETATM    8  C4  UNL     1     -33.413  16.236  -2.948  1.00 20.00    -0.002 C 
HETATM    9  C2  UNL     1     -33.719  17.221  -1.829  1.00 20.00     0.005 C 
ENDBRANCH   7   8
ENDBRANCH   4   7
ENDBRANCH   2   4
TORSDOF 4
ENDMDL
MODEL 4
REMARK VINA RESULT:      -3.9      2.559      4.125
REMARK  4 active torsions:
REMARK  status: ('A' for Active; 'I' for Inactive)
REMARK    1  A    between atoms: C4_4  and  C6_6 
REMARK    2  A    between atoms: C5_5  and  C7_7 
REMARK    3  A    between atoms: C6_6  and  C7_7 
REMARK    4  A    between atoms: C7_7  and  N8_8 
ROOT
HETATM    1  C1  UNL     1     -34.214   6.253   4.977  1.00 20.00     0.158 C 
HETATM    2  N8  UNL     1     -33.780   7.054   4.239  1.00 20.00    -0.270 NA
HETATM    3  S9  UNL     1     -34.823   5.190   5.994  1.00 20.00    -0.055 SA
ENDROOT
BRANCH   2   4
HETATM    4  C7  UNL     1     -32.812   6.531   3.266  1.00 20.00     0.109 C 
BRANCH   4   5
HETATM    5  C5  UNL     1     -33.537   5.599   2.287  1.00 20.00     0.023 C 
HETATM    6  C3  UNL     1     -33.007   4.173   2.335  1.00 20.00     0.007 C 
ENDBRANCH   4   5
BRANCH   4   7
HETATM    7  C6  UNL     1     -32.160   7.706   2.524  1.00 20.00     0.027 C 
BRANCH   7   8
HETATM    8  C4  UNL     1     -32.553   7.754   1.044  1.00 20.00    -0.002 C 
HETATM    9  C2  UNL     1     -32.960   9.158   0.624  1.00 20.00     0.005 C 
ENDBRANCH   7   8
ENDBRANCH   4   7
ENDBRANCH   2   4
TORSDOF 4
ENDMDL
MODEL 5
REMARK VINA RESULT:      -3.9     11.674     12.198
REMARK  4 active torsions:
REMARK  status: ('A' for Active; 'I' for Inactive)
REMARK    1  A    between atoms: C4_4  and  C6_6 
REMARK    2  A    between atoms: C5_5  and  C7_7 
REMARK    3  A    between atoms: C6_6  and  C7_7 
REMARK    4  A    between atoms: C7_7  and  N8_8 
ROOT
HETATM    1  C1  UNL     1     -34.484  15.489  -6.908  1.00 20.00     0.158 C 
HETATM    2  N8  UNL     1     -34.683  14.527  -6.268  1.00 20.00    -0.270 NA
HETATM    3  S9  UNL     1     -34.204  16.776  -7.803  1.00 20.00    -0.055 SA
ENDROOT
BRANCH   2   4
HETATM    4  C7  UNL     1     -35.113  14.786  -4.887  1.00 20.00     0.109 C 
BRANCH   4   5
HETATM    5  C5  UNL     1     -36.213  13.786  -4.508  1.00 20.00     0.023 C 
HETATM    6  C3  UNL     1     -37.566  14.453  -4.309  1.00 20.00     0.007 C 
ENDBRANCH   4   5
BRANCH   4   7
HETATM    7  C6  UNL     1     -33.903  14.652  -3.951  1.00 20.00     0.027 C 
BRANCH   7   8
HETATM    8  C4  UNL     1     -33.659  15.920  -3.128  1.00 20.00    -0.002 C 
HETATM    9  C2  UNL     1     -34.751  16.125  -2.089  1.00 20.00     0.005 C 
ENDBRANCH   7   8
ENDBRANCH   4   7
ENDBRANCH   2   4
TORSDOF 4
ENDMDL
MODEL 6
REMARK VINA RESULT:      -3.8     15.458     16.460
REMARK  4 active torsions:
REMARK  status: ('A' for Active; 'I' for Inactive)
REMARK    1  A    between atoms: C4_4  and  C6_6 
REMARK    2  A    between atoms: C5_5  and  C7_7 
REMARK    3  A    between atoms: C6_6  and  C7_7 
REMARK    4  A    between atoms: C7_7  and  N8_8 
ROOT
HETATM    1  C1  UNL     1     -24.237  16.588  10.729  1.00 20.00     0.158 C 
HETATM    2  N8  UNL     1     -23.635  16.942   9.787  1.00 20.00    -0.270 NA
HETATM    3  S9  UNL     1     -25.056  16.076  11.994  1.00 20.00    -0.055 SA
ENDROOT
BRANCH   2   4
HETATM    4  C7  UNL     1     -23.253  18.361   9.800  1.00 20.00     0.109 C 
BRANCH   4   5
HETATM    5  C5  UNL     1     -21.899  18.523   9.099  1.00 20.00     0.023 C 
HETATM    6  C3  UNL     1     -21.293  17.189   8.683  1.00 20.00     0.007 C 
ENDBRANCH   4   5
BRANCH   4   7
HETATM    7  C6  UNL     1     -24.340  19.180   9.090  1.00 20.00     0.027 C 
BRANCH   7   8
HETATM    8  C4  UNL     1     -24.380  18.915   7.582  1.00 20.00    -0.002 C 
HETATM    9  C2  UNL     1     -25.807  18.935   7.053  1.00 20.00     0.005 C 
ENDBRANCH   7   8
ENDBRANCH   4   7
ENDBRANCH   2   4
TORSDOF 4
ENDMDL
MODEL 7
REMARK VINA RESULT:      -3.8     15.394     16.204
REMARK  4 active torsions:
REMARK  status: ('A' for Active; 'I' for Inactive)
REMARK    1  A    between atoms: C4_4  and  C6_6 
REMARK    2  A    between atoms: C5_5  and  C7_7 
REMARK    3  A    between atoms: C6_6  and  C7_7 
REMARK    4  A    between atoms: C7_7  and  N8_8 
ROOT
HETATM    1  C1  UNL     1     -25.135  19.037   8.328  1.00 20.00     0.158 C 
HETATM    2  N8  UNL     1     -24.937  18.885   9.474  1.00 20.00    -0.270 NA
HETATM    3  S9  UNL     1     -25.431  19.263   6.781  1.00 20.00    -0.055 SA
ENDROOT
BRANCH   2   4
HETATM    4  C7  UNL     1     -23.781  18.035   9.790  1.00 20.00     0.109 C 
BRANCH   4   5
HETATM    5  C5  UNL     1     -22.570  18.514   8.979  1.00 20.00     0.023 C 
HETATM    6  C3  UNL     1     -21.637  17.374   8.593  1.00 20.00     0.007 C 
ENDBRANCH   4   5
BRANCH   4   7
HETATM    7  C6  UNL     1     -23.497  18.113  11.297  1.00 20.00     0.027 C 
BRANCH   7   8
HETATM    8  C4  UNL     1     -23.473  16.733  11.959  1.00 20.00    -0.002 C 
HETATM    9  C2  UNL     1     -24.658  15.886  11.519  1.00 20.00     0.005 C 
ENDBRANCH   7   8
ENDBRANCH   4   7
ENDBRANCH   2   4
TORSDOF 4
ENDMDL
MODEL 8
REMARK VINA RESULT:      -3.7     11.329     12.886
REMARK  4 active torsions:
REMARK  status: ('A' for Active; 'I' for Inactive)
REMARK    1  A    between atoms: C4_4  and  C6_6 
REMARK    2  A    between atoms: C5_5  and  C7_7 
REMARK    3  A    between atoms: C6_6  and  C7_7 
REMARK    4  A    between atoms: C7_7  and  N8_8 
ROOT
HETATM    1  C1  UNL     1     -38.408  14.571  -4.245  1.00 20.00     0.158 C 
HETATM    2  N8  UNL     1     -37.473  13.890  -4.435  1.00 20.00    -0.270 NA
HETATM    3  S9  UNL     1     -39.697  15.467  -3.981  1.00 20.00    -0.055 SA
ENDROOT
BRANCH   2   4
HETATM    4  C7  UNL     1     -36.249  14.617  -4.800  1.00 20.00     0.109 C 
BRANCH   4   5
HETATM    5  C5  UNL     1     -35.116  14.200  -3.853  1.00 20.00     0.023 C 
HETATM    6  C3  UNL     1     -34.587  15.364  -3.027  1.00 20.00     0.007 C 
ENDBRANCH   4   5
BRANCH   4   7
HETATM    7  C6  UNL     1     -35.891  14.296  -6.258  1.00 20.00     0.027 C 
BRANCH   7   8
HETATM    8  C4  UNL     1     -35.634  15.558  -7.087  1.00 20.00    -0.002 C 
HETATM    9  C2  UNL     1     -34.173  15.665  -7.496  1.00 20.00     0.005 C 
ENDBRANCH   7   8
ENDBRANCH   4   7
ENDBRANCH   2   4
TORSDOF 4
ENDMDL
MODEL 9
REMARK VINA RESULT:      -3.6     11.373     12.344
REMARK  4 active torsions:
REMARK  status: ('A' for Active; 'I' for Inactive)
REMARK    1  A    between atoms: C4_4  and  C6_6 
REMARK    2  A    between atoms: C5_5  and  C7_7 
REMARK    3  A    between atoms: C6_6  and  C7_7 
REMARK    4  A    between atoms: C7_7  and  N8_8 
ROOT
HETATM    1  C1  UNL     1     -35.496  14.705  -6.484  1.00 20.00     0.158 C 
HETATM    2  N8  UNL     1     -35.990  13.796  -5.933  1.00 20.00    -0.270 NA
HETATM    3  S9  UNL     1     -34.830  15.923  -7.263  1.00 20.00    -0.055 SA
ENDROOT
BRANCH   2   4
HETATM    4  C7  UNL     1     -36.079  13.937  -4.473  1.00 20.00     0.109 C 
BRANCH   4   5
HETATM    5  C5  UNL     1     -34.675  14.185  -3.906  1.00 20.00     0.023 C 
HETATM    6  C3  UNL     1     -34.626  15.384  -2.969  1.00 20.00     0.007 C 
ENDBRANCH   4   5
BRANCH   4   7
HETATM    7  C6  UNL     1     -37.020  15.103  -4.138  1.00 20.00     0.027 C 
BRANCH   7   8
HETATM    8  C4  UNL     1     -38.496  14.714  -4.252  1.00 20.00    -0.002 C 
HETATM    9  C2  UNL     1     -39.324  15.847  -4.840  1.00 20.00     0.005 C 
ENDBRANCH   7   8
ENDBRANCH   4   7
ENDBRANCH   2   4
TORSDOF 4
ENDMDL
