MODEL 1
REMARK VINA RESULT:      -3.6      0.000      0.000
REMARK  3 active torsions:
REMARK  status: ('A' for Active; 'I' for Inactive)
REMARK    1  A    between atoms: C3_3  and  C5_5 
REMARK    2  A    between atoms: C5_5  and  C6_6 
REMARK    3  A    between atoms: C6_6  and  S9_9 
ROOT
HETATM    1  C1  UNL     1     -24.691  15.712  11.567  1.00 20.00     0.281 C 
HETATM    2  C2  UNL     1     -25.254  16.930  12.285  1.00 20.00     0.106 C 
HETATM    3  C3  UNL     1     -22.969  17.217  11.007  1.00 20.00     0.282 C 
HETATM    4  N7  UNL     1     -23.873  16.203  10.458  1.00 20.00     0.098 N 
HETATM    5  S8  UNL     1     -23.866  18.088  12.332  1.00 20.00    -0.132 SA
HETATM    6  H22 UNL     1     -23.342  15.442  10.037  1.00 20.00     0.317 HD
ENDROOT
BRANCH   3   7
HETATM    7  C5  UNL     1     -22.534  18.183   9.917  1.00 20.00     0.056 C 
BRANCH   7   8
HETATM    8  C6  UNL     1     -23.392  18.025   8.665  1.00 20.00     0.076 C 
BRANCH   8   9
HETATM    9  S9  UNL     1     -24.721  19.263   8.642  1.00 20.00    -0.173 SA
HETATM   10  C4  UNL     1     -25.111  19.195   6.879  1.00 20.00     0.089 C 
ENDBRANCH   8   9
ENDBRANCH   7   8
ENDBRANCH   3   7
TORSDOF 3
ENDMDL
MODEL 2
REMARK VINA RESULT:      -3.5     15.427     15.990
REMARK  3 active torsions:
REMARK  status: ('A' for Active; 'I' for Inactive)
REMARK    1  A    between atoms: C3_3  and  C5_5 
REMARK    2  A    between atoms: C5_5  and  C6_6 
REMARK    3  A    between atoms: C6_6  and  S9_9 
ROOT
HETATM    1  C1  UNL     1     -34.222   6.597   6.212  1.00 20.00     0.281 C 
HETATM    2  C2  UNL     1     -34.630   5.139   6.060  1.00 20.00     0.106 C 
HETATM    3  C3  UNL     1     -33.995   6.459   3.872  1.00 20.00     0.282 C 
HETATM    4  N7  UNL     1     -33.331   6.914   5.095  1.00 20.00     0.098 N 
HETATM    5  S8  UNL     1     -34.930   4.951   4.287  1.00 20.00    -0.132 SA
HETATM    6  H22 UNL     1     -33.151   7.916   5.052  1.00 20.00     0.317 HD
ENDROOT
BRANCH   3   7
HETATM    7  C5  UNL     1     -32.969   6.181   2.785  1.00 20.00     0.056 C 
BRANCH   7   8
HETATM    8  C6  UNL     1     -32.212   7.450   2.406  1.00 20.00     0.076 C 
BRANCH   8   9
HETATM    9  S9  UNL     1     -32.409   7.806   0.636  1.00 20.00    -0.173 SA
HETATM   10  C4  UNL     1     -33.005   9.506   0.775  1.00 20.00     0.089 C 
ENDBRANCH   8   9
ENDBRANCH   7   8
ENDBRANCH   3   7
TORSDOF 3
ENDMDL
MODEL 3
REMARK VINA RESULT:      -3.3     15.259     17.699
REMARK  3 active torsions:
REMARK  status: ('A' for Active; 'I' for Inactive)
REMARK    1  A    between atoms: C3_3  and  C5_5 
REMARK    2  A    between atoms: C5_5  and  C6_6 
REMARK    3  A    between atoms: C6_6  and  S9_9 
ROOT
HETATM    1  C1  UNL     1     -34.207  14.975  -6.379  1.00 20.00     0.281 C 
HETATM    2  C2  UNL     1     -35.674  14.640  -6.148  1.00 20.00     0.106 C 
HETATM    3  C3  UNL     1     -34.124  14.847  -4.029  1.00 20.00     0.282 C 
HETATM    4  N7  UNL     1     -33.728  15.663  -5.180  1.00 20.00     0.098 N 
HETATM    5  S8  UNL     1     -35.728  14.082  -4.429  1.00 20.00    -0.132 SA
HETATM    6  H22 UNL     1     -32.715  15.771  -5.208  1.00 20.00     0.317 HD
ENDROOT
BRANCH   3   7
HETATM    7  C5  UNL     1     -34.227  15.709  -2.781  1.00 20.00     0.056 C 
BRANCH   7   8
HETATM    8  C6  UNL     1     -33.140  16.779  -2.759  1.00 20.00     0.076 C 
BRANCH   8   9
HETATM    9  S9  UNL     1     -33.455  17.982  -1.436  1.00 20.00    -0.173 SA
HETATM   10  C4  UNL     1     -31.743  18.285  -0.943  1.00 20.00     0.089 C 
ENDBRANCH   8   9
ENDBRANCH   7   8
ENDBRANCH   3   7
TORSDOF 3
ENDMDL
MODEL 4
REMARK VINA RESULT:      -3.3     16.645     18.592
REMARK  3 active torsions:
REMARK  status: ('A' for Active; 'I' for Inactive)
REMARK    1  A    between atoms: C3_3  and  C5_5 
REMARK    2  A    between atoms: C5_5  and  C6_6 
REMARK    3  A    between atoms: C6_6  and  S9_9 
ROOT
HETATM    1  C1  UNL     1     -33.793  15.290  -7.404  1.00 20.00     0.281 C 
HETATM    2  C2  UNL     1     -34.529  16.603  -7.181  1.00 20.00     0.106 C 
HETATM    3  C3  UNL     1     -34.591  14.826  -5.238  1.00 20.00     0.282 C 
HETATM    4  N7  UNL     1     -33.399  14.786  -6.088  1.00 20.00     0.098 N 
HETATM    5  S8  UNL     1     -35.569  16.280  -5.738  1.00 20.00    -0.132 SA
HETATM    6  H22 UNL     1     -33.044  13.834  -6.159  1.00 20.00     0.317 HD
ENDROOT
BRANCH   3   7
HETATM    7  C5  UNL     1     -34.193  14.914  -3.773  1.00 20.00     0.056 C 
BRANCH   7   8
HETATM    8  C6  UNL     1     -33.085  15.942  -3.565  1.00 20.00     0.076 C 
BRANCH   8   9
HETATM    9  S9  UNL     1     -33.533  17.104  -2.242  1.00 20.00    -0.173 SA
HETATM   10  C4  UNL     1     -35.102  16.353  -1.754  1.00 20.00     0.089 C 
ENDBRANCH   8   9
ENDBRANCH   7   8
ENDBRANCH   3   7
TORSDOF 3
ENDMDL
MODEL 5
REMARK VINA RESULT:      -3.2     16.171     18.182
REMARK  3 active torsions:
REMARK  status: ('A' for Active; 'I' for Inactive)
REMARK    1  A    between atoms: C3_3  and  C5_5 
REMARK    2  A    between atoms: C5_5  and  C6_6 
REMARK    3  A    between atoms: C6_6  and  S9_9 
ROOT
HETATM    1  C1  UNL     1     -34.139  15.067  -6.673  1.00 20.00     0.281 C 
HETATM    2  C2  UNL     1     -35.654  14.949  -6.595  1.00 20.00     0.106 C 
HETATM    3  C3  UNL     1     -34.295  14.681  -4.356  1.00 20.00     0.282 C 
HETATM    4  N7  UNL     1     -33.675  15.539  -5.368  1.00 20.00     0.098 N 
HETATM    5  S8  UNL     1     -35.952  14.229  -4.964  1.00 20.00    -0.132 SA
HETATM    6  H22 UNL     1     -32.659  15.486  -5.307  1.00 20.00     0.317 HD
ENDROOT
BRANCH   3   7
HETATM    7  C5  UNL     1     -34.383  15.411  -3.025  1.00 20.00     0.056 C 
BRANCH   7   8
HETATM    8  C6  UNL     1     -33.267  16.442  -2.888  1.00 20.00     0.076 C 
BRANCH   8   9
HETATM    9  S9  UNL     1     -33.660  17.639  -1.580  1.00 20.00    -0.173 SA
HETATM   10  C4  UNL     1     -35.235  16.933  -1.044  1.00 20.00     0.089 C 
ENDBRANCH   8   9
ENDBRANCH   7   8
ENDBRANCH   3   7
TORSDOF 3
ENDMDL
MODEL 6
REMARK VINA RESULT:      -3.1     16.963     18.693
REMARK  3 active torsions:
REMARK  status: ('A' for Active; 'I' for Inactive)
REMARK    1  A    between atoms: C3_3  and  C5_5 
REMARK    2  A    between atoms: C5_5  and  C6_6 
REMARK    3  A    between atoms: C6_6  and  S9_9 
ROOT
HETATM    1  C1  UNL     1     -34.444  15.997  -2.304  1.00 20.00     0.281 C 
HETATM    2  C2  UNL     1     -33.384  16.196  -3.377  1.00 20.00     0.106 C 
HETATM    3  C3  UNL     1     -35.148  14.277  -3.751  1.00 20.00     0.282 C 
HETATM    4  N7  UNL     1     -35.617  15.417  -2.959  1.00 20.00     0.098 N 
HETATM    5  S8  UNL     1     -33.491  14.695  -4.380  1.00 20.00    -0.132 SA
HETATM    6  H22 UNL     1     -36.302  15.113  -2.268  1.00 20.00     0.317 HD
ENDROOT
BRANCH   3   7
HETATM    7  C5  UNL     1     -36.110  13.996  -4.894  1.00 20.00     0.056 C 
BRANCH   7   8
HETATM    8  C6  UNL     1     -35.674  14.711  -6.169  1.00 20.00     0.076 C 
BRANCH   8   9
HETATM    9  S9  UNL     1     -36.759  16.127  -6.509  1.00 20.00    -0.173 SA
HETATM   10  C4  UNL     1     -35.605  17.450  -6.078  1.00 20.00     0.089 C 
ENDBRANCH   8   9
ENDBRANCH   7   8
ENDBRANCH   3   7
TORSDOF 3
ENDMDL
MODEL 7
REMARK VINA RESULT:      -3.0     15.419     17.786
REMARK  3 active torsions:
REMARK  status: ('A' for Active; 'I' for Inactive)
REMARK    1  A    between atoms: C3_3  and  C5_5 
REMARK    2  A    between atoms: C5_5  and  C6_6 
REMARK    3  A    between atoms: C6_6  and  S9_9 
ROOT
HETATM    1  C1  UNL     1     -37.213  14.681  -4.539  1.00 20.00     0.281 C 
HETATM    2  C2  UNL     1     -36.062  14.080  -5.333  1.00 20.00     0.106 C 
HETATM    3  C3  UNL     1     -35.486  15.979  -3.602  1.00 20.00     0.282 C 
HETATM    4  N7  UNL     1     -36.658  15.164  -3.274  1.00 20.00     0.098 N 
HETATM    5  S8  UNL     1     -34.698  15.236  -5.067  1.00 20.00    -0.132 SA
HETATM    6  H22 UNL     1     -37.347  15.719  -2.768  1.00 20.00     0.317 HD
ENDROOT
BRANCH   3   7
HETATM    7  C5  UNL     1     -34.523  16.017  -2.426  1.00 20.00     0.056 C 
BRANCH   7   8
HETATM    8  C6  UNL     1     -33.135  16.473  -2.866  1.00 20.00     0.076 C 
BRANCH   8   9
HETATM    9  S9  UNL     1     -32.972  18.274  -2.699  1.00 20.00    -0.173 SA
HETATM   10  C4  UNL     1     -31.931  18.307  -1.223  1.00 20.00     0.089 C 
ENDBRANCH   8   9
ENDBRANCH   7   8
ENDBRANCH   3   7
TORSDOF 3
ENDMDL
MODEL 8
REMARK VINA RESULT:      -3.0     17.006     19.085
REMARK  3 active torsions:
REMARK  status: ('A' for Active; 'I' for Inactive)
REMARK    1  A    between atoms: C3_3  and  C5_5 
REMARK    2  A    between atoms: C5_5  and  C6_6 
REMARK    3  A    between atoms: C6_6  and  S9_9 
ROOT
HETATM    1  C1  UNL     1     -37.574  15.903  -5.292  1.00 20.00     0.281 C 
HETATM    2  C2  UNL     1     -37.521  14.876  -4.171  1.00 20.00     0.106 C 
HETATM    3  C3  UNL     1     -35.535  14.896  -5.900  1.00 20.00     0.282 C 
HETATM    4  N7  UNL     1     -36.194  16.187  -5.685  1.00 20.00     0.098 N 
HETATM    5  S8  UNL     1     -36.237  13.718  -4.701  1.00 20.00    -0.132 SA
HETATM    6  H22 UNL     1     -36.169  16.746  -6.537  1.00 20.00     0.317 HD
ENDROOT
BRANCH   3   7
HETATM    7  C5  UNL     1     -34.032  15.033  -5.713  1.00 20.00     0.056 C 
BRANCH   7   8
HETATM    8  C6  UNL     1     -33.621  14.686  -4.285  1.00 20.00     0.076 C 
BRANCH   8   9
HETATM    9  S9  UNL     1     -33.266  16.195  -3.340  1.00 20.00    -0.173 SA
HETATM   10  C4  UNL     1     -34.653  16.112  -2.184  1.00 20.00     0.089 C 
ENDBRANCH   8   9
ENDBRANCH   7   8
ENDBRANCH   3   7
TORSDOF 3
ENDMDL
MODEL 9
REMARK VINA RESULT:      -3.0     16.630     17.774
REMARK  3 active torsions:
REMARK  status: ('A' for Active; 'I' for Inactive)
REMARK    1  A    between atoms: C3_3  and  C5_5 
REMARK    2  A    between atoms: C5_5  and  C6_6 
REMARK    3  A    between atoms: C6_6  and  S9_9 
ROOT
HETATM    1  C1  UNL     1     -35.674  17.249  -1.624  1.00 20.00     0.281 C 
HETATM    2  C2  UNL     1     -35.155  18.294  -2.600  1.00 20.00     0.106 C 
HETATM    3  C3  UNL     1     -34.067  15.897  -2.690  1.00 20.00     0.282 C 
HETATM    4  N7  UNL     1     -35.460  15.939  -2.239  1.00 20.00     0.098 N 
HETATM    5  S8  UNL     1     -33.618  17.578  -3.228  1.00 20.00    -0.132 SA
HETATM    6  H22 UNL     1     -35.641  15.192  -1.569  1.00 20.00     0.317 HD
ENDROOT
BRANCH   3   7
HETATM    7  C5  UNL     1     -33.909  14.899  -3.826  1.00 20.00     0.056 C 
BRANCH   7   8
HETATM    8  C6  UNL     1     -35.235  14.218  -4.150  1.00 20.00     0.076 C 
BRANCH   8   9
HETATM    9  S9  UNL     1     -35.753  14.604  -5.847  1.00 20.00    -0.173 SA
HETATM   10  C4  UNL     1     -34.141  15.074  -6.513  1.00 20.00     0.089 C 
ENDBRANCH   8   9
ENDBRANCH   7   8
ENDBRANCH   3   7
TORSDOF 3
ENDMDL
