MODEL 1
REMARK VINA RESULT:      -5.2      0.000      0.000
REMARK  1 active torsions:
REMARK  status: ('A' for Active; 'I' for Inactive)
REMARK    1  A    between atoms: C9_9  and  O11_11 
ROOT
HETATM    1  C1  UNL     1     -25.381  18.908   8.969  1.00 20.00     0.052 A 
HETATM    2  C2  UNL     1     -23.267  18.366   7.891  1.00 20.00     0.049 A 
HETATM    3  C3  UNL     1     -24.823  18.530  10.179  1.00 20.00    -0.020 A 
HETATM    4  C4  UNL     1     -23.498  18.081  10.251  1.00 20.00    -0.043 A 
HETATM    5  C5  UNL     1     -22.706  18.001   9.117  1.00 20.00    -0.052 A 
HETATM    6  C6  UNL     1     -24.595  18.817   7.817  1.00 20.00     0.117 A 
HETATM    7  C7  UNL     1     -23.110  17.780  11.665  1.00 20.00     0.042 C 
HETATM    8  C8  UNL     1     -24.490  17.648  12.325  1.00 20.00     0.041 C 
HETATM    9  C9  UNL     1     -25.438  18.573  11.545  1.00 20.00     0.152 C 
HETATM   10  C10 UNL     1     -21.293  17.540   9.185  1.00 20.00     0.049 C 
HETATM   11  F12 UNL     1     -25.109  19.171   6.632  1.00 20.00    -0.206 F 
ENDROOT
BRANCH   9  12
HETATM   12  O11 UNL     1     -26.758  18.068  11.550  1.00 20.00    -0.391 OA
HETATM   13  H23 UNL     1     -27.356  18.827  11.660  1.00 20.00     0.210 HD
ENDBRANCH   9  12
TORSDOF 1
ENDMDL
MODEL 2
REMARK VINA RESULT:      -5.1     14.009     15.658
REMARK  1 active torsions:
REMARK  status: ('A' for Active; 'I' for Inactive)
REMARK    1  A    between atoms: C9_9  and  O11_11 
ROOT
HETATM    1  C1  UNL     1     -32.317  17.527  -2.301  1.00 20.00     0.052 A 
HETATM    2  C2  UNL     1     -33.524  18.189  -0.294  1.00 20.00     0.049 A 
HETATM    3  C3  UNL     1     -33.395  16.728  -2.645  1.00 20.00    -0.020 A 
HETATM    4  C4  UNL     1     -34.532  16.663  -1.829  1.00 20.00    -0.043 A 
HETATM    5  C5  UNL     1     -34.613  17.393  -0.654  1.00 20.00    -0.052 A 
HETATM    6  C6  UNL     1     -32.384  18.257  -1.111  1.00 20.00     0.117 A 
HETATM    7  C7  UNL     1     -35.575  15.776  -2.434  1.00 20.00     0.042 C 
HETATM    8  C8  UNL     1     -34.733  14.972  -3.434  1.00 20.00     0.041 C 
HETATM    9  C9  UNL     1     -33.583  15.892  -3.875  1.00 20.00     0.152 C 
HETATM   10  C10 UNL     1     -35.822  17.342   0.212  1.00 20.00     0.049 C 
HETATM   11  F12 UNL     1     -31.355  19.034  -0.750  1.00 20.00    -0.206 F 
ENDROOT
BRANCH   9  12
HETATM   12  O11 UNL     1     -32.426  15.142  -4.189  1.00 20.00    -0.391 OA
HETATM   13  H23 UNL     1     -31.888  15.092  -3.381  1.00 20.00     0.210 HD
ENDBRANCH   9  12
TORSDOF 1
ENDMDL
MODEL 3
REMARK VINA RESULT:      -5.0      1.823      3.088
REMARK  1 active torsions:
REMARK  status: ('A' for Active; 'I' for Inactive)
REMARK    1  A    between atoms: C9_9  and  O11_11 
ROOT
HETATM    1  C1  UNL     1     -23.734  18.352   8.456  1.00 20.00     0.052 A 
HETATM    2  C2  UNL     1     -25.965  19.260   8.806  1.00 20.00     0.049 A 
HETATM    3  C3  UNL     1     -23.675  18.066   9.810  1.00 20.00    -0.020 A 
HETATM    4  C4  UNL     1     -24.750  18.364  10.656  1.00 20.00    -0.043 A 
HETATM    5  C5  UNL     1     -25.903  18.955  10.167  1.00 20.00    -0.052 A 
HETATM    6  C6  UNL     1     -24.889  18.960   7.956  1.00 20.00     0.117 A 
HETATM    7  C7  UNL     1     -24.469  17.919  12.057  1.00 20.00     0.042 C 
HETATM    8  C8  UNL     1     -22.941  17.771  12.017  1.00 20.00     0.041 C 
HETATM    9  C9  UNL     1     -22.578  17.386  10.573  1.00 20.00     0.152 C 
HETATM   10  C10 UNL     1     -27.058  19.262  11.056  1.00 20.00     0.049 C 
HETATM   11  F12 UNL     1     -24.973  19.253   6.651  1.00 20.00    -0.206 F 
ENDROOT
BRANCH   9  12
HETATM   12  O11 UNL     1     -21.301  17.881  10.223  1.00 20.00    -0.391 OA
HETATM   13  H23 UNL     1     -20.788  17.130   9.876  1.00 20.00     0.210 HD
ENDBRANCH   9  12
TORSDOF 1
ENDMDL
MODEL 4
REMARK VINA RESULT:      -4.8     13.826     15.414
REMARK  1 active torsions:
REMARK  status: ('A' for Active; 'I' for Inactive)
REMARK    1  A    between atoms: C9_9  and  O11_11 
ROOT
HETATM    1  C1  UNL     1     -35.552  16.962  -0.372  1.00 20.00     0.052 A 
HETATM    2  C2  UNL     1     -33.696  18.388   0.298  1.00 20.00     0.049 A 
HETATM    3  C3  UNL     1     -34.841  16.631  -1.514  1.00 20.00    -0.020 A 
HETATM    4  C4  UNL     1     -33.567  17.164  -1.748  1.00 20.00    -0.043 A 
HETATM    5  C5  UNL     1     -32.980  18.038  -0.848  1.00 20.00    -0.052 A 
HETATM    6  C6  UNL     1     -34.973  17.853   0.536  1.00 20.00     0.117 A 
HETATM    7  C7  UNL     1     -32.985  16.622  -3.017  1.00 20.00     0.042 C 
HETATM    8  C8  UNL     1     -34.246  16.099  -3.718  1.00 20.00     0.041 C 
HETATM    9  C9  UNL     1     -35.221  15.677  -2.606  1.00 20.00     0.152 C 
HETATM   10  C10 UNL     1     -31.620  18.598  -1.081  1.00 20.00     0.049 C 
HETATM   11  F12 UNL     1     -35.638  18.196   1.647  1.00 20.00    -0.206 F 
ENDROOT
BRANCH   9  12
HETATM   12  O11 UNL     1     -36.562  15.847  -3.018  1.00 20.00    -0.391 OA
HETATM   13  H23 UNL     1     -37.125  15.428  -2.343  1.00 20.00     0.210 HD
ENDBRANCH   9  12
TORSDOF 1
ENDMDL
MODEL 5
REMARK VINA RESULT:      -4.8      1.718      2.553
REMARK  1 active torsions:
REMARK  status: ('A' for Active; 'I' for Inactive)
REMARK    1  A    between atoms: C9_9  and  O11_11 
ROOT
HETATM    1  C1  UNL     1     -23.624  18.296   8.250  1.00 20.00     0.052 A 
HETATM    2  C2  UNL     1     -22.008  17.388   9.828  1.00 20.00     0.049 A 
HETATM    3  C3  UNL     1     -24.456  18.583   9.320  1.00 20.00    -0.020 A 
HETATM    4  C4  UNL     1     -24.069  18.285  10.633  1.00 20.00    -0.043 A 
HETATM    5  C5  UNL     1     -22.846  17.694  10.902  1.00 20.00    -0.052 A 
HETATM    6  C6  UNL     1     -22.393  17.688   8.511  1.00 20.00     0.117 A 
HETATM    7  C7  UNL     1     -25.110  18.732  11.612  1.00 20.00     0.042 C 
HETATM    8  C8  UNL     1     -26.332  18.880  10.695  1.00 20.00     0.041 C 
HETATM    9  C9  UNL     1     -25.792  19.263   9.307  1.00 20.00     0.152 C 
HETATM   10  C10 UNL     1     -22.419  17.388  12.295  1.00 20.00     0.049 C 
HETATM   11  F12 UNL     1     -21.569  17.393   7.497  1.00 20.00    -0.206 F 
ENDROOT
BRANCH   9  12
HETATM   12  O11 UNL     1     -26.630  18.768   8.282  1.00 20.00    -0.391 OA
HETATM   13  H23 UNL     1     -26.205  18.982   7.434  1.00 20.00     0.210 HD
ENDBRANCH   9  12
TORSDOF 1
ENDMDL
MODEL 6
REMARK VINA RESULT:      -4.8     15.555     17.101
REMARK  1 active torsions:
REMARK  status: ('A' for Active; 'I' for Inactive)
REMARK    1  A    between atoms: C9_9  and  O11_11 
ROOT
HETATM    1  C1  UNL     1     -36.563  15.556  -3.262  1.00 20.00     0.052 A 
HETATM    2  C2  UNL     1     -34.984  14.149  -4.467  1.00 20.00     0.049 A 
HETATM    3  C3  UNL     1     -35.488  16.256  -2.739  1.00 20.00    -0.020 A 
HETATM    4  C4  UNL     1     -34.173  15.915  -3.080  1.00 20.00    -0.043 A 
HETATM    5  C5  UNL     1     -33.906  14.868  -3.947  1.00 20.00    -0.052 A 
HETATM    6  C6  UNL     1     -36.303  14.490  -4.128  1.00 20.00     0.117 A 
HETATM    7  C7  UNL     1     -33.194  16.843  -2.430  1.00 20.00     0.042 C 
HETATM    8  C8  UNL     1     -34.057  17.444  -1.312  1.00 20.00     0.041 C 
HETATM    9  C9  UNL     1     -35.503  17.450  -1.833  1.00 20.00     0.152 C 
HETATM   10  C10 UNL     1     -32.513  14.508  -4.327  1.00 20.00     0.049 C 
HETATM   11  F12 UNL     1     -37.322  13.791  -4.645  1.00 20.00    -0.206 F 
ENDROOT
BRANCH   9  12
HETATM   12  O11 UNL     1     -36.425  17.300  -0.771  1.00 20.00    -0.391 OA
HETATM   13  H23 UNL     1     -36.776  16.395  -0.821  1.00 20.00     0.210 HD
ENDBRANCH   9  12
TORSDOF 1
ENDMDL
MODEL 7
REMARK VINA RESULT:      -4.7     16.357     18.128
REMARK  1 active torsions:
REMARK  status: ('A' for Active; 'I' for Inactive)
REMARK    1  A    between atoms: C9_9  and  O11_11 
ROOT
HETATM    1  C1  UNL     1     -34.251  15.156  -3.560  1.00 20.00     0.052 A 
HETATM    2  C2  UNL     1     -34.774  17.230  -2.399  1.00 20.00     0.049 A 
HETATM    3  C3  UNL     1     -35.584  15.063  -3.925  1.00 20.00    -0.020 A 
HETATM    4  C4  UNL     1     -36.505  16.046  -3.540  1.00 20.00    -0.043 A 
HETATM    5  C5  UNL     1     -36.113  17.138  -2.783  1.00 20.00    -0.052 A 
HETATM    6  C6  UNL     1     -33.849  16.247  -2.785  1.00 20.00     0.117 A 
HETATM    7  C7  UNL     1     -37.865  15.752  -4.093  1.00 20.00     0.042 C 
HETATM    8  C8  UNL     1     -37.728  14.261  -4.429  1.00 20.00     0.041 C 
HETATM    9  C9  UNL     1     -36.249  14.025  -4.777  1.00 20.00     0.152 C 
HETATM   10  C10 UNL     1     -37.081  18.195  -2.382  1.00 20.00     0.049 C 
HETATM   11  F12 UNL     1     -32.567  16.361  -2.413  1.00 20.00    -0.206 F 
ENDROOT
BRANCH   9  12
HETATM   12  O11 UNL     1     -35.849  12.715  -4.429  1.00 20.00    -0.391 OA
HETATM   13  H23 UNL     1     -35.122  12.798  -3.788  1.00 20.00     0.210 HD
ENDBRANCH   9  12
TORSDOF 1
ENDMDL
MODEL 8
REMARK VINA RESULT:      -4.6     16.241     17.902
REMARK  1 active torsions:
REMARK  status: ('A' for Active; 'I' for Inactive)
REMARK    1  A    between atoms: C9_9  and  O11_11 
ROOT
HETATM    1  C1  UNL     1     -34.533  14.525  -4.495  1.00 20.00     0.052 A 
HETATM    2  C2  UNL     1     -33.235  16.145  -3.225  1.00 20.00     0.049 A 
HETATM    3  C3  UNL     1     -35.671  15.263  -4.210  1.00 20.00    -0.020 A 
HETATM    4  C4  UNL     1     -35.595  16.436  -3.448  1.00 20.00    -0.043 A 
HETATM    5  C5  UNL     1     -34.384  16.892  -2.954  1.00 20.00    -0.052 A 
HETATM    6  C6  UNL     1     -33.309  14.970  -3.990  1.00 20.00     0.117 A 
HETATM    7  C7  UNL     1     -36.941  17.078  -3.318  1.00 20.00     0.042 C 
HETATM    8  C8  UNL     1     -37.862  15.905  -3.679  1.00 20.00     0.041 C 
HETATM    9  C9  UNL     1     -37.078  15.022  -4.664  1.00 20.00     0.152 C 
HETATM   10  C10 UNL     1     -34.291  18.145  -2.156  1.00 20.00     0.049 C 
HETATM   11  F12 UNL     1     -32.193  14.274  -4.245  1.00 20.00    -0.206 F 
ENDROOT
BRANCH   9  12
HETATM   12  O11 UNL     1     -37.453  13.664  -4.537  1.00 20.00    -0.391 OA
HETATM   13  H23 UNL     1     -36.756  13.221  -4.023  1.00 20.00     0.210 HD
ENDBRANCH   9  12
TORSDOF 1
ENDMDL
MODEL 9
REMARK VINA RESULT:      -4.6     12.440     14.258
REMARK  1 active torsions:
REMARK  status: ('A' for Active; 'I' for Inactive)
REMARK    1  A    between atoms: C9_9  and  O11_11 
ROOT
HETATM    1  C1  UNL     1     -31.963  18.180  -0.928  1.00 20.00     0.052 A 
HETATM    2  C2  UNL     1     -32.661  18.721   1.341  1.00 20.00     0.049 A 
HETATM    3  C3  UNL     1     -33.233  17.681  -1.164  1.00 20.00    -0.020 A 
HETATM    4  C4  UNL     1     -34.214  17.707  -0.164  1.00 20.00    -0.043 A 
HETATM    5  C5  UNL     1     -33.943  18.229   1.091  1.00 20.00    -0.052 A 
HETATM    6  C6  UNL     1     -31.677  18.697   0.339  1.00 20.00     0.117 A 
HETATM    7  C7  UNL     1     -35.511  17.159  -0.671  1.00 20.00     0.042 C 
HETATM    8  C8  UNL     1     -35.038  16.384  -1.908  1.00 20.00     0.041 C 
HETATM    9  C9  UNL     1     -33.794  17.117  -2.434  1.00 20.00     0.152 C 
HETATM   10  C10 UNL     1     -34.983  18.275   2.155  1.00 20.00     0.049 C 
HETATM   11  F12 UNL     1     -30.456  19.183   0.598  1.00 20.00    -0.206 F 
ENDROOT
BRANCH   9  12
HETATM   12  O11 UNL     1     -32.899  16.217  -3.057  1.00 20.00    -0.391 OA
HETATM   13  H23 UNL     1     -32.240  16.750  -3.533  1.00 20.00     0.210 HD
ENDBRANCH   9  12
TORSDOF 1
ENDMDL
