MODEL 1
REMARK VINA RESULT:      -4.6      0.000      0.000
REMARK  5 active torsions:
REMARK  status: ('A' for Active; 'I' for Inactive)
REMARK    1  A    between atoms: C5_5  and  N10_10 
REMARK    2  A    between atoms: C6_6  and  C7_7 
REMARK    3  A    between atoms: C6_6  and  C8_8 
REMARK    4  A    between atoms: C7_7  and  C9_9 
REMARK    5  A    between atoms: C8_8  and  N10_10 
ROOT
HETATM    1  C1  UNL     1     -33.643   7.300   6.244  1.00 20.00     0.013 C 
HETATM    2  C2  UNL     1     -34.279   6.315   5.988  1.00 20.00    -0.087 C 
HETATM    3  C5  UNL     1     -35.056   5.111   5.683  1.00 20.00     0.362 C 
ENDROOT
BRANCH   3   4
HETATM    4  N10 UNL     1     -35.146   4.908   4.235  1.00 20.00     0.094 N 
HETATM    5  H27 UNL     1     -36.061   4.492   4.025  1.00 20.00     0.317 HD
BRANCH   4   6
HETATM    6  C8  UNL     1     -34.092   4.062   3.751  1.00 20.00     0.270 C 
BRANCH   6   7
HETATM    7  C6  UNL     1     -33.292   4.713   2.627  1.00 20.00     0.030 C 
BRANCH   7   8
HETATM    8  C7  UNL     1     -33.601   6.208   2.478  1.00 20.00     0.005 C 
BRANCH   8   9
HETATM    9  C9  UNL     1     -32.359   7.058   2.150  1.00 20.00    -0.023 C 
HETATM   10  C3  UNL     1     -32.746   8.196   1.203  1.00 20.00     0.009 C 
HETATM   11  C4  UNL     1     -31.697   7.633   3.402  1.00 20.00     0.009 C 
ENDBRANCH   8   9
ENDBRANCH   7   8
ENDBRANCH   6   7
ENDBRANCH   4   6
ENDBRANCH   3   4
TORSDOF 5
ENDMDL
MODEL 2
REMARK VINA RESULT:      -4.6      1.231      4.347
REMARK  5 active torsions:
REMARK  status: ('A' for Active; 'I' for Inactive)
REMARK    1  A    between atoms: C5_5  and  N10_10 
REMARK    2  A    between atoms: C6_6  and  C7_7 
REMARK    3  A    between atoms: C6_6  and  C8_8 
REMARK    4  A    between atoms: C7_7  and  C9_9 
REMARK    5  A    between atoms: C8_8  and  N10_10 
ROOT
HETATM    1  C1  UNL     1     -32.994   9.073   0.357  1.00 20.00     0.013 C 
HETATM    2  C2  UNL     1     -32.618   8.243   1.138  1.00 20.00    -0.087 C 
HETATM    3  C5  UNL     1     -32.152   7.231   2.091  1.00 20.00     0.362 C 
ENDROOT
BRANCH   3   4
HETATM    4  N10 UNL     1     -33.287   6.600   2.769  1.00 20.00     0.094 N 
HETATM    5  H27 UNL     1     -33.241   6.844   3.765  1.00 20.00     0.317 HD
BRANCH   4   6
HETATM    6  C8  UNL     1     -33.277   5.173   2.604  1.00 20.00     0.270 C 
BRANCH   6   7
HETATM    7  C6  UNL     1     -34.193   4.467   3.599  1.00 20.00     0.030 C 
BRANCH   7   8
HETATM    8  C7  UNL     1     -35.162   5.432   4.292  1.00 20.00     0.005 C 
BRANCH   8   9
HETATM    9  C9  UNL     1     -34.820   5.684   5.773  1.00 20.00    -0.023 C 
HETATM   10  C3  UNL     1     -34.007   4.510   6.324  1.00 20.00     0.009 C 
HETATM   11  C4  UNL     1     -34.047   6.987   5.980  1.00 20.00     0.009 C 
ENDBRANCH   8   9
ENDBRANCH   7   8
ENDBRANCH   6   7
ENDBRANCH   4   6
ENDBRANCH   3   4
TORSDOF 5
ENDMDL
MODEL 3
REMARK VINA RESULT:      -4.1      1.018      1.660
REMARK  5 active torsions:
REMARK  status: ('A' for Active; 'I' for Inactive)
REMARK    1  A    between atoms: C5_5  and  N10_10 
REMARK    2  A    between atoms: C6_6  and  C7_7 
REMARK    3  A    between atoms: C6_6  and  C8_8 
REMARK    4  A    between atoms: C7_7  and  C9_9 
REMARK    5  A    between atoms: C8_8  and  N10_10 
ROOT
HETATM    1  C1  UNL     1     -34.011   6.886   6.086  1.00 20.00     0.013 C 
HETATM    2  C2  UNL     1     -34.457   5.958   5.468  1.00 20.00    -0.087 C 
HETATM    3  C5  UNL     1     -35.007   4.826   4.718  1.00 20.00     0.362 C 
ENDROOT
BRANCH   3   4
HETATM    4  N10 UNL     1     -34.088   4.418   3.652  1.00 20.00     0.094 N 
HETATM    5  H27 UNL     1     -33.172   4.228   4.074  1.00 20.00     0.317 HD
BRANCH   4   6
HETATM    6  C8  UNL     1     -33.969   5.428   2.638  1.00 20.00     0.270 C 
BRANCH   6   7
HETATM    7  C6  UNL     1     -32.543   5.955   2.507  1.00 20.00     0.030 C 
BRANCH   7   8
HETATM    8  C7  UNL     1     -32.489   7.484   2.422  1.00 20.00     0.005 C 
BRANCH   8   9
HETATM    9  C9  UNL     1     -32.838   8.032   1.025  1.00 20.00    -0.023 C 
HETATM   10  C3  UNL     1     -33.102   9.537   1.109  1.00 20.00     0.009 C 
HETATM   11  C4  UNL     1     -31.738   7.759  -0.002  1.00 20.00     0.009 C 
ENDBRANCH   8   9
ENDBRANCH   7   8
ENDBRANCH   6   7
ENDBRANCH   4   6
ENDBRANCH   3   4
TORSDOF 5
ENDMDL
MODEL 4
REMARK VINA RESULT:      -4.0      1.693      4.792
REMARK  5 active torsions:
REMARK  status: ('A' for Active; 'I' for Inactive)
REMARK    1  A    between atoms: C5_5  and  N10_10 
REMARK    2  A    between atoms: C6_6  and  C7_7 
REMARK    3  A    between atoms: C6_6  and  C8_8 
REMARK    4  A    between atoms: C7_7  and  C9_9 
REMARK    5  A    between atoms: C8_8  and  N10_10 
ROOT
HETATM    1  C1  UNL     1     -33.665   9.154  -0.316  1.00 20.00     0.013 C 
HETATM    2  C2  UNL     1     -32.900   8.572   0.402  1.00 20.00    -0.087 C 
HETATM    3  C5  UNL     1     -31.960   7.864   1.276  1.00 20.00     0.362 C 
ENDROOT
BRANCH   3   4
HETATM    4  N10 UNL     1     -32.681   7.081   2.282  1.00 20.00     0.094 N 
HETATM    5  H27 UNL     1     -33.671   7.346   2.246  1.00 20.00     0.317 HD
BRANCH   4   6
HETATM    6  C8  UNL     1     -32.155   7.298   3.601  1.00 20.00     0.270 C 
BRANCH   6   7
HETATM    7  C6  UNL     1     -33.205   7.090   4.687  1.00 20.00     0.030 C 
BRANCH   7   8
HETATM    8  C7  UNL     1     -34.544   6.602   4.122  1.00 20.00     0.005 C 
BRANCH   8   9
HETATM    9  C9  UNL     1     -34.965   5.220   4.655  1.00 20.00    -0.023 C 
HETATM   10  C3  UNL     1     -34.195   4.123   3.916  1.00 20.00     0.009 C 
HETATM   11  C4  UNL     1     -34.741   5.081   6.161  1.00 20.00     0.009 C 
ENDBRANCH   8   9
ENDBRANCH   7   8
ENDBRANCH   6   7
ENDBRANCH   4   6
ENDBRANCH   3   4
TORSDOF 5
ENDMDL
MODEL 5
REMARK VINA RESULT:      -3.9      1.317      2.325
REMARK  5 active torsions:
REMARK  status: ('A' for Active; 'I' for Inactive)
REMARK    1  A    between atoms: C5_5  and  N10_10 
REMARK    2  A    between atoms: C6_6  and  C7_7 
REMARK    3  A    between atoms: C6_6  and  C8_8 
REMARK    4  A    between atoms: C7_7  and  C9_9 
REMARK    5  A    between atoms: C8_8  and  N10_10 
ROOT
HETATM    1  C1  UNL     1     -34.796   5.546   6.316  1.00 20.00     0.013 C 
HETATM    2  C2  UNL     1     -34.711   5.168   5.181  1.00 20.00    -0.087 C 
HETATM    3  C5  UNL     1     -34.612   4.703   3.794  1.00 20.00     0.362 C 
ENDROOT
BRANCH   3   4
HETATM    4  N10 UNL     1     -33.490   5.350   3.111  1.00 20.00     0.094 N 
HETATM    5  H27 UNL     1     -32.664   4.749   3.209  1.00 20.00     0.317 HD
BRANCH   4   6
HETATM    6  C8  UNL     1     -33.222   6.655   3.650  1.00 20.00     0.270 C 
BRANCH   6   7
HETATM    7  C6  UNL     1     -32.206   7.431   2.817  1.00 20.00     0.030 C 
BRANCH   7   8
HETATM    8  C7  UNL     1     -32.476   7.321   1.312  1.00 20.00     0.005 C 
BRANCH   8   9
HETATM    9  C9  UNL     1     -32.571   8.687   0.607  1.00 20.00    -0.023 C 
HETATM   10  C3  UNL     1     -33.425   8.560  -0.656  1.00 20.00     0.009 C 
HETATM   11  C4  UNL     1     -33.150   9.774   1.513  1.00 20.00     0.009 C 
ENDBRANCH   8   9
ENDBRANCH   7   8
ENDBRANCH   6   7
ENDBRANCH   4   6
ENDBRANCH   3   4
TORSDOF 5
ENDMDL
MODEL 6
REMARK VINA RESULT:      -3.7     11.798     12.756
REMARK  5 active torsions:
REMARK  status: ('A' for Active; 'I' for Inactive)
REMARK    1  A    between atoms: C5_5  and  N10_10 
REMARK    2  A    between atoms: C6_6  and  C7_7 
REMARK    3  A    between atoms: C6_6  and  C8_8 
REMARK    4  A    between atoms: C7_7  and  C9_9 
REMARK    5  A    between atoms: C8_8  and  N10_10 
ROOT
HETATM    1  C1  UNL     1     -36.359  13.670  -4.629  1.00 20.00     0.013 C 
HETATM    2  C2  UNL     1     -35.559  14.244  -5.313  1.00 20.00    -0.087 C 
HETATM    3  C5  UNL     1     -34.586  14.949  -6.153  1.00 20.00     0.362 C 
ENDROOT
BRANCH   3   4
HETATM    4  N10 UNL     1     -33.228  14.761  -5.638  1.00 20.00     0.094 N 
HETATM    5  H27 UNL     1     -32.913  13.820  -5.900  1.00 20.00     0.317 HD
BRANCH   4   6
HETATM    6  C8  UNL     1     -33.173  14.926  -4.213  1.00 20.00     0.270 C 
BRANCH   6   7
HETATM    7  C6  UNL     1     -33.355  16.380  -3.789  1.00 20.00     0.030 C 
BRANCH   7   8
HETATM    8  C7  UNL     1     -33.601  16.526  -2.283  1.00 20.00     0.005 C 
BRANCH   8   9
HETATM    9  C9  UNL     1     -35.085  16.390  -1.890  1.00 20.00    -0.023 C 
HETATM   10  C3  UNL     1     -35.310  16.991  -0.501  1.00 20.00     0.009 C 
HETATM   11  C4  UNL     1     -36.020  17.057  -2.899  1.00 20.00     0.009 C 
ENDBRANCH   8   9
ENDBRANCH   7   8
ENDBRANCH   6   7
ENDBRANCH   4   6
ENDBRANCH   3   4
TORSDOF 5
ENDMDL
MODEL 7
REMARK VINA RESULT:      -3.7     11.715     12.413
REMARK  5 active torsions:
REMARK  status: ('A' for Active; 'I' for Inactive)
REMARK    1  A    between atoms: C5_5  and  N10_10 
REMARK    2  A    between atoms: C6_6  and  C7_7 
REMARK    3  A    between atoms: C6_6  and  C8_8 
REMARK    4  A    between atoms: C7_7  and  C9_9 
REMARK    5  A    between atoms: C8_8  and  N10_10 
ROOT
HETATM    1  C1  UNL     1     -31.181  18.384   0.060  1.00 20.00     0.013 C 
HETATM    2  C2  UNL     1     -31.817  18.370   1.077  1.00 20.00    -0.087 C 
HETATM    3  C5  UNL     1     -32.590  18.358   2.323  1.00 20.00     0.362 C 
ENDROOT
BRANCH   3   4
HETATM    4  N10 UNL     1     -33.807  17.557   2.167  1.00 20.00     0.094 N 
HETATM    5  H27 UNL     1     -33.544  16.646   1.775  1.00 20.00     0.317 HD
BRANCH   4   6
HETATM    6  C8  UNL     1     -34.764  18.207   1.315  1.00 20.00     0.270 C 
BRANCH   6   7
HETATM    7  C6  UNL     1     -35.283  17.286   0.216  1.00 20.00     0.030 C 
BRANCH   7   8
HETATM    8  C7  UNL     1     -34.795  17.702  -1.177  1.00 20.00     0.005 C 
BRANCH   8   9
HETATM    9  C9  UNL     1     -34.049  16.580  -1.923  1.00 20.00    -0.023 C 
HETATM   10  C3  UNL     1     -35.057  15.656  -2.611  1.00 20.00     0.009 C 
HETATM   11  C4  UNL     1     -33.060  17.122  -2.955  1.00 20.00     0.009 C 
ENDBRANCH   8   9
ENDBRANCH   7   8
ENDBRANCH   6   7
ENDBRANCH   4   6
ENDBRANCH   3   4
TORSDOF 5
ENDMDL
MODEL 8
REMARK VINA RESULT:      -3.6      9.716     10.743
REMARK  5 active torsions:
REMARK  status: ('A' for Active; 'I' for Inactive)
REMARK    1  A    between atoms: C5_5  and  N10_10 
REMARK    2  A    between atoms: C6_6  and  C7_7 
REMARK    3  A    between atoms: C6_6  and  C8_8 
REMARK    4  A    between atoms: C7_7  and  C9_9 
REMARK    5  A    between atoms: C8_8  and  N10_10 
ROOT
HETATM    1  C1  UNL     1     -41.552   2.260  -4.406  1.00 20.00     0.013 C 
HETATM    2  C2  UNL     1     -42.172   2.828  -3.550  1.00 20.00    -0.087 C 
HETATM    3  C5  UNL     1     -42.935   3.518  -2.507  1.00 20.00     0.362 C 
ENDROOT
BRANCH   3   4
HETATM    4  N10 UNL     1     -42.035   4.223  -1.591  1.00 20.00     0.094 N 
HETATM    5  H27 UNL     1     -41.842   3.607  -0.793  1.00 20.00     0.317 HD
BRANCH   4   6
HETATM    6  C8  UNL     1     -42.604   5.461  -1.136  1.00 20.00     0.270 C 
BRANCH   6   7
HETATM    7  C6  UNL     1     -41.592   6.603  -1.140  1.00 20.00     0.030 C 
BRANCH   7   8
HETATM    8  C7  UNL     1     -41.352   7.179   0.261  1.00 20.00     0.005 C 
BRANCH   8   9
HETATM    9  C9  UNL     1     -42.108   8.496   0.517  1.00 20.00    -0.023 C 
HETATM   10  C3  UNL     1     -41.139   9.677   0.422  1.00 20.00     0.009 C 
HETATM   11  C4  UNL     1     -43.269   8.703  -0.456  1.00 20.00     0.009 C 
ENDBRANCH   8   9
ENDBRANCH   7   8
ENDBRANCH   6   7
ENDBRANCH   4   6
ENDBRANCH   3   4
TORSDOF 5
ENDMDL
MODEL 9
REMARK VINA RESULT:      -3.6     12.121     13.786
REMARK  5 active torsions:
REMARK  status: ('A' for Active; 'I' for Inactive)
REMARK    1  A    between atoms: C5_5  and  N10_10 
REMARK    2  A    between atoms: C6_6  and  C7_7 
REMARK    3  A    between atoms: C6_6  and  C8_8 
REMARK    4  A    between atoms: C7_7  and  C9_9 
REMARK    5  A    between atoms: C8_8  and  N10_10 
ROOT
HETATM    1  C1  UNL     1     -34.624  18.020  -6.828  1.00 20.00     0.013 C 
HETATM    2  C2  UNL     1     -34.362  16.932  -7.263  1.00 20.00    -0.087 C 
HETATM    3  C5  UNL     1     -34.043  15.606  -7.799  1.00 20.00     0.362 C 
ENDROOT
BRANCH   3   4
HETATM    4  N10 UNL     1     -33.338  14.801  -6.799  1.00 20.00     0.094 N 
HETATM    5  H27 UNL     1     -33.140  13.881  -7.209  1.00 20.00     0.317 HD
BRANCH   4   6
HETATM    6  C8  UNL     1     -34.108  14.655  -5.596  1.00 20.00     0.270 C 
BRANCH   6   7
HETATM    7  C6  UNL     1     -33.246  14.732  -4.340  1.00 20.00     0.030 C 
BRANCH   7   8
HETATM    8  C7  UNL     1     -33.232  16.135  -3.723  1.00 20.00     0.005 C 
BRANCH   8   9
HETATM    9  C9  UNL     1     -33.955  16.212  -2.364  1.00 20.00    -0.023 C 
HETATM   10  C3  UNL     1     -33.520  17.474  -1.616  1.00 20.00     0.009 C 
HETATM   11  C4  UNL     1     -35.477  16.198  -2.510  1.00 20.00     0.009 C 
ENDBRANCH   8   9
ENDBRANCH   7   8
ENDBRANCH   6   7
ENDBRANCH   4   6
ENDBRANCH   3   4
TORSDOF 5
ENDMDL
