MODEL 1
REMARK VINA RESULT:      -6.3      0.000      0.000
REMARK  3 active torsions:
REMARK  status: ('A' for Active; 'I' for Inactive)
REMARK    1  A    between atoms: C3_3  and  C4_4 
REMARK    2  A    between atoms: C3_3  and  C5_5 
REMARK    3  A    between atoms: C5_5  and  C6_6 
ROOT
HETATM    1  C1  UNL     1     -32.905   8.609   0.523  1.00 20.00     0.012 C 
HETATM    2  C2  UNL     1     -32.593   7.973   1.491  1.00 20.00    -0.110 C 
HETATM    3  C4  UNL     1     -32.204   7.199   2.675  1.00 20.00     0.171 C 
ENDROOT
BRANCH   3   4
HETATM    4  C3  UNL     1     -33.250   6.172   3.072  1.00 20.00     0.146 C 
HETATM    5  O7  UNL     1     -33.530   5.206   2.364  1.00 20.00    -0.297 OA
BRANCH   4   6
HETATM    6  C5  UNL     1     -33.933   6.420   4.408  1.00 20.00     0.196 C 
BRANCH   6   7
HETATM    7  C6  UNL     1     -34.887   5.316   4.802  1.00 20.00     0.394 C 
HETATM    8  F8  UNL     1     -36.043   5.425   4.110  1.00 20.00    -0.171 F 
HETATM    9  F9  UNL     1     -34.369   4.097   4.539  1.00 20.00    -0.171 F 
HETATM   10  F10 UNL     1     -35.192   5.371   6.115  1.00 20.00    -0.171 F 
ENDBRANCH   6   7
ENDBRANCH   4   6
ENDBRANCH   3   4
TORSDOF 3
ENDMDL
MODEL 2
REMARK VINA RESULT:      -6.3      0.027      1.190
REMARK  3 active torsions:
REMARK  status: ('A' for Active; 'I' for Inactive)
REMARK    1  A    between atoms: C3_3  and  C4_4 
REMARK    2  A    between atoms: C3_3  and  C5_5 
REMARK    3  A    between atoms: C5_5  and  C6_6 
ROOT
HETATM    1  C1  UNL     1     -32.902   8.621   0.554  1.00 20.00     0.012 C 
HETATM    2  C2  UNL     1     -32.586   7.974   1.514  1.00 20.00    -0.110 C 
HETATM    3  C4  UNL     1     -32.192   7.186   2.688  1.00 20.00     0.171 C 
ENDROOT
BRANCH   3   4
HETATM    4  C3  UNL     1     -33.243   6.163   3.084  1.00 20.00     0.146 C 
HETATM    5  O7  UNL     1     -33.514   5.189   2.382  1.00 20.00    -0.297 OA
BRANCH   4   6
HETATM    6  C5  UNL     1     -33.939   6.423   4.410  1.00 20.00     0.196 C 
BRANCH   6   7
HETATM    7  C6  UNL     1     -34.905   5.327   4.799  1.00 20.00     0.394 C 
HETATM    8  F8  UNL     1     -35.203   5.409   6.115  1.00 20.00    -0.171 F 
HETATM    9  F9  UNL     1     -36.064   5.423   4.113  1.00 20.00    -0.171 F 
HETATM   10  F10 UNL     1     -34.382   4.104   4.575  1.00 20.00    -0.171 F 
ENDBRANCH   6   7
ENDBRANCH   4   6
ENDBRANCH   3   4
TORSDOF 3
ENDMDL
MODEL 3
REMARK VINA RESULT:      -5.9      1.741      2.265
REMARK  3 active torsions:
REMARK  status: ('A' for Active; 'I' for Inactive)
REMARK    1  A    between atoms: C3_3  and  C4_4 
REMARK    2  A    between atoms: C3_3  and  C5_5 
REMARK    3  A    between atoms: C5_5  and  C6_6 
ROOT
HETATM    1  C1  UNL     1     -32.310   7.488   2.633  1.00 20.00     0.012 C 
HETATM    2  C2  UNL     1     -32.811   6.399   2.563  1.00 20.00    -0.110 C 
HETATM    3  C4  UNL     1     -33.421   5.068   2.470  1.00 20.00     0.171 C 
ENDROOT
BRANCH   3   4
HETATM    4  C3  UNL     1     -34.175   4.680   3.730  1.00 20.00     0.146 C 
HETATM    5  O7  UNL     1     -34.275   3.514   4.107  1.00 20.00    -0.297 OA
BRANCH   4   6
HETATM    6  C5  UNL     1     -34.800   5.835   4.497  1.00 20.00     0.196 C 
BRANCH   6   7
HETATM    7  C6  UNL     1     -34.282   5.958   5.912  1.00 20.00     0.394 C 
HETATM    8  F8  UNL     1     -33.876   4.753   6.370  1.00 20.00    -0.171 F 
HETATM    9  F9  UNL     1     -33.225   6.796   5.981  1.00 20.00    -0.171 F 
HETATM   10  F10 UNL     1     -35.236   6.412   6.750  1.00 20.00    -0.171 F 
ENDBRANCH   6   7
ENDBRANCH   4   6
ENDBRANCH   3   4
TORSDOF 3
ENDMDL
MODEL 4
REMARK VINA RESULT:      -5.4      3.399      4.780
REMARK  3 active torsions:
REMARK  status: ('A' for Active; 'I' for Inactive)
REMARK    1  A    between atoms: C3_3  and  C4_4 
REMARK    2  A    between atoms: C3_3  and  C5_5 
REMARK    3  A    between atoms: C5_5  and  C6_6 
ROOT
HETATM    1  C1  UNL     1     -34.775   5.490   4.663  1.00 20.00     0.012 C 
HETATM    2  C2  UNL     1     -34.110   5.635   3.674  1.00 20.00    -0.110 C 
HETATM    3  C4  UNL     1     -33.301   5.805   2.462  1.00 20.00     0.171 C 
ENDROOT
BRANCH   3   4
HETATM    4  C3  UNL     1     -32.449   7.062   2.500  1.00 20.00     0.146 C 
HETATM    5  O7  UNL     1     -32.052   7.559   3.552  1.00 20.00    -0.297 OA
BRANCH   4   6
HETATM    6  C5  UNL     1     -32.122   7.668   1.144  1.00 20.00     0.196 C 
BRANCH   6   7
HETATM    7  C6  UNL     1     -33.077   8.767   0.738  1.00 20.00     0.394 C 
HETATM    8  F8  UNL     1     -32.407   9.925   0.546  1.00 20.00    -0.171 F 
HETATM    9  F9  UNL     1     -33.713   8.468  -0.415  1.00 20.00    -0.171 F 
HETATM   10  F10 UNL     1     -34.009   8.989   1.688  1.00 20.00    -0.171 F 
ENDBRANCH   6   7
ENDBRANCH   4   6
ENDBRANCH   3   4
TORSDOF 3
ENDMDL
MODEL 5
REMARK VINA RESULT:      -5.3      2.631      3.939
REMARK  3 active torsions:
REMARK  status: ('A' for Active; 'I' for Inactive)
REMARK    1  A    between atoms: C3_3  and  C4_4 
REMARK    2  A    between atoms: C3_3  and  C5_5 
REMARK    3  A    between atoms: C5_5  and  C6_6 
ROOT
HETATM    1  C1  UNL     1     -33.693   7.427   6.373  1.00 20.00     0.012 C 
HETATM    2  C2  UNL     1     -34.225   6.408   6.027  1.00 20.00    -0.110 C 
HETATM    3  C4  UNL     1     -34.879   5.161   5.614  1.00 20.00     0.171 C 
ENDROOT
BRANCH   3   4
HETATM    4  C3  UNL     1     -34.509   4.749   4.199  1.00 20.00     0.146 C 
HETATM    5  O7  UNL     1     -34.289   3.579   3.889  1.00 20.00    -0.297 OA
BRANCH   4   6
HETATM    6  C5  UNL     1     -34.426   5.883   3.190  1.00 20.00     0.196 C 
BRANCH   6   7
HETATM    7  C6  UNL     1     -33.035   6.087   2.637  1.00 20.00     0.394 C 
HETATM    8  F8  UNL     1     -33.083   6.815   1.499  1.00 20.00    -0.171 F 
HETATM    9  F9  UNL     1     -32.247   6.750   3.511  1.00 20.00    -0.171 F 
HETATM   10  F10 UNL     1     -32.442   4.911   2.343  1.00 20.00    -0.171 F 
ENDBRANCH   6   7
ENDBRANCH   4   6
ENDBRANCH   3   4
TORSDOF 3
ENDMDL
MODEL 6
REMARK VINA RESULT:      -5.2      3.138      4.693
REMARK  3 active torsions:
REMARK  status: ('A' for Active; 'I' for Inactive)
REMARK    1  A    between atoms: C3_3  and  C4_4 
REMARK    2  A    between atoms: C3_3  and  C5_5 
REMARK    3  A    between atoms: C5_5  and  C6_6 
ROOT
HETATM    1  C1  UNL     1     -34.810   5.063   5.842  1.00 20.00     0.012 C 
HETATM    2  C2  UNL     1     -34.452   5.894   5.053  1.00 20.00    -0.110 C 
HETATM    3  C4  UNL     1     -34.019   6.916   4.094  1.00 20.00     0.171 C 
ENDROOT
BRANCH   3   4
HETATM    4  C3  UNL     1     -33.121   6.353   3.006  1.00 20.00     0.146 C 
HETATM    5  O7  UNL     1     -33.239   5.205   2.581  1.00 20.00    -0.297 OA
BRANCH   4   6
HETATM    6  C5  UNL     1     -32.062   7.307   2.476  1.00 20.00     0.196 C 
BRANCH   6   7
HETATM    7  C6  UNL     1     -32.469   7.991   1.191  1.00 20.00     0.394 C 
HETATM    8  F8  UNL     1     -33.617   7.459   0.718  1.00 20.00    -0.171 F 
HETATM    9  F9  UNL     1     -32.680   9.312   1.380  1.00 20.00    -0.171 F 
HETATM   10  F10 UNL     1     -31.529   7.847   0.235  1.00 20.00    -0.171 F 
ENDBRANCH   6   7
ENDBRANCH   4   6
ENDBRANCH   3   4
TORSDOF 3
ENDMDL
MODEL 7
REMARK VINA RESULT:      -5.0     11.811     12.716
REMARK  3 active torsions:
REMARK  status: ('A' for Active; 'I' for Inactive)
REMARK    1  A    between atoms: C3_3  and  C4_4 
REMARK    2  A    between atoms: C3_3  and  C5_5 
REMARK    3  A    between atoms: C5_5  and  C6_6 
ROOT
HETATM    1  C1  UNL     1     -34.479  15.979  -2.331  1.00 20.00     0.012 C 
HETATM    2  C2  UNL     1     -35.361  15.518  -3.003  1.00 20.00    -0.110 C 
HETATM    3  C4  UNL     1     -36.444  14.960  -3.819  1.00 20.00     0.171 C 
ENDROOT
BRANCH   3   4
HETATM    4  C3  UNL     1     -35.948  13.941  -4.830  1.00 20.00     0.146 C 
HETATM    5  O7  UNL     1     -35.844  12.744  -4.566  1.00 20.00    -0.297 OA
BRANCH   4   6
HETATM    6  C5  UNL     1     -35.585  14.501  -6.196  1.00 20.00     0.196 C 
BRANCH   6   7
HETATM    7  C6  UNL     1     -34.177  15.046  -6.260  1.00 20.00     0.394 C 
HETATM    8  F8  UNL     1     -33.644  14.828  -7.483  1.00 20.00    -0.171 F 
HETATM    9  F9  UNL     1     -34.151  16.378  -6.037  1.00 20.00    -0.171 F 
HETATM   10  F10 UNL     1     -33.374  14.451  -5.354  1.00 20.00    -0.171 F 
ENDBRANCH   6   7
ENDBRANCH   4   6
ENDBRANCH   3   4
TORSDOF 3
ENDMDL
MODEL 8
REMARK VINA RESULT:      -4.8     11.780     12.602
REMARK  3 active torsions:
REMARK  status: ('A' for Active; 'I' for Inactive)
REMARK    1  A    between atoms: C3_3  and  C4_4 
REMARK    2  A    between atoms: C3_3  and  C5_5 
REMARK    3  A    between atoms: C5_5  and  C6_6 
ROOT
HETATM    1  C1  UNL     1     -33.521  16.937  -2.177  1.00 20.00     0.012 C 
HETATM    2  C2  UNL     1     -34.269  16.108  -2.617  1.00 20.00    -0.110 C 
HETATM    3  C4  UNL     1     -35.190  15.098  -3.151  1.00 20.00     0.171 C 
ENDROOT
BRANCH   3   4
HETATM    4  C3  UNL     1     -34.488  14.067  -4.018  1.00 20.00     0.146 C 
HETATM    5  O7  UNL     1     -34.723  12.863  -3.933  1.00 20.00    -0.297 OA
BRANCH   4   6
HETATM    6  C5  UNL     1     -33.470  14.625  -5.000  1.00 20.00     0.196 C 
BRANCH   6   7
HETATM    7  C6  UNL     1     -34.085  15.060  -6.310  1.00 20.00     0.394 C 
HETATM    8  F8  UNL     1     -34.284  16.397  -6.314  1.00 20.00    -0.171 F 
HETATM    9  F9  UNL     1     -33.283  14.765  -7.355  1.00 20.00    -0.171 F 
HETATM   10  F10 UNL     1     -35.281  14.470  -6.516  1.00 20.00    -0.171 F 
ENDBRANCH   6   7
ENDBRANCH   4   6
ENDBRANCH   3   4
TORSDOF 3
ENDMDL
MODEL 9
REMARK VINA RESULT:      -4.8     16.729     17.381
REMARK  3 active torsions:
REMARK  status: ('A' for Active; 'I' for Inactive)
REMARK    1  A    between atoms: C3_3  and  C4_4 
REMARK    2  A    between atoms: C3_3  and  C5_5 
REMARK    3  A    between atoms: C5_5  and  C6_6 
ROOT
HETATM    1  C1  UNL     1     -25.244  19.247   6.420  1.00 20.00     0.012 C 
HETATM    2  C2  UNL     1     -24.949  19.249   7.583  1.00 20.00    -0.110 C 
HETATM    3  C4  UNL     1     -24.595  19.255   9.007  1.00 20.00     0.171 C 
ENDROOT
BRANCH   3   4
HETATM    4  C3  UNL     1     -23.215  18.677   9.269  1.00 20.00     0.146 C 
HETATM    5  O7  UNL     1     -22.182  19.263   8.947  1.00 20.00    -0.297 OA
BRANCH   4   6
HETATM    6  C5  UNL     1     -23.195  17.322   9.957  1.00 20.00     0.196 C 
BRANCH   6   7
HETATM    7  C6  UNL     1     -22.959  17.415  11.447  1.00 20.00     0.394 C 
HETATM    8  F8  UNL     1     -21.677  17.759  11.699  1.00 20.00    -0.171 F 
HETATM    9  F9  UNL     1     -23.750  18.350  12.016  1.00 20.00    -0.171 F 
HETATM   10  F10 UNL     1     -23.192  16.236  12.059  1.00 20.00    -0.171 F 
ENDBRANCH   6   7
ENDBRANCH   4   6
ENDBRANCH   3   4
TORSDOF 3
ENDMDL
