MODEL 1
REMARK VINA RESULT:      -4.7      0.000      0.000
REMARK  5 active torsions:
REMARK  status: ('A' for Active; 'I' for Inactive)
REMARK    1  A    between atoms: C1_1  and  C9_9 
REMARK    2  A    between atoms: C6_6  and  C7_7 
REMARK    3  A    between atoms: C7_7  and  C10_10 
REMARK    4  A    between atoms: C8_8  and  C9_9 
REMARK    5  A    between atoms: C8_8  and  C10_10 
ROOT
HETATM    1  C8  UNL     1     -33.969  14.988  -3.687  1.00 20.00     0.016 C 
ENDROOT
BRANCH   1   2
HETATM    2  C9  UNL     1     -34.846  14.733  -4.927  1.00 20.00     0.051 C 
HETATM    3  C4  UNL     1     -35.416  16.015  -5.524  1.00 20.00     0.018 C 
BRANCH   2   4
HETATM    4  C1  UNL     1     -36.003  13.802  -4.567  1.00 20.00     0.126 C 
HETATM    5  C2  UNL     1     -37.346  14.447  -4.334  1.00 20.00     0.091 C 
HETATM    6  O11 UNL     1     -35.869  12.581  -4.496  1.00 20.00    -0.298 OA
ENDBRANCH   2   4
ENDBRANCH   1   2
BRANCH   1   7
HETATM    7  C10 UNL     1     -34.184  16.344  -2.983  1.00 20.00    -0.018 C 
HETATM    8  C5  UNL     1     -35.086  16.149  -1.757  1.00 20.00     0.010 C 
BRANCH   7   9
HETATM    9  C7  UNL     1     -32.882  17.081  -2.608  1.00 20.00     0.004 C 
BRANCH   9  10
HETATM   10  C6  UNL     1     -32.980  17.994  -1.382  1.00 20.00    -0.004 C 
HETATM   11  C3  UNL     1     -31.604  18.274  -0.794  1.00 20.00     0.005 C 
ENDBRANCH   9  10
ENDBRANCH   7   9
ENDBRANCH   1   7
TORSDOF 5
ENDMDL
MODEL 2
REMARK VINA RESULT:      -4.5      1.178      1.894
REMARK  5 active torsions:
REMARK  status: ('A' for Active; 'I' for Inactive)
REMARK    1  A    between atoms: C1_1  and  C9_9 
REMARK    2  A    between atoms: C6_6  and  C7_7 
REMARK    3  A    between atoms: C7_7  and  C10_10 
REMARK    4  A    between atoms: C8_8  and  C9_9 
REMARK    5  A    between atoms: C8_8  and  C10_10 
ROOT
HETATM    1  C8  UNL     1     -34.840  15.993  -4.234  1.00 20.00     0.016 C 
ENDROOT
BRANCH   1   2
HETATM    2  C9  UNL     1     -34.849  14.687  -5.049  1.00 20.00     0.051 C 
HETATM    3  C4  UNL     1     -34.994  14.924  -6.549  1.00 20.00     0.018 C 
BRANCH   2   4
HETATM    4  C1  UNL     1     -35.990  13.785  -4.581  1.00 20.00     0.126 C 
HETATM    5  C2  UNL     1     -37.320  14.449  -4.329  1.00 20.00     0.091 C 
HETATM    6  O11 UNL     1     -35.855  12.570  -4.443  1.00 20.00    -0.298 OA
ENDBRANCH   2   4
ENDBRANCH   1   2
BRANCH   1   7
HETATM    7  C10 UNL     1     -34.210  15.901  -2.828  1.00 20.00    -0.018 C 
HETATM    8  C5  UNL     1     -32.966  16.796  -2.763  1.00 20.00     0.010 C 
BRANCH   7   9
HETATM    9  C7  UNL     1     -35.183  16.210  -1.671  1.00 20.00     0.004 C 
BRANCH   9  10
HETATM   10  C6  UNL     1     -34.745  17.342  -0.736  1.00 20.00    -0.004 C 
HETATM   11  C3  UNL     1     -35.469  17.262   0.600  1.00 20.00     0.005 C 
ENDBRANCH   9  10
ENDBRANCH   7   9
ENDBRANCH   1   7
TORSDOF 5
ENDMDL
MODEL 3
REMARK VINA RESULT:      -4.5      0.848      1.153
REMARK  5 active torsions:
REMARK  status: ('A' for Active; 'I' for Inactive)
REMARK    1  A    between atoms: C1_1  and  C9_9 
REMARK    2  A    between atoms: C6_6  and  C7_7 
REMARK    3  A    between atoms: C7_7  and  C10_10 
REMARK    4  A    between atoms: C8_8  and  C9_9 
REMARK    5  A    between atoms: C8_8  and  C10_10 
ROOT
HETATM    1  C8  UNL     1     -34.948  16.168  -3.751  1.00 20.00     0.016 C 
ENDROOT
BRANCH   1   2
HETATM    2  C9  UNL     1     -34.640  14.662  -3.660  1.00 20.00     0.051 C 
HETATM    3  C4  UNL     1     -33.401  14.261  -4.454  1.00 20.00     0.018 C 
BRANCH   2   4
HETATM    4  C1  UNL     1     -35.832  13.853  -4.168  1.00 20.00     0.126 C 
HETATM    5  C2  UNL     1     -37.150  14.578  -4.275  1.00 20.00     0.091 C 
HETATM    6  O11 UNL     1     -35.732  12.674  -4.506  1.00 20.00    -0.298 OA
ENDBRANCH   2   4
ENDBRANCH   1   2
BRANCH   1   7
HETATM    7  C10 UNL     1     -34.481  17.021  -2.553  1.00 20.00    -0.018 C 
HETATM    8  C5  UNL     1     -35.179  16.537  -1.275  1.00 20.00     0.010 C 
BRANCH   7   9
HETATM    9  C7  UNL     1     -32.951  17.077  -2.369  1.00 20.00     0.004 C 
BRANCH   9  10
HETATM   10  C6  UNL     1     -32.397  18.437  -1.933  1.00 20.00    -0.004 C 
HETATM   11  C3  UNL     1     -31.530  18.305  -0.688  1.00 20.00     0.005 C 
ENDBRANCH   9  10
ENDBRANCH   7   9
ENDBRANCH   1   7
TORSDOF 5
ENDMDL
MODEL 4
REMARK VINA RESULT:      -4.4      1.349      1.951
REMARK  5 active torsions:
REMARK  status: ('A' for Active; 'I' for Inactive)
REMARK    1  A    between atoms: C1_1  and  C9_9 
REMARK    2  A    between atoms: C6_6  and  C7_7 
REMARK    3  A    between atoms: C7_7  and  C10_10 
REMARK    4  A    between atoms: C8_8  and  C9_9 
REMARK    5  A    between atoms: C8_8  and  C10_10 
ROOT
HETATM    1  C8  UNL     1     -35.073  15.919  -3.288  1.00 20.00     0.016 C 
ENDROOT
BRANCH   1   2
HETATM    2  C9  UNL     1     -34.661  14.534  -3.821  1.00 20.00     0.051 C 
HETATM    3  C4  UNL     1     -33.681  14.615  -4.987  1.00 20.00     0.018 C 
BRANCH   2   4
HETATM    4  C1  UNL     1     -35.898  13.759  -4.272  1.00 20.00     0.126 C 
HETATM    5  C2  UNL     1     -37.196  14.524  -4.332  1.00 20.00     0.091 C 
HETATM    6  O11 UNL     1     -35.848  12.575  -4.604  1.00 20.00    -0.298 OA
ENDBRANCH   2   4
ENDBRANCH   1   2
BRANCH   1   7
HETATM    7  C10 UNL     1     -34.362  16.377  -1.997  1.00 20.00    -0.018 C 
HETATM    8  C5  UNL     1     -33.207  17.322  -2.355  1.00 20.00     0.010 C 
BRANCH   7   9
HETATM    9  C7  UNL     1     -35.296  17.009  -0.945  1.00 20.00     0.004 C 
BRANCH   9  10
HETATM   10  C6  UNL     1     -34.691  18.172  -0.151  1.00 20.00    -0.004 C 
HETATM   11  C3  UNL     1     -34.585  17.830   1.329  1.00 20.00     0.005 C 
ENDBRANCH   9  10
ENDBRANCH   7   9
ENDBRANCH   1   7
TORSDOF 5
ENDMDL
MODEL 5
REMARK VINA RESULT:      -4.2     10.864     11.705
REMARK  5 active torsions:
REMARK  status: ('A' for Active; 'I' for Inactive)
REMARK    1  A    between atoms: C1_1  and  C9_9 
REMARK    2  A    between atoms: C6_6  and  C7_7 
REMARK    3  A    between atoms: C7_7  and  C10_10 
REMARK    4  A    between atoms: C8_8  and  C9_9 
REMARK    5  A    between atoms: C8_8  and  C10_10 
ROOT
HETATM    1  C8  UNL     1     -33.311   6.093   2.935  1.00 20.00     0.016 C 
ENDROOT
BRANCH   1   2
HETATM    2  C9  UNL     1     -34.256   6.253   4.140  1.00 20.00     0.051 C 
HETATM    3  C4  UNL     1     -33.688   7.166   5.222  1.00 20.00     0.018 C 
BRANCH   2   4
HETATM    4  C1  UNL     1     -34.554   4.887   4.757  1.00 20.00     0.126 C 
HETATM    5  C2  UNL     1     -34.904   4.866   6.224  1.00 20.00     0.091 C 
HETATM    6  O11 UNL     1     -34.542   3.849   4.096  1.00 20.00    -0.298 OA
ENDBRANCH   2   4
ENDBRANCH   1   2
BRANCH   1   7
HETATM    7  C10 UNL     1     -32.581   7.374   2.482  1.00 20.00    -0.018 C 
HETATM    8  C5  UNL     1     -31.309   7.564   3.319  1.00 20.00     0.010 C 
BRANCH   7   9
HETATM    9  C7  UNL     1     -32.271   7.432   0.972  1.00 20.00     0.004 C 
BRANCH   9  10
HETATM   10  C6  UNL     1     -32.959   8.567   0.208  1.00 20.00    -0.004 C 
HETATM   11  C3  UNL     1     -33.202   9.769   1.111  1.00 20.00     0.005 C 
ENDBRANCH   9  10
ENDBRANCH   7   9
ENDBRANCH   1   7
TORSDOF 5
ENDMDL
MODEL 6
REMARK VINA RESULT:      -4.1      2.757      5.508
REMARK  5 active torsions:
REMARK  status: ('A' for Active; 'I' for Inactive)
REMARK    1  A    between atoms: C1_1  and  C9_9 
REMARK    2  A    between atoms: C6_6  and  C7_7 
REMARK    3  A    between atoms: C7_7  and  C10_10 
REMARK    4  A    between atoms: C8_8  and  C9_9 
REMARK    5  A    between atoms: C8_8  and  C10_10 
ROOT
HETATM    1  C8  UNL     1     -32.959  16.810  -2.381  1.00 20.00     0.016 C 
ENDROOT
BRANCH   1   2
HETATM    2  C9  UNL     1     -32.917  18.259  -1.861  1.00 20.00     0.051 C 
HETATM    3  C4  UNL     1     -32.511  19.263  -2.936  1.00 20.00     0.018 C 
BRANCH   2   4
HETATM    4  C1  UNL     1     -31.939  18.367  -0.693  1.00 20.00     0.126 C 
HETATM    5  C2  UNL     1     -32.537  18.564   0.678  1.00 20.00     0.091 C 
HETATM    6  O11 UNL     1     -30.721  18.270  -0.842  1.00 20.00    -0.298 OA
ENDBRANCH   2   4
ENDBRANCH   1   2
BRANCH   1   7
HETATM    7  C10 UNL     1     -34.318  16.091  -2.250  1.00 20.00    -0.018 C 
HETATM    8  C5  UNL     1     -35.231  16.886  -1.307  1.00 20.00     0.010 C 
BRANCH   7   9
HETATM    9  C7  UNL     1     -35.018  15.801  -3.594  1.00 20.00     0.004 C 
BRANCH   9  10
HETATM   10  C6  UNL     1     -34.743  14.415  -4.186  1.00 20.00    -0.004 C 
HETATM   11  C3  UNL     1     -36.040  13.659  -4.440  1.00 20.00     0.005 C 
ENDBRANCH   9  10
ENDBRANCH   7   9
ENDBRANCH   1   7
TORSDOF 5
ENDMDL
MODEL 7
REMARK VINA RESULT:      -4.1      1.328      1.937
REMARK  5 active torsions:
REMARK  status: ('A' for Active; 'I' for Inactive)
REMARK    1  A    between atoms: C1_1  and  C9_9 
REMARK    2  A    between atoms: C6_6  and  C7_7 
REMARK    3  A    between atoms: C7_7  and  C10_10 
REMARK    4  A    between atoms: C8_8  and  C9_9 
REMARK    5  A    between atoms: C8_8  and  C10_10 
ROOT
HETATM    1  C8  UNL     1     -34.655  15.402  -2.699  1.00 20.00     0.016 C 
ENDROOT
BRANCH   1   2
HETATM    2  C9  UNL     1     -35.169  15.270  -4.144  1.00 20.00     0.051 C 
HETATM    3  C4  UNL     1     -36.394  14.368  -4.258  1.00 20.00     0.018 C 
BRANCH   2   4
HETATM    4  C1  UNL     1     -34.066  14.717  -5.044  1.00 20.00     0.126 C 
HETATM    5  C2  UNL     1     -34.107  15.120  -6.497  1.00 20.00     0.091 C 
HETATM    6  O11 UNL     1     -33.162  14.001  -4.614  1.00 20.00    -0.298 OA
ENDBRANCH   2   4
ENDBRANCH   1   2
BRANCH   1   7
HETATM    7  C10 UNL     1     -34.531  16.843  -2.162  1.00 20.00    -0.018 C 
HETATM    8  C5  UNL     1     -35.266  16.957  -0.819  1.00 20.00     0.010 C 
BRANCH   7   9
HETATM    9  C7  UNL     1     -33.081  17.360  -2.051  1.00 20.00     0.004 C 
BRANCH   9  10
HETATM   10  C6  UNL     1     -32.786  18.211  -0.812  1.00 20.00    -0.004 C 
HETATM   11  C3  UNL     1     -31.286  18.346  -0.583  1.00 20.00     0.005 C 
ENDBRANCH   9  10
ENDBRANCH   7   9
ENDBRANCH   1   7
TORSDOF 5
ENDMDL
MODEL 8
REMARK VINA RESULT:      -4.1     10.847     11.862
REMARK  5 active torsions:
REMARK  status: ('A' for Active; 'I' for Inactive)
REMARK    1  A    between atoms: C1_1  and  C9_9 
REMARK    2  A    between atoms: C6_6  and  C7_7 
REMARK    3  A    between atoms: C7_7  and  C10_10 
REMARK    4  A    between atoms: C8_8  and  C9_9 
REMARK    5  A    between atoms: C8_8  and  C10_10 
ROOT
HETATM    1  C8  UNL     1     -33.839   6.604   2.805  1.00 20.00     0.016 C 
ENDROOT
BRANCH   1   2
HETATM    2  C9  UNL     1     -32.396   7.012   2.455  1.00 20.00     0.051 C 
HETATM    3  C4  UNL     1     -31.683   7.714   3.606  1.00 20.00     0.018 C 
BRANCH   2   4
HETATM    4  C1  UNL     1     -32.394   7.936   1.238  1.00 20.00     0.126 C 
HETATM    5  C2  UNL     1     -33.246   9.177   1.327  1.00 20.00     0.091 C 
HETATM    6  O11 UNL     1     -31.711   7.709   0.240  1.00 20.00    -0.298 OA
ENDBRANCH   2   4
ENDBRANCH   1   2
BRANCH   1   7
HETATM    7  C10 UNL     1     -34.093   5.087   2.934  1.00 20.00    -0.018 C 
HETATM    8  C5  UNL     1     -32.945   4.315   2.271  1.00 20.00     0.010 C 
BRANCH   7   9
HETATM    9  C7  UNL     1     -34.333   4.602   4.379  1.00 20.00     0.004 C 
BRANCH   9  10
HETATM   10  C6  UNL     1     -35.090   5.584   5.279  1.00 20.00    -0.004 C 
HETATM   11  C3  UNL     1     -34.129   6.393   6.140  1.00 20.00     0.005 C 
ENDBRANCH   9  10
ENDBRANCH   7   9
ENDBRANCH   1   7
TORSDOF 5
ENDMDL
MODEL 9
REMARK VINA RESULT:      -4.0     11.124     12.091
REMARK  5 active torsions:
REMARK  status: ('A' for Active; 'I' for Inactive)
REMARK    1  A    between atoms: C1_1  and  C9_9 
REMARK    2  A    between atoms: C6_6  and  C7_7 
REMARK    3  A    between atoms: C7_7  and  C10_10 
REMARK    4  A    between atoms: C8_8  and  C9_9 
REMARK    5  A    between atoms: C8_8  and  C10_10 
ROOT
HETATM    1  C8  UNL     1     -33.763   6.714   3.542  1.00 20.00     0.016 C 
ENDROOT
BRANCH   1   2
HETATM    2  C9  UNL     1     -34.568   5.618   4.263  1.00 20.00     0.051 C 
HETATM    3  C4  UNL     1     -36.039   5.598   3.858  1.00 20.00     0.018 C 
BRANCH   2   4
HETATM    4  C1  UNL     1     -34.478   5.812   5.776  1.00 20.00     0.126 C 
HETATM    5  C2  UNL     1     -33.785   7.061   6.261  1.00 20.00     0.091 C 
HETATM    6  O11 UNL     1     -34.969   5.014   6.573  1.00 20.00    -0.298 OA
ENDBRANCH   2   4
ENDBRANCH   1   2
BRANCH   1   7
HETATM    7  C10 UNL     1     -32.608   6.218   2.648  1.00 20.00    -0.018 C 
HETATM    8  C5  UNL     1     -32.977   4.858   2.040  1.00 20.00     0.010 C 
BRANCH   7   9
HETATM    9  C7  UNL     1     -32.170   7.218   1.557  1.00 20.00     0.004 C 
BRANCH   9  10
HETATM   10  C6  UNL     1     -33.069   8.449   1.403  1.00 20.00    -0.004 C 
HETATM   11  C3  UNL     1     -33.246   8.820  -0.063  1.00 20.00     0.005 C 
ENDBRANCH   9  10
ENDBRANCH   7   9
ENDBRANCH   1   7
TORSDOF 5
ENDMDL
