MODEL 1
REMARK VINA RESULT:      -4.6      0.000      0.000
REMARK  5 active torsions:
REMARK  status: ('A' for Active; 'I' for Inactive)
REMARK    1  A    between atoms: C1_1  and  C9_9 
REMARK    2  A    between atoms: C6_6  and  C7_7 
REMARK    3  A    between atoms: C7_7  and  C10_10 
REMARK    4  A    between atoms: C8_8  and  C9_9 
REMARK    5  A    between atoms: C8_8  and  C10_10 
ROOT
HETATM    1  C8  UNL     1     -33.987   6.946   3.450  1.00 20.00     0.016 C 
ENDROOT
BRANCH   1   2
HETATM    2  C9  UNL     1     -34.606   5.640   3.984  1.00 20.00     0.051 C 
HETATM    3  C4  UNL     1     -33.908   4.393   3.451  1.00 20.00     0.018 C 
BRANCH   2   4
HETATM    4  C1  UNL     1     -34.548   5.621   5.510  1.00 20.00     0.126 C 
HETATM    5  C2  UNL     1     -34.060   6.877   6.186  1.00 20.00     0.091 C 
HETATM    6  O11 UNL     1     -34.908   4.648   6.171  1.00 20.00    -0.298 OA
ENDBRANCH   2   4
ENDBRANCH   1   2
BRANCH   1   7
HETATM    7  C10 UNL     1     -32.575   6.816   2.841  1.00 20.00    -0.018 C 
HETATM    8  C5  UNL     1     -31.574   7.610   3.691  1.00 20.00     0.010 C 
BRANCH   7   9
HETATM    9  C7  UNL     1     -32.477   7.210   1.353  1.00 20.00     0.004 C 
BRANCH   9  10
HETATM   10  C6  UNL     1     -32.812   8.672   1.041  1.00 20.00    -0.004 C 
HETATM   11  C3  UNL     1     -33.408   8.815  -0.351  1.00 20.00     0.005 C 
ENDBRANCH   9  10
ENDBRANCH   7   9
ENDBRANCH   1   7
TORSDOF 5
ENDMDL
MODEL 2
REMARK VINA RESULT:      -4.6     10.868     11.721
REMARK  5 active torsions:
REMARK  status: ('A' for Active; 'I' for Inactive)
REMARK    1  A    between atoms: C1_1  and  C9_9 
REMARK    2  A    between atoms: C6_6  and  C7_7 
REMARK    3  A    between atoms: C7_7  and  C10_10 
REMARK    4  A    between atoms: C8_8  and  C9_9 
REMARK    5  A    between atoms: C8_8  and  C10_10 
ROOT
HETATM    1  C8  UNL     1     -34.911  16.114  -3.866  1.00 20.00     0.016 C 
ENDROOT
BRANCH   1   2
HETATM    2  C9  UNL     1     -34.711  14.821  -4.679  1.00 20.00     0.051 C 
HETATM    3  C4  UNL     1     -33.419  14.092  -4.324  1.00 20.00     0.018 C 
BRANCH   2   4
HETATM    4  C1  UNL     1     -35.888  13.875  -4.452  1.00 20.00     0.126 C 
HETATM    5  C2  UNL     1     -37.240  14.510  -4.247  1.00 20.00     0.091 C 
HETATM    6  O11 UNL     1     -35.761  12.651  -4.463  1.00 20.00    -0.298 OA
ENDBRANCH   2   4
ENDBRANCH   1   2
BRANCH   1   7
HETATM    7  C10 UNL     1     -34.207  16.157  -2.494  1.00 20.00    -0.018 C 
HETATM    8  C5  UNL     1     -35.234  16.471  -1.399  1.00 20.00     0.010 C 
BRANCH   7   9
HETATM    9  C7  UNL     1     -33.001  17.117  -2.419  1.00 20.00     0.004 C 
BRANCH   9  10
HETATM   10  C6  UNL     1     -32.953  18.007  -1.173  1.00 20.00    -0.004 C 
HETATM   11  C3  UNL     1     -31.518  18.293  -0.757  1.00 20.00     0.005 C 
ENDBRANCH   9  10
ENDBRANCH   7   9
ENDBRANCH   1   7
TORSDOF 5
ENDMDL
MODEL 3
REMARK VINA RESULT:      -4.4     10.955     11.968
REMARK  5 active torsions:
REMARK  status: ('A' for Active; 'I' for Inactive)
REMARK    1  A    between atoms: C1_1  and  C9_9 
REMARK    2  A    between atoms: C6_6  and  C7_7 
REMARK    3  A    between atoms: C7_7  and  C10_10 
REMARK    4  A    between atoms: C8_8  and  C9_9 
REMARK    5  A    between atoms: C8_8  and  C10_10 
ROOT
HETATM    1  C8  UNL     1     -34.931  15.138  -2.943  1.00 20.00     0.016 C 
ENDROOT
BRANCH   1   2
HETATM    2  C9  UNL     1     -36.207  15.033  -3.800  1.00 20.00     0.051 C 
HETATM    3  C4  UNL     1     -36.564  16.344  -4.493  1.00 20.00     0.018 C 
BRANCH   2   4
HETATM    4  C1  UNL     1     -36.037  13.947  -4.860  1.00 20.00     0.126 C 
HETATM    5  C2  UNL     1     -35.870  14.410  -6.285  1.00 20.00     0.091 C 
HETATM    6  O11 UNL     1     -36.005  12.749  -4.578  1.00 20.00    -0.298 OA
ENDBRANCH   2   4
ENDBRANCH   1   2
BRANCH   1   7
HETATM    7  C10 UNL     1     -33.755  15.902  -3.586  1.00 20.00    -0.018 C 
HETATM    8  C5  UNL     1     -32.745  14.901  -4.161  1.00 20.00     0.010 C 
BRANCH   7   9
HETATM    9  C7  UNL     1     -33.064  16.920  -2.655  1.00 20.00     0.004 C 
BRANCH   9  10
HETATM   10  C6  UNL     1     -33.910  17.402  -1.473  1.00 20.00    -0.004 C 
HETATM   11  C3  UNL     1     -33.093  18.273  -0.531  1.00 20.00     0.005 C 
ENDBRANCH   9  10
ENDBRANCH   7   9
ENDBRANCH   1   7
TORSDOF 5
ENDMDL
MODEL 4
REMARK VINA RESULT:      -4.4      2.341      4.945
REMARK  5 active torsions:
REMARK  status: ('A' for Active; 'I' for Inactive)
REMARK    1  A    between atoms: C1_1  and  C9_9 
REMARK    2  A    between atoms: C6_6  and  C7_7 
REMARK    3  A    between atoms: C7_7  and  C10_10 
REMARK    4  A    between atoms: C8_8  and  C9_9 
REMARK    5  A    between atoms: C8_8  and  C10_10 
ROOT
HETATM    1  C8  UNL     1     -33.271   5.929   2.160  1.00 20.00     0.016 C 
ENDROOT
BRANCH   1   2
HETATM    2  C9  UNL     1     -32.877   7.390   2.444  1.00 20.00     0.051 C 
HETATM    3  C4  UNL     1     -31.708   7.510   3.417  1.00 20.00     0.018 C 
BRANCH   2   4
HETATM    4  C1  UNL     1     -32.506   8.094   1.141  1.00 20.00     0.126 C 
HETATM    5  C2  UNL     1     -33.199   9.402   0.854  1.00 20.00     0.091 C 
HETATM    6  O11 UNL     1     -31.661   7.645   0.366  1.00 20.00    -0.298 OA
ENDBRANCH   2   4
ENDBRANCH   1   2
BRANCH   1   7
HETATM    7  C10 UNL     1     -33.637   5.082   3.397  1.00 20.00    -0.018 C 
HETATM    8  C5  UNL     1     -33.701   3.600   3.004  1.00 20.00     0.010 C 
BRANCH   7   9
HETATM    9  C7  UNL     1     -34.927   5.523   4.119  1.00 20.00     0.004 C 
BRANCH   9  10
HETATM   10  C6  UNL     1     -34.851   5.519   5.649  1.00 20.00    -0.004 C 
HETATM   11  C3  UNL     1     -34.042   6.700   6.163  1.00 20.00     0.005 C 
ENDBRANCH   9  10
ENDBRANCH   7   9
ENDBRANCH   1   7
TORSDOF 5
ENDMDL
MODEL 5
REMARK VINA RESULT:      -4.4     11.033     11.826
REMARK  5 active torsions:
REMARK  status: ('A' for Active; 'I' for Inactive)
REMARK    1  A    between atoms: C1_1  and  C9_9 
REMARK    2  A    between atoms: C6_6  and  C7_7 
REMARK    3  A    between atoms: C7_7  and  C10_10 
REMARK    4  A    between atoms: C8_8  and  C9_9 
REMARK    5  A    between atoms: C8_8  and  C10_10 
ROOT
HETATM    1  C8  UNL     1     -34.132  15.177  -3.688  1.00 20.00     0.016 C 
ENDROOT
BRANCH   1   2
HETATM    2  C9  UNL     1     -35.129  15.066  -4.857  1.00 20.00     0.051 C 
HETATM    3  C4  UNL     1     -34.449  14.769  -6.189  1.00 20.00     0.018 C 
BRANCH   2   4
HETATM    4  C1  UNL     1     -36.150  13.967  -4.570  1.00 20.00     0.126 C 
HETATM    5  C2  UNL     1     -37.564  14.410  -4.291  1.00 20.00     0.091 C 
HETATM    6  O11 UNL     1     -35.856  12.772  -4.592  1.00 20.00    -0.298 OA
ENDBRANCH   2   4
ENDBRANCH   1   2
BRANCH   1   7
HETATM    7  C10 UNL     1     -34.282  16.428  -2.797  1.00 20.00    -0.018 C 
HETATM    8  C5  UNL     1     -32.894  16.954  -2.412  1.00 20.00     0.010 C 
BRANCH   7   9
HETATM    9  C7  UNL     1     -35.168  16.227  -1.550  1.00 20.00     0.004 C 
BRANCH   9  10
HETATM   10  C6  UNL     1     -35.515  17.507  -0.784  1.00 20.00    -0.004 C 
HETATM   11  C3  UNL     1     -35.361  17.309   0.717  1.00 20.00     0.005 C 
ENDBRANCH   9  10
ENDBRANCH   7   9
ENDBRANCH   1   7
TORSDOF 5
ENDMDL
MODEL 6
REMARK VINA RESULT:      -4.3     10.921     12.009
REMARK  5 active torsions:
REMARK  status: ('A' for Active; 'I' for Inactive)
REMARK    1  A    between atoms: C1_1  and  C9_9 
REMARK    2  A    between atoms: C6_6  and  C7_7 
REMARK    3  A    between atoms: C7_7  and  C10_10 
REMARK    4  A    between atoms: C8_8  and  C9_9 
REMARK    5  A    between atoms: C8_8  and  C10_10 
ROOT
HETATM    1  C8  UNL     1     -35.231  15.132  -2.794  1.00 20.00     0.016 C 
ENDROOT
BRANCH   1   2
HETATM    2  C9  UNL     1     -36.380  15.013  -3.813  1.00 20.00     0.051 C 
HETATM    3  C4  UNL     1     -36.703  16.337  -4.499  1.00 20.00     0.018 C 
BRANCH   2   4
HETATM    4  C1  UNL     1     -36.027  13.980  -4.880  1.00 20.00     0.126 C 
HETATM    5  C2  UNL     1     -35.690  14.509  -6.252  1.00 20.00     0.091 C 
HETATM    6  O11 UNL     1     -35.984  12.773  -4.642  1.00 20.00    -0.298 OA
ENDBRANCH   2   4
ENDBRANCH   1   2
BRANCH   1   7
HETATM    7  C10 UNL     1     -34.343  16.386  -2.931  1.00 20.00    -0.018 C 
HETATM    8  C5  UNL     1     -32.967  15.984  -3.479  1.00 20.00     0.010 C 
BRANCH   7   9
HETATM    9  C7  UNL     1     -34.207  17.223  -1.643  1.00 20.00     0.004 C 
BRANCH   9  10
HETATM   10  C6  UNL     1     -35.274  16.956  -0.577  1.00 20.00    -0.004 C 
HETATM   11  C3  UNL     1     -36.423  17.947  -0.687  1.00 20.00     0.005 C 
ENDBRANCH   9  10
ENDBRANCH   7   9
ENDBRANCH   1   7
TORSDOF 5
ENDMDL
MODEL 7
REMARK VINA RESULT:      -4.2     10.992     12.241
REMARK  5 active torsions:
REMARK  status: ('A' for Active; 'I' for Inactive)
REMARK    1  A    between atoms: C1_1  and  C9_9 
REMARK    2  A    between atoms: C6_6  and  C7_7 
REMARK    3  A    between atoms: C7_7  and  C10_10 
REMARK    4  A    between atoms: C8_8  and  C9_9 
REMARK    5  A    between atoms: C8_8  and  C10_10 
ROOT
HETATM    1  C8  UNL     1     -33.175  16.314  -3.009  1.00 20.00     0.016 C 
ENDROOT
BRANCH   1   2
HETATM    2  C9  UNL     1     -34.405  15.390  -2.939  1.00 20.00     0.051 C 
HETATM    3  C4  UNL     1     -35.723  16.157  -2.947  1.00 20.00     0.018 C 
BRANCH   2   4
HETATM    4  C1  UNL     1     -34.395  14.417  -4.116  1.00 20.00     0.126 C 
HETATM    5  C2  UNL     1     -33.935  14.964  -5.444  1.00 20.00     0.091 C 
HETATM    6  O11 UNL     1     -34.714  13.235  -3.998  1.00 20.00    -0.298 OA
ENDBRANCH   2   4
ENDBRANCH   1   2
BRANCH   1   7
HETATM    7  C10 UNL     1     -33.380  17.743  -2.464  1.00 20.00    -0.018 C 
HETATM    8  C5  UNL     1     -32.717  18.754  -3.408  1.00 20.00     0.010 C 
BRANCH   7   9
HETATM    9  C7  UNL     1     -32.912  17.949  -1.008  1.00 20.00     0.004 C 
BRANCH   9  10
HETATM   10  C6  UNL     1     -31.523  18.577  -0.853  1.00 20.00    -0.004 C 
HETATM   11  C3  UNL     1     -30.923  18.257   0.507  1.00 20.00     0.005 C 
ENDBRANCH   9  10
ENDBRANCH   7   9
ENDBRANCH   1   7
TORSDOF 5
ENDMDL
MODEL 8
REMARK VINA RESULT:      -4.1     11.101     12.266
REMARK  5 active torsions:
REMARK  status: ('A' for Active; 'I' for Inactive)
REMARK    1  A    between atoms: C1_1  and  C9_9 
REMARK    2  A    between atoms: C6_6  and  C7_7 
REMARK    3  A    between atoms: C7_7  and  C10_10 
REMARK    4  A    between atoms: C8_8  and  C9_9 
REMARK    5  A    between atoms: C8_8  and  C10_10 
ROOT
HETATM    1  C8  UNL     1     -35.356  14.893  -3.847  1.00 20.00     0.016 C 
ENDROOT
BRANCH   1   2
HETATM    2  C9  UNL     1     -36.622  15.739  -4.083  1.00 20.00     0.051 C 
HETATM    3  C4  UNL     1     -36.519  16.628  -5.318  1.00 20.00     0.018 C 
BRANCH   2   4
HETATM    4  C1  UNL     1     -37.838  14.828  -4.233  1.00 20.00     0.126 C 
HETATM    5  C2  UNL     1     -39.193  15.482  -4.131  1.00 20.00     0.091 C 
HETATM    6  O11 UNL     1     -37.735  13.622  -4.458  1.00 20.00    -0.298 OA
ENDBRANCH   2   4
ENDBRANCH   1   2
BRANCH   1   7
HETATM    7  C10 UNL     1     -34.380  15.432  -2.781  1.00 20.00    -0.018 C 
HETATM    8  C5  UNL     1     -35.142  16.325  -1.792  1.00 20.00     0.010 C 
BRANCH   7   9
HETATM    9  C7  UNL     1     -33.143  16.159  -3.348  1.00 20.00     0.004 C 
BRANCH   9  10
HETATM   10  C6  UNL     1     -32.919  17.577  -2.816  1.00 20.00    -0.004 C 
HETATM   11  C3  UNL     1     -33.127  18.614  -3.909  1.00 20.00     0.005 C 
ENDBRANCH   9  10
ENDBRANCH   7   9
ENDBRANCH   1   7
TORSDOF 5
ENDMDL
MODEL 9
REMARK VINA RESULT:      -4.1     11.349     12.377
REMARK  5 active torsions:
REMARK  status: ('A' for Active; 'I' for Inactive)
REMARK    1  A    between atoms: C1_1  and  C9_9 
REMARK    2  A    between atoms: C6_6  and  C7_7 
REMARK    3  A    between atoms: C7_7  and  C10_10 
REMARK    4  A    between atoms: C8_8  and  C9_9 
REMARK    5  A    between atoms: C8_8  and  C10_10 
ROOT
HETATM    1  C8  UNL     1     -33.903  17.254  -1.849  1.00 20.00     0.016 C 
ENDROOT
BRANCH   1   2
HETATM    2  C9  UNL     1     -32.540  17.925  -2.106  1.00 20.00     0.051 C 
HETATM    3  C4  UNL     1     -32.654  19.195  -2.944  1.00 20.00     0.018 C 
BRANCH   2   4
HETATM    4  C1  UNL     1     -31.870  18.272  -0.778  1.00 20.00     0.126 C 
HETATM    5  C2  UNL     1     -32.779  18.479   0.407  1.00 20.00     0.091 C 
HETATM    6  O11 UNL     1     -30.648  18.352  -0.658  1.00 20.00    -0.298 OA
ENDBRANCH   2   4
ENDBRANCH   1   2
BRANCH   1   7
HETATM    7  C10 UNL     1     -34.118  15.892  -2.541  1.00 20.00    -0.018 C 
HETATM    8  C5  UNL     1     -33.047  15.689  -3.620  1.00 20.00     0.010 C 
BRANCH   7   9
HETATM    9  C7  UNL     1     -35.535  15.679  -3.114  1.00 20.00     0.004 C 
BRANCH   9  10
HETATM   10  C6  UNL     1     -35.730  14.380  -3.902  1.00 20.00    -0.004 C 
HETATM   11  C3  UNL     1     -36.185  14.664  -5.326  1.00 20.00     0.005 C 
ENDBRANCH   9  10
ENDBRANCH   7   9
ENDBRANCH   1   7
TORSDOF 5
ENDMDL
