MODEL 1
REMARK VINA RESULT:      -5.1      0.000      0.000
REMARK  2 active torsions:
REMARK  status: ('A' for Active; 'I' for Inactive)
REMARK    1  A    between atoms: C1_1  and  C5_5 
REMARK    2  A    between atoms: C6_6  and  C7_7 
ROOT
HETATM    1  C4  UNL     1     -34.038  14.579  -4.166  1.00 20.00     0.021 A 
HETATM    2  C5  UNL     1     -35.510  14.787  -4.410  1.00 20.00     0.091 A 
HETATM    3  C7  UNL     1     -34.897  15.162  -3.075  1.00 20.00     0.005 A 
ENDROOT
BRANCH   2   4
HETATM    4  C1  UNL     1     -36.358  13.612  -4.452  1.00 20.00     0.177 C 
HETATM    5  O8  UNL     1     -35.748  12.507  -4.444  1.00 20.00    -0.648 OA
HETATM    6  O9  UNL     1     -37.596  13.854  -4.490  1.00 20.00    -0.648 OA
ENDBRANCH   2   4
BRANCH   3   7
HETATM    7  C6  UNL     1     -34.769  16.606  -2.616  1.00 20.00    -0.010 A 
HETATM    8  C2  UNL     1     -34.878  17.011  -1.172  1.00 20.00     0.005 A 
HETATM    9  C3  UNL     1     -33.560  17.123  -1.886  1.00 20.00     0.005 A 
ENDBRANCH   3   7
TORSDOF 2
ENDMDL
MODEL 2
REMARK VINA RESULT:      -4.4     17.926     18.345
REMARK  2 active torsions:
REMARK  status: ('A' for Active; 'I' for Inactive)
REMARK    1  A    between atoms: C1_1  and  C5_5 
REMARK    2  A    between atoms: C6_6  and  C7_7 
ROOT
HETATM    1  C4  UNL     1     -23.941  16.364  10.367  1.00 20.00     0.021 A 
HETATM    2  C5  UNL     1     -22.949  17.497  10.376  1.00 20.00     0.091 A 
HETATM    3  C7  UNL     1     -24.434  17.781  10.492  1.00 20.00     0.005 A 
ENDROOT
BRANCH   2   4
HETATM    4  C1  UNL     1     -22.298  17.830   9.125  1.00 20.00     0.177 C 
HETATM    5  O8  UNL     1     -21.949  19.037   9.003  1.00 20.00    -0.648 OA
HETATM    6  O9  UNL     1     -22.167  16.864   8.323  1.00 20.00    -0.648 OA
ENDBRANCH   2   4
BRANCH   3   7
HETATM    7  C6  UNL     1     -25.062  18.323  11.766  1.00 20.00    -0.010 A 
HETATM    8  C2  UNL     1     -26.249  19.246  11.757  1.00 20.00     0.005 A 
HETATM    9  C3  UNL     1     -26.391  17.845  12.283  1.00 20.00     0.005 A 
ENDBRANCH   3   7
TORSDOF 2
ENDMDL
MODEL 3
REMARK VINA RESULT:      -4.3      9.834     10.436
REMARK  2 active torsions:
REMARK  status: ('A' for Active; 'I' for Inactive)
REMARK    1  A    between atoms: C1_1  and  C5_5 
REMARK    2  A    between atoms: C6_6  and  C7_7 
ROOT
HETATM    1  C4  UNL     1     -31.992   7.319   3.398  1.00 20.00     0.021 A 
HETATM    2  C5  UNL     1     -32.687   6.186   2.691  1.00 20.00     0.091 A 
HETATM    3  C7  UNL     1     -32.934   7.620   2.263  1.00 20.00     0.005 A 
ENDROOT
BRANCH   2   4
HETATM    4  C1  UNL     1     -33.753   5.504   3.398  1.00 20.00     0.177 C 
HETATM    5  O8  UNL     1     -34.308   6.175   4.312  1.00 20.00    -0.648 OA
HETATM    6  O9  UNL     1     -33.982   4.327   3.003  1.00 20.00    -0.648 OA
ENDBRANCH   2   4
BRANCH   3   7
HETATM    7  C6  UNL     1     -32.459   8.163   0.925  1.00 20.00    -0.010 A 
HETATM    8  C2  UNL     1     -33.372   8.311  -0.261  1.00 20.00     0.005 A 
HETATM    9  C3  UNL     1     -32.829   9.533   0.427  1.00 20.00     0.005 A 
ENDBRANCH   3   7
TORSDOF 2
ENDMDL
MODEL 4
REMARK VINA RESULT:      -4.2     16.248     17.546
REMARK  2 active torsions:
REMARK  status: ('A' for Active; 'I' for Inactive)
REMARK    1  A    between atoms: C1_1  and  C5_5 
REMARK    2  A    between atoms: C6_6  and  C7_7 
ROOT
HETATM    1  C4  UNL     1     -22.463  17.498   9.102  1.00 20.00     0.021 A 
HETATM    2  C5  UNL     1     -23.565  18.524   9.121  1.00 20.00     0.091 A 
HETATM    3  C7  UNL     1     -23.792  17.149   9.719  1.00 20.00     0.005 A 
ENDROOT
BRANCH   2   4
HETATM    4  C1  UNL     1     -24.225  18.826   7.866  1.00 20.00     0.177 C 
HETATM    5  O8  UNL     1     -25.404  19.263   7.968  1.00 20.00    -0.648 OA
HETATM    6  O9  UNL     1     -23.526  18.610   6.836  1.00 20.00    -0.648 OA
ENDBRANCH   2   4
BRANCH   3   7
HETATM    7  C6  UNL     1     -23.970  16.932  11.213  1.00 20.00    -0.010 A 
HETATM    8  C2  UNL     1     -25.316  16.963  11.883  1.00 20.00     0.005 A 
HETATM    9  C3  UNL     1     -24.555  15.670  11.786  1.00 20.00     0.005 A 
ENDBRANCH   3   7
TORSDOF 2
ENDMDL
MODEL 5
REMARK VINA RESULT:      -4.0     11.423     12.016
REMARK  2 active torsions:
REMARK  status: ('A' for Active; 'I' for Inactive)
REMARK    1  A    between atoms: C1_1  and  C5_5 
REMARK    2  A    between atoms: C6_6  and  C7_7 
ROOT
HETATM    1  C4  UNL     1     -33.653   5.038   2.505  1.00 20.00     0.021 A 
HETATM    2  C5  UNL     1     -32.861   5.995   3.357  1.00 20.00     0.091 A 
HETATM    3  C7  UNL     1     -34.373   5.947   3.466  1.00 20.00     0.005 A 
ENDROOT
BRANCH   2   4
HETATM    4  C1  UNL     1     -32.272   7.148   2.704  1.00 20.00     0.177 C 
HETATM    5  O8  UNL     1     -32.616   7.320   1.502  1.00 20.00    -0.648 OA
HETATM    6  O9  UNL     1     -31.493   7.825   3.430  1.00 20.00    -0.648 OA
ENDBRANCH   2   4
BRANCH   3   7
HETATM    7  C6  UNL     1     -35.082   5.430   4.707  1.00 20.00    -0.010 A 
HETATM    8  C2  UNL     1     -34.424   4.506   5.694  1.00 20.00     0.005 A 
HETATM    9  C3  UNL     1     -34.754   5.917   6.092  1.00 20.00     0.005 A 
ENDBRANCH   3   7
TORSDOF 2
ENDMDL
MODEL 6
REMARK VINA RESULT:      -4.0      1.989      2.280
REMARK  2 active torsions:
REMARK  status: ('A' for Active; 'I' for Inactive)
REMARK    1  A    between atoms: C1_1  and  C5_5 
REMARK    2  A    between atoms: C6_6  and  C7_7 
ROOT
HETATM    1  C4  UNL     1     -34.685  14.109  -3.858  1.00 20.00     0.021 A 
HETATM    2  C5  UNL     1     -34.087  14.723  -5.097  1.00 20.00     0.091 A 
HETATM    3  C7  UNL     1     -34.402  15.588  -3.892  1.00 20.00     0.005 A 
ENDROOT
BRANCH   2   4
HETATM    4  C1  UNL     1     -34.940  14.857  -6.260  1.00 20.00     0.177 C 
HETATM    5  O8  UNL     1     -34.637  15.798  -7.046  1.00 20.00    -0.648 OA
HETATM    6  O9  UNL     1     -35.875  14.011  -6.331  1.00 20.00    -0.648 OA
ENDBRANCH   2   4
BRANCH   3   7
HETATM    7  C6  UNL     1     -33.316  16.234  -3.047  1.00 20.00    -0.010 A 
HETATM    8  C2  UNL     1     -32.974  17.695  -3.144  1.00 20.00     0.005 A 
HETATM    9  C3  UNL     1     -33.621  17.156  -1.899  1.00 20.00     0.005 A 
ENDBRANCH   3   7
TORSDOF 2
ENDMDL
MODEL 7
REMARK VINA RESULT:      -3.9      3.769      5.125
REMARK  2 active torsions:
REMARK  status: ('A' for Active; 'I' for Inactive)
REMARK    1  A    between atoms: C1_1  and  C5_5 
REMARK    2  A    between atoms: C6_6  and  C7_7 
ROOT
HETATM    1  C4  UNL     1     -34.926  16.939  -1.511  1.00 20.00     0.021 A 
HETATM    2  C5  UNL     1     -33.796  17.737  -2.107  1.00 20.00     0.091 A 
HETATM    3  C7  UNL     1     -33.875  16.239  -2.332  1.00 20.00     0.005 A 
ENDROOT
BRANCH   2   4
HETATM    4  C1  UNL     1     -32.770  18.226  -1.208  1.00 20.00     0.177 C 
HETATM    5  O8  UNL     1     -33.069  18.196   0.018  1.00 20.00    -0.648 OA
HETATM    6  O9  UNL     1     -31.712  18.618  -1.774  1.00 20.00    -0.648 OA
ENDBRANCH   2   4
BRANCH   3   7
HETATM    7  C6  UNL     1     -34.168  15.636  -3.697  1.00 20.00    -0.010 A 
HETATM    8  C2  UNL     1     -33.226  14.686  -4.382  1.00 20.00     0.005 A 
HETATM    9  C3  UNL     1     -34.556  14.195  -3.881  1.00 20.00     0.005 A 
ENDBRANCH   3   7
TORSDOF 2
ENDMDL
MODEL 8
REMARK VINA RESULT:      -3.9      1.957      2.256
REMARK  2 active torsions:
REMARK  status: ('A' for Active; 'I' for Inactive)
REMARK    1  A    between atoms: C1_1  and  C5_5 
REMARK    2  A    between atoms: C6_6  and  C7_7 
ROOT
HETATM    1  C4  UNL     1     -34.592  13.883  -3.878  1.00 20.00     0.021 A 
HETATM    2  C5  UNL     1     -33.985  14.913  -4.794  1.00 20.00     0.091 A 
HETATM    3  C7  UNL     1     -34.799  15.347  -3.591  1.00 20.00     0.005 A 
ENDROOT
BRANCH   2   4
HETATM    4  C1  UNL     1     -34.583  15.083  -6.104  1.00 20.00     0.177 C 
HETATM    5  O8  UNL     1     -35.435  14.210  -6.425  1.00 20.00    -0.648 OA
HETATM    6  O9  UNL     1     -34.168  16.087  -6.748  1.00 20.00    -0.648 OA
ENDBRANCH   2   4
BRANCH   3   7
HETATM    7  C6  UNL     1     -34.173  16.044  -2.394  1.00 20.00    -0.010 A 
HETATM    8  C2  UNL     1     -34.066  17.540  -2.291  1.00 20.00     0.005 A 
HETATM    9  C3  UNL     1     -34.986  16.788  -1.370  1.00 20.00     0.005 A 
ENDBRANCH   3   7
TORSDOF 2
ENDMDL
MODEL 9
REMARK VINA RESULT:      -3.9     10.676     11.189
REMARK  2 active torsions:
REMARK  status: ('A' for Active; 'I' for Inactive)
REMARK    1  A    between atoms: C1_1  and  C5_5 
REMARK    2  A    between atoms: C6_6  and  C7_7 
ROOT
HETATM    1  C4  UNL     1     -33.150   5.474   2.388  1.00 20.00     0.021 A 
HETATM    2  C5  UNL     1     -32.421   6.770   2.629  1.00 20.00     0.091 A 
HETATM    3  C7  UNL     1     -33.647   6.419   3.450  1.00 20.00     0.005 A 
ENDROOT
BRANCH   2   4
HETATM    4  C1  UNL     1     -32.557   7.813   1.633  1.00 20.00     0.177 C 
HETATM    5  O8  UNL     1     -33.319   8.767   1.951  1.00 20.00    -0.648 OA
HETATM    6  O9  UNL     1     -31.891   7.626   0.576  1.00 20.00    -0.648 OA
ENDBRANCH   2   4
BRANCH   3   7
HETATM    7  C6  UNL     1     -33.569   6.100   4.934  1.00 20.00    -0.010 A 
HETATM    8  C2  UNL     1     -34.195   6.973   5.986  1.00 20.00     0.005 A 
HETATM    9  C3  UNL     1     -34.749   5.601   5.721  1.00 20.00     0.005 A 
ENDBRANCH   3   7
TORSDOF 2
ENDMDL
