MODEL 1
REMARK VINA RESULT:      -4.7      0.000      0.000
REMARK  3 active torsions:
REMARK  status: ('A' for Active; 'I' for Inactive)
REMARK    1  A    between atoms: C2_2  and  C10_10 
REMARK    2  A    between atoms: C7_7  and  N11_11 
REMARK    3  A    between atoms: C10_10  and  N11_11 
ROOT
HETATM    1  C1  UNL     1     -32.771   8.299   0.971  1.00 20.00    -0.109 C 
HETATM    2  C2  UNL     1     -32.613   7.439   1.793  1.00 20.00    -0.077 C 
HETATM    3  C8  UNL     1     -32.963   9.348  -0.030  1.00 20.00     0.112 C 
ENDROOT
BRANCH   2   4
HETATM    4  C10 UNL     1     -32.426   6.390   2.800  1.00 20.00     0.363 C 
BRANCH   4   5
HETATM    5  N11 UNL     1     -33.541   5.459   2.794  1.00 20.00     0.103 N 
HETATM    6  H28 UNL     1     -34.114   5.615   1.969  1.00 20.00     0.318 HD
BRANCH   5   7
HETATM    7  C7  UNL     1     -34.362   5.642   3.969  1.00 20.00     0.155 C 
HETATM    8  C5  UNL     1     -33.796   6.745   4.871  1.00 20.00     0.041 C 
HETATM    9  C3  UNL     1     -34.335   6.437   6.264  1.00 20.00     0.003 C 
HETATM   10  C4  UNL     1     -34.653   4.942   6.277  1.00 20.00     0.003 C 
HETATM   11  C6  UNL     1     -34.290   4.419   4.889  1.00 20.00     0.041 C 
HETATM   12  C9  UNL     1     -35.801   5.945   3.538  1.00 20.00     0.049 C 
ENDBRANCH   5   7
ENDBRANCH   4   5
ENDBRANCH   2   4
TORSDOF 3
ENDMDL
MODEL 2
REMARK VINA RESULT:      -4.6      8.618     10.413
REMARK  3 active torsions:
REMARK  status: ('A' for Active; 'I' for Inactive)
REMARK    1  A    between atoms: C2_2  and  C10_10 
REMARK    2  A    between atoms: C7_7  and  N11_11 
REMARK    3  A    between atoms: C10_10  and  N11_11 
ROOT
HETATM    1  C1  UNL     1     -42.192   3.019  -3.269  1.00 20.00    -0.109 C 
HETATM    2  C2  UNL     1     -42.659   3.732  -2.424  1.00 20.00    -0.077 C 
HETATM    3  C8  UNL     1     -41.621   2.152  -4.299  1.00 20.00     0.112 C 
ENDROOT
BRANCH   2   4
HETATM    4  C10 UNL     1     -43.226   4.606  -1.392  1.00 20.00     0.363 C 
BRANCH   4   5
HETATM    5  N11 UNL     1     -42.218   4.974  -0.413  1.00 20.00     0.103 N 
HETATM    6  H28 UNL     1     -42.209   4.294   0.342  1.00 20.00     0.318 HD
BRANCH   5   7
HETATM    7  C7  UNL     1     -42.502   6.278   0.142  1.00 20.00     0.155 C 
HETATM    8  C5  UNL     1     -43.179   7.183  -0.895  1.00 20.00     0.041 C 
HETATM    9  C3  UNL     1     -42.875   8.607  -0.440  1.00 20.00     0.003 C 
HETATM   10  C4  UNL     1     -41.610   8.521   0.413  1.00 20.00     0.003 C 
HETATM   11  C6  UNL     1     -41.209   7.048   0.432  1.00 20.00     0.041 C 
HETATM   12  C9  UNL     1     -43.362   6.116   1.400  1.00 20.00     0.049 C 
ENDBRANCH   5   7
ENDBRANCH   4   5
ENDBRANCH   2   4
TORSDOF 3
ENDMDL
MODEL 3
REMARK VINA RESULT:      -4.5     15.683     16.460
REMARK  3 active torsions:
REMARK  status: ('A' for Active; 'I' for Inactive)
REMARK    1  A    between atoms: C2_2  and  C10_10 
REMARK    2  A    between atoms: C7_7  and  N11_11 
REMARK    3  A    between atoms: C10_10  and  N11_11 
ROOT
HETATM    1  C1  UNL     1     -25.956  18.995   6.544  1.00 20.00    -0.109 C 
HETATM    2  C2  UNL     1     -25.372  19.087   7.589  1.00 20.00    -0.077 C 
HETATM    3  C8  UNL     1     -26.666  18.883   5.272  1.00 20.00     0.112 C 
ENDROOT
BRANCH   2   4
HETATM    4  C10 UNL     1     -24.659  19.206   8.865  1.00 20.00     0.363 C 
BRANCH   4   5
HETATM    5  N11 UNL     1     -25.158  18.242   9.831  1.00 20.00     0.103 N 
HETATM    6  H28 UNL     1     -25.749  18.712  10.511  1.00 20.00     0.318 HD
BRANCH   5   7
HETATM    7  C7  UNL     1     -24.063  17.609  10.528  1.00 20.00     0.155 C 
HETATM    8  C5  UNL     1     -23.918  18.167  11.949  1.00 20.00     0.041 C 
HETATM    9  C3  UNL     1     -22.463  17.908  12.332  1.00 20.00     0.003 C 
HETATM   10  C4  UNL     1     -21.691  17.794  11.018  1.00 20.00     0.003 C 
HETATM   11  C6  UNL     1     -22.716  17.989   9.904  1.00 20.00     0.041 C 
HETATM   12  C9  UNL     1     -24.278  16.091  10.535  1.00 20.00     0.049 C 
ENDBRANCH   5   7
ENDBRANCH   4   5
ENDBRANCH   2   4
TORSDOF 3
ENDMDL
MODEL 4
REMARK VINA RESULT:      -4.5     15.315     16.113
REMARK  3 active torsions:
REMARK  status: ('A' for Active; 'I' for Inactive)
REMARK    1  A    between atoms: C2_2  and  C10_10 
REMARK    2  A    between atoms: C7_7  and  N11_11 
REMARK    3  A    between atoms: C10_10  and  N11_11 
ROOT
HETATM    1  C1  UNL     1     -25.709  19.088   6.721  1.00 20.00    -0.109 C 
HETATM    2  C2  UNL     1     -25.052  19.160   7.724  1.00 20.00    -0.077 C 
HETATM    3  C8  UNL     1     -26.509  19.002   5.501  1.00 20.00     0.112 C 
ENDROOT
BRANCH   2   4
HETATM    4  C10 UNL     1     -24.251  19.253   8.949  1.00 20.00     0.363 C 
BRANCH   4   5
HETATM    5  N11 UNL     1     -23.577  17.996   9.225  1.00 20.00     0.103 N 
HETATM    6  H28 UNL     1     -23.927  17.275   8.602  1.00 20.00     0.318 HD
BRANCH   5   7
HETATM    7  C7  UNL     1     -23.813  17.584  10.590  1.00 20.00     0.155 C 
HETATM    8  C5  UNL     1     -24.289  16.127  10.651  1.00 20.00     0.041 C 
HETATM    9  C3  UNL     1     -25.052  16.012  11.967  1.00 20.00     0.003 C 
HETATM   10  C4  UNL     1     -25.515  17.426  12.316  1.00 20.00     0.003 C 
HETATM   11  C6  UNL     1     -25.009  18.328  11.194  1.00 20.00     0.041 C 
HETATM   12  C9  UNL     1     -22.537  17.797  11.410  1.00 20.00     0.049 C 
ENDBRANCH   5   7
ENDBRANCH   4   5
ENDBRANCH   2   4
TORSDOF 3
ENDMDL
MODEL 5
REMARK VINA RESULT:      -4.4     11.342     12.583
REMARK  3 active torsions:
REMARK  status: ('A' for Active; 'I' for Inactive)
REMARK    1  A    between atoms: C2_2  and  C10_10 
REMARK    2  A    between atoms: C7_7  and  N11_11 
REMARK    3  A    between atoms: C10_10  and  N11_11 
ROOT
HETATM    1  C1  UNL     1     -30.971  18.607   0.300  1.00 20.00    -0.109 C 
HETATM    2  C2  UNL     1     -31.607  18.417  -0.700  1.00 20.00    -0.077 C 
HETATM    3  C8  UNL     1     -30.197  18.840   1.518  1.00 20.00     0.112 C 
ENDROOT
BRANCH   2   4
HETATM    4  C10 UNL     1     -32.382  18.190  -1.924  1.00 20.00     0.363 C 
BRANCH   4   5
HETATM    5  N11 UNL     1     -33.609  17.467  -1.635  1.00 20.00     0.103 N 
HETATM    6  H28 UNL     1     -33.441  16.788  -0.898  1.00 20.00     0.318 HD
BRANCH   5   7
HETATM    7  C7  UNL     1     -34.075  16.769  -2.810  1.00 20.00     0.155 C 
HETATM    8  C5  UNL     1     -35.115  15.704  -2.443  1.00 20.00     0.041 C 
HETATM    9  C3  UNL     1     -35.065  14.689  -3.582  1.00 20.00     0.003 C 
HETATM   10  C4  UNL     1     -33.681  14.826  -4.214  1.00 20.00     0.003 C 
HETATM   11  C6  UNL     1     -32.960  15.917  -3.427  1.00 20.00     0.041 C 
HETATM   12  C9  UNL     1     -34.634  17.785  -3.812  1.00 20.00     0.049 C 
ENDBRANCH   5   7
ENDBRANCH   4   5
ENDBRANCH   2   4
TORSDOF 3
ENDMDL
MODEL 6
REMARK VINA RESULT:      -4.2     15.854     16.945
REMARK  3 active torsions:
REMARK  status: ('A' for Active; 'I' for Inactive)
REMARK    1  A    between atoms: C2_2  and  C10_10 
REMARK    2  A    between atoms: C7_7  and  N11_11 
REMARK    3  A    between atoms: C10_10  and  N11_11 
ROOT
HETATM    1  C1  UNL     1     -28.379  17.377  12.278  1.00 20.00    -0.109 C 
HETATM    2  C2  UNL     1     -27.320  17.942  12.234  1.00 20.00    -0.077 C 
HETATM    3  C8  UNL     1     -29.668  16.691  12.331  1.00 20.00     0.112 C 
ENDROOT
BRANCH   2   4
HETATM    4  C10 UNL     1     -26.029  18.636  12.179  1.00 20.00     0.363 C 
BRANCH   4   5
HETATM    5  N11 UNL     1     -25.390  18.442  10.889  1.00 20.00     0.103 N 
HETATM    6  H28 UNL     1     -26.007  17.916  10.276  1.00 20.00     0.318 HD
BRANCH   5   7
HETATM    7  C7  UNL     1     -24.154  17.709  11.041  1.00 20.00     0.155 C 
HETATM    8  C5  UNL     1     -23.430  18.111  12.332  1.00 20.00     0.041 C 
HETATM    9  C3  UNL     1     -21.962  17.775  12.087  1.00 20.00     0.003 C 
HETATM   10  C4  UNL     1     -21.771  17.779  10.570  1.00 20.00     0.003 C 
HETATM   11  C6  UNL     1     -23.134  18.117   9.972  1.00 20.00     0.041 C 
HETATM   12  C9  UNL     1     -24.449  16.206  11.001  1.00 20.00     0.049 C 
ENDBRANCH   5   7
ENDBRANCH   4   5
ENDBRANCH   2   4
TORSDOF 3
ENDMDL
MODEL 7
REMARK VINA RESULT:      -4.2     11.469     12.534
REMARK  3 active torsions:
REMARK  status: ('A' for Active; 'I' for Inactive)
REMARK    1  A    between atoms: C2_2  and  C10_10 
REMARK    2  A    between atoms: C7_7  and  N11_11 
REMARK    3  A    between atoms: C10_10  and  N11_11 
ROOT
HETATM    1  C1  UNL     1     -32.048  18.080  -1.094  1.00 20.00    -0.109 C 
HETATM    2  C2  UNL     1     -32.874  17.748  -1.900  1.00 20.00    -0.077 C 
HETATM    3  C8  UNL     1     -31.042  18.484  -0.113  1.00 20.00     0.112 C 
ENDROOT
BRANCH   2   4
HETATM    4  C10 UNL     1     -33.885  17.338  -2.879  1.00 20.00     0.363 C 
BRANCH   4   5
HETATM    5  N11 UNL     1     -33.262  16.754  -4.055  1.00 20.00     0.103 N 
HETATM    6  H28 UNL     1     -33.362  17.385  -4.845  1.00 20.00     0.318 HD
BRANCH   5   7
HETATM    7  C7  UNL     1     -33.887  15.494  -4.387  1.00 20.00     0.155 C 
HETATM    8  C5  UNL     1     -34.649  15.589  -5.715  1.00 20.00     0.041 C 
HETATM    9  C3  UNL     1     -35.704  14.489  -5.648  1.00 20.00     0.003 C 
HETATM   10  C4  UNL     1     -35.939  14.213  -4.164  1.00 20.00     0.003 C 
HETATM   11  C6  UNL     1     -35.014  15.160  -3.404  1.00 20.00     0.041 C 
HETATM   12  C9  UNL     1     -32.820  14.395  -4.423  1.00 20.00     0.049 C 
ENDBRANCH   5   7
ENDBRANCH   4   5
ENDBRANCH   2   4
TORSDOF 3
ENDMDL
MODEL 8
REMARK VINA RESULT:      -4.2     11.166     12.458
REMARK  3 active torsions:
REMARK  status: ('A' for Active; 'I' for Inactive)
REMARK    1  A    between atoms: C2_2  and  C10_10 
REMARK    2  A    between atoms: C7_7  and  N11_11 
REMARK    3  A    between atoms: C10_10  and  N11_11 
ROOT
HETATM    1  C1  UNL     1     -31.712  18.249  -1.033  1.00 20.00    -0.109 C 
HETATM    2  C2  UNL     1     -32.319  17.986  -2.035  1.00 20.00    -0.077 C 
HETATM    3  C8  UNL     1     -30.973  18.569   0.187  1.00 20.00     0.112 C 
ENDROOT
BRANCH   2   4
HETATM    4  C10 UNL     1     -33.066  17.663  -3.255  1.00 20.00     0.363 C 
BRANCH   4   5
HETATM    5  N11 UNL     1     -33.046  16.234  -3.513  1.00 20.00     0.103 N 
HETATM    6  H28 UNL     1     -32.614  16.054  -4.414  1.00 20.00     0.318 HD
BRANCH   5   7
HETATM    7  C7  UNL     1     -34.390  15.703  -3.528  1.00 20.00     0.155 C 
HETATM    8  C5  UNL     1     -34.392  14.220  -3.921  1.00 20.00     0.041 C 
HETATM    9  C3  UNL     1     -35.788  13.957  -4.478  1.00 20.00     0.003 C 
HETATM   10  C4  UNL     1     -36.318  15.310  -4.953  1.00 20.00     0.003 C 
HETATM   11  C6  UNL     1     -35.217  16.325  -4.658  1.00 20.00     0.041 C 
HETATM   12  C9  UNL     1     -35.038  15.927  -2.158  1.00 20.00     0.049 C 
ENDBRANCH   5   7
ENDBRANCH   4   5
ENDBRANCH   2   4
TORSDOF 3
ENDMDL
MODEL 9
REMARK VINA RESULT:      -4.0     11.387     12.606
REMARK  3 active torsions:
REMARK  status: ('A' for Active; 'I' for Inactive)
REMARK    1  A    between atoms: C2_2  and  C10_10 
REMARK    2  A    between atoms: C7_7  and  N11_11 
REMARK    3  A    between atoms: C10_10  and  N11_11 
ROOT
HETATM    1  C1  UNL     1     -32.520  18.278   2.398  1.00 20.00    -0.109 C 
HETATM    2  C2  UNL     1     -32.729  18.381   1.220  1.00 20.00    -0.077 C 
HETATM    3  C8  UNL     1     -32.267  18.152   3.833  1.00 20.00     0.112 C 
ENDROOT
BRANCH   2   4
HETATM    4  C10 UNL     1     -32.989  18.506  -0.217  1.00 20.00     0.363 C 
BRANCH   4   5
HETATM    5  N11 UNL     1     -34.340  18.079  -0.539  1.00 20.00     0.103 N 
HETATM    6  H28 UNL     1     -34.652  17.388   0.137  1.00 20.00     0.318 HD
BRANCH   5   7
HETATM    7  C7  UNL     1     -34.386  17.491  -1.858  1.00 20.00     0.155 C 
HETATM    8  C5  UNL     1     -35.099  16.134  -1.832  1.00 20.00     0.041 C 
HETATM    9  C3  UNL     1     -34.569  15.382  -3.050  1.00 20.00     0.003 C 
HETATM   10  C4  UNL     1     -33.210  16.002  -3.374  1.00 20.00     0.003 C 
HETATM   11  C6  UNL     1     -32.984  17.099  -2.337  1.00 20.00     0.041 C 
HETATM   12  C9  UNL     1     -35.064  18.469  -2.824  1.00 20.00     0.049 C 
ENDBRANCH   5   7
ENDBRANCH   4   5
ENDBRANCH   2   4
TORSDOF 3
ENDMDL
