MODEL 1
REMARK VINA RESULT:      -4.9      0.000      0.000
REMARK  2 active torsions:
REMARK  status: ('A' for Active; 'I' for Inactive)
REMARK    1  A    between atoms: C2_2  and  C11_11 
REMARK    2  A    between atoms: C7_7  and  C11_11 
ROOT
HETATM    1  C1  UNL     1     -32.924   8.425   0.591  1.00 20.00    -0.111 C 
HETATM    2  C2  UNL     1     -32.589   7.809   1.565  1.00 20.00    -0.106 C 
HETATM    3  C9  UNL     1     -33.333   9.176  -0.596  1.00 20.00     0.112 C 
ENDROOT
BRANCH   2   4
HETATM    4  C11 UNL     1     -32.184   7.049   2.751  1.00 20.00     0.106 C 
BRANCH   4   5
HETATM    5  C7  UNL     1     -33.393   6.695   3.614  1.00 20.00     0.067 C 
HETATM    6  C3  UNL     1     -33.202   7.146   5.058  1.00 20.00     0.132 C 
HETATM    7  C4  UNL     1     -34.272   6.718   6.039  1.00 20.00     0.079 C 
HETATM    8  O12 UNL     1     -32.289   7.894   5.407  1.00 20.00    -0.298 OA
HETATM    9  C5  UNL     1     -34.520   5.218   5.944  1.00 20.00     0.011 C 
HETATM   10  C8  UNL     1     -34.794   4.740   4.510  1.00 20.00    -0.017 C 
HETATM   11  C6  UNL     1     -33.657   5.185   3.576  1.00 20.00     0.017 C 
HETATM   12  C10 UNL     1     -36.165   5.195   4.006  1.00 20.00     0.010 C 
ENDBRANCH   4   5
ENDBRANCH   2   4
TORSDOF 2
ENDMDL
MODEL 2
REMARK VINA RESULT:      -4.6     14.594     16.268
REMARK  2 active torsions:
REMARK  status: ('A' for Active; 'I' for Inactive)
REMARK    1  A    between atoms: C2_2  and  C11_11 
REMARK    2  A    between atoms: C7_7  and  C11_11 
ROOT
HETATM    1  C1  UNL     1     -28.384  17.291  12.122  1.00 20.00    -0.111 C 
HETATM    2  C2  UNL     1     -27.583  18.180  12.025  1.00 20.00    -0.106 C 
HETATM    3  C9  UNL     1     -29.360  16.208  12.241  1.00 20.00     0.112 C 
ENDROOT
BRANCH   2   4
HETATM    4  C11 UNL     1     -26.601  19.262  11.915  1.00 20.00     0.106 C 
BRANCH   4   5
HETATM    5  C7  UNL     1     -25.235  18.723  11.497  1.00 20.00     0.067 C 
HETATM    6  C3  UNL     1     -25.098  18.664   9.979  1.00 20.00     0.132 C 
HETATM    7  C4  UNL     1     -23.842  18.008   9.447  1.00 20.00     0.079 C 
HETATM    8  O12 UNL     1     -25.902  19.198   9.216  1.00 20.00    -0.298 OA
HETATM    9  C5  UNL     1     -23.638  16.640  10.086  1.00 20.00     0.011 C 
HETATM   10  C8  UNL     1     -23.693  16.675  11.620  1.00 20.00    -0.017 C 
HETATM   11  C6  UNL     1     -25.004  17.328  12.090  1.00 20.00     0.017 C 
HETATM   12  C10 UNL     1     -22.462  17.356  12.223  1.00 20.00     0.010 C 
ENDBRANCH   4   5
ENDBRANCH   2   4
TORSDOF 2
ENDMDL
MODEL 3
REMARK VINA RESULT:      -4.6     11.062     12.019
REMARK  2 active torsions:
REMARK  status: ('A' for Active; 'I' for Inactive)
REMARK    1  A    between atoms: C2_2  and  C11_11 
REMARK    2  A    between atoms: C7_7  and  C11_11 
ROOT
HETATM    1  C1  UNL     1     -33.778  16.319  -2.795  1.00 20.00    -0.111 C 
HETATM    2  C2  UNL     1     -33.134  17.249  -2.392  1.00 20.00    -0.106 C 
HETATM    3  C9  UNL     1     -34.562  15.186  -3.286  1.00 20.00     0.112 C 
ENDROOT
BRANCH   2   4
HETATM    4  C11 UNL     1     -32.353  18.390  -1.907  1.00 20.00     0.106 C 
BRANCH   4   5
HETATM    5  C7  UNL     1     -32.675  18.693  -0.446  1.00 20.00     0.067 C 
HETATM    6  C3  UNL     1     -31.441  18.556   0.439  1.00 20.00     0.132 C 
HETATM    7  C4  UNL     1     -31.670  18.689   1.930  1.00 20.00     0.079 C 
HETATM    8  O12 UNL     1     -30.304  18.440  -0.016  1.00 20.00    -0.298 OA
HETATM    9  C5  UNL     1     -32.796  17.769   2.384  1.00 20.00     0.011 C 
HETATM   10  C8  UNL     1     -34.082  17.936   1.562  1.00 20.00    -0.017 C 
HETATM   11  C6  UNL     1     -33.782  17.763   0.064  1.00 20.00     0.017 C 
HETATM   12  C10 UNL     1     -34.784  19.263   1.859  1.00 20.00     0.010 C 
ENDBRANCH   4   5
ENDBRANCH   2   4
TORSDOF 2
ENDMDL
MODEL 4
REMARK VINA RESULT:      -4.5      1.589      2.365
REMARK  2 active torsions:
REMARK  status: ('A' for Active; 'I' for Inactive)
REMARK    1  A    between atoms: C2_2  and  C11_11 
REMARK    2  A    between atoms: C7_7  and  C11_11 
ROOT
HETATM    1  C1  UNL     1     -32.971   8.353   0.806  1.00 20.00    -0.111 C 
HETATM    2  C2  UNL     1     -32.394   7.709   1.639  1.00 20.00    -0.106 C 
HETATM    3  C9  UNL     1     -33.673   9.136  -0.210  1.00 20.00     0.112 C 
ENDROOT
BRANCH   2   4
HETATM    4  C11 UNL     1     -31.681   6.926   2.653  1.00 20.00     0.106 C 
BRANCH   4   5
HETATM    5  C7  UNL     1     -32.659   6.224   3.591  1.00 20.00     0.067 C 
HETATM    6  C3  UNL     1     -33.301   5.011   2.925  1.00 20.00     0.132 C 
HETATM    7  C4  UNL     1     -34.398   4.322   3.707  1.00 20.00     0.079 C 
HETATM    8  O12 UNL     1     -32.900   4.548   1.858  1.00 20.00    -0.298 OA
HETATM    9  C5  UNL     1     -35.442   5.330   4.170  1.00 20.00     0.011 C 
HETATM   10  C8  UNL     1     -34.837   6.528   4.915  1.00 20.00    -0.017 C 
HETATM   11  C6  UNL     1     -33.751   7.195   4.054  1.00 20.00     0.017 C 
HETATM   12  C10 UNL     1     -34.315   6.139   6.300  1.00 20.00     0.010 C 
ENDBRANCH   4   5
ENDBRANCH   2   4
TORSDOF 2
ENDMDL
MODEL 5
REMARK VINA RESULT:      -4.5     11.202     12.450
REMARK  2 active torsions:
REMARK  status: ('A' for Active; 'I' for Inactive)
REMARK    1  A    between atoms: C2_2  and  C11_11 
REMARK    2  A    between atoms: C7_7  and  C11_11 
ROOT
HETATM    1  C1  UNL     1     -32.929  17.165  -2.294  1.00 20.00    -0.111 C 
HETATM    2  C2  UNL     1     -33.533  16.254  -2.792  1.00 20.00    -0.106 C 
HETATM    3  C9  UNL     1     -32.193  18.274  -1.687  1.00 20.00     0.112 C 
ENDROOT
BRANCH   2   4
HETATM    4  C11 UNL     1     -34.262  15.137  -3.398  1.00 20.00     0.106 C 
BRANCH   4   5
HETATM    5  C7  UNL     1     -35.760  15.425  -3.452  1.00 20.00     0.067 C 
HETATM    6  C3  UNL     1     -36.520  14.308  -4.161  1.00 20.00     0.132 C 
HETATM    7  C4  UNL     1     -37.994  14.553  -4.405  1.00 20.00     0.079 C 
HETATM    8  O12 UNL     1     -36.006  13.226  -4.440  1.00 20.00    -0.298 OA
HETATM    9  C5  UNL     1     -38.209  15.901  -5.081  1.00 20.00     0.011 C 
HETATM   10  C8  UNL     1     -37.521  17.062  -4.349  1.00 20.00    -0.017 C 
HETATM   11  C6  UNL     1     -36.026  16.759  -4.159  1.00 20.00     0.017 C 
HETATM   12  C10 UNL     1     -38.213  17.396  -3.026  1.00 20.00     0.010 C 
ENDBRANCH   4   5
ENDBRANCH   2   4
TORSDOF 2
ENDMDL
MODEL 6
REMARK VINA RESULT:      -4.5     10.868     11.789
REMARK  2 active torsions:
REMARK  status: ('A' for Active; 'I' for Inactive)
REMARK    1  A    between atoms: C2_2  and  C11_11 
REMARK    2  A    between atoms: C7_7  and  C11_11 
ROOT
HETATM    1  C1  UNL     1     -34.682  14.643  -3.793  1.00 20.00    -0.111 C 
HETATM    2  C2  UNL     1     -33.971  15.536  -3.422  1.00 20.00    -0.106 C 
HETATM    3  C9  UNL     1     -35.548  13.554  -4.244  1.00 20.00     0.112 C 
ENDROOT
BRANCH   2   4
HETATM    4  C11 UNL     1     -33.102  16.622  -2.961  1.00 20.00     0.106 C 
BRANCH   4   5
HETATM    5  C7  UNL     1     -33.807  17.483  -1.916  1.00 20.00     0.067 C 
HETATM    6  C3  UNL     1     -32.811  18.137  -0.964  1.00 20.00     0.132 C 
HETATM    7  C4  UNL     1     -33.403  18.896   0.205  1.00 20.00     0.079 C 
HETATM    8  O12 UNL     1     -31.598  18.140  -1.168  1.00 20.00    -0.298 OA
HETATM    9  C5  UNL     1     -34.414  18.033   0.949  1.00 20.00     0.011 C 
HETATM   10  C8  UNL     1     -35.480  17.420   0.030  1.00 20.00    -0.017 C 
HETATM   11  C6  UNL     1     -34.810  16.643  -1.116  1.00 20.00     0.017 C 
HETATM   12  C10 UNL     1     -36.465  18.471  -0.485  1.00 20.00     0.010 C 
ENDBRANCH   4   5
ENDBRANCH   2   4
TORSDOF 2
ENDMDL
MODEL 7
REMARK VINA RESULT:      -4.4     11.339     12.490
REMARK  2 active torsions:
REMARK  status: ('A' for Active; 'I' for Inactive)
REMARK    1  A    between atoms: C2_2  and  C11_11 
REMARK    2  A    between atoms: C7_7  and  C11_11 
ROOT
HETATM    1  C1  UNL     1     -30.653  18.856   0.741  1.00 20.00    -0.111 C 
HETATM    2  C2  UNL     1     -31.240  18.601  -0.274  1.00 20.00    -0.106 C 
HETATM    3  C9  UNL     1     -29.937  19.167   1.978  1.00 20.00     0.112 C 
ENDROOT
BRANCH   2   4
HETATM    4  C11 UNL     1     -31.956  18.298  -1.517  1.00 20.00     0.106 C 
BRANCH   4   5
HETATM    5  C7  UNL     1     -33.305  17.644  -1.227  1.00 20.00     0.067 C 
HETATM    6  C3  UNL     1     -33.683  16.638  -2.309  1.00 20.00     0.132 C 
HETATM    7  C4  UNL     1     -35.067  16.034  -2.206  1.00 20.00     0.079 C 
HETATM    8  O12 UNL     1     -32.890  16.255  -3.169  1.00 20.00    -0.298 OA
HETATM    9  C5  UNL     1     -36.119  17.125  -2.056  1.00 20.00     0.011 C 
HETATM   10  C8  UNL     1     -35.809  18.113  -0.923  1.00 20.00    -0.017 C 
HETATM   11  C6  UNL     1     -34.403  18.706  -1.105  1.00 20.00     0.017 C 
HETATM   12  C10 UNL     1     -35.992  17.477   0.457  1.00 20.00     0.010 C 
ENDBRANCH   4   5
ENDBRANCH   2   4
TORSDOF 2
ENDMDL
MODEL 8
REMARK VINA RESULT:      -4.4     11.179     13.178
REMARK  2 active torsions:
REMARK  status: ('A' for Active; 'I' for Inactive)
REMARK    1  A    between atoms: C2_2  and  C11_11 
REMARK    2  A    between atoms: C7_7  and  C11_11 
ROOT
HETATM    1  C1  UNL     1     -33.057  17.339  -2.045  1.00 20.00    -0.111 C 
HETATM    2  C2  UNL     1     -33.828  16.488  -2.392  1.00 20.00    -0.106 C 
HETATM    3  C9  UNL     1     -32.116  18.377  -1.622  1.00 20.00     0.112 C 
ENDROOT
BRANCH   2   4
HETATM    4  C11 UNL     1     -34.766  15.441  -2.809  1.00 20.00     0.106 C 
BRANCH   4   5
HETATM    5  C7  UNL     1     -35.109  15.571  -4.291  1.00 20.00     0.067 C 
HETATM    6  C3  UNL     1     -34.077  14.869  -5.167  1.00 20.00     0.132 C 
HETATM    7  C4  UNL     1     -34.231  15.056  -6.661  1.00 20.00     0.079 C 
HETATM    8  O12 UNL     1     -33.219  14.114  -4.711  1.00 20.00    -0.298 OA
HETATM    9  C5  UNL     1     -34.355  16.534  -7.008  1.00 20.00     0.011 C 
HETATM   10  C8  UNL     1     -35.441  17.256  -6.197  1.00 20.00    -0.017 C 
HETATM   11  C6  UNL     1     -35.207  17.047  -4.692  1.00 20.00     0.017 C 
HETATM   12  C10 UNL     1     -36.849  16.838  -6.625  1.00 20.00     0.010 C 
ENDBRANCH   4   5
ENDBRANCH   2   4
TORSDOF 2
ENDMDL
MODEL 9
REMARK VINA RESULT:      -4.3     11.248     12.249
REMARK  2 active torsions:
REMARK  status: ('A' for Active; 'I' for Inactive)
REMARK    1  A    between atoms: C2_2  and  C11_11 
REMARK    2  A    between atoms: C7_7  and  C11_11 
ROOT
HETATM    1  C1  UNL     1     -38.829  14.815  -4.363  1.00 20.00    -0.111 C 
HETATM    2  C2  UNL     1     -37.674  14.492  -4.318  1.00 20.00    -0.106 C 
HETATM    3  C9  UNL     1     -40.237  15.208  -4.418  1.00 20.00     0.112 C 
ENDROOT
BRANCH   2   4
HETATM    4  C11 UNL     1     -36.264  14.093  -4.271  1.00 20.00     0.106 C 
BRANCH   4   5
HETATM    5  C7  UNL     1     -35.361  15.298  -4.023  1.00 20.00     0.067 C 
HETATM    6  C3  UNL     1     -33.887  14.908  -4.055  1.00 20.00     0.132 C 
HETATM    7  C4  UNL     1     -32.900  15.993  -3.677  1.00 20.00     0.079 C 
HETATM    8  O12 UNL     1     -33.496  13.812  -4.454  1.00 20.00    -0.298 OA
HETATM    9  C5  UNL     1     -33.287  16.631  -2.349  1.00 20.00     0.011 C 
HETATM   10  C8  UNL     1     -34.747  17.106  -2.309  1.00 20.00    -0.017 C 
HETATM   11  C6  UNL     1     -35.692  15.951  -2.677  1.00 20.00     0.017 C 
HETATM   12  C10 UNL     1     -34.973  18.337  -3.189  1.00 20.00     0.010 C 
ENDBRANCH   4   5
ENDBRANCH   2   4
TORSDOF 2
ENDMDL
