MODEL 1
REMARK VINA RESULT:      -4.3      0.000      0.000
REMARK  4 active torsions:
REMARK  status: ('A' for Active; 'I' for Inactive)
REMARK    1  A    between atoms: C2_2  and  C7_7 
REMARK    2  A    between atoms: C7_7  and  N11_11 
REMARK    3  A    between atoms: C8_8  and  C9_9 
REMARK    4  A    between atoms: C8_8  and  N11_11 
ROOT
HETATM    1  C1  UNL     1     -31.571  18.294  -0.512  1.00 20.00    -0.109 C 
HETATM    2  C2  UNL     1     -32.251  17.969  -1.446  1.00 20.00    -0.077 C 
HETATM    3  C4  UNL     1     -30.742  18.690   0.626  1.00 20.00     0.112 C 
ENDROOT
BRANCH   2   4
HETATM    4  C7  UNL     1     -33.089  17.571  -2.583  1.00 20.00     0.365 C 
BRANCH   4   5
HETATM    5  N11 UNL     1     -33.723  16.270  -2.335  1.00 20.00     0.096 N 
HETATM    6  C6  UNL     1     -35.046  16.470  -1.730  1.00 20.00     0.311 C 
BRANCH   5   7
HETATM    7  C8  UNL     1     -33.821  15.498  -3.553  1.00 20.00     0.291 C 
BRANCH   7   8
HETATM    8  C9  UNL     1     -35.275  15.337  -4.016  1.00 20.00     0.117 C 
HETATM    9  C3  UNL     1     -35.599  13.923  -4.294  1.00 20.00     0.065 C 
HETATM   10  N10 UNL     1     -35.856  12.814  -4.513  1.00 20.00    -0.197 NA
HETATM   11  C5  UNL     1     -35.594  16.210  -5.230  1.00 20.00     0.027 C 
ENDBRANCH   7   8
ENDBRANCH   5   7
ENDBRANCH   4   5
ENDBRANCH   2   4
TORSDOF 4
ENDMDL
MODEL 2
REMARK VINA RESULT:      -4.2      1.266      1.791
REMARK  4 active torsions:
REMARK  status: ('A' for Active; 'I' for Inactive)
REMARK    1  A    between atoms: C2_2  and  C7_7 
REMARK    2  A    between atoms: C7_7  and  N11_11 
REMARK    3  A    between atoms: C8_8  and  C9_9 
REMARK    4  A    between atoms: C8_8  and  N11_11 
ROOT
HETATM    1  C1  UNL     1     -32.857  18.043  -0.845  1.00 20.00    -0.109 C 
HETATM    2  C2  UNL     1     -34.015  17.773  -1.009  1.00 20.00    -0.077 C 
HETATM    3  C4  UNL     1     -31.446  18.370  -0.645  1.00 20.00     0.112 C 
ENDROOT
BRANCH   2   4
HETATM    4  C7  UNL     1     -35.431  17.443  -1.202  1.00 20.00     0.365 C 
BRANCH   4   5
HETATM    5  N11 UNL     1     -35.633  16.721  -2.465  1.00 20.00     0.096 N 
HETATM    6  C6  UNL     1     -35.335  17.608  -3.597  1.00 20.00     0.311 C 
BRANCH   5   7
HETATM    7  C8  UNL     1     -34.822  15.525  -2.516  1.00 20.00     0.291 C 
BRANCH   7   8
HETATM    8  C9  UNL     1     -34.585  15.052  -3.956  1.00 20.00     0.117 C 
HETATM    9  C3  UNL     1     -35.358  13.831  -4.258  1.00 20.00     0.065 C 
HETATM   10  N10 UNL     1     -35.965  12.872  -4.497  1.00 20.00    -0.197 NA
HETATM   11  C5  UNL     1     -33.101  14.836  -4.255  1.00 20.00     0.027 C 
ENDBRANCH   7   8
ENDBRANCH   5   7
ENDBRANCH   4   5
ENDBRANCH   2   4
TORSDOF 4
ENDMDL
MODEL 3
REMARK VINA RESULT:      -4.1      1.996      3.093
REMARK  4 active torsions:
REMARK  status: ('A' for Active; 'I' for Inactive)
REMARK    1  A    between atoms: C2_2  and  C7_7 
REMARK    2  A    between atoms: C7_7  and  N11_11 
REMARK    3  A    between atoms: C8_8  and  C9_9 
REMARK    4  A    between atoms: C8_8  and  N11_11 
ROOT
HETATM    1  C1  UNL     1     -33.077  16.762  -2.546  1.00 20.00    -0.109 C 
HETATM    2  C2  UNL     1     -33.173  15.922  -3.398  1.00 20.00    -0.077 C 
HETATM    3  C4  UNL     1     -32.961  17.785  -1.508  1.00 20.00     0.112 C 
ENDROOT
BRANCH   2   4
HETATM    4  C7  UNL     1     -33.295  14.892  -4.435  1.00 20.00     0.365 C 
BRANCH   4   5
HETATM    5  N11 UNL     1     -34.369  15.224  -5.379  1.00 20.00     0.096 N 
HETATM    6  C6  UNL     1     -33.901  15.022  -6.756  1.00 20.00     0.311 C 
BRANCH   5   7
HETATM    7  C8  UNL     1     -35.556  14.442  -5.114  1.00 20.00     0.291 C 
BRANCH   7   8
HETATM    8  C9  UNL     1     -36.553  15.193  -4.222  1.00 20.00     0.117 C 
HETATM    9  C3  UNL     1     -37.905  14.608  -4.312  1.00 20.00     0.065 C 
HETATM   10  N10 UNL     1     -38.968  14.150  -4.381  1.00 20.00    -0.197 NA
HETATM   11  C5  UNL     1     -36.592  16.689  -4.535  1.00 20.00     0.027 C 
ENDBRANCH   7   8
ENDBRANCH   5   7
ENDBRANCH   4   5
ENDBRANCH   2   4
TORSDOF 4
ENDMDL
MODEL 4
REMARK VINA RESULT:      -4.1      1.328      2.182
REMARK  4 active torsions:
REMARK  status: ('A' for Active; 'I' for Inactive)
REMARK    1  A    between atoms: C2_2  and  C7_7 
REMARK    2  A    between atoms: C7_7  and  N11_11 
REMARK    3  A    between atoms: C8_8  and  C9_9 
REMARK    4  A    between atoms: C8_8  and  N11_11 
ROOT
HETATM    1  C1  UNL     1     -32.458  18.359  -2.305  1.00 20.00    -0.109 C 
HETATM    2  C2  UNL     1     -33.031  18.295  -3.359  1.00 20.00    -0.077 C 
HETATM    3  C4  UNL     1     -31.760  18.437  -1.023  1.00 20.00     0.112 C 
ENDROOT
BRANCH   2   4
HETATM    4  C7  UNL     1     -33.737  18.216  -4.642  1.00 20.00     0.365 C 
BRANCH   4   5
HETATM    5  N11 UNL     1     -34.683  17.092  -4.650  1.00 20.00     0.096 N 
HETATM    6  C6  UNL     1     -35.591  17.216  -5.797  1.00 20.00     0.311 C 
BRANCH   5   7
HETATM    7  C8  UNL     1     -33.986  15.826  -4.674  1.00 20.00     0.291 C 
BRANCH   7   8
HETATM    8  C9  UNL     1     -34.481  14.877  -3.575  1.00 20.00     0.117 C 
HETATM    9  C3  UNL     1     -35.321  13.798  -4.131  1.00 20.00     0.065 C 
HETATM   10  N10 UNL     1     -35.982  12.950  -4.567  1.00 20.00    -0.197 NA
HETATM   11  C5  UNL     1     -35.224  15.618  -2.464  1.00 20.00     0.027 C 
ENDBRANCH   7   8
ENDBRANCH   5   7
ENDBRANCH   4   5
ENDBRANCH   2   4
TORSDOF 4
ENDMDL
MODEL 5
REMARK VINA RESULT:      -3.9      2.440      5.829
REMARK  4 active torsions:
REMARK  status: ('A' for Active; 'I' for Inactive)
REMARK    1  A    between atoms: C2_2  and  C7_7 
REMARK    2  A    between atoms: C7_7  and  N11_11 
REMARK    3  A    between atoms: C8_8  and  C9_9 
REMARK    4  A    between atoms: C8_8  and  N11_11 
ROOT
HETATM    1  C1  UNL     1     -34.698  15.269  -2.971  1.00 20.00    -0.109 C 
HETATM    2  C2  UNL     1     -34.773  16.119  -2.127  1.00 20.00    -0.077 C 
HETATM    3  C4  UNL     1     -34.606  14.233  -3.999  1.00 20.00     0.112 C 
ENDROOT
BRANCH   2   4
HETATM    4  C7  UNL     1     -34.869  17.153  -1.091  1.00 20.00     0.365 C 
BRANCH   4   5
HETATM    5  N11 UNL     1     -33.798  18.146  -1.242  1.00 20.00     0.096 N 
HETATM    6  C6  UNL     1     -33.854  18.736  -2.586  1.00 20.00     0.311 C 
BRANCH   5   7
HETATM    7  C8  UNL     1     -33.887  19.167  -0.223  1.00 20.00     0.291 C 
BRANCH   7   8
HETATM    8  C9  UNL     1     -32.742  19.067   0.793  1.00 20.00     0.117 C 
HETATM    9  C3  UNL     1     -31.485  18.635   0.150  1.00 20.00     0.065 C 
HETATM   10  N10 UNL     1     -30.497  18.297  -0.354  1.00 20.00    -0.197 NA
HETATM   11  C5  UNL     1     -33.089  18.148   1.964  1.00 20.00     0.027 C 
ENDBRANCH   7   8
ENDBRANCH   5   7
ENDBRANCH   4   5
ENDBRANCH   2   4
TORSDOF 4
ENDMDL
MODEL 6
REMARK VINA RESULT:      -3.9      2.276      2.699
REMARK  4 active torsions:
REMARK  status: ('A' for Active; 'I' for Inactive)
REMARK    1  A    between atoms: C2_2  and  C7_7 
REMARK    2  A    between atoms: C7_7  and  N11_11 
REMARK    3  A    between atoms: C8_8  and  C9_9 
REMARK    4  A    between atoms: C8_8  and  N11_11 
ROOT
HETATM    1  C1  UNL     1     -35.059  16.963  -0.845  1.00 20.00    -0.109 C 
HETATM    2  C2  UNL     1     -34.482  16.614  -1.839  1.00 20.00    -0.077 C 
HETATM    3  C4  UNL     1     -35.761  17.388   0.365  1.00 20.00     0.112 C 
ENDROOT
BRANCH   2   4
HETATM    4  C7  UNL     1     -33.777  16.181  -3.050  1.00 20.00     0.365 C 
BRANCH   4   5
HETATM    5  N11 UNL     1     -34.435  16.704  -4.254  1.00 20.00     0.096 N 
HETATM    6  C6  UNL     1     -33.884  18.022  -4.589  1.00 20.00     0.311 C 
BRANCH   5   7
HETATM    7  C8  UNL     1     -34.296  15.786  -5.362  1.00 20.00     0.291 C 
BRANCH   7   8
HETATM    8  C9  UNL     1     -35.639  15.161  -5.763  1.00 20.00     0.117 C 
HETATM    9  C3  UNL     1     -35.857  13.869  -5.082  1.00 20.00     0.065 C 
HETATM   10  N10 UNL     1     -36.031  12.854  -4.548  1.00 20.00    -0.197 NA
HETATM   11  C5  UNL     1     -35.771  14.999  -7.277  1.00 20.00     0.027 C 
ENDBRANCH   7   8
ENDBRANCH   5   7
ENDBRANCH   4   5
ENDBRANCH   2   4
TORSDOF 4
ENDMDL
MODEL 7
REMARK VINA RESULT:      -3.8      1.343      1.863
REMARK  4 active torsions:
REMARK  status: ('A' for Active; 'I' for Inactive)
REMARK    1  A    between atoms: C2_2  and  C7_7 
REMARK    2  A    between atoms: C7_7  and  N11_11 
REMARK    3  A    between atoms: C8_8  and  C9_9 
REMARK    4  A    between atoms: C8_8  and  N11_11 
ROOT
HETATM    1  C1  UNL     1     -33.024  17.683  -1.488  1.00 20.00    -0.109 C 
HETATM    2  C2  UNL     1     -33.992  17.005  -1.700  1.00 20.00    -0.077 C 
HETATM    3  C4  UNL     1     -31.845  18.508  -1.229  1.00 20.00     0.112 C 
ENDROOT
BRANCH   2   4
HETATM    4  C7  UNL     1     -35.179  16.182  -1.956  1.00 20.00     0.365 C 
BRANCH   4   5
HETATM    5  N11 UNL     1     -35.759  16.495  -3.268  1.00 20.00     0.096 N 
HETATM    6  C6  UNL     1     -36.083  17.925  -3.339  1.00 20.00     0.311 C 
BRANCH   5   7
HETATM    7  C8  UNL     1     -34.866  16.111  -4.337  1.00 20.00     0.291 C 
BRANCH   7   8
HETATM    8  C9  UNL     1     -35.568  15.240  -5.388  1.00 20.00     0.117 C 
HETATM    9  C3  UNL     1     -35.875  13.897  -4.859  1.00 20.00     0.065 C 
HETATM   10  N10 UNL     1     -36.118  12.841  -4.445  1.00 20.00    -0.197 NA
HETATM   11  C5  UNL     1     -34.761  15.137  -6.683  1.00 20.00     0.027 C 
ENDBRANCH   7   8
ENDBRANCH   5   7
ENDBRANCH   4   5
ENDBRANCH   2   4
TORSDOF 4
ENDMDL
MODEL 8
REMARK VINA RESULT:      -3.8      1.792      2.304
REMARK  4 active torsions:
REMARK  status: ('A' for Active; 'I' for Inactive)
REMARK    1  A    between atoms: C2_2  and  C7_7 
REMARK    2  A    between atoms: C7_7  and  N11_11 
REMARK    3  A    between atoms: C8_8  and  C9_9 
REMARK    4  A    between atoms: C8_8  and  N11_11 
ROOT
HETATM    1  C1  UNL     1     -33.766  18.235   0.690  1.00 20.00    -0.109 C 
HETATM    2  C2  UNL     1     -33.135  18.184  -0.331  1.00 20.00    -0.077 C 
HETATM    3  C4  UNL     1     -34.534  18.296   1.932  1.00 20.00     0.112 C 
ENDROOT
BRANCH   2   4
HETATM    4  C7  UNL     1     -32.360  18.128  -1.575  1.00 20.00     0.365 C 
BRANCH   4   5
HETATM    5  N11 UNL     1     -33.229  17.829  -2.720  1.00 20.00     0.096 N 
HETATM    6  C6  UNL     1     -32.882  18.701  -3.848  1.00 20.00     0.311 C 
BRANCH   5   7
HETATM    7  C8  UNL     1     -33.136  16.435  -3.093  1.00 20.00     0.291 C 
BRANCH   7   8
HETATM    8  C9  UNL     1     -34.390  15.648  -2.692  1.00 20.00     0.117 C 
HETATM    9  C3  UNL     1     -34.671  14.558  -3.647  1.00 20.00     0.065 C 
HETATM   10  N10 UNL     1     -34.894  13.700  -4.396  1.00 20.00    -0.197 NA
HETATM   11  C5  UNL     1     -35.613  16.552  -2.533  1.00 20.00     0.027 C 
ENDBRANCH   7   8
ENDBRANCH   5   7
ENDBRANCH   4   5
ENDBRANCH   2   4
TORSDOF 4
ENDMDL
MODEL 9
REMARK VINA RESULT:      -3.8      3.094      5.224
REMARK  4 active torsions:
REMARK  status: ('A' for Active; 'I' for Inactive)
REMARK    1  A    between atoms: C2_2  and  C7_7 
REMARK    2  A    between atoms: C7_7  and  N11_11 
REMARK    3  A    between atoms: C8_8  and  C9_9 
REMARK    4  A    between atoms: C8_8  and  N11_11 
ROOT
HETATM    1  C1  UNL     1     -38.022  16.362  -5.262  1.00 20.00    -0.109 C 
HETATM    2  C2  UNL     1     -36.961  16.446  -5.817  1.00 20.00    -0.077 C 
HETATM    3  C4  UNL     1     -39.315  16.261  -4.587  1.00 20.00     0.112 C 
ENDROOT
BRANCH   2   4
HETATM    4  C7  UNL     1     -35.660  16.549  -6.487  1.00 20.00     0.365 C 
BRANCH   4   5
HETATM    5  N11 UNL     1     -34.766  15.464  -6.064  1.00 20.00     0.096 N 
HETATM    6  C6  UNL     1     -33.841  15.129  -7.154  1.00 20.00     0.311 C 
BRANCH   5   7
HETATM    7  C8  UNL     1     -34.046  15.821  -4.863  1.00 20.00     0.291 C 
BRANCH   7   8
HETATM    8  C9  UNL     1     -34.395  14.901  -3.687  1.00 20.00     0.117 C 
HETATM    9  C3  UNL     1     -35.199  13.743  -4.127  1.00 20.00     0.065 C 
HETATM   10  N10 UNL     1     -35.831  12.833  -4.471  1.00 20.00    -0.197 NA
HETATM   11  C5  UNL     1     -35.105  15.650  -2.559  1.00 20.00     0.027 C 
ENDBRANCH   7   8
ENDBRANCH   5   7
ENDBRANCH   4   5
ENDBRANCH   2   4
TORSDOF 4
ENDMDL
