MODEL 1
REMARK VINA RESULT:      -5.4      0.000      0.000
REMARK  4 active torsions:
REMARK  status: ('A' for Active; 'I' for Inactive)
REMARK    1  A    between atoms: C2_2  and  C6_6 
REMARK    2  A    between atoms: C6_6  and  C7_7 
REMARK    3  A    between atoms: C7_7  and  C8_8 
REMARK    4  A    between atoms: C8_8  and  O9_9 
ROOT
HETATM    1  C1  UNL     1     -32.789   8.070   1.257  1.00 20.00    -0.111 C 
HETATM    2  C2  UNL     1     -32.878   7.211   2.091  1.00 20.00    -0.107 C 
HETATM    3  C3  UNL     1     -32.679   9.114   0.241  1.00 20.00     0.112 C 
ENDROOT
BRANCH   2   4
HETATM    4  C6  UNL     1     -32.988   6.161   3.116  1.00 20.00     0.100 C 
BRANCH   4   5
HETATM    5  C7  UNL     1     -34.050   6.462   4.192  1.00 20.00     0.021 C 
HETATM    6  C4  UNL     1     -33.410   7.113   5.429  1.00 20.00     0.013 C 
BRANCH   5   7
HETATM    7  C8  UNL     1     -34.906   5.238   4.595  1.00 20.00     0.118 C 
HETATM    8  C5  UNL     1     -34.928   4.979   6.098  1.00 20.00     0.040 C 
BRANCH   7   9
HETATM    9  O9  UNL     1     -34.363   4.078   3.960  1.00 20.00    -0.396 OA
HETATM   10  H23 UNL     1     -34.969   3.855   3.239  1.00 20.00     0.210 HD
ENDBRANCH   7   9
ENDBRANCH   5   7
ENDBRANCH   4   5
ENDBRANCH   2   4
TORSDOF 4
ENDMDL
MODEL 2
REMARK VINA RESULT:      -5.0      0.980      1.548
REMARK  4 active torsions:
REMARK  status: ('A' for Active; 'I' for Inactive)
REMARK    1  A    between atoms: C2_2  and  C6_6 
REMARK    2  A    between atoms: C6_6  and  C7_7 
REMARK    3  A    between atoms: C7_7  and  C8_8 
REMARK    4  A    between atoms: C8_8  and  O9_9 
ROOT
HETATM    1  C1  UNL     1     -32.877   8.126   1.122  1.00 20.00    -0.111 C 
HETATM    2  C2  UNL     1     -32.681   7.586   2.177  1.00 20.00    -0.107 C 
HETATM    3  C3  UNL     1     -33.116   8.785  -0.160  1.00 20.00     0.112 C 
ENDROOT
BRANCH   2   4
HETATM    4  C6  UNL     1     -32.444   6.922   3.468  1.00 20.00     0.100 C 
BRANCH   4   5
HETATM    5  C7  UNL     1     -33.287   5.647   3.667  1.00 20.00     0.021 C 
HETATM    6  C4  UNL     1     -33.583   4.968   2.320  1.00 20.00     0.013 C 
BRANCH   5   7
HETATM    7  C8  UNL     1     -34.591   5.870   4.469  1.00 20.00     0.118 C 
HETATM    8  C5  UNL     1     -34.351   6.269   5.922  1.00 20.00     0.040 C 
BRANCH   7   9
HETATM    9  O9  UNL     1     -35.337   4.651   4.468  1.00 20.00    -0.396 OA
HETATM   10  H23 UNL     1     -36.174   4.844   4.914  1.00 20.00     0.210 HD
ENDBRANCH   7   9
ENDBRANCH   5   7
ENDBRANCH   4   5
ENDBRANCH   2   4
TORSDOF 4
ENDMDL
MODEL 3
REMARK VINA RESULT:      -5.0      0.955      1.197
REMARK  4 active torsions:
REMARK  status: ('A' for Active; 'I' for Inactive)
REMARK    1  A    between atoms: C2_2  and  C6_6 
REMARK    2  A    between atoms: C6_6  and  C7_7 
REMARK    3  A    between atoms: C7_7  and  C8_8 
REMARK    4  A    between atoms: C8_8  and  O9_9 
ROOT
HETATM    1  C1  UNL     1     -32.837   8.024   1.337  1.00 20.00    -0.111 C 
HETATM    2  C2  UNL     1     -32.774   7.314   2.303  1.00 20.00    -0.107 C 
HETATM    3  C3  UNL     1     -32.910   8.889   0.161  1.00 20.00     0.112 C 
ENDROOT
BRANCH   2   4
HETATM    4  C6  UNL     1     -32.700   6.446   3.488  1.00 20.00     0.100 C 
BRANCH   4   5
HETATM    5  C7  UNL     1     -33.966   6.497   4.367  1.00 20.00     0.021 C 
HETATM    6  C4  UNL     1     -33.655   7.108   5.743  1.00 20.00     0.013 C 
BRANCH   5   7
HETATM    7  C8  UNL     1     -34.686   5.136   4.519  1.00 20.00     0.118 C 
HETATM    8  C5  UNL     1     -34.118   4.044   3.619  1.00 20.00     0.040 C 
BRANCH   7   9
HETATM    9  O9  UNL     1     -36.063   5.312   4.176  1.00 20.00    -0.396 OA
HETATM   10  H23 UNL     1     -36.076   5.640   3.265  1.00 20.00     0.210 HD
ENDBRANCH   7   9
ENDBRANCH   5   7
ENDBRANCH   4   5
ENDBRANCH   2   4
TORSDOF 4
ENDMDL
MODEL 4
REMARK VINA RESULT:      -4.5     10.862     11.547
REMARK  4 active torsions:
REMARK  status: ('A' for Active; 'I' for Inactive)
REMARK    1  A    between atoms: C2_2  and  C6_6 
REMARK    2  A    between atoms: C6_6  and  C7_7 
REMARK    3  A    between atoms: C7_7  and  C8_8 
REMARK    4  A    between atoms: C8_8  and  O9_9 
ROOT
HETATM    1  C1  UNL     1     -33.260  17.257  -1.935  1.00 20.00    -0.111 C 
HETATM    2  C2  UNL     1     -34.146  16.537  -2.307  1.00 20.00    -0.107 C 
HETATM    3  C3  UNL     1     -32.180  18.133  -1.483  1.00 20.00     0.112 C 
ENDROOT
BRANCH   2   4
HETATM    4  C6  UNL     1     -35.232  15.654  -2.759  1.00 20.00     0.100 C 
BRANCH   4   5
HETATM    5  C7  UNL     1     -34.743  14.466  -3.611  1.00 20.00     0.021 C 
HETATM    6  C4  UNL     1     -33.502  14.853  -4.432  1.00 20.00     0.013 C 
BRANCH   5   7
HETATM    7  C8  UNL     1     -35.832  13.848  -4.519  1.00 20.00     0.118 C 
HETATM    8  C5  UNL     1     -37.221  14.436  -4.289  1.00 20.00     0.040 C 
BRANCH   7   9
HETATM    9  O9  UNL     1     -35.901  12.446  -4.253  1.00 20.00    -0.396 OA
HETATM   10  H23 UNL     1     -36.834  12.198  -4.338  1.00 20.00     0.210 HD
ENDBRANCH   7   9
ENDBRANCH   5   7
ENDBRANCH   4   5
ENDBRANCH   2   4
TORSDOF 4
ENDMDL
MODEL 5
REMARK VINA RESULT:      -4.2     11.500     12.382
REMARK  4 active torsions:
REMARK  status: ('A' for Active; 'I' for Inactive)
REMARK    1  A    between atoms: C2_2  and  C6_6 
REMARK    2  A    between atoms: C6_6  and  C7_7 
REMARK    3  A    between atoms: C7_7  and  C8_8 
REMARK    4  A    between atoms: C8_8  and  O9_9 
ROOT
HETATM    1  C1  UNL     1     -33.096  17.149  -2.212  1.00 20.00    -0.111 C 
HETATM    2  C2  UNL     1     -33.772  16.276  -2.684  1.00 20.00    -0.107 C 
HETATM    3  C3  UNL     1     -32.276  18.215  -1.639  1.00 20.00     0.112 C 
ENDROOT
BRANCH   2   4
HETATM    4  C6  UNL     1     -34.596  15.204  -3.264  1.00 20.00     0.100 C 
BRANCH   4   5
HETATM    5  C7  UNL     1     -33.919  14.479  -4.444  1.00 20.00     0.021 C 
HETATM    6  C4  UNL     1     -32.395  14.425  -4.253  1.00 20.00     0.013 C 
BRANCH   5   7
HETATM    7  C8  UNL     1     -34.281  15.056  -5.832  1.00 20.00     0.118 C 
HETATM    8  C5  UNL     1     -35.657  14.626  -6.331  1.00 20.00     0.040 C 
BRANCH   7   9
HETATM    9  O9  UNL     1     -33.311  14.600  -6.778  1.00 20.00    -0.396 OA
HETATM   10  H23 UNL     1     -32.529  15.158  -6.655  1.00 20.00     0.210 HD
ENDBRANCH   7   9
ENDBRANCH   5   7
ENDBRANCH   4   5
ENDBRANCH   2   4
TORSDOF 4
ENDMDL
MODEL 6
REMARK VINA RESULT:      -4.1     11.426     12.413
REMARK  4 active torsions:
REMARK  status: ('A' for Active; 'I' for Inactive)
REMARK    1  A    between atoms: C2_2  and  C6_6 
REMARK    2  A    between atoms: C6_6  and  C7_7 
REMARK    3  A    between atoms: C7_7  and  C8_8 
REMARK    4  A    between atoms: C8_8  and  O9_9 
ROOT
HETATM    1  C1  UNL     1     -35.105  16.579  -1.329  1.00 20.00    -0.111 C 
HETATM    2  C2  UNL     1     -34.684  15.947  -2.259  1.00 20.00    -0.107 C 
HETATM    3  C3  UNL     1     -35.621  17.349  -0.198  1.00 20.00     0.112 C 
ENDROOT
BRANCH   2   4
HETATM    4  C6  UNL     1     -34.165  15.175  -3.398  1.00 20.00     0.100 C 
BRANCH   4   5
HETATM    5  C7  UNL     1     -35.144  15.100  -4.586  1.00 20.00     0.021 C 
HETATM    6  C4  UNL     1     -35.929  13.778  -4.568  1.00 20.00     0.013 C 
BRANCH   5   7
HETATM    7  C8  UNL     1     -34.483  15.329  -5.966  1.00 20.00     0.118 C 
HETATM    8  C5  UNL     1     -35.365  14.919  -7.140  1.00 20.00     0.040 C 
BRANCH   7   9
HETATM    9  O9  UNL     1     -33.284  14.551  -6.027  1.00 20.00    -0.396 OA
HETATM   10  H23 UNL     1     -33.215  14.091  -5.178  1.00 20.00     0.210 HD
ENDBRANCH   7   9
ENDBRANCH   5   7
ENDBRANCH   4   5
ENDBRANCH   2   4
TORSDOF 4
ENDMDL
MODEL 7
REMARK VINA RESULT:      -4.0     11.421     12.198
REMARK  4 active torsions:
REMARK  status: ('A' for Active; 'I' for Inactive)
REMARK    1  A    between atoms: C2_2  and  C6_6 
REMARK    2  A    between atoms: C6_6  and  C7_7 
REMARK    3  A    between atoms: C7_7  and  C8_8 
REMARK    4  A    between atoms: C8_8  and  O9_9 
ROOT
HETATM    1  C1  UNL     1     -35.007  16.963  -0.956  1.00 20.00    -0.111 C 
HETATM    2  C2  UNL     1     -35.117  16.187  -1.866  1.00 20.00    -0.107 C 
HETATM    3  C3  UNL     1     -34.872  17.908   0.151  1.00 20.00     0.112 C 
ENDROOT
BRANCH   2   4
HETATM    4  C6  UNL     1     -35.251  15.234  -2.978  1.00 20.00     0.100 C 
BRANCH   4   5
HETATM    5  C7  UNL     1     -33.979  15.115  -3.841  1.00 20.00     0.021 C 
HETATM    6  C4  UNL     1     -32.923  16.144  -3.408  1.00 20.00     0.013 C 
BRANCH   5   7
HETATM    7  C8  UNL     1     -34.238  15.199  -5.364  1.00 20.00     0.118 C 
HETATM    8  C5  UNL     1     -35.548  14.547  -5.795  1.00 20.00     0.040 C 
BRANCH   7   9
HETATM    9  O9  UNL     1     -33.172  14.529  -6.041  1.00 20.00    -0.396 OA
HETATM   10  H23 UNL     1     -32.367  15.027  -5.841  1.00 20.00     0.210 HD
ENDBRANCH   7   9
ENDBRANCH   5   7
ENDBRANCH   4   5
ENDBRANCH   2   4
TORSDOF 4
ENDMDL
MODEL 8
REMARK VINA RESULT:      -3.9     15.685     16.651
REMARK  4 active torsions:
REMARK  status: ('A' for Active; 'I' for Inactive)
REMARK    1  A    between atoms: C2_2  and  C6_6 
REMARK    2  A    between atoms: C6_6  and  C7_7 
REMARK    3  A    between atoms: C7_7  and  C8_8 
REMARK    4  A    between atoms: C8_8  and  O9_9 
ROOT
HETATM    1  C1  UNL     1     -22.110  17.539   9.412  1.00 20.00    -0.111 C 
HETATM    2  C2  UNL     1     -22.478  17.664  10.548  1.00 20.00    -0.107 C 
HETATM    3  C3  UNL     1     -21.659  17.389   8.030  1.00 20.00     0.112 C 
ENDROOT
BRANCH   2   4
HETATM    4  C6  UNL     1     -22.933  17.818  11.939  1.00 20.00     0.100 C 
BRANCH   4   5
HETATM    5  C7  UNL     1     -24.380  17.338  12.168  1.00 20.00     0.021 C 
HETATM    6  C4  UNL     1     -24.598  15.942  11.563  1.00 20.00     0.013 C 
BRANCH   5   7
HETATM    7  C8  UNL     1     -25.460  18.328  11.673  1.00 20.00     0.118 C 
HETATM    8  C5  UNL     1     -26.821  18.125  12.332  1.00 20.00     0.040 C 
BRANCH   7   9
HETATM    9  O9  UNL     1     -25.626  18.148  10.264  1.00 20.00    -0.396 OA
HETATM   10  H23 UNL     1     -26.581  18.132  10.103  1.00 20.00     0.210 HD
ENDBRANCH   7   9
ENDBRANCH   5   7
ENDBRANCH   4   5
ENDBRANCH   2   4
TORSDOF 4
ENDMDL
MODEL 9
REMARK VINA RESULT:      -3.9     15.474     16.363
REMARK  4 active torsions:
REMARK  status: ('A' for Active; 'I' for Inactive)
REMARK    1  A    between atoms: C2_2  and  C6_6 
REMARK    2  A    between atoms: C6_6  and  C7_7 
REMARK    3  A    between atoms: C7_7  and  C8_8 
REMARK    4  A    between atoms: C8_8  and  O9_9 
ROOT
HETATM    1  C1  UNL     1     -22.767  17.778   8.916  1.00 20.00    -0.111 C 
HETATM    2  C2  UNL     1     -23.704  18.095   9.598  1.00 20.00    -0.107 C 
HETATM    3  C3  UNL     1     -21.625  17.393   8.089  1.00 20.00     0.112 C 
ENDROOT
BRANCH   2   4
HETATM    4  C6  UNL     1     -24.852  18.485  10.429  1.00 20.00     0.100 C 
BRANCH   4   5
HETATM    5  C7  UNL     1     -24.685  18.121  11.918  1.00 20.00     0.021 C 
HETATM    6  C4  UNL     1     -23.205  18.159  12.329  1.00 20.00     0.013 C 
BRANCH   5   7
HETATM    7  C8  UNL     1     -25.334  16.775  12.316  1.00 20.00     0.118 C 
HETATM    8  C5  UNL     1     -24.592  15.557  11.773  1.00 20.00     0.040 C 
BRANCH   7   9
HETATM    9  O9  UNL     1     -26.665  16.743  11.796  1.00 20.00    -0.396 OA
HETATM   10  H23 UNL     1     -26.625  17.155  10.921  1.00 20.00     0.210 HD
ENDBRANCH   7   9
ENDBRANCH   5   7
ENDBRANCH   4   5
ENDBRANCH   2   4
TORSDOF 4
ENDMDL
