MODEL 1
REMARK VINA RESULT:      -5.2      0.000      0.000
REMARK  3 active torsions:
REMARK  status: ('A' for Active; 'I' for Inactive)
REMARK    1  A    between atoms: C2_2  and  C7_7 
REMARK    2  A    between atoms: C3_3  and  C8_8 
REMARK    3  A    between atoms: C7_7  and  C8_8 
ROOT
HETATM    1  C1  UNL     1     -32.778   8.262   1.067  1.00 20.00    -0.111 C 
HETATM    2  C2  UNL     1     -32.676   7.578   2.049  1.00 20.00    -0.106 C 
HETATM    3  C4  UNL     1     -32.908   9.095  -0.128  1.00 20.00     0.112 C 
ENDROOT
BRANCH   2   4
HETATM    4  C7  UNL     1     -32.550   6.742   3.253  1.00 20.00     0.105 C 
BRANCH   4   5
HETATM    5  C8  UNL     1     -33.876   6.103   3.688  1.00 20.00     0.062 C 
HETATM    6  C6  UNL     1     -33.982   4.643   3.242  1.00 20.00     0.018 C 
BRANCH   5   7
HETATM    7  C3  UNL     1     -34.111   6.244   5.193  1.00 20.00     0.127 C 
HETATM    8  C5  UNL     1     -34.854   5.125   5.879  1.00 20.00     0.091 C 
HETATM    9  O9  UNL     1     -33.704   7.212   5.836  1.00 20.00    -0.298 OA
ENDBRANCH   5   7
ENDBRANCH   4   5
ENDBRANCH   2   4
TORSDOF 3
ENDMDL
MODEL 2
REMARK VINA RESULT:      -5.1      1.290      1.341
REMARK  3 active torsions:
REMARK  status: ('A' for Active; 'I' for Inactive)
REMARK    1  A    between atoms: C2_2  and  C7_7 
REMARK    2  A    between atoms: C3_3  and  C8_8 
REMARK    3  A    between atoms: C7_7  and  C8_8 
ROOT
HETATM    1  C1  UNL     1     -32.715   8.360   1.049  1.00 20.00    -0.111 C 
HETATM    2  C2  UNL     1     -32.715   7.639   2.009  1.00 20.00    -0.106 C 
HETATM    3  C4  UNL     1     -32.718   9.234  -0.124  1.00 20.00     0.112 C 
ENDROOT
BRANCH   2   4
HETATM    4  C7  UNL     1     -32.716   6.758   3.187  1.00 20.00     0.105 C 
BRANCH   4   5
HETATM    5  C8  UNL     1     -33.801   5.673   3.129  1.00 20.00     0.062 C 
HETATM    6  C6  UNL     1     -33.275   4.367   2.529  1.00 20.00     0.018 C 
BRANCH   5   7
HETATM    7  C3  UNL     1     -34.446   5.437   4.496  1.00 20.00     0.127 C 
HETATM    8  C5  UNL     1     -34.140   6.439   5.581  1.00 20.00     0.091 C 
HETATM    9  O9  UNL     1     -35.197   4.487   4.716  1.00 20.00    -0.298 OA
ENDBRANCH   5   7
ENDBRANCH   4   5
ENDBRANCH   2   4
TORSDOF 3
ENDMDL
MODEL 3
REMARK VINA RESULT:      -4.6     10.857     11.453
REMARK  3 active torsions:
REMARK  status: ('A' for Active; 'I' for Inactive)
REMARK    1  A    between atoms: C2_2  and  C7_7 
REMARK    2  A    between atoms: C3_3  and  C8_8 
REMARK    3  A    between atoms: C7_7  and  C8_8 
ROOT
HETATM    1  C1  UNL     1     -33.208  17.304  -1.994  1.00 20.00    -0.111 C 
HETATM    2  C2  UNL     1     -34.055  16.497  -2.266  1.00 20.00    -0.106 C 
HETATM    3  C4  UNL     1     -32.180  18.291  -1.666  1.00 20.00     0.112 C 
ENDROOT
BRANCH   2   4
HETATM    4  C7  UNL     1     -35.093  15.508  -2.597  1.00 20.00     0.105 C 
BRANCH   4   5
HETATM    5  C8  UNL     1     -34.956  14.939  -4.016  1.00 20.00     0.062 C 
HETATM    6  C6  UNL     1     -33.564  14.358  -4.270  1.00 20.00     0.018 C 
BRANCH   5   7
HETATM    7  C3  UNL     1     -36.052  13.918  -4.329  1.00 20.00     0.127 C 
HETATM    8  C5  UNL     1     -37.471  14.426  -4.374  1.00 20.00     0.091 C 
HETATM    9  O9  UNL     1     -35.804  12.733  -4.553  1.00 20.00    -0.298 OA
ENDBRANCH   5   7
ENDBRANCH   4   5
ENDBRANCH   2   4
TORSDOF 3
ENDMDL
MODEL 4
REMARK VINA RESULT:      -4.5     11.044     11.611
REMARK  3 active torsions:
REMARK  status: ('A' for Active; 'I' for Inactive)
REMARK    1  A    between atoms: C2_2  and  C7_7 
REMARK    2  A    between atoms: C3_3  and  C8_8 
REMARK    3  A    between atoms: C7_7  and  C8_8 
ROOT
HETATM    1  C1  UNL     1     -34.850  16.393  -1.620  1.00 20.00    -0.111 C 
HETATM    2  C2  UNL     1     -34.487  15.789  -2.593  1.00 20.00    -0.106 C 
HETATM    3  C4  UNL     1     -35.291  17.123  -0.431  1.00 20.00     0.112 C 
ENDROOT
BRANCH   2   4
HETATM    4  C7  UNL     1     -34.041  15.052  -3.784  1.00 20.00     0.105 C 
BRANCH   4   5
HETATM    5  C8  UNL     1     -35.098  15.003  -4.897  1.00 20.00     0.062 C 
HETATM    6  C6  UNL     1     -34.468  14.817  -6.279  1.00 20.00     0.018 C 
BRANCH   5   7
HETATM    7  C3  UNL     1     -36.165  13.941  -4.623  1.00 20.00     0.127 C 
HETATM    8  C5  UNL     1     -37.569  14.430  -4.366  1.00 20.00     0.091 C 
HETATM    9  O9  UNL     1     -35.913  12.736  -4.626  1.00 20.00    -0.298 OA
ENDBRANCH   5   7
ENDBRANCH   4   5
ENDBRANCH   2   4
TORSDOF 3
ENDMDL
MODEL 5
REMARK VINA RESULT:      -4.3     10.898     11.713
REMARK  3 active torsions:
REMARK  status: ('A' for Active; 'I' for Inactive)
REMARK    1  A    between atoms: C2_2  and  C7_7 
REMARK    2  A    between atoms: C3_3  and  C8_8 
REMARK    3  A    between atoms: C7_7  and  C8_8 
ROOT
HETATM    1  C1  UNL     1     -32.817  17.267  -2.314  1.00 20.00    -0.111 C 
HETATM    2  C2  UNL     1     -33.176  16.347  -2.997  1.00 20.00    -0.106 C 
HETATM    3  C4  UNL     1     -32.384  18.391  -1.485  1.00 20.00     0.112 C 
ENDROOT
BRANCH   2   4
HETATM    4  C7  UNL     1     -33.616  15.219  -3.832  1.00 20.00     0.105 C 
BRANCH   4   5
HETATM    5  C8  UNL     1     -35.046  14.756  -3.518  1.00 20.00     0.062 C 
HETATM    6  C6  UNL     1     -35.976  15.932  -3.214  1.00 20.00     0.018 C 
BRANCH   5   7
HETATM    7  C3  UNL     1     -35.614  13.868  -4.626  1.00 20.00     0.127 C 
HETATM    8  C5  UNL     1     -35.844  14.511  -5.971  1.00 20.00     0.091 C 
HETATM    9  O9  UNL     1     -35.864  12.675  -4.453  1.00 20.00    -0.298 OA
ENDBRANCH   5   7
ENDBRANCH   4   5
ENDBRANCH   2   4
TORSDOF 3
ENDMDL
MODEL 6
REMARK VINA RESULT:      -4.1     10.597     11.571
REMARK  3 active torsions:
REMARK  status: ('A' for Active; 'I' for Inactive)
REMARK    1  A    between atoms: C2_2  and  C7_7 
REMARK    2  A    between atoms: C3_3  and  C8_8 
REMARK    3  A    between atoms: C7_7  and  C8_8 
ROOT
HETATM    1  C1  UNL     1     -32.590  17.802  -1.649  1.00 20.00    -0.111 C 
HETATM    2  C2  UNL     1     -32.944  16.952  -2.421  1.00 20.00    -0.106 C 
HETATM    3  C4  UNL     1     -32.157  18.833  -0.707  1.00 20.00     0.112 C 
ENDROOT
BRANCH   2   4
HETATM    4  C7  UNL     1     -33.375  15.912  -3.368  1.00 20.00     0.105 C 
BRANCH   4   5
HETATM    5  C8  UNL     1     -34.729  15.288  -3.005  1.00 20.00     0.062 C 
HETATM    6  C6  UNL     1     -35.869  16.307  -3.077  1.00 20.00     0.018 C 
BRANCH   5   7
HETATM    7  C3  UNL     1     -35.033  14.051  -3.853  1.00 20.00     0.127 C 
HETATM    8  C5  UNL     1     -36.401  13.972  -4.486  1.00 20.00     0.091 C 
HETATM    9  O9  UNL     1     -34.207  13.158  -4.037  1.00 20.00    -0.298 OA
ENDBRANCH   5   7
ENDBRANCH   4   5
ENDBRANCH   2   4
TORSDOF 3
ENDMDL
MODEL 7
REMARK VINA RESULT:      -4.0     15.144     15.727
REMARK  3 active torsions:
REMARK  status: ('A' for Active; 'I' for Inactive)
REMARK    1  A    between atoms: C2_2  and  C7_7 
REMARK    2  A    between atoms: C3_3  and  C8_8 
REMARK    3  A    between atoms: C7_7  and  C8_8 
ROOT
HETATM    1  C1  UNL     1     -25.329  18.977   7.172  1.00 20.00    -0.111 C 
HETATM    2  C2  UNL     1     -24.864  18.800   8.265  1.00 20.00    -0.106 C 
HETATM    3  C4  UNL     1     -25.896  19.198   5.842  1.00 20.00     0.112 C 
ENDROOT
BRANCH   2   4
HETATM    4  C7  UNL     1     -24.293  18.583   9.603  1.00 20.00     0.105 C 
BRANCH   4   5
HETATM    5  C8  UNL     1     -23.705  17.177   9.789  1.00 20.00     0.062 C 
HETATM    6  C6  UNL     1     -22.360  17.018   9.076  1.00 20.00     0.018 C 
BRANCH   5   7
HETATM    7  C3  UNL     1     -23.601  16.793  11.266  1.00 20.00     0.127 C 
HETATM    8  C5  UNL     1     -24.583  15.770  11.780  1.00 20.00     0.091 C 
HETATM    9  O9  UNL     1     -22.749  17.273  12.014  1.00 20.00    -0.298 OA
ENDBRANCH   5   7
ENDBRANCH   4   5
ENDBRANCH   2   4
TORSDOF 3
ENDMDL
MODEL 8
REMARK VINA RESULT:      -3.9     15.176     16.232
REMARK  3 active torsions:
REMARK  status: ('A' for Active; 'I' for Inactive)
REMARK    1  A    between atoms: C2_2  and  C7_7 
REMARK    2  A    between atoms: C3_3  and  C8_8 
REMARK    3  A    between atoms: C7_7  and  C8_8 
ROOT
HETATM    1  C1  UNL     1     -24.626  16.910  10.982  1.00 20.00    -0.111 C 
HETATM    2  C2  UNL     1     -24.746  17.880  10.283  1.00 20.00    -0.106 C 
HETATM    3  C4  UNL     1     -24.486  15.731  11.836  1.00 20.00     0.112 C 
ENDROOT
BRANCH   2   4
HETATM    4  C7  UNL     1     -24.892  19.065   9.425  1.00 20.00     0.105 C 
BRANCH   4   5
HETATM    5  C8  UNL     1     -23.892  19.097   8.262  1.00 20.00     0.062 C 
HETATM    6  C6  UNL     1     -22.904  17.930   8.322  1.00 20.00     0.018 C 
BRANCH   5   7
HETATM    7  C3  UNL     1     -24.596  19.162   6.905  1.00 20.00     0.127 C 
HETATM    8  C5  UNL     1     -26.104  19.117   6.912  1.00 20.00     0.091 C 
HETATM    9  O9  UNL     1     -23.978  19.262   5.845  1.00 20.00    -0.298 OA
ENDBRANCH   5   7
ENDBRANCH   4   5
ENDBRANCH   2   4
TORSDOF 3
ENDMDL
MODEL 9
REMARK VINA RESULT:      -3.9     11.398     12.301
REMARK  3 active torsions:
REMARK  status: ('A' for Active; 'I' for Inactive)
REMARK    1  A    between atoms: C2_2  and  C7_7 
REMARK    2  A    between atoms: C3_3  and  C8_8 
REMARK    3  A    between atoms: C7_7  and  C8_8 
ROOT
HETATM    1  C1  UNL     1     -33.138  16.651  -2.670  1.00 20.00    -0.111 C 
HETATM    2  C2  UNL     1     -33.350  15.792  -3.483  1.00 20.00    -0.106 C 
HETATM    3  C4  UNL     1     -32.878  17.700  -1.685  1.00 20.00     0.112 C 
ENDROOT
BRANCH   2   4
HETATM    4  C7  UNL     1     -33.613  14.741  -4.477  1.00 20.00     0.105 C 
BRANCH   4   5
HETATM    5  C8  UNL     1     -34.459  15.227  -5.663  1.00 20.00     0.062 C 
HETATM    6  C6  UNL     1     -33.744  15.021  -7.000  1.00 20.00     0.018 C 
BRANCH   5   7
HETATM    7  C3  UNL     1     -35.850  14.590  -5.671  1.00 20.00     0.127 C 
HETATM    8  C5  UNL     1     -36.166  13.619  -4.561  1.00 20.00     0.091 C 
HETATM    9  O9  UNL     1     -36.693  14.858  -6.527  1.00 20.00    -0.298 OA
ENDBRANCH   5   7
ENDBRANCH   4   5
ENDBRANCH   2   4
TORSDOF 3
ENDMDL
