MODEL 1
REMARK VINA RESULT:      -4.9      0.000      0.000
REMARK  4 active torsions:
REMARK  status: ('A' for Active; 'I' for Inactive)
REMARK    1  A    between atoms: C2_2  and  C7_7 
REMARK    2  A    between atoms: C5_5  and  C8_8 
REMARK    3  A    between atoms: C7_7  and  C8_8 
REMARK    4  A    between atoms: C8_8  and  O9_9 
ROOT
HETATM    1  C1  UNL     1     -32.904   8.240   0.871  1.00 20.00    -0.111 C 
HETATM    2  C2  UNL     1     -32.579   7.749   1.918  1.00 20.00    -0.104 C 
HETATM    3  C6  UNL     1     -33.298   8.835  -0.404  1.00 20.00     0.112 C 
ENDROOT
BRANCH   2   4
HETATM    4  C7  UNL     1     -32.182   7.150   3.203  1.00 20.00     0.126 C 
BRANCH   4   5
HETATM    5  C8  UNL     1     -33.033   5.922   3.532  1.00 20.00     0.133 C 
BRANCH   5   6
HETATM    6  C5  UNL     1     -34.280   6.310   4.316  1.00 20.00     0.015 A 
HETATM    7  C3  UNL     1     -35.231   5.251   4.800  1.00 20.00     0.007 A 
HETATM    8  C4  UNL     1     -34.378   5.999   5.785  1.00 20.00     0.007 A 
ENDBRANCH   5   6
BRANCH   5   9
HETATM    9  O9  UNL     1     -33.440   5.305   2.311  1.00 20.00    -0.394 OA
HETATM   10  H21 UNL     1     -34.323   5.651   2.109  1.00 20.00     0.210 HD
ENDBRANCH   5   9
ENDBRANCH   4   5
ENDBRANCH   2   4
TORSDOF 4
ENDMDL
MODEL 2
REMARK VINA RESULT:      -4.9      1.419      1.546
REMARK  4 active torsions:
REMARK  status: ('A' for Active; 'I' for Inactive)
REMARK    1  A    between atoms: C2_2  and  C7_7 
REMARK    2  A    between atoms: C5_5  and  C8_8 
REMARK    3  A    between atoms: C7_7  and  C8_8 
REMARK    4  A    between atoms: C8_8  and  O9_9 
ROOT
HETATM    1  C1  UNL     1     -32.872   8.189   0.959  1.00 20.00    -0.111 C 
HETATM    2  C2  UNL     1     -32.597   7.617   1.978  1.00 20.00    -0.104 C 
HETATM    3  C6  UNL     1     -33.208   8.884  -0.283  1.00 20.00     0.112 C 
ENDROOT
BRANCH   2   4
HETATM    4  C7  UNL     1     -32.259   6.918   3.229  1.00 20.00     0.126 C 
BRANCH   4   5
HETATM    5  C8  UNL     1     -33.442   6.908   4.199  1.00 20.00     0.133 C 
BRANCH   5   6
HETATM    6  C5  UNL     1     -34.071   5.523   4.284  1.00 20.00     0.015 A 
HETATM    7  C3  UNL     1     -34.826   5.109   5.517  1.00 20.00     0.007 A 
HETATM    8  C4  UNL     1     -35.567   5.367   4.234  1.00 20.00     0.007 A 
ENDBRANCH   5   6
BRANCH   5   9
HETATM    9  O9  UNL     1     -32.974   7.274   5.496  1.00 20.00    -0.394 OA
HETATM   10  H21 UNL     1     -32.281   6.637   5.729  1.00 20.00     0.210 HD
ENDBRANCH   5   9
ENDBRANCH   4   5
ENDBRANCH   2   4
TORSDOF 4
ENDMDL
MODEL 3
REMARK VINA RESULT:      -4.4      1.271      4.642
REMARK  4 active torsions:
REMARK  status: ('A' for Active; 'I' for Inactive)
REMARK    1  A    between atoms: C2_2  and  C7_7 
REMARK    2  A    between atoms: C5_5  and  C8_8 
REMARK    3  A    between atoms: C7_7  and  C8_8 
REMARK    4  A    between atoms: C8_8  and  O9_9 
ROOT
HETATM    1  C1  UNL     1     -34.294   5.502   4.563  1.00 20.00    -0.111 C 
HETATM    2  C2  UNL     1     -33.753   5.582   3.494  1.00 20.00    -0.104 C 
HETATM    3  C6  UNL     1     -34.951   5.405   5.866  1.00 20.00     0.112 C 
ENDROOT
BRANCH   2   4
HETATM    4  C7  UNL     1     -33.093   5.678   2.183  1.00 20.00     0.126 C 
BRANCH   4   5
HETATM    5  C8  UNL     1     -32.379   7.021   2.016  1.00 20.00     0.133 C 
BRANCH   5   6
HETATM    6  C5  UNL     1     -33.288   8.050   1.358  1.00 20.00     0.015 A 
HETATM    7  C3  UNL     1     -32.757   9.409   0.996  1.00 20.00     0.007 A 
HETATM    8  C4  UNL     1     -33.092   8.421  -0.087  1.00 20.00     0.007 A 
ENDBRANCH   5   6
BRANCH   5   9
HETATM    9  O9  UNL     1     -32.004   7.505   3.305  1.00 20.00    -0.394 OA
HETATM   10  H21 UNL     1     -32.829   7.725   3.766  1.00 20.00     0.210 HD
ENDBRANCH   5   9
ENDBRANCH   4   5
ENDBRANCH   2   4
TORSDOF 4
ENDMDL
MODEL 4
REMARK VINA RESULT:      -4.3     15.201     15.944
REMARK  4 active torsions:
REMARK  status: ('A' for Active; 'I' for Inactive)
REMARK    1  A    between atoms: C2_2  and  C7_7 
REMARK    2  A    between atoms: C5_5  and  C8_8 
REMARK    3  A    between atoms: C7_7  and  C8_8 
REMARK    4  A    between atoms: C8_8  and  O9_9 
ROOT
HETATM    1  C1  UNL     1     -24.843  18.888   7.633  1.00 20.00    -0.111 C 
HETATM    2  C2  UNL     1     -23.909  18.772   8.379  1.00 20.00    -0.104 C 
HETATM    3  C6  UNL     1     -25.981  19.028   6.726  1.00 20.00     0.112 C 
ENDROOT
BRANCH   2   4
HETATM    4  C7  UNL     1     -22.763  18.633   9.292  1.00 20.00     0.126 C 
BRANCH   4   5
HETATM    5  C8  UNL     1     -22.847  17.334  10.097  1.00 20.00     0.133 C 
BRANCH   5   6
HETATM    6  C5  UNL     1     -24.240  17.138  10.681  1.00 20.00     0.015 A 
HETATM    7  C3  UNL     1     -24.556  15.910  11.489  1.00 20.00     0.007 A 
HETATM    8  C4  UNL     1     -24.460  17.249  12.165  1.00 20.00     0.007 A 
ENDBRANCH   5   6
BRANCH   5   9
HETATM    9  O9  UNL     1     -22.560  16.238   9.230  1.00 20.00    -0.394 OA
HETATM   10  H21 UNL     1     -23.212  15.549   9.433  1.00 20.00     0.210 HD
ENDBRANCH   5   9
ENDBRANCH   4   5
ENDBRANCH   2   4
TORSDOF 4
ENDMDL
MODEL 5
REMARK VINA RESULT:      -4.3     10.882     11.412
REMARK  4 active torsions:
REMARK  status: ('A' for Active; 'I' for Inactive)
REMARK    1  A    between atoms: C2_2  and  C7_7 
REMARK    2  A    between atoms: C5_5  and  C8_8 
REMARK    3  A    between atoms: C7_7  and  C8_8 
REMARK    4  A    between atoms: C8_8  and  O9_9 
ROOT
HETATM    1  C1  UNL     1     -34.612  16.622  -1.594  1.00 20.00    -0.111 C 
HETATM    2  C2  UNL     1     -33.915  16.240  -2.494  1.00 20.00    -0.104 C 
HETATM    3  C6  UNL     1     -35.459  17.086  -0.496  1.00 20.00     0.112 C 
ENDROOT
BRANCH   2   4
HETATM    4  C7  UNL     1     -33.064  15.774  -3.600  1.00 20.00     0.126 C 
BRANCH   4   5
HETATM    5  C8  UNL     1     -33.721  14.622  -4.362  1.00 20.00     0.133 C 
BRANCH   5   6
HETATM    6  C5  UNL     1     -35.190  14.912  -4.640  1.00 20.00     0.015 A 
HETATM    7  C3  UNL     1     -35.869  14.307  -5.837  1.00 20.00     0.007 A 
HETATM    8  C4  UNL     1     -36.223  13.834  -4.455  1.00 20.00     0.007 A 
ENDBRANCH   5   6
BRANCH   5   9
HETATM    9  O9  UNL     1     -33.049  14.453  -5.609  1.00 20.00    -0.394 OA
HETATM   10  H21 UNL     1     -32.218  13.992  -5.414  1.00 20.00     0.210 HD
ENDBRANCH   5   9
ENDBRANCH   4   5
ENDBRANCH   2   4
TORSDOF 4
ENDMDL
MODEL 6
REMARK VINA RESULT:      -4.3      1.418      1.717
REMARK  4 active torsions:
REMARK  status: ('A' for Active; 'I' for Inactive)
REMARK    1  A    between atoms: C2_2  and  C7_7 
REMARK    2  A    between atoms: C5_5  and  C8_8 
REMARK    3  A    between atoms: C7_7  and  C8_8 
REMARK    4  A    between atoms: C8_8  and  O9_9 
ROOT
HETATM    1  C1  UNL     1     -32.838   7.455   1.732  1.00 20.00    -0.111 C 
HETATM    2  C2  UNL     1     -33.097   6.324   2.041  1.00 20.00    -0.104 C 
HETATM    3  C6  UNL     1     -32.524   8.833   1.358  1.00 20.00     0.112 C 
ENDROOT
BRANCH   2   4
HETATM    4  C7  UNL     1     -33.414   4.937   2.417  1.00 20.00     0.126 C 
BRANCH   4   5
HETATM    5  C8  UNL     1     -33.575   4.792   3.931  1.00 20.00     0.133 C 
BRANCH   5   6
HETATM    6  C5  UNL     1     -34.355   5.963   4.516  1.00 20.00     0.015 A 
HETATM    7  C3  UNL     1     -34.869   5.901   5.928  1.00 20.00     0.007 A 
HETATM    8  C4  UNL     1     -33.737   6.828   5.581  1.00 20.00     0.007 A 
ENDBRANCH   5   6
BRANCH   5   9
HETATM    9  O9  UNL     1     -34.292   3.589   4.204  1.00 20.00    -0.394 OA
HETATM   10  H21 UNL     1     -34.425   3.560   5.164  1.00 20.00     0.210 HD
ENDBRANCH   5   9
ENDBRANCH   4   5
ENDBRANCH   2   4
TORSDOF 4
ENDMDL
MODEL 7
REMARK VINA RESULT:      -4.1     10.409     11.251
REMARK  4 active torsions:
REMARK  status: ('A' for Active; 'I' for Inactive)
REMARK    1  A    between atoms: C2_2  and  C7_7 
REMARK    2  A    between atoms: C5_5  and  C8_8 
REMARK    3  A    between atoms: C7_7  and  C8_8 
REMARK    4  A    between atoms: C8_8  and  O9_9 
ROOT
HETATM    1  C1  UNL     1     -33.284  16.432  -2.854  1.00 20.00    -0.111 C 
HETATM    2  C2  UNL     1     -33.647  15.505  -3.525  1.00 20.00    -0.104 C 
HETATM    3  C6  UNL     1     -32.845  17.562  -2.036  1.00 20.00     0.112 C 
ENDROOT
BRANCH   2   4
HETATM    4  C7  UNL     1     -34.088  14.367  -4.347  1.00 20.00     0.126 C 
BRANCH   4   5
HETATM    5  C8  UNL     1     -35.523  13.958  -4.009  1.00 20.00     0.133 C 
BRANCH   5   6
HETATM    6  C5  UNL     1     -36.532  14.873  -4.692  1.00 20.00     0.015 A 
HETATM    7  C3  UNL     1     -37.996  14.761  -4.367  1.00 20.00     0.007 A 
HETATM    8  C4  UNL     1     -37.215  15.962  -3.911  1.00 20.00     0.007 A 
ENDBRANCH   5   6
BRANCH   5   9
HETATM    9  O9  UNL     1     -35.739  12.624  -4.465  1.00 20.00    -0.394 OA
HETATM   10  H21 UNL     1     -36.669  12.418  -4.281  1.00 20.00     0.210 HD
ENDBRANCH   5   9
ENDBRANCH   4   5
ENDBRANCH   2   4
TORSDOF 4
ENDMDL
MODEL 8
REMARK VINA RESULT:      -4.0     10.740     12.197
REMARK  4 active torsions:
REMARK  status: ('A' for Active; 'I' for Inactive)
REMARK    1  A    between atoms: C2_2  and  C7_7 
REMARK    2  A    between atoms: C5_5  and  C8_8 
REMARK    3  A    between atoms: C7_7  and  C8_8 
REMARK    4  A    between atoms: C8_8  and  O9_9 
ROOT
HETATM    1  C1  UNL     1     -33.019  17.151  -2.410  1.00 20.00    -0.111 C 
HETATM    2  C2  UNL     1     -33.619  16.198  -2.827  1.00 20.00    -0.104 C 
HETATM    3  C6  UNL     1     -32.288  18.311  -1.901  1.00 20.00     0.112 C 
ENDROOT
BRANCH   2   4
HETATM    4  C7  UNL     1     -34.355  15.032  -3.341  1.00 20.00     0.126 C 
BRANCH   4   5
HETATM    5  C8  UNL     1     -33.796  14.570  -4.688  1.00 20.00     0.133 C 
BRANCH   5   6
HETATM    6  C5  UNL     1     -34.278  15.469  -5.820  1.00 20.00     0.015 A 
HETATM    7  C3  UNL     1     -33.875  15.181  -7.240  1.00 20.00     0.007 A 
HETATM    8  C4  UNL     1     -35.298  14.965  -6.805  1.00 20.00     0.007 A 
ENDBRANCH   5   6
BRANCH   5   9
HETATM    9  O9  UNL     1     -32.371  14.628  -4.639  1.00 20.00    -0.394 OA
HETATM   10  H21 UNL     1     -32.053  13.737  -4.850  1.00 20.00     0.210 HD
ENDBRANCH   5   9
ENDBRANCH   4   5
ENDBRANCH   2   4
TORSDOF 4
ENDMDL
MODEL 9
REMARK VINA RESULT:      -4.0     10.805     12.425
REMARK  4 active torsions:
REMARK  status: ('A' for Active; 'I' for Inactive)
REMARK    1  A    between atoms: C2_2  and  C7_7 
REMARK    2  A    between atoms: C5_5  and  C8_8 
REMARK    3  A    between atoms: C7_7  and  C8_8 
REMARK    4  A    between atoms: C8_8  and  O9_9 
ROOT
HETATM    1  C1  UNL     1     -33.955  16.131  -2.714  1.00 20.00    -0.111 C 
HETATM    2  C2  UNL     1     -34.493  15.267  -3.353  1.00 20.00    -0.104 C 
HETATM    3  C6  UNL     1     -33.301  17.183  -1.938  1.00 20.00     0.112 C 
ENDROOT
BRANCH   2   4
HETATM    4  C7  UNL     1     -35.151  14.207  -4.133  1.00 20.00     0.126 C 
BRANCH   4   5
HETATM    5  C8  UNL     1     -35.491  14.685  -5.546  1.00 20.00     0.133 C 
BRANCH   5   6
HETATM    6  C5  UNL     1     -34.273  15.292  -6.230  1.00 20.00     0.015 A 
HETATM    7  C3  UNL     1     -34.219  15.395  -7.729  1.00 20.00     0.007 A 
HETATM    8  C4  UNL     1     -34.372  16.637  -6.896  1.00 20.00     0.007 A 
ENDBRANCH   5   6
BRANCH   5   9
HETATM    9  O9  UNL     1     -35.932  13.566  -6.315  1.00 20.00    -0.394 OA
HETATM   10  H21 UNL     1     -36.749  13.843  -6.759  1.00 20.00     0.210 HD
ENDBRANCH   5   9
ENDBRANCH   4   5
ENDBRANCH   2   4
TORSDOF 4
ENDMDL
