MODEL 1
REMARK VINA RESULT:      -4.0      0.000      0.000
REMARK  4 active torsions:
REMARK  status: ('A' for Active; 'I' for Inactive)
REMARK    1  A    between atoms: C2_2  and  C7_7 
REMARK    2  A    between atoms: C7_7  and  N11_11 
REMARK    3  A    between atoms: C8_8  and  C9_9 
REMARK    4  A    between atoms: C8_8  and  N11_11 
ROOT
HETATM    1  C1  UNL     1     -34.675  16.325  -1.856  1.00 20.00    -0.109 C 
HETATM    2  C2  UNL     1     -34.211  15.827  -2.846  1.00 20.00    -0.079 C 
HETATM    3  C4  UNL     1     -35.239  16.931  -0.652  1.00 20.00     0.112 C 
ENDROOT
BRANCH   2   4
HETATM    4  C7  UNL     1     -33.651  15.217  -4.049  1.00 20.00     0.327 C 
BRANCH   4   5
HETATM    5  N11 UNL     1     -34.667  15.266  -5.164  1.00 20.00    -0.064 N 
HETATM    6  C6  UNL     1     -34.029  14.960  -6.496  1.00 20.00     0.270 C 
HETATM    7  H26 UNL     1     -35.331  14.495  -4.981  1.00 20.00     0.280 HD
BRANCH   5   8
HETATM    8  C8  UNL     1     -35.438  16.534  -5.176  1.00 20.00     0.254 C 
BRANCH   8   9
HETATM    9  C9  UNL     1     -36.946  16.287  -5.062  1.00 20.00     0.114 C 
HETATM   10  C3  UNL     1     -37.238  14.884  -4.712  1.00 20.00     0.065 C 
HETATM   11  N10 UNL     1     -37.469  13.780  -4.439  1.00 20.00    -0.197 NA
HETATM   12  C5  UNL     1     -37.633  17.236  -4.081  1.00 20.00     0.027 C 
ENDBRANCH   8   9
ENDBRANCH   5   8
ENDBRANCH   4   5
ENDBRANCH   2   4
TORSDOF 4
ENDMDL
MODEL 2
REMARK VINA RESULT:      -4.0     17.259     19.054
REMARK  4 active torsions:
REMARK  status: ('A' for Active; 'I' for Inactive)
REMARK    1  A    between atoms: C2_2  and  C7_7 
REMARK    2  A    between atoms: C7_7  and  N11_11 
REMARK    3  A    between atoms: C8_8  and  C9_9 
REMARK    4  A    between atoms: C8_8  and  N11_11 
ROOT
HETATM    1  C1  UNL     1     -26.342  17.343  12.132  1.00 20.00    -0.109 C 
HETATM    2  C2  UNL     1     -25.266  16.836  11.967  1.00 20.00    -0.079 C 
HETATM    3  C4  UNL     1     -27.652  17.961  12.332  1.00 20.00     0.112 C 
ENDROOT
BRANCH   2   4
HETATM    4  C7  UNL     1     -23.955  16.224  11.766  1.00 20.00     0.327 C 
BRANCH   4   5
HETATM    5  N11 UNL     1     -22.988  17.255  11.238  1.00 20.00    -0.064 N 
HETATM    6  C6  UNL     1     -22.040  17.716  12.316  1.00 20.00     0.270 C 
HETATM    7  H26 UNL     1     -22.407  16.769  10.534  1.00 20.00     0.280 HD
BRANCH   5   8
HETATM    8  C8  UNL     1     -23.673  18.383  10.559  1.00 20.00     0.254 C 
BRANCH   8   9
HETATM    9  C9  UNL     1     -23.258  18.501   9.088  1.00 20.00     0.114 C 
HETATM   10  C3  UNL     1     -22.325  17.425   8.702  1.00 20.00     0.065 C 
HETATM   11  N10 UNL     1     -21.591  16.580   8.398  1.00 20.00    -0.197 NA
HETATM   12  C5  UNL     1     -24.450  18.542   8.133  1.00 20.00     0.027 C 
ENDBRANCH   8   9
ENDBRANCH   5   8
ENDBRANCH   4   5
ENDBRANCH   2   4
TORSDOF 4
ENDMDL
MODEL 3
REMARK VINA RESULT:      -3.9      1.301      1.981
REMARK  4 active torsions:
REMARK  status: ('A' for Active; 'I' for Inactive)
REMARK    1  A    between atoms: C2_2  and  C7_7 
REMARK    2  A    between atoms: C7_7  and  N11_11 
REMARK    3  A    between atoms: C8_8  and  C9_9 
REMARK    4  A    between atoms: C8_8  and  N11_11 
ROOT
HETATM    1  C1  UNL     1     -34.776  16.677  -1.372  1.00 20.00    -0.109 C 
HETATM    2  C2  UNL     1     -34.173  16.307  -2.343  1.00 20.00    -0.079 C 
HETATM    3  C4  UNL     1     -35.508  17.129  -0.191  1.00 20.00     0.112 C 
ENDROOT
BRANCH   2   4
HETATM    4  C7  UNL     1     -33.436  15.859  -3.521  1.00 20.00     0.327 C 
BRANCH   4   5
HETATM    5  N11 UNL     1     -33.863  16.663  -4.725  1.00 20.00    -0.064 N 
HETATM    6  C6  UNL     1     -33.591  18.133  -4.523  1.00 20.00     0.270 C 
HETATM    7  H26 UNL     1     -33.251  16.363  -5.502  1.00 20.00     0.280 HD
BRANCH   5   8
HETATM    8  C8  UNL     1     -35.266  16.391  -5.123  1.00 20.00     0.254 C 
BRANCH   8   9
HETATM    9  C9  UNL     1     -35.453  14.950  -5.611  1.00 20.00     0.114 C 
HETATM   10  C3  UNL     1     -36.594  14.297  -4.941  1.00 20.00     0.065 C 
HETATM   11  N10 UNL     1     -37.490  13.782  -4.413  1.00 20.00    -0.197 NA
HETATM   12  C5  UNL     1     -35.596  14.848  -7.129  1.00 20.00     0.027 C 
ENDBRANCH   8   9
ENDBRANCH   5   8
ENDBRANCH   4   5
ENDBRANCH   2   4
TORSDOF 4
ENDMDL
MODEL 4
REMARK VINA RESULT:      -3.9      2.188      2.976
REMARK  4 active torsions:
REMARK  status: ('A' for Active; 'I' for Inactive)
REMARK    1  A    between atoms: C2_2  and  C7_7 
REMARK    2  A    between atoms: C7_7  and  N11_11 
REMARK    3  A    between atoms: C8_8  and  C9_9 
REMARK    4  A    between atoms: C8_8  and  N11_11 
ROOT
HETATM    1  C1  UNL     1     -32.485  18.288  -2.271  1.00 20.00    -0.109 C 
HETATM    2  C2  UNL     1     -33.050  18.328  -3.330  1.00 20.00    -0.079 C 
HETATM    3  C4  UNL     1     -31.797  18.238  -0.983  1.00 20.00     0.112 C 
ENDROOT
BRANCH   2   4
HETATM    4  C7  UNL     1     -33.735  18.372  -4.619  1.00 20.00     0.327 C 
BRANCH   4   5
HETATM    5  N11 UNL     1     -34.045  16.969  -5.079  1.00 20.00    -0.064 N 
HETATM    6  C6  UNL     1     -34.573  16.962  -6.492  1.00 20.00     0.270 C 
HETATM    7  H26 UNL     1     -33.139  16.470  -5.109  1.00 20.00     0.280 HD
BRANCH   5   8
HETATM    8  C8  UNL     1     -34.930  16.243  -4.135  1.00 20.00     0.254 C 
BRANCH   8   9
HETATM    9  C9  UNL     1     -34.357  14.874  -3.751  1.00 20.00     0.114 C 
HETATM   10  C3  UNL     1     -35.241  13.777  -4.188  1.00 20.00     0.065 C 
HETATM   11  N10 UNL     1     -35.936  12.914  -4.531  1.00 20.00    -0.197 NA
HETATM   12  C5  UNL     1     -32.937  14.655  -4.271  1.00 20.00     0.027 C 
ENDBRANCH   8   9
ENDBRANCH   5   8
ENDBRANCH   4   5
ENDBRANCH   2   4
TORSDOF 4
ENDMDL
MODEL 5
REMARK VINA RESULT:      -3.9     15.923     18.395
REMARK  4 active torsions:
REMARK  status: ('A' for Active; 'I' for Inactive)
REMARK    1  A    between atoms: C2_2  and  C7_7 
REMARK    2  A    between atoms: C7_7  and  N11_11 
REMARK    3  A    between atoms: C8_8  and  C9_9 
REMARK    4  A    between atoms: C8_8  and  N11_11 
ROOT
HETATM    1  C1  UNL     1     -26.128  19.172   6.752  1.00 20.00    -0.109 C 
HETATM    2  C2  UNL     1     -25.513  19.214   7.783  1.00 20.00    -0.079 C 
HETATM    3  C4  UNL     1     -26.876  19.119   5.498  1.00 20.00     0.112 C 
ENDROOT
BRANCH   2   4
HETATM    4  C7  UNL     1     -24.761  19.263   9.034  1.00 20.00     0.327 C 
BRANCH   4   5
HETATM    5  N11 UNL     1     -25.074  18.042   9.863  1.00 20.00    -0.064 N 
HETATM    6  C6  UNL     1     -25.538  18.426  11.246  1.00 20.00     0.270 C 
HETATM    7  H26 UNL     1     -25.882  17.585   9.407  1.00 20.00     0.280 HD
BRANCH   5   8
HETATM    8  C8  UNL     1     -23.956  17.067   9.886  1.00 20.00     0.254 C 
BRANCH   8   9
HETATM    9  C9  UNL     1     -22.590  17.763   9.906  1.00 20.00     0.114 C 
HETATM   10  C3  UNL     1     -22.014  17.783  11.264  1.00 20.00     0.065 C 
HETATM   11  N10 UNL     1     -21.561  17.801  12.332  1.00 20.00    -0.197 NA
HETATM   12  C5  UNL     1     -21.598  17.158   8.914  1.00 20.00     0.027 C 
ENDBRANCH   8   9
ENDBRANCH   5   8
ENDBRANCH   4   5
ENDBRANCH   2   4
TORSDOF 4
ENDMDL
MODEL 6
REMARK VINA RESULT:      -3.8      1.919      3.170
REMARK  4 active torsions:
REMARK  status: ('A' for Active; 'I' for Inactive)
REMARK    1  A    between atoms: C2_2  and  C7_7 
REMARK    2  A    between atoms: C7_7  and  N11_11 
REMARK    3  A    between atoms: C8_8  and  C9_9 
REMARK    4  A    between atoms: C8_8  and  N11_11 
ROOT
HETATM    1  C1  UNL     1     -32.962  17.824  -1.289  1.00 20.00    -0.109 C 
HETATM    2  C2  UNL     1     -33.970  17.232  -1.567  1.00 20.00    -0.079 C 
HETATM    3  C4  UNL     1     -31.736  18.543  -0.950  1.00 20.00     0.112 C 
ENDROOT
BRANCH   2   4
HETATM    4  C7  UNL     1     -35.192  16.510  -1.909  1.00 20.00     0.327 C 
BRANCH   4   5
HETATM    5  N11 UNL     1     -35.667  16.933  -3.277  1.00 20.00    -0.064 N 
HETATM    6  C6  UNL     1     -37.172  16.891  -3.369  1.00 20.00     0.270 C 
HETATM    7  H26 UNL     1     -35.402  17.928  -3.378  1.00 20.00     0.280 HD
BRANCH   5   8
HETATM    8  C8  UNL     1     -35.007  16.176  -4.370  1.00 20.00     0.254 C 
BRANCH   8   9
HETATM    9  C9  UNL     1     -34.467  14.826  -3.885  1.00 20.00     0.114 C 
HETATM   10  C3  UNL     1     -35.352  13.716  -4.287  1.00 20.00     0.065 C 
HETATM   11  N10 UNL     1     -36.047  12.842  -4.601  1.00 20.00    -0.197 NA
HETATM   12  C5  UNL     1     -33.033  14.558  -4.340  1.00 20.00     0.027 C 
ENDBRANCH   8   9
ENDBRANCH   5   8
ENDBRANCH   4   5
ENDBRANCH   2   4
TORSDOF 4
ENDMDL
MODEL 7
REMARK VINA RESULT:      -3.8      2.216      2.530
REMARK  4 active torsions:
REMARK  status: ('A' for Active; 'I' for Inactive)
REMARK    1  A    between atoms: C2_2  and  C7_7 
REMARK    2  A    between atoms: C7_7  and  N11_11 
REMARK    3  A    between atoms: C8_8  and  C9_9 
REMARK    4  A    between atoms: C8_8  and  N11_11 
ROOT
HETATM    1  C1  UNL     1     -31.872  18.147  -1.011  1.00 20.00    -0.109 C 
HETATM    2  C2  UNL     1     -32.558  17.781  -1.926  1.00 20.00    -0.079 C 
HETATM    3  C4  UNL     1     -31.038  18.593   0.104  1.00 20.00     0.112 C 
ENDROOT
BRANCH   2   4
HETATM    4  C7  UNL     1     -33.392  17.342  -3.041  1.00 20.00     0.327 C 
BRANCH   4   5
HETATM    5  N11 UNL     1     -33.700  15.872  -2.898  1.00 20.00    -0.064 N 
HETATM    6  C6  UNL     1     -33.239  15.097  -4.107  1.00 20.00     0.270 C 
HETATM    7  H26 UNL     1     -33.127  15.535  -2.106  1.00 20.00     0.280 HD
BRANCH   5   8
HETATM    8  C8  UNL     1     -35.124  15.618  -2.565  1.00 20.00     0.254 C 
BRANCH   8   9
HETATM    9  C9  UNL     1     -36.049  15.903  -3.754  1.00 20.00     0.114 C 
HETATM   10  C3  UNL     1     -36.830  14.710  -4.129  1.00 20.00     0.065 C 
HETATM   11  N10 UNL     1     -37.444  13.771  -4.426  1.00 20.00    -0.197 NA
HETATM   12  C5  UNL     1     -36.975  17.095  -3.516  1.00 20.00     0.027 C 
ENDBRANCH   8   9
ENDBRANCH   5   8
ENDBRANCH   4   5
ENDBRANCH   2   4
TORSDOF 4
ENDMDL
MODEL 8
REMARK VINA RESULT:      -3.8      2.844      3.646
REMARK  4 active torsions:
REMARK  status: ('A' for Active; 'I' for Inactive)
REMARK    1  A    between atoms: C2_2  and  C7_7 
REMARK    2  A    between atoms: C7_7  and  N11_11 
REMARK    3  A    between atoms: C8_8  and  C9_9 
REMARK    4  A    between atoms: C8_8  and  N11_11 
ROOT
HETATM    1  C1  UNL     1     -31.475  18.408  -0.437  1.00 20.00    -0.109 C 
HETATM    2  C2  UNL     1     -32.153  18.635  -1.402  1.00 20.00    -0.079 C 
HETATM    3  C4  UNL     1     -30.651  18.131   0.738  1.00 20.00     0.112 C 
ENDROOT
BRANCH   2   4
HETATM    4  C7  UNL     1     -32.976  18.917  -2.574  1.00 20.00     0.327 C 
BRANCH   4   5
HETATM    5  N11 UNL     1     -32.778  17.836  -3.608  1.00 20.00    -0.064 N 
HETATM    6  C6  UNL     1     -33.614  18.094  -4.836  1.00 20.00     0.270 C 
HETATM    7  H26 UNL     1     -31.792  17.908  -3.912  1.00 20.00     0.280 HD
BRANCH   5   8
HETATM    8  C8  UNL     1     -32.982  16.474  -3.054  1.00 20.00     0.254 C 
BRANCH   8   9
HETATM    9  C9  UNL     1     -34.461  16.074  -3.051  1.00 20.00     0.114 C 
HETATM   10  C3  UNL     1     -34.655  14.724  -3.614  1.00 20.00     0.065 C 
HETATM   11  N10 UNL     1     -34.809  13.663  -4.058  1.00 20.00    -0.197 NA
HETATM   12  C5  UNL     1     -35.104  16.173  -1.668  1.00 20.00     0.027 C 
ENDBRANCH   8   9
ENDBRANCH   5   8
ENDBRANCH   4   5
ENDBRANCH   2   4
TORSDOF 4
ENDMDL
MODEL 9
REMARK VINA RESULT:      -3.6      1.651      3.111
REMARK  4 active torsions:
REMARK  status: ('A' for Active; 'I' for Inactive)
REMARK    1  A    between atoms: C2_2  and  C7_7 
REMARK    2  A    between atoms: C7_7  and  N11_11 
REMARK    3  A    between atoms: C8_8  and  C9_9 
REMARK    4  A    between atoms: C8_8  and  N11_11 
ROOT
HETATM    1  C1  UNL     1     -33.687  16.310  -2.668  1.00 20.00    -0.109 C 
HETATM    2  C2  UNL     1     -34.254  15.399  -3.206  1.00 20.00    -0.079 C 
HETATM    3  C4  UNL     1     -32.997  17.420  -2.012  1.00 20.00     0.112 C 
ENDROOT
BRANCH   2   4
HETATM    4  C7  UNL     1     -34.944  14.288  -3.855  1.00 20.00     0.327 C 
BRANCH   4   5
HETATM    5  N11 UNL     1     -36.005  14.822  -4.785  1.00 20.00    -0.064 N 
HETATM    6  C6  UNL     1     -37.389  14.515  -4.269  1.00 20.00     0.270 C 
HETATM    7  H26 UNL     1     -35.913  15.852  -4.763  1.00 20.00     0.280 HD
BRANCH   5   8
HETATM    8  C8  UNL     1     -35.807  14.381  -6.188  1.00 20.00     0.254 C 
BRANCH   8   9
HETATM    9  C9  UNL     1     -35.256  15.507  -7.070  1.00 20.00     0.114 C 
HETATM   10  C3  UNL     1     -35.381  16.820  -6.409  1.00 20.00     0.065 C 
HETATM   11  N10 UNL     1     -35.479  17.853  -5.890  1.00 20.00    -0.197 NA
HETATM   12  C5  UNL     1     -33.813  15.267  -7.512  1.00 20.00     0.027 C 
ENDBRANCH   8   9
ENDBRANCH   5   8
ENDBRANCH   4   5
ENDBRANCH   2   4
TORSDOF 4
ENDMDL
