MODEL 1
REMARK VINA RESULT:      -5.2      0.000      0.000
REMARK  2 active torsions:
REMARK  status: ('A' for Active; 'I' for Inactive)
REMARK    1  A    between atoms: C2_2  and  C11_11 
REMARK    2  A    between atoms: C7_7  and  C11_11 
ROOT
HETATM    1  C1  UNL     1     -25.625  18.921   7.235  1.00 20.00    -0.111 C 
HETATM    2  C2  UNL     1     -24.668  18.985   7.957  1.00 20.00    -0.106 C 
HETATM    3  C9  UNL     1     -26.790  18.843   6.355  1.00 20.00     0.112 C 
ENDROOT
BRANCH   2   4
HETATM    4  C11 UNL     1     -23.502  19.071   8.842  1.00 20.00     0.106 C 
BRANCH   4   5
HETATM    5  C7  UNL     1     -23.796  18.438  10.198  1.00 20.00     0.067 C 
HETATM    6  C3  UNL     1     -23.475  16.947  10.207  1.00 20.00     0.132 C 
HETATM    7  C4  UNL     1     -23.848  16.197  11.467  1.00 20.00     0.079 C 
HETATM    8  O12 UNL     1     -22.868  16.390   9.294  1.00 20.00    -0.298 OA
HETATM    9  C5  UNL     1     -25.301  16.458  11.834  1.00 20.00     0.011 C 
HETATM   10  C8  UNL     1     -25.606  17.961  11.919  1.00 20.00    -0.017 C 
HETATM   11  C6  UNL     1     -25.263  18.648  10.588  1.00 20.00     0.017 C 
HETATM   12  C10 UNL     1     -27.072  18.191  12.280  1.00 20.00     0.010 C 
ENDBRANCH   4   5
ENDBRANCH   2   4
TORSDOF 2
ENDMDL
MODEL 2
REMARK VINA RESULT:      -4.8     12.426     16.026
REMARK  2 active torsions:
REMARK  status: ('A' for Active; 'I' for Inactive)
REMARK    1  A    between atoms: C2_2  and  C11_11 
REMARK    2  A    between atoms: C7_7  and  C11_11 
ROOT
HETATM    1  C1  UNL     1     -34.171  17.882   0.928  1.00 20.00    -0.111 C 
HETATM    2  C2  UNL     1     -34.589  17.735  -0.188  1.00 20.00    -0.106 C 
HETATM    3  C9  UNL     1     -33.663  18.062   2.287  1.00 20.00     0.112 C 
ENDROOT
BRANCH   2   4
HETATM    4  C11 UNL     1     -35.090  17.556  -1.554  1.00 20.00     0.106 C 
BRANCH   4   5
HETATM    5  C7  UNL     1     -34.535  16.281  -2.179  1.00 20.00     0.067 C 
HETATM    6  C3  UNL     1     -33.314  16.564  -3.049  1.00 20.00     0.132 C 
HETATM    7  C4  UNL     1     -32.760  15.384  -3.817  1.00 20.00     0.079 C 
HETATM    8  O12 UNL     1     -32.747  17.655  -3.067  1.00 20.00    -0.298 OA
HETATM    9  C5  UNL     1     -33.863  14.696  -4.608  1.00 20.00     0.011 C 
HETATM   10  C8  UNL     1     -35.056  14.324  -3.716  1.00 20.00    -0.017 C 
HETATM   11  C6  UNL     1     -35.607  15.575  -3.016  1.00 20.00     0.017 C 
HETATM   12  C10 UNL     1     -36.148  13.642  -4.538  1.00 20.00     0.010 C 
ENDBRANCH   4   5
ENDBRANCH   2   4
TORSDOF 2
ENDMDL
MODEL 3
REMARK VINA RESULT:      -4.7     10.892     13.141
REMARK  2 active torsions:
REMARK  status: ('A' for Active; 'I' for Inactive)
REMARK    1  A    between atoms: C2_2  and  C11_11 
REMARK    2  A    between atoms: C7_7  and  C11_11 
ROOT
HETATM    1  C1  UNL     1     -33.709  16.440  -2.743  1.00 20.00    -0.111 C 
HETATM    2  C2  UNL     1     -33.097  17.439  -2.482  1.00 20.00    -0.106 C 
HETATM    3  C9  UNL     1     -34.454  15.222  -3.060  1.00 20.00     0.112 C 
ENDROOT
BRANCH   2   4
HETATM    4  C11 UNL     1     -32.343  18.656  -2.167  1.00 20.00     0.106 C 
BRANCH   4   5
HETATM    5  C7  UNL     1     -32.463  19.009  -0.688  1.00 20.00     0.067 C 
HETATM    6  C3  UNL     1     -31.271  18.496   0.113  1.00 20.00     0.132 C 
HETATM    7  C4  UNL     1     -31.351  18.683   1.612  1.00 20.00     0.079 C 
HETATM    8  O12 UNL     1     -30.258  18.039  -0.416  1.00 20.00    -0.298 OA
HETATM    9  C5  UNL     1     -32.664  18.134   2.151  1.00 20.00     0.011 C 
HETATM   10  C8  UNL     1     -33.873  18.721   1.408  1.00 20.00    -0.017 C 
HETATM   11  C6  UNL     1     -33.759  18.441  -0.099  1.00 20.00     0.017 C 
HETATM   12  C10 UNL     1     -35.174  18.146   1.964  1.00 20.00     0.010 C 
ENDBRANCH   4   5
ENDBRANCH   2   4
TORSDOF 2
ENDMDL
MODEL 4
REMARK VINA RESULT:      -4.6      1.895      3.095
REMARK  2 active torsions:
REMARK  status: ('A' for Active; 'I' for Inactive)
REMARK    1  A    between atoms: C2_2  and  C11_11 
REMARK    2  A    between atoms: C7_7  and  C11_11 
ROOT
HETATM    1  C1  UNL     1     -26.326  19.063   6.667  1.00 20.00    -0.111 C 
HETATM    2  C2  UNL     1     -26.237  19.149   7.862  1.00 20.00    -0.106 C 
HETATM    3  C9  UNL     1     -26.434  18.958   5.213  1.00 20.00     0.112 C 
ENDROOT
BRANCH   2   4
HETATM    4  C11 UNL     1     -26.128  19.263   9.319  1.00 20.00     0.106 C 
BRANCH   4   5
HETATM    5  C7  UNL     1     -25.096  18.285   9.871  1.00 20.00     0.067 C 
HETATM    6  C3  UNL     1     -24.981  18.382  11.388  1.00 20.00     0.132 C 
HETATM    7  C4  UNL     1     -23.894  17.543  12.025  1.00 20.00     0.079 C 
HETATM    8  O12 UNL     1     -25.770  19.026  12.078  1.00 20.00    -0.298 OA
HETATM    9  C5  UNL     1     -22.556  17.795  11.345  1.00 20.00     0.011 C 
HETATM   10  C8  UNL     1     -22.646  17.606   9.824  1.00 20.00    -0.017 C 
HETATM   11  C6  UNL     1     -23.723  18.531   9.235  1.00 20.00     0.017 C 
HETATM   12  C10 UNL     1     -21.293  17.872   9.169  1.00 20.00     0.010 C 
ENDBRANCH   4   5
ENDBRANCH   2   4
TORSDOF 2
ENDMDL
MODEL 5
REMARK VINA RESULT:      -4.6     13.565     17.048
REMARK  2 active torsions:
REMARK  status: ('A' for Active; 'I' for Inactive)
REMARK    1  A    between atoms: C2_2  and  C11_11 
REMARK    2  A    between atoms: C7_7  and  C11_11 
ROOT
HETATM    1  C1  UNL     1     -33.296  17.971  -1.011  1.00 20.00    -0.111 C 
HETATM    2  C2  UNL     1     -33.288  17.190  -1.923  1.00 20.00    -0.106 C 
HETATM    3  C9  UNL     1     -33.305  18.923   0.099  1.00 20.00     0.112 C 
ENDROOT
BRANCH   2   4
HETATM    4  C11 UNL     1     -33.271  16.234  -3.034  1.00 20.00     0.106 C 
BRANCH   4   5
HETATM    5  C7  UNL     1     -34.601  15.495  -3.142  1.00 20.00     0.067 C 
HETATM    6  C3  UNL     1     -34.501  14.286  -4.066  1.00 20.00     0.132 C 
HETATM    7  C4  UNL     1     -35.796  13.554  -4.342  1.00 20.00     0.079 C 
HETATM    8  O12 UNL     1     -33.429  13.861  -4.496  1.00 20.00    -0.298 OA
HETATM    9  C5  UNL     1     -36.871  14.526  -4.807  1.00 20.00     0.011 C 
HETATM   10  C8  UNL     1     -37.040  15.698  -3.829  1.00 20.00    -0.017 C 
HETATM   11  C6  UNL     1     -35.704  16.433  -3.643  1.00 20.00     0.017 C 
HETATM   12  C10 UNL     1     -38.118  16.660  -4.326  1.00 20.00     0.010 C 
ENDBRANCH   4   5
ENDBRANCH   2   4
TORSDOF 2
ENDMDL
MODEL 6
REMARK VINA RESULT:      -4.6     10.428     13.441
REMARK  2 active torsions:
REMARK  status: ('A' for Active; 'I' for Inactive)
REMARK    1  A    between atoms: C2_2  and  C11_11 
REMARK    2  A    between atoms: C7_7  and  C11_11 
ROOT
HETATM    1  C1  UNL     1     -33.281  15.907  -3.489  1.00 20.00    -0.111 C 
HETATM    2  C2  UNL     1     -33.002  16.929  -2.923  1.00 20.00    -0.106 C 
HETATM    3  C9  UNL     1     -33.620  14.663  -4.178  1.00 20.00     0.112 C 
ENDROOT
BRANCH   2   4
HETATM    4  C11 UNL     1     -32.653  18.174  -2.232  1.00 20.00     0.106 C 
BRANCH   4   5
HETATM    5  C7  UNL     1     -32.479  17.940  -0.735  1.00 20.00     0.067 C 
HETATM    6  C3  UNL     1     -33.703  18.396   0.053  1.00 20.00     0.132 C 
HETATM    7  C4  UNL     1     -33.584  18.324   1.560  1.00 20.00     0.079 C 
HETATM    8  O12 UNL     1     -34.761  18.718  -0.485  1.00 20.00    -0.298 OA
HETATM    9  C5  UNL     1     -32.321  19.029   2.031  1.00 20.00     0.011 C 
HETATM   10  C8  UNL     1     -31.073  18.506   1.306  1.00 20.00    -0.017 C 
HETATM   11  C6  UNL     1     -31.235  18.666  -0.214  1.00 20.00     0.017 C 
HETATM   12  C10 UNL     1     -29.823  19.237   1.793  1.00 20.00     0.010 C 
ENDBRANCH   4   5
ENDBRANCH   2   4
TORSDOF 2
ENDMDL
MODEL 7
REMARK VINA RESULT:      -4.5     14.557     18.062
REMARK  2 active torsions:
REMARK  status: ('A' for Active; 'I' for Inactive)
REMARK    1  A    between atoms: C2_2  and  C11_11 
REMARK    2  A    between atoms: C7_7  and  C11_11 
ROOT
HETATM    1  C1  UNL     1     -33.062  17.023  -2.309  1.00 20.00    -0.111 C 
HETATM    2  C2  UNL     1     -33.662  16.130  -2.844  1.00 20.00    -0.106 C 
HETATM    3  C9  UNL     1     -32.331  18.109  -1.658  1.00 20.00     0.112 C 
ENDROOT
BRANCH   2   4
HETATM    4  C11 UNL     1     -34.402  15.045  -3.495  1.00 20.00     0.106 C 
BRANCH   4   5
HETATM    5  C7  UNL     1     -35.904  15.310  -3.464  1.00 20.00     0.067 C 
HETATM    6  C3  UNL     1     -36.680  14.241  -4.225  1.00 20.00     0.132 C 
HETATM    7  C4  UNL     1     -38.169  14.476  -4.363  1.00 20.00     0.079 C 
HETATM    8  O12 UNL     1     -36.163  13.201  -4.631  1.00 20.00    -0.298 OA
HETATM    9  C5  UNL     1     -38.442  15.867  -4.916  1.00 20.00     0.011 C 
HETATM   10  C8  UNL     1     -37.736  16.955  -4.094  1.00 20.00    -0.017 C 
HETATM   11  C6  UNL     1     -36.223  16.690  -4.048  1.00 20.00     0.017 C 
HETATM   12  C10 UNL     1     -38.021  18.338  -4.677  1.00 20.00     0.010 C 
ENDBRANCH   4   5
ENDBRANCH   2   4
TORSDOF 2
ENDMDL
MODEL 8
REMARK VINA RESULT:      -4.5     15.084     17.527
REMARK  2 active torsions:
REMARK  status: ('A' for Active; 'I' for Inactive)
REMARK    1  A    between atoms: C2_2  and  C11_11 
REMARK    2  A    between atoms: C7_7  and  C11_11 
ROOT
HETATM    1  C1  UNL     1     -38.819  14.827  -4.286  1.00 20.00    -0.111 C 
HETATM    2  C2  UNL     1     -37.663  14.501  -4.278  1.00 20.00    -0.106 C 
HETATM    3  C9  UNL     1     -40.226  15.224  -4.296  1.00 20.00     0.112 C 
ENDROOT
BRANCH   2   4
HETATM    4  C11 UNL     1     -36.254  14.095  -4.268  1.00 20.00     0.106 C 
BRANCH   4   5
HETATM    5  C7  UNL     1     -35.342  15.285  -3.987  1.00 20.00     0.067 C 
HETATM    6  C3  UNL     1     -33.871  14.918  -4.146  1.00 20.00     0.132 C 
HETATM    7  C4  UNL     1     -32.876  15.994  -3.768  1.00 20.00     0.079 C 
HETATM    8  O12 UNL     1     -33.497  13.853  -4.634  1.00 20.00    -0.298 OA
HETATM    9  C5  UNL     1     -33.172  16.531  -2.376  1.00 20.00     0.011 C 
HETATM   10  C8  UNL     1     -34.631  16.990  -2.241  1.00 20.00    -0.017 C 
HETATM   11  C6  UNL     1     -35.585  15.834  -2.577  1.00 20.00     0.017 C 
HETATM   12  C10 UNL     1     -34.900  17.516  -0.832  1.00 20.00     0.010 C 
ENDBRANCH   4   5
ENDBRANCH   2   4
TORSDOF 2
ENDMDL
MODEL 9
REMARK VINA RESULT:      -4.3     14.298     17.877
REMARK  2 active torsions:
REMARK  status: ('A' for Active; 'I' for Inactive)
REMARK    1  A    between atoms: C2_2  and  C11_11 
REMARK    2  A    between atoms: C7_7  and  C11_11 
ROOT
HETATM    1  C1  UNL     1     -33.055  17.484  -2.020  1.00 20.00    -0.111 C 
HETATM    2  C2  UNL     1     -33.825  16.599  -2.280  1.00 20.00    -0.106 C 
HETATM    3  C9  UNL     1     -32.118  18.561  -1.704  1.00 20.00     0.112 C 
ENDROOT
BRANCH   2   4
HETATM    4  C11 UNL     1     -34.759  15.517  -2.604  1.00 20.00     0.106 C 
BRANCH   4   5
HETATM    5  C7  UNL     1     -35.326  15.685  -4.010  1.00 20.00     0.067 C 
HETATM    6  C3  UNL     1     -35.377  14.358  -4.759  1.00 20.00     0.132 C 
HETATM    7  C4  UNL     1     -35.807  14.432  -6.208  1.00 20.00     0.079 C 
HETATM    8  O12 UNL     1     -35.174  13.275  -4.213  1.00 20.00    -0.298 OA
HETATM    9  C5  UNL     1     -34.981  15.467  -6.959  1.00 20.00     0.011 C 
HETATM   10  C8  UNL     1     -35.005  16.832  -6.256  1.00 20.00    -0.017 C 
HETATM   11  C6  UNL     1     -34.499  16.695  -4.811  1.00 20.00     0.017 C 
HETATM   12  C10 UNL     1     -34.163  17.847  -7.026  1.00 20.00     0.010 C 
ENDBRANCH   4   5
ENDBRANCH   2   4
TORSDOF 2
ENDMDL
