MODEL 1
REMARK VINA RESULT:      -4.1      0.000      0.000
REMARK  4 active torsions:
REMARK  status: ('A' for Active; 'I' for Inactive)
REMARK    1  A    between atoms: C2_2  and  C6_6 
REMARK    2  A    between atoms: C6_6  and  N10_10 
REMARK    3  A    between atoms: C7_7  and  N10_10 
REMARK    4  A    between atoms: C8_8  and  N10_10 
ROOT
HETATM    1  C1  UNL     1     -34.774  16.616  -1.522  1.00 20.00    -0.109 C 
HETATM    2  C2  UNL     1     -34.217  16.206  -2.503  1.00 20.00    -0.077 C 
HETATM    3  C4  UNL     1     -35.452  17.118  -0.326  1.00 20.00     0.112 C 
ENDROOT
BRANCH   2   4
HETATM    4  C6  UNL     1     -33.532  15.708  -3.700  1.00 20.00     0.366 C 
BRANCH   4   5
HETATM    5  N10 UNL     1     -34.490  15.159  -4.659  1.00 20.00     0.111 N 
BRANCH   5   6
HETATM    6  C7  UNL     1     -35.096  13.936  -4.133  1.00 20.00     0.396 C 
HETATM    7  C3  UNL     1     -36.543  13.943  -4.337  1.00 20.00     0.089 C 
HETATM    8  N9  UNL     1     -37.692  13.946  -4.497  1.00 20.00    -0.195 NA
ENDBRANCH   5   6
BRANCH   5   9
HETATM    9  C8  UNL     1     -33.836  14.896  -5.940  1.00 20.00     0.270 C 
HETATM   10  C5  UNL     1     -34.505  15.634  -7.049  1.00 20.00     0.037 C 
ENDBRANCH   5   9
ENDBRANCH   4   5
ENDBRANCH   2   4
TORSDOF 4
ENDMDL
MODEL 2
REMARK VINA RESULT:      -4.0      1.517      1.583
REMARK  4 active torsions:
REMARK  status: ('A' for Active; 'I' for Inactive)
REMARK    1  A    between atoms: C2_2  and  C6_6 
REMARK    2  A    between atoms: C6_6  and  N10_10 
REMARK    3  A    between atoms: C7_7  and  N10_10 
REMARK    4  A    between atoms: C8_8  and  N10_10 
ROOT
HETATM    1  C1  UNL     1     -32.922  17.168  -2.341  1.00 20.00    -0.109 C 
HETATM    2  C2  UNL     1     -33.171  16.267  -3.095  1.00 20.00    -0.077 C 
HETATM    3  C4  UNL     1     -32.619  18.265  -1.423  1.00 20.00     0.112 C 
ENDROOT
BRANCH   2   4
HETATM    4  C6  UNL     1     -33.481  15.169  -4.016  1.00 20.00     0.366 C 
BRANCH   4   5
HETATM    5  N10 UNL     1     -34.320  15.634  -5.120  1.00 20.00     0.111 N 
BRANCH   5   6
HETATM    6  C7  UNL     1     -35.728  15.352  -4.845  1.00 20.00     0.396 C 
HETATM    7  C3  UNL     1     -35.937  13.923  -4.616  1.00 20.00     0.089 C 
HETATM    8  N9  UNL     1     -36.108  12.790  -4.434  1.00 20.00    -0.195 NA
ENDBRANCH   5   6
BRANCH   5   9
HETATM    9  C8  UNL     1     -33.907  15.006  -6.375  1.00 20.00     0.270 C 
HETATM   10  C5  UNL     1     -34.213  15.882  -7.541  1.00 20.00     0.037 C 
ENDBRANCH   5   9
ENDBRANCH   4   5
ENDBRANCH   2   4
TORSDOF 4
ENDMDL
MODEL 3
REMARK VINA RESULT:      -3.8      1.605      2.120
REMARK  4 active torsions:
REMARK  status: ('A' for Active; 'I' for Inactive)
REMARK    1  A    between atoms: C2_2  and  C6_6 
REMARK    2  A    between atoms: C6_6  and  N10_10 
REMARK    3  A    between atoms: C7_7  and  N10_10 
REMARK    4  A    between atoms: C8_8  and  N10_10 
ROOT
HETATM    1  C1  UNL     1     -33.150  17.573  -1.549  1.00 20.00    -0.109 C 
HETATM    2  C2  UNL     1     -34.039  16.868  -1.942  1.00 20.00    -0.077 C 
HETATM    3  C4  UNL     1     -32.067  18.431  -1.070  1.00 20.00     0.112 C 
ENDROOT
BRANCH   2   4
HETATM    4  C6  UNL     1     -35.127  16.007  -2.416  1.00 20.00     0.366 C 
BRANCH   4   5
HETATM    5  N10 UNL     1     -35.017  15.771  -3.854  1.00 20.00     0.111 N 
BRANCH   5   6
HETATM    6  C7  UNL     1     -36.308  15.988  -4.508  1.00 20.00     0.396 C 
HETATM    7  C3  UNL     1     -37.151  14.798  -4.404  1.00 20.00     0.089 C 
HETATM    8  N9  UNL     1     -37.823  13.856  -4.324  1.00 20.00    -0.195 NA
ENDBRANCH   5   6
BRANCH   5   9
HETATM    9  C8  UNL     1     -34.535  14.414  -4.114  1.00 20.00     0.270 C 
HETATM   10  C5  UNL     1     -33.084  14.415  -4.454  1.00 20.00     0.037 C 
ENDBRANCH   5   9
ENDBRANCH   4   5
ENDBRANCH   2   4
TORSDOF 4
ENDMDL
MODEL 4
REMARK VINA RESULT:      -3.8     10.983     11.922
REMARK  4 active torsions:
REMARK  status: ('A' for Active; 'I' for Inactive)
REMARK    1  A    between atoms: C2_2  and  C6_6 
REMARK    2  A    between atoms: C6_6  and  N10_10 
REMARK    3  A    between atoms: C7_7  and  N10_10 
REMARK    4  A    between atoms: C8_8  and  N10_10 
ROOT
HETATM    1  C1  UNL     1     -32.799   8.382   0.854  1.00 20.00    -0.109 C 
HETATM    2  C2  UNL     1     -32.628   7.729   1.847  1.00 20.00    -0.077 C 
HETATM    3  C4  UNL     1     -33.009   9.178  -0.356  1.00 20.00     0.112 C 
ENDROOT
BRANCH   2   4
HETATM    4  C6  UNL     1     -32.423   6.927   3.057  1.00 20.00     0.366 C 
BRANCH   4   5
HETATM    5  N10 UNL     1     -33.699   6.618   3.701  1.00 20.00     0.111 N 
BRANCH   5   6
HETATM    6  C7  UNL     1     -33.608   6.832   5.145  1.00 20.00     0.396 C 
HETATM    7  C3  UNL     1     -34.416   5.852   5.868  1.00 20.00     0.089 C 
HETATM    8  N9  UNL     1     -35.057   5.076   6.446  1.00 20.00    -0.195 NA
ENDBRANCH   5   6
BRANCH   5   9
HETATM    9  C8  UNL     1     -34.095   5.240   3.413  1.00 20.00     0.270 C 
HETATM   10  C5  UNL     1     -33.126   4.582   2.491  1.00 20.00     0.037 C 
ENDBRANCH   5   9
ENDBRANCH   4   5
ENDBRANCH   2   4
TORSDOF 4
ENDMDL
MODEL 5
REMARK VINA RESULT:      -3.8      1.136      1.232
REMARK  4 active torsions:
REMARK  status: ('A' for Active; 'I' for Inactive)
REMARK    1  A    between atoms: C2_2  and  C6_6 
REMARK    2  A    between atoms: C6_6  and  N10_10 
REMARK    3  A    between atoms: C7_7  and  N10_10 
REMARK    4  A    between atoms: C8_8  and  N10_10 
ROOT
HETATM    1  C1  UNL     1     -35.164  16.836  -0.935  1.00 20.00    -0.109 C 
HETATM    2  C2  UNL     1     -34.802  16.248  -1.918  1.00 20.00    -0.077 C 
HETATM    3  C4  UNL     1     -35.604  17.552   0.262  1.00 20.00     0.112 C 
ENDROOT
BRANCH   2   4
HETATM    4  C6  UNL     1     -34.359  15.536  -3.120  1.00 20.00     0.366 C 
BRANCH   4   5
HETATM    5  N10 UNL     1     -35.105  15.982  -4.296  1.00 20.00     0.111 N 
BRANCH   5   6
HETATM    6  C7  UNL     1     -36.357  15.236  -4.421  1.00 20.00     0.396 C 
HETATM    7  C3  UNL     1     -36.100  13.798  -4.492  1.00 20.00     0.089 C 
HETATM    8  N9  UNL     1     -35.901  12.657  -4.548  1.00 20.00    -0.195 NA
ENDBRANCH   5   6
BRANCH   5   9
HETATM    9  C8  UNL     1     -34.295  15.828  -5.504  1.00 20.00     0.270 C 
HETATM   10  C5  UNL     1     -34.807  16.687  -6.609  1.00 20.00     0.037 C 
ENDBRANCH   5   9
ENDBRANCH   4   5
ENDBRANCH   2   4
TORSDOF 4
ENDMDL
MODEL 6
REMARK VINA RESULT:      -3.8     15.438     17.386
REMARK  4 active torsions:
REMARK  status: ('A' for Active; 'I' for Inactive)
REMARK    1  A    between atoms: C2_2  and  C6_6 
REMARK    2  A    between atoms: C6_6  and  N10_10 
REMARK    3  A    between atoms: C7_7  and  N10_10 
REMARK    4  A    between atoms: C8_8  and  N10_10 
ROOT
HETATM    1  C1  UNL     1     -25.635  19.217   6.553  1.00 20.00    -0.109 C 
HETATM    2  C2  UNL     1     -24.873  19.199   7.480  1.00 20.00    -0.077 C 
HETATM    3  C4  UNL     1     -26.565  19.238   5.424  1.00 20.00     0.112 C 
ENDROOT
BRANCH   2   4
HETATM    4  C6  UNL     1     -23.945  19.173   8.616  1.00 20.00     0.366 C 
BRANCH   4   5
HETATM    5  N10 UNL     1     -23.925  17.853   9.244  1.00 20.00     0.111 N 
BRANCH   5   6
HETATM    6  C7  UNL     1     -24.120  17.971  10.688  1.00 20.00     0.396 C 
HETATM    7  C3  UNL     1     -24.388  16.665  11.286  1.00 20.00     0.089 C 
HETATM    8  N9  UNL     1     -24.602  15.629  11.764  1.00 20.00    -0.195 NA
ENDBRANCH   5   6
BRANCH   5   9
HETATM    9  C8  UNL     1     -22.665  17.168   8.953  1.00 20.00     0.270 C 
HETATM   10  C5  UNL     1     -21.495  18.037   9.264  1.00 20.00     0.037 C 
ENDBRANCH   5   9
ENDBRANCH   4   5
ENDBRANCH   2   4
TORSDOF 4
ENDMDL
MODEL 7
REMARK VINA RESULT:      -3.7     17.376     18.134
REMARK  4 active torsions:
REMARK  status: ('A' for Active; 'I' for Inactive)
REMARK    1  A    between atoms: C2_2  and  C6_6 
REMARK    2  A    between atoms: C6_6  and  N10_10 
REMARK    3  A    between atoms: C7_7  and  N10_10 
REMARK    4  A    between atoms: C8_8  and  N10_10 
ROOT
HETATM    1  C1  UNL     1     -26.766  19.133  10.788  1.00 20.00    -0.109 C 
HETATM    2  C2  UNL     1     -25.644  19.026  10.372  1.00 20.00    -0.077 C 
HETATM    3  C4  UNL     1     -28.132  19.263  11.295  1.00 20.00     0.112 C 
ENDROOT
BRANCH   2   4
HETATM    4  C6  UNL     1     -24.274  18.903   9.865  1.00 20.00     0.366 C 
BRANCH   4   5
HETATM    5  N10 UNL     1     -23.551  17.843  10.566  1.00 20.00     0.111 N 
BRANCH   5   6
HETATM    6  C7  UNL     1     -22.162  17.785  10.112  1.00 20.00     0.396 C 
HETATM    7  C3  UNL     1     -22.088  17.350   8.719  1.00 20.00     0.089 C 
HETATM    8  N9  UNL     1     -22.024  17.004   7.613  1.00 20.00    -0.195 NA
ENDBRANCH   5   6
BRANCH   5   9
HETATM    9  C8  UNL     1     -24.210  16.553  10.361  1.00 20.00     0.270 C 
HETATM   10  C5  UNL     1     -24.572  15.922  11.662  1.00 20.00     0.037 C 
ENDBRANCH   5   9
ENDBRANCH   4   5
ENDBRANCH   2   4
TORSDOF 4
ENDMDL
MODEL 8
REMARK VINA RESULT:      -3.6      2.432      3.373
REMARK  4 active torsions:
REMARK  status: ('A' for Active; 'I' for Inactive)
REMARK    1  A    between atoms: C2_2  and  C6_6 
REMARK    2  A    between atoms: C6_6  and  N10_10 
REMARK    3  A    between atoms: C7_7  and  N10_10 
REMARK    4  A    between atoms: C8_8  and  N10_10 
ROOT
HETATM    1  C1  UNL     1     -31.702  18.267  -0.840  1.00 20.00    -0.109 C 
HETATM    2  C2  UNL     1     -32.400  17.930  -1.757  1.00 20.00    -0.077 C 
HETATM    3  C4  UNL     1     -30.851  18.678   0.276  1.00 20.00     0.112 C 
ENDROOT
BRANCH   2   4
HETATM    4  C6  UNL     1     -33.250  17.512  -2.876  1.00 20.00     0.366 C 
BRANCH   4   5
HETATM    5  N10 UNL     1     -33.604  16.098  -2.765  1.00 20.00     0.111 N 
BRANCH   5   6
HETATM    6  C7  UNL     1     -33.539  15.450  -4.074  1.00 20.00     0.396 C 
HETATM    7  C3  UNL     1     -34.187  14.140  -4.039  1.00 20.00     0.089 C 
HETATM    8  N9  UNL     1     -34.699  13.099  -4.015  1.00 20.00    -0.195 NA
ENDBRANCH   5   6
BRANCH   5   9
HETATM    9  C8  UNL     1     -34.939  15.949  -2.186  1.00 20.00     0.270 C 
HETATM   10  C5  UNL     1     -35.806  17.113  -2.526  1.00 20.00     0.037 C 
ENDBRANCH   5   9
ENDBRANCH   4   5
ENDBRANCH   2   4
TORSDOF 4
ENDMDL
MODEL 9
REMARK VINA RESULT:      -3.5     15.365     17.551
REMARK  4 active torsions:
REMARK  status: ('A' for Active; 'I' for Inactive)
REMARK    1  A    between atoms: C2_2  and  C6_6 
REMARK    2  A    between atoms: C6_6  and  N10_10 
REMARK    3  A    between atoms: C7_7  and  N10_10 
REMARK    4  A    between atoms: C8_8  and  N10_10 
ROOT
HETATM    1  C1  UNL     1     -25.988  19.119   7.532  1.00 20.00    -0.109 C 
HETATM    2  C2  UNL     1     -24.977  19.182   8.177  1.00 20.00    -0.077 C 
HETATM    3  C4  UNL     1     -27.220  19.044   6.746  1.00 20.00     0.112 C 
ENDROOT
BRANCH   2   4
HETATM    4  C6  UNL     1     -23.745  19.263   8.967  1.00 20.00     0.366 C 
BRANCH   4   5
HETATM    5  N10 UNL     1     -23.829  18.413  10.154  1.00 20.00     0.111 N 
BRANCH   5   6
HETATM    6  C7  UNL     1     -23.570  17.018   9.803  1.00 20.00     0.396 C 
HETATM    7  C3  UNL     1     -22.343  16.898   9.017  1.00 20.00     0.089 C 
HETATM    8  N9  UNL     1     -21.370  16.800   8.392  1.00 20.00    -0.195 NA
ENDBRANCH   5   6
BRANCH   5   9
HETATM    9  C8  UNL     1     -25.142  18.546  10.785  1.00 20.00     0.270 C 
HETATM   10  C5  UNL     1     -25.407  17.415  11.719  1.00 20.00     0.037 C 
ENDBRANCH   5   9
ENDBRANCH   4   5
ENDBRANCH   2   4
TORSDOF 4
ENDMDL
