MODEL 1
REMARK VINA RESULT:      -4.2      0.000      0.000
REMARK  4 active torsions:
REMARK  status: ('A' for Active; 'I' for Inactive)
REMARK    1  A    between atoms: C1_1  and  C3_3 
REMARK    2  A    between atoms: C4_4  and  C10_10 
REMARK    3  A    between atoms: C8_8  and  C10_10 
REMARK    4  A    between atoms: C9_9  and  C10_10 
ROOT
HETATM    1  C2  UNL     1     -32.337  18.969  -2.812  1.00 20.00     0.018 A 
HETATM    2  C3  UNL     1     -32.533  19.263  -1.345  1.00 20.00     0.060 A 
HETATM    3  C4  UNL     1     -33.553  18.445  -2.101  1.00 20.00     0.002 A 
ENDROOT
BRANCH   3   4
HETATM    4  C10 UNL     1     -33.718  16.939  -1.877  1.00 20.00    -0.010 C 
BRANCH   4   5
HETATM    5  C8  UNL     1     -33.407  16.136  -3.158  1.00 20.00     0.000 C 
HETATM    6  C6  UNL     1     -34.418  15.037  -3.456  1.00 20.00     0.005 C 
ENDBRANCH   4   5
BRANCH   4   7
HETATM    7  C9  UNL     1     -35.143  16.589  -1.397  1.00 20.00     0.000 C 
HETATM    8  C7  UNL     1     -35.467  17.105  -0.002  1.00 20.00     0.005 C 
ENDBRANCH   4   7
ENDBRANCH   3   4
BRANCH   2   9
HETATM    9  C1  UNL     1     -31.643  18.637  -0.362  1.00 20.00     0.127 C 
HETATM   10  C5  UNL     1     -32.155  18.545   1.051  1.00 20.00     0.091 C 
HETATM   11  O11 UNL     1     -30.535  18.206  -0.676  1.00 20.00    -0.298 OA
ENDBRANCH   2   9
TORSDOF 4
ENDMDL
MODEL 2
REMARK VINA RESULT:      -4.1      3.286      5.455
REMARK  4 active torsions:
REMARK  status: ('A' for Active; 'I' for Inactive)
REMARK    1  A    between atoms: C1_1  and  C3_3 
REMARK    2  A    between atoms: C4_4  and  C10_10 
REMARK    3  A    between atoms: C8_8  and  C10_10 
REMARK    4  A    between atoms: C9_9  and  C10_10 
ROOT
HETATM    1  C2  UNL     1     -33.670  14.746  -4.448  1.00 20.00     0.018 A 
HETATM    2  C3  UNL     1     -34.851  13.864  -4.128  1.00 20.00     0.060 A 
HETATM    3  C4  UNL     1     -34.422  14.944  -3.163  1.00 20.00     0.002 A 
ENDROOT
BRANCH   3   4
HETATM    4  C10 UNL     1     -35.245  16.217  -2.946  1.00 20.00    -0.010 C 
BRANCH   4   5
HETATM    5  C8  UNL     1     -34.747  17.373  -3.839  1.00 20.00     0.000 C 
HETATM    6  C6  UNL     1     -35.843  18.024  -4.672  1.00 20.00     0.005 C 
ENDBRANCH   4   5
BRANCH   4   7
HETATM    7  C9  UNL     1     -35.212  16.670  -1.471  1.00 20.00     0.000 C 
HETATM    8  C7  UNL     1     -34.067  17.619  -1.143  1.00 20.00     0.005 C 
ENDBRANCH   4   7
ENDBRANCH   3   4
BRANCH   2   9
HETATM    9  C1  UNL     1     -36.083  14.001  -4.913  1.00 20.00     0.127 C 
HETATM   10  C5  UNL     1     -35.951  14.633  -6.273  1.00 20.00     0.091 C 
HETATM   11  O11 UNL     1     -37.168  13.616  -4.483  1.00 20.00    -0.298 OA
ENDBRANCH   2   9
TORSDOF 4
ENDMDL
MODEL 3
REMARK VINA RESULT:      -4.1      3.404      5.430
REMARK  4 active torsions:
REMARK  status: ('A' for Active; 'I' for Inactive)
REMARK    1  A    between atoms: C1_1  and  C3_3 
REMARK    2  A    between atoms: C4_4  and  C10_10 
REMARK    3  A    between atoms: C8_8  and  C10_10 
REMARK    4  A    between atoms: C9_9  and  C10_10 
ROOT
HETATM    1  C2  UNL     1     -33.622  14.580  -4.326  1.00 20.00     0.018 A 
HETATM    2  C3  UNL     1     -34.944  13.991  -3.901  1.00 20.00     0.060 A 
HETATM    3  C4  UNL     1     -34.452  15.281  -3.289  1.00 20.00     0.002 A 
ENDROOT
BRANCH   3   4
HETATM    4  C10 UNL     1     -35.097  16.633  -3.610  1.00 20.00    -0.010 C 
BRANCH   4   5
HETATM    5  C8  UNL     1     -34.163  17.519  -4.461  1.00 20.00     0.000 C 
HETATM    6  C6  UNL     1     -33.049  18.182  -3.662  1.00 20.00     0.005 C 
ENDBRANCH   4   5
BRANCH   4   7
HETATM    7  C9  UNL     1     -35.485  17.396  -2.326  1.00 20.00     0.000 C 
HETATM    8  C7  UNL     1     -35.145  16.653  -1.041  1.00 20.00     0.005 C 
ENDBRANCH   4   7
ENDBRANCH   3   4
BRANCH   2   9
HETATM    9  C1  UNL     1     -36.065  13.983  -4.847  1.00 20.00     0.127 C 
HETATM   10  C5  UNL     1     -35.759  14.397  -6.261  1.00 20.00     0.091 C 
HETATM   11  O11 UNL     1     -37.198  13.654  -4.502  1.00 20.00    -0.298 OA
ENDBRANCH   2   9
TORSDOF 4
ENDMDL
MODEL 4
REMARK VINA RESULT:      -3.9      3.847      6.016
REMARK  4 active torsions:
REMARK  status: ('A' for Active; 'I' for Inactive)
REMARK    1  A    between atoms: C1_1  and  C3_3 
REMARK    2  A    between atoms: C4_4  and  C10_10 
REMARK    3  A    between atoms: C8_8  and  C10_10 
REMARK    4  A    between atoms: C9_9  and  C10_10 
ROOT
HETATM    1  C2  UNL     1     -36.902  17.200  -4.338  1.00 20.00     0.018 A 
HETATM    2  C3  UNL     1     -37.288  15.927  -5.050  1.00 20.00     0.060 A 
HETATM    3  C4  UNL     1     -35.878  16.121  -4.544  1.00 20.00     0.002 A 
ENDROOT
BRANCH   3   4
HETATM    4  C10 UNL     1     -35.329  15.346  -3.342  1.00 20.00    -0.010 C 
BRANCH   4   5
HETATM    5  C8  UNL     1     -34.489  16.253  -2.418  1.00 20.00     0.000 C 
HETATM    6  C6  UNL     1     -35.212  16.674  -1.146  1.00 20.00     0.005 C 
ENDBRANCH   4   5
BRANCH   4   7
HETATM    7  C9  UNL     1     -34.469  14.143  -3.785  1.00 20.00     0.000 C 
HETATM    8  C7  UNL     1     -33.184  14.536  -4.500  1.00 20.00     0.005 C 
ENDBRANCH   4   7
ENDBRANCH   3   4
BRANCH   2   9
HETATM    9  C1  UNL     1     -38.201  14.986  -4.394  1.00 20.00     0.127 C 
HETATM   10  C5  UNL     1     -39.397  15.579  -3.698  1.00 20.00     0.091 C 
HETATM   11  O11 UNL     1     -38.002  13.773  -4.413  1.00 20.00    -0.298 OA
ENDBRANCH   2   9
TORSDOF 4
ENDMDL
MODEL 5
REMARK VINA RESULT:      -3.9      3.252      5.615
REMARK  4 active torsions:
REMARK  status: ('A' for Active; 'I' for Inactive)
REMARK    1  A    between atoms: C1_1  and  C3_3 
REMARK    2  A    between atoms: C4_4  and  C10_10 
REMARK    3  A    between atoms: C8_8  and  C10_10 
REMARK    4  A    between atoms: C9_9  and  C10_10 
ROOT
HETATM    1  C2  UNL     1     -36.103  16.432  -5.262  1.00 20.00     0.018 A 
HETATM    2  C3  UNL     1     -35.721  14.987  -5.466  1.00 20.00     0.060 A 
HETATM    3  C4  UNL     1     -34.785  15.928  -4.745  1.00 20.00     0.002 A 
ENDROOT
BRANCH   3   4
HETATM    4  C10 UNL     1     -34.540  15.837  -3.235  1.00 20.00    -0.010 C 
BRANCH   4   5
HETATM    5  C8  UNL     1     -35.619  16.600  -2.438  1.00 20.00     0.000 C 
HETATM    6  C6  UNL     1     -35.281  16.782  -0.965  1.00 20.00     0.005 C 
ENDBRANCH   4   5
BRANCH   4   7
HETATM    7  C9  UNL     1     -33.149  16.383  -2.852  1.00 20.00     0.000 C 
HETATM    8  C7  UNL     1     -32.871  17.785  -3.378  1.00 20.00     0.005 C 
ENDBRANCH   4   7
ENDBRANCH   3   4
BRANCH   2   9
HETATM    9  C1  UNL     1     -36.448  13.942  -4.737  1.00 20.00     0.127 C 
HETATM   10  C5  UNL     1     -37.825  14.296  -4.243  1.00 20.00     0.091 C 
HETATM   11  O11 UNL     1     -35.958  12.831  -4.542  1.00 20.00    -0.298 OA
ENDBRANCH   2   9
TORSDOF 4
ENDMDL
MODEL 6
REMARK VINA RESULT:      -3.8     11.561     12.890
REMARK  4 active torsions:
REMARK  status: ('A' for Active; 'I' for Inactive)
REMARK    1  A    between atoms: C1_1  and  C3_3 
REMARK    2  A    between atoms: C4_4  and  C10_10 
REMARK    3  A    between atoms: C8_8  and  C10_10 
REMARK    4  A    between atoms: C9_9  and  C10_10 
ROOT
HETATM    1  C2  UNL     1     -33.891   4.472   2.120  1.00 20.00     0.018 A 
HETATM    2  C3  UNL     1     -33.828   4.506   3.627  1.00 20.00     0.060 A 
HETATM    3  C4  UNL     1     -32.851   5.313   2.805  1.00 20.00     0.002 A 
ENDROOT
BRANCH   3   4
HETATM    4  C10 UNL     1     -32.924   6.841   2.720  1.00 20.00    -0.010 C 
BRANCH   4   5
HETATM    5  C8  UNL     1     -32.595   7.346   1.300  1.00 20.00     0.000 C 
HETATM    6  C6  UNL     1     -32.929   8.815   1.077  1.00 20.00     0.005 C 
ENDBRANCH   4   5
BRANCH   4   7
HETATM    7  C9  UNL     1     -31.966   7.511   3.727  1.00 20.00     0.000 C 
HETATM    8  C7  UNL     1     -32.615   7.854   5.061  1.00 20.00     0.005 C 
ENDBRANCH   4   7
ENDBRANCH   3   4
BRANCH   2   9
HETATM    9  C1  UNL     1     -34.905   5.162   4.376  1.00 20.00     0.127 C 
HETATM   10  C5  UNL     1     -34.722   5.272   5.867  1.00 20.00     0.091 C 
HETATM   11  O11 UNL     1     -35.906   5.603   3.816  1.00 20.00    -0.298 OA
ENDBRANCH   2   9
TORSDOF 4
ENDMDL
MODEL 7
REMARK VINA RESULT:      -3.8      2.328      4.659
REMARK  4 active torsions:
REMARK  status: ('A' for Active; 'I' for Inactive)
REMARK    1  A    between atoms: C1_1  and  C3_3 
REMARK    2  A    between atoms: C4_4  and  C10_10 
REMARK    3  A    between atoms: C8_8  and  C10_10 
REMARK    4  A    between atoms: C9_9  and  C10_10 
ROOT
HETATM    1  C2  UNL     1     -35.426  16.735  -4.380  1.00 20.00     0.018 A 
HETATM    2  C3  UNL     1     -34.264  15.901  -4.859  1.00 20.00     0.060 A 
HETATM    3  C4  UNL     1     -34.059  16.955  -3.798  1.00 20.00     0.002 A 
ENDROOT
BRANCH   3   4
HETATM    4  C10 UNL     1     -33.783  16.595  -2.334  1.00 20.00    -0.010 C 
BRANCH   4   5
HETATM    5  C8  UNL     1     -35.090  16.464  -1.526  1.00 20.00     0.000 C 
HETATM    6  C6  UNL     1     -35.113  17.300  -0.253  1.00 20.00     0.005 C 
ENDBRANCH   4   5
BRANCH   4   7
HETATM    7  C9  UNL     1     -32.873  17.640  -1.655  1.00 20.00     0.000 C 
HETATM    8  C7  UNL     1     -32.479  18.797  -2.562  1.00 20.00     0.005 C 
ENDBRANCH   4   7
ENDBRANCH   3   4
BRANCH   2   9
HETATM    9  C1  UNL     1     -34.218  14.474  -4.524  1.00 20.00     0.127 C 
HETATM   10  C5  UNL     1     -35.531  13.811  -4.204  1.00 20.00     0.091 C 
HETATM   11  O11 UNL     1     -33.159  13.849  -4.508  1.00 20.00    -0.298 OA
ENDBRANCH   2   9
TORSDOF 4
ENDMDL
MODEL 8
REMARK VINA RESULT:      -3.8      3.681      5.802
REMARK  4 active torsions:
REMARK  status: ('A' for Active; 'I' for Inactive)
REMARK    1  A    between atoms: C1_1  and  C3_3 
REMARK    2  A    between atoms: C4_4  and  C10_10 
REMARK    3  A    between atoms: C8_8  and  C10_10 
REMARK    4  A    between atoms: C9_9  and  C10_10 
ROOT
HETATM    1  C2  UNL     1     -36.194  13.557  -4.582  1.00 20.00     0.018 A 
HETATM    2  C3  UNL     1     -36.951  14.753  -4.063  1.00 20.00     0.060 A 
HETATM    3  C4  UNL     1     -35.484  14.585  -3.748  1.00 20.00     0.002 A 
ENDROOT
BRANCH   3   4
HETATM    4  C10 UNL     1     -34.407  15.473  -4.379  1.00 20.00    -0.010 C 
BRANCH   4   5
HETATM    5  C8  UNL     1     -33.623  14.721  -5.475  1.00 20.00     0.000 C 
HETATM    6  C6  UNL     1     -33.961  15.169  -6.891  1.00 20.00     0.005 C 
ENDBRANCH   4   5
BRANCH   4   7
HETATM    7  C9  UNL     1     -33.415  16.001  -3.322  1.00 20.00     0.000 C 
HETATM    8  C7  UNL     1     -34.084  16.582  -2.084  1.00 20.00     0.005 C 
ENDBRANCH   4   7
ENDBRANCH   3   4
BRANCH   2   9
HETATM    9  C1  UNL     1     -37.407  15.780  -5.006  1.00 20.00     0.127 C 
HETATM   10  C5  UNL     1     -37.790  17.113  -4.421  1.00 20.00     0.091 C 
HETATM   11  O11 UNL     1     -37.471  15.563  -6.215  1.00 20.00    -0.298 OA
ENDBRANCH   2   9
TORSDOF 4
ENDMDL
MODEL 9
REMARK VINA RESULT:      -3.7      3.477      5.837
REMARK  4 active torsions:
REMARK  status: ('A' for Active; 'I' for Inactive)
REMARK    1  A    between atoms: C1_1  and  C3_3 
REMARK    2  A    between atoms: C4_4  and  C10_10 
REMARK    3  A    between atoms: C8_8  and  C10_10 
REMARK    4  A    between atoms: C9_9  and  C10_10 
ROOT
HETATM    1  C2  UNL     1     -35.466  13.524  -4.118  1.00 20.00     0.018 A 
HETATM    2  C3  UNL     1     -36.105  14.136  -5.340  1.00 20.00     0.060 A 
HETATM    3  C4  UNL     1     -36.323  14.749  -3.977  1.00 20.00     0.002 A 
ENDROOT
BRANCH   3   4
HETATM    4  C10 UNL     1     -35.689  16.084  -3.573  1.00 20.00    -0.010 C 
BRANCH   4   5
HETATM    5  C8  UNL     1     -34.593  15.892  -2.504  1.00 20.00     0.000 C 
HETATM    6  C6  UNL     1     -33.206  16.328  -2.959  1.00 20.00     0.005 C 
ENDBRANCH   4   5
BRANCH   4   7
HETATM    7  C9  UNL     1     -36.744  17.076  -3.039  1.00 20.00     0.000 C 
HETATM    8  C7  UNL     1     -37.973  17.206  -3.929  1.00 20.00     0.005 C 
ENDBRANCH   4   7
ENDBRANCH   3   4
BRANCH   2   9
HETATM    9  C1  UNL     1     -35.260  14.798  -6.338  1.00 20.00     0.127 C 
HETATM   10  C5  UNL     1     -35.956  15.694  -7.328  1.00 20.00     0.091 C 
HETATM   11  O11 UNL     1     -34.042  14.631  -6.365  1.00 20.00    -0.298 OA
ENDBRANCH   2   9
TORSDOF 4
ENDMDL
