MODEL 1
REMARK VINA RESULT:      -4.6      0.000      0.000
REMARK  4 active torsions:
REMARK  status: ('A' for Active; 'I' for Inactive)
REMARK    1  A    between atoms: C2_2  and  C5_5 
REMARK    2  A    between atoms: C2_2  and  C9_9 
REMARK    3  A    between atoms: C7_7  and  C9_9 
REMARK    4  A    between atoms: C8_8  and  C9_9 
ROOT
HETATM    1  C1  UNL     1     -37.185  14.618  -4.338  1.00 20.00     0.059 C 
HETATM    2  C7  UNL     1     -35.998  15.486  -4.357  1.00 20.00     0.136 C 
HETATM    3  N10 UNL     1     -38.123  13.934  -4.323  1.00 20.00    -0.197 NA
ENDROOT
BRANCH   2   4
HETATM    4  C9  UNL     1     -34.831  14.944  -3.513  1.00 20.00     0.068 C 
BRANCH   4   5
HETATM    5  C2  UNL     1     -34.433  15.965  -2.451  1.00 20.00     0.136 C 
HETATM    6  O11 UNL     1     -35.136  16.275  -1.497  1.00 20.00    -0.297 OA
BRANCH   5   7
HETATM    7  C5  UNL     1     -33.105  16.622  -2.636  1.00 20.00     0.056 A 
HETATM    8  C3  UNL     1     -33.066  18.010  -3.181  1.00 20.00     0.013 A 
HETATM    9  C4  UNL     1     -32.743  17.758  -1.739  1.00 20.00     0.013 A 
ENDBRANCH   5   7
ENDBRANCH   4   5
BRANCH   4  10
HETATM   10  C8  UNL     1     -33.633  14.522  -4.385  1.00 20.00     0.008 C 
HETATM   11  C6  UNL     1     -33.823  14.891  -5.852  1.00 20.00     0.006 C 
ENDBRANCH   4  10
ENDBRANCH   2   4
TORSDOF 4
ENDMDL
MODEL 2
REMARK VINA RESULT:      -4.5      1.490      1.919
REMARK  4 active torsions:
REMARK  status: ('A' for Active; 'I' for Inactive)
REMARK    1  A    between atoms: C2_2  and  C5_5 
REMARK    2  A    between atoms: C2_2  and  C9_9 
REMARK    3  A    between atoms: C7_7  and  C9_9 
REMARK    4  A    between atoms: C8_8  and  C9_9 
ROOT
HETATM    1  C1  UNL     1     -36.540  13.900  -4.345  1.00 20.00     0.059 C 
HETATM    2  C7  UNL     1     -35.083  13.807  -4.165  1.00 20.00     0.136 C 
HETATM    3  N10 UNL     1     -37.690  13.971  -4.486  1.00 20.00    -0.197 NA
ENDROOT
BRANCH   2   4
HETATM    4  C9  UNL     1     -34.300  14.868  -4.958  1.00 20.00     0.068 C 
BRANCH   4   5
HETATM    5  C2  UNL     1     -34.196  16.156  -4.145  1.00 20.00     0.136 C 
HETATM    6  O11 UNL     1     -34.296  17.280  -4.621  1.00 20.00    -0.297 OA
BRANCH   5   7
HETATM    7  C5  UNL     1     -33.931  15.991  -2.685  1.00 20.00     0.056 A 
HETATM    8  C3  UNL     1     -33.668  17.211  -1.867  1.00 20.00     0.013 A 
HETATM    9  C4  UNL     1     -34.962  16.469  -1.718  1.00 20.00     0.013 A 
ENDBRANCH   5   7
ENDBRANCH   4   5
BRANCH   4  10
HETATM   10  C8  UNL     1     -34.907  15.113  -6.352  1.00 20.00     0.008 C 
HETATM   11  C6  UNL     1     -33.846  15.187  -7.444  1.00 20.00     0.006 C 
ENDBRANCH   4  10
ENDBRANCH   2   4
TORSDOF 4
ENDMDL
MODEL 3
REMARK VINA RESULT:      -4.4      1.716      3.516
REMARK  4 active torsions:
REMARK  status: ('A' for Active; 'I' for Inactive)
REMARK    1  A    between atoms: C2_2  and  C5_5 
REMARK    2  A    between atoms: C2_2  and  C9_9 
REMARK    3  A    between atoms: C7_7  and  C9_9 
REMARK    4  A    between atoms: C8_8  and  C9_9 
ROOT
HETATM    1  C1  UNL     1     -36.551  14.457  -3.910  1.00 20.00     0.059 C 
HETATM    2  C7  UNL     1     -35.482  15.139  -3.163  1.00 20.00     0.136 C 
HETATM    3  N10 UNL     1     -37.393  13.918  -4.498  1.00 20.00    -0.197 NA
ENDROOT
BRANCH   2   4
HETATM    4  C9  UNL     1     -34.415  15.777  -4.068  1.00 20.00     0.068 C 
BRANCH   4   5
HETATM    5  C2  UNL     1     -33.820  14.724  -4.999  1.00 20.00     0.136 C 
HETATM    6  O11 UNL     1     -33.311  13.677  -4.617  1.00 20.00    -0.297 OA
BRANCH   5   7
HETATM    7  C5  UNL     1     -33.861  15.038  -6.458  1.00 20.00     0.056 A 
HETATM    8  C3  UNL     1     -35.182  15.039  -7.150  1.00 20.00     0.013 A 
HETATM    9  C4  UNL     1     -34.467  16.331  -6.889  1.00 20.00     0.013 A 
ENDBRANCH   5   7
ENDBRANCH   4   5
BRANCH   4  10
HETATM   10  C8  UNL     1     -33.329  16.509  -3.257  1.00 20.00     0.008 C 
HETATM   11  C6  UNL     1     -33.847  17.012  -1.914  1.00 20.00     0.006 C 
ENDBRANCH   4  10
ENDBRANCH   2   4
TORSDOF 4
ENDMDL
MODEL 4
REMARK VINA RESULT:      -4.3      2.289      3.280
REMARK  4 active torsions:
REMARK  status: ('A' for Active; 'I' for Inactive)
REMARK    1  A    between atoms: C2_2  and  C5_5 
REMARK    2  A    between atoms: C2_2  and  C9_9 
REMARK    3  A    between atoms: C7_7  and  C9_9 
REMARK    4  A    between atoms: C8_8  and  C9_9 
ROOT
HETATM    1  C1  UNL     1     -36.607  13.989  -4.286  1.00 20.00     0.059 C 
HETATM    2  C7  UNL     1     -35.154  14.001  -4.054  1.00 20.00     0.136 C 
HETATM    3  N10 UNL     1     -37.753  13.977  -4.470  1.00 20.00    -0.197 NA
ENDROOT
BRANCH   2   4
HETATM    4  C9  UNL     1     -34.492  15.347  -4.397  1.00 20.00     0.068 C 
BRANCH   4   5
HETATM    5  C2  UNL     1     -34.309  15.471  -5.907  1.00 20.00     0.136 C 
HETATM    6  O11 UNL     1     -33.688  14.668  -6.593  1.00 20.00    -0.297 OA
BRANCH   5   7
HETATM    7  C5  UNL     1     -34.921  16.674  -6.546  1.00 20.00     0.056 A 
HETATM    8  C3  UNL     1     -35.782  17.563  -5.713  1.00 20.00     0.013 A 
HETATM    9  C4  UNL     1     -34.422  18.022  -6.146  1.00 20.00     0.013 A 
ENDBRANCH   5   7
ENDBRANCH   4   5
BRANCH   4  10
HETATM   10  C8  UNL     1     -33.168  15.551  -3.636  1.00 20.00     0.008 C 
HETATM   11  C6  UNL     1     -33.226  16.733  -2.674  1.00 20.00     0.006 C 
ENDBRANCH   4  10
ENDBRANCH   2   4
TORSDOF 4
ENDMDL
MODEL 5
REMARK VINA RESULT:      -4.2      1.723      2.377
REMARK  4 active torsions:
REMARK  status: ('A' for Active; 'I' for Inactive)
REMARK    1  A    between atoms: C2_2  and  C5_5 
REMARK    2  A    between atoms: C2_2  and  C9_9 
REMARK    3  A    between atoms: C7_7  and  C9_9 
REMARK    4  A    between atoms: C8_8  and  C9_9 
ROOT
HETATM    1  C1  UNL     1     -37.146  14.592  -4.950  1.00 20.00     0.059 C 
HETATM    2  C7  UNL     1     -36.208  15.428  -5.716  1.00 20.00     0.136 C 
HETATM    3  N10 UNL     1     -37.886  13.934  -4.345  1.00 20.00    -0.197 NA
ENDROOT
BRANCH   2   4
HETATM    4  C9  UNL     1     -34.859  14.742  -5.988  1.00 20.00     0.068 C 
BRANCH   4   5
HETATM    5  C2  UNL     1     -33.960  14.849  -4.760  1.00 20.00     0.136 C 
HETATM    6  O11 UNL     1     -33.134  14.006  -4.435  1.00 20.00    -0.297 OA
BRANCH   5   7
HETATM    7  C5  UNL     1     -34.147  16.066  -3.913  1.00 20.00     0.056 A 
HETATM    8  C3  UNL     1     -34.394  15.886  -2.453  1.00 20.00     0.013 A 
HETATM    9  C4  UNL     1     -33.079  16.421  -2.935  1.00 20.00     0.013 A 
ENDBRANCH   5   7
ENDBRANCH   4   5
BRANCH   4  10
HETATM   10  C8  UNL     1     -34.174  15.292  -7.254  1.00 20.00     0.008 C 
HETATM   11  C6  UNL     1     -34.560  16.738  -7.543  1.00 20.00     0.006 C 
ENDBRANCH   4  10
ENDBRANCH   2   4
TORSDOF 4
ENDMDL
MODEL 6
REMARK VINA RESULT:      -4.2      2.203      4.161
REMARK  4 active torsions:
REMARK  status: ('A' for Active; 'I' for Inactive)
REMARK    1  A    between atoms: C2_2  and  C5_5 
REMARK    2  A    between atoms: C2_2  and  C9_9 
REMARK    3  A    between atoms: C7_7  and  C9_9 
REMARK    4  A    between atoms: C8_8  and  C9_9 
ROOT
HETATM    1  C1  UNL     1     -33.961  15.030  -6.048  1.00 20.00     0.059 C 
HETATM    2  C7  UNL     1     -33.444  14.446  -4.800  1.00 20.00     0.136 C 
HETATM    3  N10 UNL     1     -34.368  15.492  -7.032  1.00 20.00    -0.197 NA
ENDROOT
BRANCH   2   4
HETATM    4  C9  UNL     1     -34.447  14.505  -3.635  1.00 20.00     0.068 C 
BRANCH   4   5
HETATM    5  C2  UNL     1     -35.815  14.010  -4.098  1.00 20.00     0.136 C 
HETATM    6  O11 UNL     1     -36.017  12.907  -4.591  1.00 20.00    -0.297 OA
BRANCH   5   7
HETATM    7  C5  UNL     1     -36.948  14.971  -3.942  1.00 20.00     0.056 A 
HETATM    8  C3  UNL     1     -37.569  15.544  -5.171  1.00 20.00     0.013 A 
HETATM    9  C4  UNL     1     -38.313  14.532  -4.354  1.00 20.00     0.013 A 
ENDBRANCH   5   7
ENDBRANCH   4   5
BRANCH   4  10
HETATM   10  C8  UNL     1     -34.523  15.909  -3.007  1.00 20.00     0.008 C 
HETATM   11  C6  UNL     1     -33.147  16.532  -2.806  1.00 20.00     0.006 C 
ENDBRANCH   4  10
ENDBRANCH   2   4
TORSDOF 4
ENDMDL
MODEL 7
REMARK VINA RESULT:      -4.2     11.226     12.009
REMARK  4 active torsions:
REMARK  status: ('A' for Active; 'I' for Inactive)
REMARK    1  A    between atoms: C2_2  and  C5_5 
REMARK    2  A    between atoms: C2_2  and  C9_9 
REMARK    3  A    between atoms: C7_7  and  C9_9 
REMARK    4  A    between atoms: C8_8  and  C9_9 
ROOT
HETATM    1  C1  UNL     1     -32.779   8.270   1.013  1.00 20.00     0.059 C 
HETATM    2  C7  UNL     1     -32.284   7.629   2.242  1.00 20.00     0.136 C 
HETATM    3  N10 UNL     1     -33.168   8.778   0.045  1.00 20.00    -0.197 NA
ENDROOT
BRANCH   2   4
HETATM    4  C9  UNL     1     -33.204   6.511   2.761  1.00 20.00     0.068 C 
BRANCH   4   5
HETATM    5  C2  UNL     1     -33.531   6.744   4.233  1.00 20.00     0.136 C 
HETATM    6  O11 UNL     1     -32.824   7.382   5.003  1.00 20.00    -0.297 OA
BRANCH   5   7
HETATM    7  C5  UNL     1     -34.793   6.119   4.732  1.00 20.00     0.056 A 
HETATM    8  C3  UNL     1     -34.805   4.650   4.992  1.00 20.00     0.013 A 
HETATM    9  C4  UNL     1     -34.829   5.617   6.137  1.00 20.00     0.013 A 
ENDBRANCH   5   7
ENDBRANCH   4   5
BRANCH   4  10
HETATM   10  C8  UNL     1     -32.608   5.112   2.517  1.00 20.00     0.008 C 
HETATM   11  C6  UNL     1     -33.546   4.211   1.721  1.00 20.00     0.006 C 
ENDBRANCH   4  10
ENDBRANCH   2   4
TORSDOF 4
ENDMDL
MODEL 8
REMARK VINA RESULT:      -4.2      3.298      5.140
REMARK  4 active torsions:
REMARK  status: ('A' for Active; 'I' for Inactive)
REMARK    1  A    between atoms: C2_2  and  C5_5 
REMARK    2  A    between atoms: C2_2  and  C9_9 
REMARK    3  A    between atoms: C7_7  and  C9_9 
REMARK    4  A    between atoms: C8_8  and  C9_9 
ROOT
HETATM    1  C1  UNL     1     -31.713  18.340  -0.947  1.00 20.00     0.059 C 
HETATM    2  C7  UNL     1     -33.063  18.408  -1.528  1.00 20.00     0.136 C 
HETATM    3  N10 UNL     1     -30.647  18.288  -0.490  1.00 20.00    -0.197 NA
ENDROOT
BRANCH   2   4
HETATM    4  C9  UNL     1     -33.648  17.029  -1.879  1.00 20.00     0.068 C 
BRANCH   4   5
HETATM    5  C2  UNL     1     -33.523  16.773  -3.378  1.00 20.00     0.136 C 
HETATM    6  O11 UNL     1     -33.627  17.641  -4.236  1.00 20.00    -0.297 OA
BRANCH   5   7
HETATM    7  C5  UNL     1     -33.280  15.357  -3.785  1.00 20.00     0.056 A 
HETATM    8  C3  UNL     1     -34.446  14.430  -3.869  1.00 20.00     0.013 A 
HETATM    9  C4  UNL     1     -33.771  14.907  -5.120  1.00 20.00     0.013 A 
ENDBRANCH   5   7
ENDBRANCH   4   5
BRANCH   4  10
HETATM   10  C8  UNL     1     -35.098  16.873  -1.386  1.00 20.00     0.008 C 
HETATM   11  C6  UNL     1     -35.253  17.226   0.089  1.00 20.00     0.006 C 
ENDBRANCH   4  10
ENDBRANCH   2   4
TORSDOF 4
ENDMDL
MODEL 9
REMARK VINA RESULT:      -4.1      1.890      3.593
REMARK  4 active torsions:
REMARK  status: ('A' for Active; 'I' for Inactive)
REMARK    1  A    between atoms: C2_2  and  C5_5 
REMARK    2  A    between atoms: C2_2  and  C9_9 
REMARK    3  A    between atoms: C7_7  and  C9_9 
REMARK    4  A    between atoms: C8_8  and  C9_9 
ROOT
HETATM    1  C1  UNL     1     -36.689  14.001  -4.362  1.00 20.00     0.059 C 
HETATM    2  C7  UNL     1     -35.231  14.103  -4.194  1.00 20.00     0.136 C 
HETATM    3  N10 UNL     1     -37.839  13.919  -4.496  1.00 20.00    -0.197 NA
ENDROOT
BRANCH   2   4
HETATM    4  C9  UNL     1     -34.724  15.553  -4.114  1.00 20.00     0.068 C 
BRANCH   4   5
HETATM    5  C2  UNL     1     -34.882  16.237  -5.469  1.00 20.00     0.136 C 
HETATM    6  O11 UNL     1     -35.484  17.289  -5.644  1.00 20.00    -0.297 OA
BRANCH   5   7
HETATM    7  C5  UNL     1     -34.266  15.535  -6.635  1.00 20.00     0.056 A 
HETATM    8  C3  UNL     1     -35.122  15.233  -7.818  1.00 20.00     0.013 A 
HETATM    9  C4  UNL     1     -34.071  16.298  -7.902  1.00 20.00     0.013 A 
ENDBRANCH   5   7
ENDBRANCH   4   5
BRANCH   4  10
HETATM   10  C8  UNL     1     -33.278  15.633  -3.592  1.00 20.00     0.008 C 
HETATM   11  C6  UNL     1     -33.058  16.826  -2.668  1.00 20.00     0.006 C 
ENDBRANCH   4  10
ENDBRANCH   2   4
TORSDOF 4
ENDMDL
