MODEL 1
REMARK VINA RESULT:      -5.5      0.000      0.000
REMARK  4 active torsions:
REMARK  status: ('A' for Active; 'I' for Inactive)
REMARK    1  A    between atoms: C2_2  and  C7_7 
REMARK    2  A    between atoms: C5_5  and  C8_8 
REMARK    3  A    between atoms: C7_7  and  C8_8 
REMARK    4  A    between atoms: C8_8  and  O9_9 
ROOT
HETATM    1  C1  UNL     1     -32.827   7.865   1.521  1.00 20.00    -0.111 C 
HETATM    2  C2  UNL     1     -32.827   6.888   2.218  1.00 20.00    -0.104 C 
HETATM    3  C6  UNL     1     -32.828   9.056   0.672  1.00 20.00     0.112 C 
ENDROOT
BRANCH   2   4
HETATM    4  C7  UNL     1     -32.825   5.689   3.072  1.00 20.00     0.126 C 
BRANCH   4   5
HETATM    5  C8  UNL     1     -34.247   5.284   3.468  1.00 20.00     0.133 C 
BRANCH   5   6
HETATM    6  C5  UNL     1     -34.746   6.114   4.644  1.00 20.00     0.015 A 
HETATM    7  C3  UNL     1     -34.771   5.528   6.029  1.00 20.00     0.007 A 
HETATM    8  C4  UNL     1     -33.781   6.607   5.687  1.00 20.00     0.007 A 
ENDBRANCH   5   6
BRANCH   5   9
HETATM    9  O9  UNL     1     -34.243   3.909   3.853  1.00 20.00    -0.394 OA
HETATM   10  H21 UNL     1     -35.089   3.540   3.556  1.00 20.00     0.210 HD
ENDBRANCH   5   9
ENDBRANCH   4   5
ENDBRANCH   2   4
TORSDOF 4
ENDMDL
MODEL 2
REMARK VINA RESULT:      -5.0      1.771      4.779
REMARK  4 active torsions:
REMARK  status: ('A' for Active; 'I' for Inactive)
REMARK    1  A    between atoms: C2_2  and  C7_7 
REMARK    2  A    between atoms: C5_5  and  C8_8 
REMARK    3  A    between atoms: C7_7  and  C8_8 
REMARK    4  A    between atoms: C8_8  and  O9_9 
ROOT
HETATM    1  C1  UNL     1     -34.407   5.430   4.583  1.00 20.00    -0.111 C 
HETATM    2  C2  UNL     1     -33.848   5.751   3.570  1.00 20.00    -0.104 C 
HETATM    3  C6  UNL     1     -35.088   5.038   5.817  1.00 20.00     0.112 C 
ENDROOT
BRANCH   2   4
HETATM    4  C7  UNL     1     -33.163   6.147   2.329  1.00 20.00     0.126 C 
BRANCH   4   5
HETATM    5  C8  UNL     1     -32.637   7.581   2.415  1.00 20.00     0.133 C 
BRANCH   5   6
HETATM    6  C5  UNL     1     -32.274   8.117   1.036  1.00 20.00     0.015 A 
HETATM    7  C3  UNL     1     -33.305   8.153  -0.058  1.00 20.00     0.007 A 
HETATM    8  C4  UNL     1     -32.827   9.435   0.567  1.00 20.00     0.007 A 
ENDBRANCH   5   6
BRANCH   5   9
HETATM    9  O9  UNL     1     -31.464   7.592   3.229  1.00 20.00    -0.394 OA
HETATM   10  H21 UNL     1     -31.467   8.438   3.702  1.00 20.00     0.210 HD
ENDBRANCH   5   9
ENDBRANCH   4   5
ENDBRANCH   2   4
TORSDOF 4
ENDMDL
MODEL 3
REMARK VINA RESULT:      -5.0      1.593      1.744
REMARK  4 active torsions:
REMARK  status: ('A' for Active; 'I' for Inactive)
REMARK    1  A    between atoms: C2_2  and  C7_7 
REMARK    2  A    between atoms: C5_5  and  C8_8 
REMARK    3  A    between atoms: C7_7  and  C8_8 
REMARK    4  A    between atoms: C8_8  and  O9_9 
ROOT
HETATM    1  C1  UNL     1     -32.801   8.240   1.191  1.00 20.00    -0.111 C 
HETATM    2  C2  UNL     1     -32.814   7.247   1.866  1.00 20.00    -0.104 C 
HETATM    3  C6  UNL     1     -32.785   9.449   0.370  1.00 20.00     0.112 C 
ENDROOT
BRANCH   2   4
HETATM    4  C7  UNL     1     -32.830   6.028   2.692  1.00 20.00     0.126 C 
BRANCH   4   5
HETATM    5  C8  UNL     1     -32.877   6.366   4.184  1.00 20.00     0.133 C 
BRANCH   5   6
HETATM    6  C5  UNL     1     -34.312   6.425   4.689  1.00 20.00     0.015 A 
HETATM    7  C3  UNL     1     -35.218   5.234   4.538  1.00 20.00     0.007 A 
HETATM    8  C4  UNL     1     -34.721   5.631   5.900  1.00 20.00     0.007 A 
ENDBRANCH   5   6
BRANCH   5   9
HETATM    9  O9  UNL     1     -32.273   7.644   4.384  1.00 20.00    -0.394 OA
HETATM   10  H21 UNL     1     -32.249   8.075   3.516  1.00 20.00     0.210 HD
ENDBRANCH   5   9
ENDBRANCH   4   5
ENDBRANCH   2   4
TORSDOF 4
ENDMDL
MODEL 4
REMARK VINA RESULT:      -4.7     11.802     12.478
REMARK  4 active torsions:
REMARK  status: ('A' for Active; 'I' for Inactive)
REMARK    1  A    between atoms: C2_2  and  C7_7 
REMARK    2  A    between atoms: C5_5  and  C8_8 
REMARK    3  A    between atoms: C7_7  and  C8_8 
REMARK    4  A    between atoms: C8_8  and  O9_9 
ROOT
HETATM    1  C1  UNL     1     -33.209  16.604  -2.668  1.00 20.00    -0.111 C 
HETATM    2  C2  UNL     1     -33.322  15.693  -3.442  1.00 20.00    -0.104 C 
HETATM    3  C6  UNL     1     -33.072  17.714  -1.725  1.00 20.00     0.112 C 
ENDROOT
BRANCH   2   4
HETATM    4  C7  UNL     1     -33.462  14.576  -4.390  1.00 20.00     0.126 C 
BRANCH   4   5
HETATM    5  C8  UNL     1     -34.099  15.036  -5.703  1.00 20.00     0.133 C 
BRANCH   5   6
HETATM    6  C5  UNL     1     -35.508  14.477  -5.855  1.00 20.00     0.015 A 
HETATM    7  C3  UNL     1     -36.275  14.017  -4.646  1.00 20.00     0.007 A 
HETATM    8  C4  UNL     1     -36.692  15.268  -5.368  1.00 20.00     0.007 A 
ENDBRANCH   5   6
BRANCH   5   9
HETATM    9  O9  UNL     1     -33.304  14.563  -6.790  1.00 20.00    -0.394 OA
HETATM   10  H21 UNL     1     -33.869  13.966  -7.304  1.00 20.00     0.210 HD
ENDBRANCH   5   9
ENDBRANCH   4   5
ENDBRANCH   2   4
TORSDOF 4
ENDMDL
MODEL 5
REMARK VINA RESULT:      -4.6      9.050      9.811
REMARK  4 active torsions:
REMARK  status: ('A' for Active; 'I' for Inactive)
REMARK    1  A    between atoms: C2_2  and  C7_7 
REMARK    2  A    between atoms: C5_5  and  C8_8 
REMARK    3  A    between atoms: C7_7  and  C8_8 
REMARK    4  A    between atoms: C8_8  and  O9_9 
ROOT
HETATM    1  C1  UNL     1     -42.201   3.617  -2.506  1.00 20.00    -0.111 C 
HETATM    2  C2  UNL     1     -41.671   4.459  -1.833  1.00 20.00    -0.104 C 
HETATM    3  C6  UNL     1     -42.847   2.592  -3.324  1.00 20.00     0.112 C 
ENDROOT
BRANCH   2   4
HETATM    4  C7  UNL     1     -41.020   5.490  -1.009  1.00 20.00     0.126 C 
BRANCH   4   5
HETATM    5  C8  UNL     1     -41.949   5.983   0.103  1.00 20.00     0.133 C 
BRANCH   5   6
HETATM    6  C5  UNL     1     -41.551   7.376   0.573  1.00 20.00     0.015 A 
HETATM    7  C3  UNL     1     -41.236   8.453  -0.428  1.00 20.00     0.007 A 
HETATM    8  C4  UNL     1     -42.494   8.534   0.392  1.00 20.00     0.007 A 
ENDBRANCH   5   6
BRANCH   5   9
HETATM    9  O9  UNL     1     -41.857   5.087   1.210  1.00 20.00    -0.394 OA
HETATM   10  H21 UNL     1     -41.160   4.450   0.990  1.00 20.00     0.210 HD
ENDBRANCH   5   9
ENDBRANCH   4   5
ENDBRANCH   2   4
TORSDOF 4
ENDMDL
MODEL 6
REMARK VINA RESULT:      -4.5     11.451     12.830
REMARK  4 active torsions:
REMARK  status: ('A' for Active; 'I' for Inactive)
REMARK    1  A    between atoms: C2_2  and  C7_7 
REMARK    2  A    between atoms: C5_5  and  C8_8 
REMARK    3  A    between atoms: C7_7  and  C8_8 
REMARK    4  A    between atoms: C8_8  and  O9_9 
ROOT
HETATM    1  C1  UNL     1     -34.793  16.103  -2.099  1.00 20.00    -0.111 C 
HETATM    2  C2  UNL     1     -34.632  15.322  -2.997  1.00 20.00    -0.104 C 
HETATM    3  C6  UNL     1     -34.990  17.055  -1.007  1.00 20.00     0.112 C 
ENDROOT
BRANCH   2   4
HETATM    4  C7  UNL     1     -34.433  14.364  -4.097  1.00 20.00     0.126 C 
BRANCH   4   5
HETATM    5  C8  UNL     1     -34.127  15.083  -5.413  1.00 20.00     0.133 C 
BRANCH   5   6
HETATM    6  C5  UNL     1     -35.301  14.983  -6.379  1.00 20.00     0.015 A 
HETATM    7  C3  UNL     1     -36.638  15.562  -6.008  1.00 20.00     0.007 A 
HETATM    8  C4  UNL     1     -35.810  16.212  -7.081  1.00 20.00     0.007 A 
ENDBRANCH   5   6
BRANCH   5   9
HETATM    9  O9  UNL     1     -32.989  14.470  -6.018  1.00 20.00    -0.394 OA
HETATM   10  H21 UNL     1     -32.549  15.161  -6.537  1.00 20.00     0.210 HD
ENDBRANCH   5   9
ENDBRANCH   4   5
ENDBRANCH   2   4
TORSDOF 4
ENDMDL
MODEL 7
REMARK VINA RESULT:      -4.5      9.533     10.326
REMARK  4 active torsions:
REMARK  status: ('A' for Active; 'I' for Inactive)
REMARK    1  A    between atoms: C2_2  and  C7_7 
REMARK    2  A    between atoms: C5_5  and  C8_8 
REMARK    3  A    between atoms: C7_7  and  C8_8 
REMARK    4  A    between atoms: C8_8  and  O9_9 
ROOT
HETATM    1  C1  UNL     1     -42.299   3.014  -3.125  1.00 20.00    -0.111 C 
HETATM    2  C2  UNL     1     -42.513   3.908  -2.352  1.00 20.00    -0.104 C 
HETATM    3  C6  UNL     1     -42.040   1.925  -4.065  1.00 20.00     0.112 C 
ENDROOT
BRANCH   2   4
HETATM    4  C7  UNL     1     -42.772   5.005  -1.405  1.00 20.00     0.126 C 
BRANCH   4   5
HETATM    5  C8  UNL     1     -41.473   5.529  -0.790  1.00 20.00     0.133 C 
BRANCH   5   6
HETATM    6  C5  UNL     1     -41.206   6.968  -1.214  1.00 20.00     0.015 A 
HETATM    7  C3  UNL     1     -42.344   7.943  -1.344  1.00 20.00     0.007 A 
HETATM    8  C4  UNL     1     -41.353   8.089  -0.222  1.00 20.00     0.007 A 
ENDBRANCH   5   6
BRANCH   5   9
HETATM    9  O9  UNL     1     -40.390   4.716  -1.241  1.00 20.00    -0.394 OA
HETATM   10  H21 UNL     1     -40.780   3.879  -1.537  1.00 20.00     0.210 HD
ENDBRANCH   5   9
ENDBRANCH   4   5
ENDBRANCH   2   4
TORSDOF 4
ENDMDL
MODEL 8
REMARK VINA RESULT:      -4.4     11.239     12.370
REMARK  4 active torsions:
REMARK  status: ('A' for Active; 'I' for Inactive)
REMARK    1  A    between atoms: C2_2  and  C7_7 
REMARK    2  A    between atoms: C5_5  and  C8_8 
REMARK    3  A    between atoms: C7_7  and  C8_8 
REMARK    4  A    between atoms: C8_8  and  O9_9 
ROOT
HETATM    1  C1  UNL     1     -33.900  16.459  -2.473  1.00 20.00    -0.111 C 
HETATM    2  C2  UNL     1     -34.760  15.726  -2.879  1.00 20.00    -0.104 C 
HETATM    3  C6  UNL     1     -32.853  17.352  -1.980  1.00 20.00     0.112 C 
ENDROOT
BRANCH   2   4
HETATM    4  C7  UNL     1     -35.814  14.826  -3.375  1.00 20.00     0.126 C 
BRANCH   4   5
HETATM    5  C8  UNL     1     -35.335  14.021  -4.585  1.00 20.00     0.133 C 
BRANCH   5   6
HETATM    6  C5  UNL     1     -35.895  14.593  -5.882  1.00 20.00     0.015 A 
HETATM    7  C3  UNL     1     -35.740  16.056  -6.193  1.00 20.00     0.007 A 
HETATM    8  C4  UNL     1     -34.964  15.035  -6.978  1.00 20.00     0.007 A 
ENDBRANCH   5   6
BRANCH   5   9
HETATM    9  O9  UNL     1     -35.789  12.674  -4.451  1.00 20.00    -0.394 OA
HETATM   10  H21 UNL     1     -35.513  12.211  -5.256  1.00 20.00     0.210 HD
ENDBRANCH   5   9
ENDBRANCH   4   5
ENDBRANCH   2   4
TORSDOF 4
ENDMDL
MODEL 9
REMARK VINA RESULT:      -4.4     11.600     12.404
REMARK  4 active torsions:
REMARK  status: ('A' for Active; 'I' for Inactive)
REMARK    1  A    between atoms: C2_2  and  C7_7 
REMARK    2  A    between atoms: C5_5  and  C8_8 
REMARK    3  A    between atoms: C7_7  and  C8_8 
REMARK    4  A    between atoms: C8_8  and  O9_9 
ROOT
HETATM    1  C1  UNL     1     -35.377  14.688  -3.598  1.00 20.00    -0.111 C 
HETATM    2  C2  UNL     1     -34.928  15.536  -2.877  1.00 20.00    -0.104 C 
HETATM    3  C6  UNL     1     -35.925  13.654  -4.476  1.00 20.00     0.112 C 
ENDROOT
BRANCH   2   4
HETATM    4  C7  UNL     1     -34.374  16.576  -1.994  1.00 20.00     0.126 C 
BRANCH   4   5
HETATM    5  C8  UNL     1     -32.959  16.973  -2.419  1.00 20.00     0.133 C 
BRANCH   5   6
HETATM    6  C5  UNL     1     -32.521  18.261  -1.735  1.00 20.00     0.015 A 
HETATM    7  C3  UNL     1     -32.820  18.485  -0.278  1.00 20.00     0.007 A 
HETATM    8  C4  UNL     1     -31.405  18.242  -0.726  1.00 20.00     0.007 A 
ENDBRANCH   5   6
BRANCH   5   9
HETATM    9  O9  UNL     1     -32.944  17.181  -3.831  1.00 20.00    -0.394 OA
HETATM   10  H21 UNL     1     -33.531  17.933  -4.003  1.00 20.00     0.210 HD
ENDBRANCH   5   9
ENDBRANCH   4   5
ENDBRANCH   2   4
TORSDOF 4
ENDMDL
