MODEL 1
REMARK VINA RESULT:      -5.0      0.000      0.000
REMARK  3 active torsions:
REMARK  status: ('A' for Active; 'I' for Inactive)
REMARK    1  A    between atoms: C2_2  and  C11_11 
REMARK    2  A    between atoms: C7_7  and  C11_11 
REMARK    3  A    between atoms: C8_8  and  C12_12 
ROOT
HETATM    1  C1  UNL     1     -33.371  17.137  -1.926  1.00 20.00    -0.111 C 
HETATM    2  C2  UNL     1     -34.173  16.336  -2.321  1.00 20.00    -0.106 C 
HETATM    3  C9  UNL     1     -32.393  18.111  -1.443  1.00 20.00     0.112 C 
ENDROOT
BRANCH   2   4
HETATM    4  C11 UNL     1     -35.152  15.361  -2.814  1.00 20.00     0.106 C 
BRANCH   4   5
HETATM    5  C7  UNL     1     -34.557  14.501  -3.923  1.00 20.00     0.067 C 
HETATM    6  C3  UNL     1     -35.658  13.731  -4.630  1.00 20.00     0.132 C 
HETATM    7  C4  UNL     1     -36.409  14.439  -5.735  1.00 20.00     0.079 C 
HETATM    8  O13 UNL     1     -35.995  12.609  -4.250  1.00 20.00    -0.298 OA
HETATM    9  C5  UNL     1     -35.440  15.070  -6.723  1.00 20.00     0.012 C 
HETATM   10  C8  UNL     1     -34.424  16.004  -6.055  1.00 20.00    -0.014 C 
HETATM   11  C6  UNL     1     -33.686  15.278  -4.919  1.00 20.00     0.017 C 
BRANCH  10  12
HETATM   12  C12 UNL     1     -35.053  17.326  -5.619  1.00 20.00     0.000 C 
HETATM   13  C10 UNL     1     -34.023  18.391  -5.430  1.00 20.00     0.005 C 
ENDBRANCH  10  12
ENDBRANCH   4   5
ENDBRANCH   2   4
TORSDOF 3
ENDMDL
MODEL 2
REMARK VINA RESULT:      -4.4      1.933      2.826
REMARK  3 active torsions:
REMARK  status: ('A' for Active; 'I' for Inactive)
REMARK    1  A    between atoms: C2_2  and  C11_11 
REMARK    2  A    between atoms: C7_7  and  C11_11 
REMARK    3  A    between atoms: C8_8  and  C12_12 
ROOT
HETATM    1  C1  UNL     1     -31.870  18.248  -1.089  1.00 20.00    -0.111 C 
HETATM    2  C2  UNL     1     -32.431  17.726  -2.014  1.00 20.00    -0.106 C 
HETATM    3  C9  UNL     1     -31.187  18.884   0.037  1.00 20.00     0.112 C 
ENDROOT
BRANCH   2   4
HETATM    4  C11 UNL     1     -33.114  17.080  -3.138  1.00 20.00     0.106 C 
BRANCH   4   5
HETATM    5  C7  UNL     1     -33.938  15.887  -2.666  1.00 20.00     0.067 C 
HETATM    6  C3  UNL     1     -35.296  16.355  -2.176  1.00 20.00     0.132 C 
HETATM    7  C4  UNL     1     -36.383  16.553  -3.207  1.00 20.00     0.079 C 
HETATM    8  O13 UNL     1     -35.477  16.660  -0.996  1.00 20.00    -0.298 OA
HETATM    9  C5  UNL     1     -36.500  15.331  -4.105  1.00 20.00     0.012 C 
HETATM   10  C8  UNL     1     -35.171  14.941  -4.764  1.00 20.00    -0.014 C 
HETATM   11  C6  UNL     1     -34.071  14.766  -3.705  1.00 20.00     0.017 C 
BRANCH  10  12
HETATM   12  C12 UNL     1     -34.781  15.898  -5.890  1.00 20.00     0.000 C 
HETATM   13  C10 UNL     1     -34.041  15.195  -6.980  1.00 20.00     0.005 C 
ENDBRANCH  10  12
ENDBRANCH   4   5
ENDBRANCH   2   4
TORSDOF 3
ENDMDL
MODEL 3
REMARK VINA RESULT:      -4.3      1.770      2.105
REMARK  3 active torsions:
REMARK  status: ('A' for Active; 'I' for Inactive)
REMARK    1  A    between atoms: C2_2  and  C11_11 
REMARK    2  A    between atoms: C7_7  and  C11_11 
REMARK    3  A    between atoms: C8_8  and  C12_12 
ROOT
HETATM    1  C1  UNL     1     -35.105  17.164  -0.600  1.00 20.00    -0.111 C 
HETATM    2  C2  UNL     1     -35.070  16.405  -1.530  1.00 20.00    -0.106 C 
HETATM    3  C9  UNL     1     -35.148  18.088   0.532  1.00 20.00     0.112 C 
ENDROOT
BRANCH   2   4
HETATM    4  C11 UNL     1     -35.021  15.485  -2.670  1.00 20.00     0.106 C 
BRANCH   4   5
HETATM    5  C7  UNL     1     -33.831  15.792  -3.571  1.00 20.00     0.067 C 
HETATM    6  C3  UNL     1     -33.749  14.770  -4.691  1.00 20.00     0.132 C 
HETATM    7  C4  UNL     1     -34.597  15.008  -5.920  1.00 20.00     0.079 C 
HETATM    8  O13 UNL     1     -33.095  13.734  -4.561  1.00 20.00    -0.298 OA
HETATM    9  C5  UNL     1     -34.406  16.426  -6.437  1.00 20.00     0.012 C 
HETATM   10  C8  UNL     1     -34.663  17.494  -5.368  1.00 20.00    -0.014 C 
HETATM   11  C6  UNL     1     -33.812  17.226  -4.117  1.00 20.00     0.017 C 
BRANCH  10  12
HETATM   12  C12 UNL     1     -36.151  17.662  -5.064  1.00 20.00     0.000 C 
HETATM   13  C10 UNL     1     -36.395  18.774  -4.098  1.00 20.00     0.005 C 
ENDBRANCH  10  12
ENDBRANCH   4   5
ENDBRANCH   2   4
TORSDOF 3
ENDMDL
MODEL 4
REMARK VINA RESULT:      -4.3      2.162      3.167
REMARK  3 active torsions:
REMARK  status: ('A' for Active; 'I' for Inactive)
REMARK    1  A    between atoms: C2_2  and  C11_11 
REMARK    2  A    between atoms: C7_7  and  C11_11 
REMARK    3  A    between atoms: C8_8  and  C12_12 
ROOT
HETATM    1  C1  UNL     1     -37.529  17.912  -2.489  1.00 20.00    -0.111 C 
HETATM    2  C2  UNL     1     -37.070  17.344  -3.443  1.00 20.00    -0.106 C 
HETATM    3  C9  UNL     1     -38.087  18.603  -1.328  1.00 20.00     0.112 C 
ENDROOT
BRANCH   2   4
HETATM    4  C11 UNL     1     -36.506  16.659  -4.610  1.00 20.00     0.106 C 
BRANCH   4   5
HETATM    5  C7  UNL     1     -36.036  15.255  -4.246  1.00 20.00     0.067 C 
HETATM    6  C3  UNL     1     -35.380  14.600  -5.448  1.00 20.00     0.132 C 
HETATM    7  C4  UNL     1     -33.920  14.901  -5.701  1.00 20.00     0.079 C 
HETATM    8  O13 UNL     1     -36.037  13.928  -6.245  1.00 20.00    -0.298 OA
HETATM    9  C5  UNL     1     -33.103  14.698  -4.433  1.00 20.00     0.012 C 
HETATM   10  C8  UNL     1     -33.639  15.498  -3.240  1.00 20.00    -0.014 C 
HETATM   11  C6  UNL     1     -35.129  15.199  -3.010  1.00 20.00     0.017 C 
BRANCH  10  12
HETATM   12  C12 UNL     1     -33.333  16.990  -3.359  1.00 20.00     0.000 C 
HETATM   13  C10 UNL     1     -33.552  17.703  -2.066  1.00 20.00     0.005 C 
ENDBRANCH  10  12
ENDBRANCH   4   5
ENDBRANCH   2   4
TORSDOF 3
ENDMDL
MODEL 5
REMARK VINA RESULT:      -4.3      2.444      5.651
REMARK  3 active torsions:
REMARK  status: ('A' for Active; 'I' for Inactive)
REMARK    1  A    between atoms: C2_2  and  C11_11 
REMARK    2  A    between atoms: C7_7  and  C11_11 
REMARK    3  A    between atoms: C8_8  and  C12_12 
ROOT
HETATM    1  C1  UNL     1     -34.808  14.771  -3.671  1.00 20.00    -0.111 C 
HETATM    2  C2  UNL     1     -34.058  15.573  -3.183  1.00 20.00    -0.106 C 
HETATM    3  C9  UNL     1     -35.719  13.795  -4.265  1.00 20.00     0.112 C 
ENDROOT
BRANCH   2   4
HETATM    4  C11 UNL     1     -33.150  16.554  -2.581  1.00 20.00     0.106 C 
BRANCH   4   5
HETATM    5  C7  UNL     1     -33.874  17.864  -2.292  1.00 20.00     0.067 C 
HETATM    6  C3  UNL     1     -34.819  17.687  -1.116  1.00 20.00     0.132 C 
HETATM    7  C4  UNL     1     -34.242  17.830   0.274  1.00 20.00     0.079 C 
HETATM    8  O13 UNL     1     -35.989  17.341  -1.286  1.00 20.00    -0.298 OA
HETATM    9  C5  UNL     1     -33.433  19.113   0.390  1.00 20.00     0.012 C 
HETATM   10  C8  UNL     1     -32.342  19.234  -0.681  1.00 20.00    -0.014 C 
HETATM   11  C6  UNL     1     -32.940  19.064  -2.086  1.00 20.00     0.017 C 
BRANCH  10  12
HETATM   12  C12 UNL     1     -31.160  18.306  -0.410  1.00 20.00     0.000 C 
HETATM   13  C10 UNL     1     -30.667  18.434   0.994  1.00 20.00     0.005 C 
ENDBRANCH  10  12
ENDBRANCH   4   5
ENDBRANCH   2   4
TORSDOF 3
ENDMDL
MODEL 6
REMARK VINA RESULT:      -4.2      2.295      4.442
REMARK  3 active torsions:
REMARK  status: ('A' for Active; 'I' for Inactive)
REMARK    1  A    between atoms: C2_2  and  C11_11 
REMARK    2  A    between atoms: C7_7  and  C11_11 
REMARK    3  A    between atoms: C8_8  and  C12_12 
ROOT
HETATM    1  C1  UNL     1     -39.826  15.420  -4.570  1.00 20.00    -0.111 C 
HETATM    2  C2  UNL     1     -38.645  15.621  -4.653  1.00 20.00    -0.106 C 
HETATM    3  C9  UNL     1     -41.264  15.176  -4.470  1.00 20.00     0.112 C 
ENDROOT
BRANCH   2   4
HETATM    4  C11 UNL     1     -37.201  15.858  -4.749  1.00 20.00     0.106 C 
BRANCH   4   5
HETATM    5  C7  UNL     1     -36.452  14.563  -5.039  1.00 20.00     0.067 C 
HETATM    6  C3  UNL     1     -35.650  14.702  -6.321  1.00 20.00     0.132 C 
HETATM    7  C4  UNL     1     -34.283  15.339  -6.226  1.00 20.00     0.079 C 
HETATM    8  O13 UNL     1     -36.136  14.399  -7.412  1.00 20.00    -0.298 OA
HETATM    9  C5  UNL     1     -33.465  14.693  -5.119  1.00 20.00     0.012 C 
HETATM   10  C8  UNL     1     -34.178  14.703  -3.762  1.00 20.00    -0.014 C 
HETATM   11  C6  UNL     1     -35.576  14.073  -3.878  1.00 20.00     0.017 C 
BRANCH  10  12
HETATM   12  C12 UNL     1     -34.193  16.092  -3.125  1.00 20.00     0.000 C 
HETATM   13  C10 UNL     1     -35.028  16.124  -1.888  1.00 20.00     0.005 C 
ENDBRANCH  10  12
ENDBRANCH   4   5
ENDBRANCH   2   4
TORSDOF 3
ENDMDL
MODEL 7
REMARK VINA RESULT:      -4.1      2.576      3.808
REMARK  3 active torsions:
REMARK  status: ('A' for Active; 'I' for Inactive)
REMARK    1  A    between atoms: C2_2  and  C11_11 
REMARK    2  A    between atoms: C7_7  and  C11_11 
REMARK    3  A    between atoms: C8_8  and  C12_12 
ROOT
HETATM    1  C1  UNL     1     -31.759  18.457  -0.617  1.00 20.00    -0.111 C 
HETATM    2  C2  UNL     1     -32.631  18.610  -1.429  1.00 20.00    -0.106 C 
HETATM    3  C9  UNL     1     -30.699  18.271   0.372  1.00 20.00     0.112 C 
ENDROOT
BRANCH   2   4
HETATM    4  C11 UNL     1     -33.687  18.798  -2.428  1.00 20.00     0.106 C 
BRANCH   4   5
HETATM    5  C7  UNL     1     -34.955  18.052  -2.030  1.00 20.00     0.067 C 
HETATM    6  C3  UNL     1     -35.997  18.176  -3.127  1.00 20.00     0.132 C 
HETATM    7  C4  UNL     1     -35.921  17.199  -4.279  1.00 20.00     0.079 C 
HETATM    8  O13 UNL     1     -36.813  19.099  -3.131  1.00 20.00    -0.298 OA
HETATM    9  C5  UNL     1     -35.810  15.772  -3.766  1.00 20.00     0.012 C 
HETATM   10  C8  UNL     1     -34.645  15.573  -2.790  1.00 20.00    -0.014 C 
HETATM   11  C6  UNL     1     -34.724  16.587  -1.637  1.00 20.00     0.017 C 
BRANCH  10  12
HETATM   12  C12 UNL     1     -33.291  15.566  -3.497  1.00 20.00     0.000 C 
HETATM   13  C10 UNL     1     -33.209  14.483  -4.522  1.00 20.00     0.005 C 
ENDBRANCH  10  12
ENDBRANCH   4   5
ENDBRANCH   2   4
TORSDOF 3
ENDMDL
MODEL 8
REMARK VINA RESULT:      -4.1      2.020      4.034
REMARK  3 active torsions:
REMARK  status: ('A' for Active; 'I' for Inactive)
REMARK    1  A    between atoms: C2_2  and  C11_11 
REMARK    2  A    between atoms: C7_7  and  C11_11 
REMARK    3  A    between atoms: C8_8  and  C12_12 
ROOT
HETATM    1  C1  UNL     1     -39.189  15.396  -4.450  1.00 20.00    -0.111 C 
HETATM    2  C2  UNL     1     -38.061  15.786  -4.307  1.00 20.00    -0.106 C 
HETATM    3  C9  UNL     1     -40.561  14.922  -4.623  1.00 20.00     0.112 C 
ENDROOT
BRANCH   2   4
HETATM    4  C11 UNL     1     -36.686  16.259  -4.124  1.00 20.00     0.106 C 
BRANCH   4   5
HETATM    5  C7  UNL     1     -35.843  15.221  -3.394  1.00 20.00     0.067 C 
HETATM    6  C3  UNL     1     -35.163  14.305  -4.396  1.00 20.00     0.132 C 
HETATM    7  C4  UNL     1     -33.859  14.774  -5.001  1.00 20.00     0.079 C 
HETATM    8  O13 UNL     1     -35.703  13.266  -4.779  1.00 20.00    -0.298 OA
HETATM    9  C5  UNL     1     -32.897  15.231  -3.914  1.00 20.00     0.012 C 
HETATM   10  C8  UNL     1     -33.498  16.298  -2.991  1.00 20.00    -0.014 C 
HETATM   11  C6  UNL     1     -34.834  15.817  -2.403  1.00 20.00     0.017 C 
BRANCH  10  12
HETATM   12  C12 UNL     1     -33.593  17.664  -3.670  1.00 20.00     0.000 C 
HETATM   13  C10 UNL     1     -34.096  18.712  -2.733  1.00 20.00     0.005 C 
ENDBRANCH  10  12
ENDBRANCH   4   5
ENDBRANCH   2   4
TORSDOF 3
ENDMDL
MODEL 9
REMARK VINA RESULT:      -3.9      2.079      4.133
REMARK  3 active torsions:
REMARK  status: ('A' for Active; 'I' for Inactive)
REMARK    1  A    between atoms: C2_2  and  C11_11 
REMARK    2  A    between atoms: C7_7  and  C11_11 
REMARK    3  A    between atoms: C8_8  and  C12_12 
ROOT
HETATM    1  C1  UNL     1     -38.568  15.653  -4.542  1.00 20.00    -0.111 C 
HETATM    2  C2  UNL     1     -37.406  15.431  -4.751  1.00 20.00    -0.106 C 
HETATM    3  C9  UNL     1     -39.983  15.921  -4.288  1.00 20.00     0.112 C 
ENDROOT
BRANCH   2   4
HETATM    4  C11 UNL     1     -35.986  15.171  -5.005  1.00 20.00     0.106 C 
BRANCH   4   5
HETATM    5  C7  UNL     1     -35.269  14.755  -3.726  1.00 20.00     0.067 C 
HETATM    6  C3  UNL     1     -33.791  14.543  -4.004  1.00 20.00     0.132 C 
HETATM    7  C4  UNL     1     -32.892  15.757  -3.979  1.00 20.00     0.079 C 
HETATM    8  O13 UNL     1     -33.359  13.438  -4.337  1.00 20.00    -0.298 OA
HETATM    9  C5  UNL     1     -33.115  16.564  -2.709  1.00 20.00     0.012 C 
HETATM   10  C8  UNL     1     -34.582  16.954  -2.495  1.00 20.00    -0.014 C 
HETATM   11  C6  UNL     1     -35.486  15.712  -2.546  1.00 20.00     0.017 C 
BRANCH  10  12
HETATM   12  C12 UNL     1     -35.030  18.067  -3.441  1.00 20.00     0.000 C 
HETATM   13  C10 UNL     1     -36.371  18.605  -3.065  1.00 20.00     0.005 C 
ENDBRANCH  10  12
ENDBRANCH   4   5
ENDBRANCH   2   4
TORSDOF 3
ENDMDL
