MODEL 1
REMARK VINA RESULT:      -5.1      0.000      0.000
REMARK  6 active torsions:
REMARK  status: ('A' for Active; 'I' for Inactive)
REMARK    1  A    between atoms: C2_2  and  C5_5 
REMARK    2  A    between atoms: C5_5  and  C7_7 
REMARK    3  A    between atoms: C6_6  and  C8_8 
REMARK    4  A    between atoms: C7_7  and  C9_9 
REMARK    5  A    between atoms: C8_8  and  C9_9 
REMARK    6  A    between atoms: C9_9  and  O10_10 
ROOT
HETATM    1  C1  UNL     1     -32.768   8.352   0.973  1.00 20.00    -0.111 C 
HETATM    2  C2  UNL     1     -32.639   7.510   1.819  1.00 20.00    -0.107 C 
HETATM    3  C3  UNL     1     -32.926   9.374  -0.059  1.00 20.00     0.112 C 
ENDROOT
BRANCH   2   4
HETATM    4  C5  UNL     1     -32.480   6.478   2.854  1.00 20.00     0.096 C 
BRANCH   4   5
HETATM    5  C7  UNL     1     -33.423   5.292   2.643  1.00 20.00     0.044 C 
BRANCH   5   6
HETATM    6  C9  UNL     1     -33.881   4.571   3.921  1.00 20.00     0.119 C 
BRANCH   6   7
HETATM    7  C8  UNL     1     -35.109   5.215   4.579  1.00 20.00     0.031 C 
BRANCH   7   8
HETATM    8  C6  UNL     1     -34.836   5.634   6.028  1.00 20.00    -0.002 C 
HETATM    9  C4  UNL     1     -33.954   6.871   6.092  1.00 20.00     0.005 C 
ENDBRANCH   7   8
ENDBRANCH   6   7
BRANCH   6  10
HETATM   10  O10 UNL     1     -34.185   3.218   3.572  1.00 20.00    -0.396 OA
HETATM   11  H26 UNL     1     -35.146   3.173   3.468  1.00 20.00     0.210 HD
ENDBRANCH   6  10
ENDBRANCH   5   6
ENDBRANCH   4   5
ENDBRANCH   2   4
TORSDOF 6
ENDMDL
MODEL 2
REMARK VINA RESULT:      -4.8      1.148      1.161
REMARK  6 active torsions:
REMARK  status: ('A' for Active; 'I' for Inactive)
REMARK    1  A    between atoms: C2_2  and  C5_5 
REMARK    2  A    between atoms: C5_5  and  C7_7 
REMARK    3  A    between atoms: C6_6  and  C8_8 
REMARK    4  A    between atoms: C7_7  and  C9_9 
REMARK    5  A    between atoms: C8_8  and  C9_9 
REMARK    6  A    between atoms: C9_9  and  O10_10 
ROOT
HETATM    1  C1  UNL     1     -32.776   7.939   1.489  1.00 20.00    -0.111 C 
HETATM    2  C2  UNL     1     -32.748   6.962   2.188  1.00 20.00    -0.107 C 
HETATM    3  C3  UNL     1     -32.814   9.126   0.639  1.00 20.00     0.112 C 
ENDROOT
BRANCH   2   4
HETATM    4  C5  UNL     1     -32.714   5.766   3.041  1.00 20.00     0.096 C 
BRANCH   4   5
HETATM    5  C7  UNL     1     -33.916   4.850   2.806  1.00 20.00     0.044 C 
BRANCH   5   6
HETATM    6  C9  UNL     1     -34.763   4.534   4.049  1.00 20.00     0.119 C 
BRANCH   6   7
HETATM    7  C8  UNL     1     -34.017   4.758   5.371  1.00 20.00     0.031 C 
BRANCH   7   8
HETATM    8  C6  UNL     1     -34.605   5.922   6.177  1.00 20.00    -0.002 C 
HETATM    9  C4  UNL     1     -33.716   7.155   6.101  1.00 20.00     0.005 C 
ENDBRANCH   7   8
ENDBRANCH   6   7
BRANCH   6  10
HETATM   10  O10 UNL     1     -35.922   5.372   4.010  1.00 20.00    -0.396 OA
HETATM   11  H26 UNL     1     -36.107   5.623   4.927  1.00 20.00     0.210 HD
ENDBRANCH   6  10
ENDBRANCH   5   6
ENDBRANCH   4   5
ENDBRANCH   2   4
TORSDOF 6
ENDMDL
MODEL 3
REMARK VINA RESULT:      -4.3     11.094     12.459
REMARK  6 active torsions:
REMARK  status: ('A' for Active; 'I' for Inactive)
REMARK    1  A    between atoms: C2_2  and  C5_5 
REMARK    2  A    between atoms: C5_5  and  C7_7 
REMARK    3  A    between atoms: C6_6  and  C8_8 
REMARK    4  A    between atoms: C7_7  and  C9_9 
REMARK    5  A    between atoms: C8_8  and  C9_9 
REMARK    6  A    between atoms: C9_9  and  O10_10 
ROOT
HETATM    1  C1  UNL     1     -33.196  17.314  -1.985  1.00 20.00    -0.111 C 
HETATM    2  C2  UNL     1     -34.055  16.520  -2.258  1.00 20.00    -0.107 C 
HETATM    3  C3  UNL     1     -32.149  18.277  -1.650  1.00 20.00     0.112 C 
ENDROOT
BRANCH   2   4
HETATM    4  C5  UNL     1     -35.107  15.550  -2.590  1.00 20.00     0.096 C 
BRANCH   4   5
HETATM    5  C7  UNL     1     -34.679  14.583  -3.695  1.00 20.00     0.044 C 
BRANCH   5   6
HETATM    6  C9  UNL     1     -35.807  14.078  -4.610  1.00 20.00     0.119 C 
BRANCH   6   7
HETATM    7  C8  UNL     1     -35.627  14.475  -6.080  1.00 20.00     0.031 C 
BRANCH   7   8
HETATM    8  C6  UNL     1     -34.410  15.383  -6.289  1.00 20.00    -0.002 C 
HETATM    9  C4  UNL     1     -33.946  15.366  -7.738  1.00 20.00     0.005 C 
ENDBRANCH   7   8
ENDBRANCH   6   7
BRANCH   6  10
HETATM   10  O10 UNL     1     -35.846  12.652  -4.505  1.00 20.00    -0.396 OA
HETATM   11  H26 UNL     1     -36.431  12.343  -5.212  1.00 20.00     0.210 HD
ENDBRANCH   6  10
ENDBRANCH   5   6
ENDBRANCH   4   5
ENDBRANCH   2   4
TORSDOF 6
ENDMDL
MODEL 4
REMARK VINA RESULT:      -4.3     10.955     11.960
REMARK  6 active torsions:
REMARK  status: ('A' for Active; 'I' for Inactive)
REMARK    1  A    between atoms: C2_2  and  C5_5 
REMARK    2  A    between atoms: C5_5  and  C7_7 
REMARK    3  A    between atoms: C6_6  and  C8_8 
REMARK    4  A    between atoms: C7_7  and  C9_9 
REMARK    5  A    between atoms: C8_8  and  C9_9 
REMARK    6  A    between atoms: C9_9  and  O10_10 
ROOT
HETATM    1  C1  UNL     1     -34.766  16.519  -1.727  1.00 20.00    -0.111 C 
HETATM    2  C2  UNL     1     -34.170  16.028  -2.646  1.00 20.00    -0.107 C 
HETATM    3  C3  UNL     1     -35.494  17.116  -0.609  1.00 20.00     0.112 C 
ENDROOT
BRANCH   2   4
HETATM    4  C5  UNL     1     -33.442  15.427  -3.772  1.00 20.00     0.096 C 
BRANCH   4   5
HETATM    5  C7  UNL     1     -33.966  14.036  -4.129  1.00 20.00     0.044 C 
BRANCH   5   6
HETATM    6  C9  UNL     1     -35.476  13.945  -4.404  1.00 20.00     0.119 C 
BRANCH   6   7
HETATM    7  C8  UNL     1     -35.902  14.629  -5.710  1.00 20.00     0.031 C 
BRANCH   7   8
HETATM    8  C6  UNL     1     -36.866  15.795  -5.464  1.00 20.00    -0.002 C 
HETATM    9  C4  UNL     1     -37.569  15.662  -4.122  1.00 20.00     0.005 C 
ENDBRANCH   7   8
ENDBRANCH   6   7
BRANCH   6  10
HETATM   10  O10 UNL     1     -35.826  12.559  -4.458  1.00 20.00    -0.396 OA
HETATM   11  H26 UNL     1     -35.782  12.232  -3.548  1.00 20.00     0.210 HD
ENDBRANCH   6  10
ENDBRANCH   5   6
ENDBRANCH   4   5
ENDBRANCH   2   4
TORSDOF 6
ENDMDL
MODEL 5
REMARK VINA RESULT:      -4.2     15.335     16.234
REMARK  6 active torsions:
REMARK  status: ('A' for Active; 'I' for Inactive)
REMARK    1  A    between atoms: C2_2  and  C5_5 
REMARK    2  A    between atoms: C5_5  and  C7_7 
REMARK    3  A    between atoms: C6_6  and  C8_8 
REMARK    4  A    between atoms: C7_7  and  C9_9 
REMARK    5  A    between atoms: C8_8  and  C9_9 
REMARK    6  A    between atoms: C9_9  and  O10_10 
ROOT
HETATM    1  C1  UNL     1     -25.901  19.081   6.294  1.00 20.00    -0.111 C 
HETATM    2  C2  UNL     1     -25.300  18.997   7.330  1.00 20.00    -0.107 C 
HETATM    3  C3  UNL     1     -26.631  19.180   5.032  1.00 20.00     0.112 C 
ENDROOT
BRANCH   2   4
HETATM    4  C5  UNL     1     -24.563  18.894   8.597  1.00 20.00     0.096 C 
BRANCH   4   5
HETATM    5  C7  UNL     1     -23.196  18.229   8.423  1.00 20.00     0.044 C 
BRANCH   5   6
HETATM    6  C9  UNL     1     -22.775  17.269   9.548  1.00 20.00     0.119 C 
BRANCH   6   7
HETATM    7  C8  UNL     1     -23.962  16.639  10.289  1.00 20.00     0.031 C 
BRANCH   7   8
HETATM    8  C6  UNL     1     -23.931  16.941  11.791  1.00 20.00    -0.002 C 
HETATM    9  C4  UNL     1     -22.615  17.584  12.202  1.00 20.00     0.005 C 
ENDBRANCH   7   8
ENDBRANCH   6   7
BRANCH   6  10
HETATM   10  O10 UNL     1     -21.979  16.236   8.962  1.00 20.00    -0.396 OA
HETATM   11  H26 UNL     1     -21.686  16.572   8.102  1.00 20.00     0.210 HD
ENDBRANCH   6  10
ENDBRANCH   5   6
ENDBRANCH   4   5
ENDBRANCH   2   4
TORSDOF 6
ENDMDL
MODEL 6
REMARK VINA RESULT:      -4.2     11.630     12.482
REMARK  6 active torsions:
REMARK  status: ('A' for Active; 'I' for Inactive)
REMARK    1  A    between atoms: C2_2  and  C5_5 
REMARK    2  A    between atoms: C5_5  and  C7_7 
REMARK    3  A    between atoms: C6_6  and  C8_8 
REMARK    4  A    between atoms: C7_7  and  C9_9 
REMARK    5  A    between atoms: C8_8  and  C9_9 
REMARK    6  A    between atoms: C9_9  and  O10_10 
ROOT
HETATM    1  C1  UNL     1     -38.560  14.931  -4.154  1.00 20.00    -0.111 C 
HETATM    2  C2  UNL     1     -37.502  14.427  -4.413  1.00 20.00    -0.107 C 
HETATM    3  C3  UNL     1     -39.849  15.544  -3.841  1.00 20.00     0.112 C 
ENDROOT
BRANCH   2   4
HETATM    4  C5  UNL     1     -36.207  13.809  -4.733  1.00 20.00     0.096 C 
BRANCH   4   5
HETATM    5  C7  UNL     1     -35.522  14.478  -5.926  1.00 20.00     0.044 C 
BRANCH   5   6
HETATM    6  C9  UNL     1     -34.117  15.040  -5.657  1.00 20.00     0.119 C 
BRANCH   6   7
HETATM    7  C8  UNL     1     -33.558  14.656  -4.281  1.00 20.00     0.031 C 
BRANCH   7   8
HETATM    8  C6  UNL     1     -33.353  15.877  -3.378  1.00 20.00    -0.002 C 
HETATM    9  C4  UNL     1     -34.486  16.020  -2.372  1.00 20.00     0.005 C 
ENDBRANCH   7   8
ENDBRANCH   6   7
BRANCH   6  10
HETATM   10  O10 UNL     1     -33.247  14.545  -6.678  1.00 20.00    -0.396 OA
HETATM   11  H26 UNL     1     -33.715  14.665  -7.517  1.00 20.00     0.210 HD
ENDBRANCH   6  10
ENDBRANCH   5   6
ENDBRANCH   4   5
ENDBRANCH   2   4
TORSDOF 6
ENDMDL
MODEL 7
REMARK VINA RESULT:      -4.1      9.241     10.060
REMARK  6 active torsions:
REMARK  status: ('A' for Active; 'I' for Inactive)
REMARK    1  A    between atoms: C2_2  and  C5_5 
REMARK    2  A    between atoms: C5_5  and  C7_7 
REMARK    3  A    between atoms: C6_6  and  C8_8 
REMARK    4  A    between atoms: C7_7  and  C9_9 
REMARK    5  A    between atoms: C8_8  and  C9_9 
REMARK    6  A    between atoms: C9_9  and  O10_10 
ROOT
HETATM    1  C1  UNL     1     -42.136   2.853  -3.298  1.00 20.00    -0.111 C 
HETATM    2  C2  UNL     1     -42.373   3.705  -2.485  1.00 20.00    -0.107 C 
HETATM    3  C3  UNL     1     -41.851   1.816  -4.287  1.00 20.00     0.112 C 
ENDROOT
BRANCH   2   4
HETATM    4  C5  UNL     1     -42.664   4.745  -1.489  1.00 20.00     0.096 C 
BRANCH   4   5
HETATM    5  C7  UNL     1     -41.417   5.537  -1.094  1.00 20.00     0.044 C 
BRANCH   5   6
HETATM    6  C9  UNL     1     -41.308   5.907   0.395  1.00 20.00     0.119 C 
BRANCH   6   7
HETATM    7  C8  UNL     1     -41.856   7.302   0.720  1.00 20.00     0.031 C 
BRANCH   7   8
HETATM    8  C6  UNL     1     -41.390   8.356  -0.290  1.00 20.00    -0.002 C 
HETATM    9  C4  UNL     1     -41.292   9.733   0.349  1.00 20.00     0.005 C 
ENDBRANCH   7   8
ENDBRANCH   6   7
BRANCH   6  10
HETATM   10  O10 UNL     1     -42.034   4.926   1.141  1.00 20.00    -0.396 OA
HETATM   11  H26 UNL     1     -42.172   5.302   2.022  1.00 20.00     0.210 HD
ENDBRANCH   6  10
ENDBRANCH   5   6
ENDBRANCH   4   5
ENDBRANCH   2   4
TORSDOF 6
ENDMDL
MODEL 8
REMARK VINA RESULT:      -4.1     11.724     12.383
REMARK  6 active torsions:
REMARK  status: ('A' for Active; 'I' for Inactive)
REMARK    1  A    between atoms: C2_2  and  C5_5 
REMARK    2  A    between atoms: C5_5  and  C7_7 
REMARK    3  A    between atoms: C6_6  and  C8_8 
REMARK    4  A    between atoms: C7_7  and  C9_9 
REMARK    5  A    between atoms: C8_8  and  C9_9 
REMARK    6  A    between atoms: C9_9  and  O10_10 
ROOT
HETATM    1  C1  UNL     1     -34.727  16.678  -1.561  1.00 20.00    -0.111 C 
HETATM    2  C2  UNL     1     -34.005  16.302  -2.444  1.00 20.00    -0.107 C 
HETATM    3  C3  UNL     1     -35.607  17.133  -0.487  1.00 20.00     0.112 C 
ENDROOT
BRANCH   2   4
HETATM    4  C5  UNL     1     -33.123  15.843  -3.527  1.00 20.00     0.096 C 
BRANCH   4   5
HETATM    5  C7  UNL     1     -33.689  14.627  -4.262  1.00 20.00     0.044 C 
BRANCH   5   6
HETATM    6  C9  UNL     1     -34.142  14.877  -5.710  1.00 20.00     0.119 C 
BRANCH   6   7
HETATM    7  C8  UNL     1     -35.628  14.578  -5.946  1.00 20.00     0.031 C 
BRANCH   7   8
HETATM    8  C6  UNL     1     -36.271  13.862  -4.753  1.00 20.00    -0.002 C 
HETATM    9  C4  UNL     1     -37.518  14.590  -4.275  1.00 20.00     0.005 C 
ENDBRANCH   7   8
ENDBRANCH   6   7
BRANCH   6  10
HETATM   10  O10 UNL     1     -33.880  16.249  -6.017  1.00 20.00    -0.396 OA
HETATM   11  H26 UNL     1     -33.235  16.248  -6.739  1.00 20.00     0.210 HD
ENDBRANCH   6  10
ENDBRANCH   5   6
ENDBRANCH   4   5
ENDBRANCH   2   4
TORSDOF 6
ENDMDL
MODEL 9
REMARK VINA RESULT:      -4.0     10.963     12.335
REMARK  6 active torsions:
REMARK  status: ('A' for Active; 'I' for Inactive)
REMARK    1  A    between atoms: C2_2  and  C5_5 
REMARK    2  A    between atoms: C5_5  and  C7_7 
REMARK    3  A    between atoms: C6_6  and  C8_8 
REMARK    4  A    between atoms: C7_7  and  C9_9 
REMARK    5  A    between atoms: C8_8  and  C9_9 
REMARK    6  A    between atoms: C9_9  and  O10_10 
ROOT
HETATM    1  C1  UNL     1     -33.301  16.557  -2.667  1.00 20.00    -0.111 C 
HETATM    2  C2  UNL     1     -33.528  15.682  -3.458  1.00 20.00    -0.107 C 
HETATM    3  C3  UNL     1     -33.026  17.621  -1.704  1.00 20.00     0.112 C 
ENDROOT
BRANCH   2   4
HETATM    4  C5  UNL     1     -33.809  14.612  -4.425  1.00 20.00     0.096 C 
BRANCH   4   5
HETATM    5  C7  UNL     1     -34.919  13.674  -3.949  1.00 20.00     0.044 C 
BRANCH   5   6
HETATM    6  C9  UNL     1     -36.214  13.702  -4.778  1.00 20.00     0.119 C 
BRANCH   6   7
HETATM    7  C8  UNL     1     -37.120  14.897  -4.455  1.00 20.00     0.031 C 
BRANCH   7   8
HETATM    8  C6  UNL     1     -37.113  15.947  -5.572  1.00 20.00    -0.002 C 
HETATM    9  C4  UNL     1     -36.462  17.243  -5.112  1.00 20.00     0.005 C 
ENDBRANCH   7   8
ENDBRANCH   6   7
BRANCH   6  10
HETATM   10  O10 UNL     1     -35.846  13.745  -6.159  1.00 20.00    -0.396 OA
HETATM   11  H26 UNL     1     -35.729  14.680  -6.381  1.00 20.00     0.210 HD
ENDBRANCH   6  10
ENDBRANCH   5   6
ENDBRANCH   4   5
ENDBRANCH   2   4
TORSDOF 6
ENDMDL
