MODEL 1
REMARK VINA RESULT:      -4.4      0.000      0.000
REMARK  3 active torsions:
REMARK  status: ('A' for Active; 'I' for Inactive)
REMARK    1  A    between atoms: C2_2  and  C9_9 
REMARK    2  A    between atoms: C7_7  and  N10_10 
REMARK    3  A    between atoms: C9_9  and  N10_10 
ROOT
HETATM    1  C1  UNL     1     -34.937  17.052  -1.028  1.00 20.00    -0.109 C 
HETATM    2  C2  UNL     1     -34.177  16.759  -1.910  1.00 20.00    -0.077 C 
HETATM    3  C8  UNL     1     -35.863  17.409   0.046  1.00 20.00     0.112 C 
ENDROOT
BRANCH   2   4
HETATM    4  C9  UNL     1     -33.244  16.405  -2.984  1.00 20.00     0.363 C 
BRANCH   4   5
HETATM    5  N10 UNL     1     -33.943  16.246  -4.248  1.00 20.00     0.099 N 
HETATM    6  H26 UNL     1     -34.943  16.362  -4.103  1.00 20.00     0.317 HD
BRANCH   5   7
HETATM    7  C7  UNL     1     -33.705  14.931  -4.799  1.00 20.00     0.225 C 
HETATM    8  C3  UNL     1     -34.019  14.902  -6.296  1.00 20.00     0.062 C 
HETATM    9  C5  UNL     1     -35.522  14.880  -6.554  1.00 20.00     0.169 C 
HETATM   10  O11 UNL     1     -36.137  13.790  -5.867  1.00 20.00    -0.391 OA
HETATM   11  C6  UNL     1     -35.987  13.893  -4.452  1.00 20.00     0.169 C 
HETATM   12  C4  UNL     1     -34.514  13.864  -4.058  1.00 20.00     0.062 C 
ENDBRANCH   5   7
ENDBRANCH   4   5
ENDBRANCH   2   4
TORSDOF 3
ENDMDL
MODEL 2
REMARK VINA RESULT:      -4.4      1.222      1.648
REMARK  3 active torsions:
REMARK  status: ('A' for Active; 'I' for Inactive)
REMARK    1  A    between atoms: C2_2  and  C9_9 
REMARK    2  A    between atoms: C7_7  and  N10_10 
REMARK    3  A    between atoms: C9_9  and  N10_10 
ROOT
HETATM    1  C1  UNL     1     -32.724  17.730  -1.486  1.00 20.00    -0.109 C 
HETATM    2  C2  UNL     1     -33.637  17.114  -1.965  1.00 20.00    -0.077 C 
HETATM    3  C8  UNL     1     -31.613  18.480  -0.904  1.00 20.00     0.112 C 
ENDROOT
BRANCH   2   4
HETATM    4  C9  UNL     1     -34.749  16.363  -2.555  1.00 20.00     0.363 C 
BRANCH   4   5
HETATM    5  N10 UNL     1     -34.668  16.369  -4.006  1.00 20.00     0.099 N 
HETATM    6  H26 UNL     1     -35.599  16.481  -4.400  1.00 20.00     0.317 HD
BRANCH   5   7
HETATM    7  C7  UNL     1     -34.107  15.128  -4.490  1.00 20.00     0.225 C 
HETATM    8  C3  UNL     1     -34.097  15.093  -6.019  1.00 20.00     0.062 C 
HETATM    9  C5  UNL     1     -35.490  14.834  -6.584  1.00 20.00     0.169 C 
HETATM   10  O11 UNL     1     -36.044  13.639  -6.035  1.00 20.00    -0.391 OA
HETATM   11  C6  UNL     1     -36.208  13.723  -4.620  1.00 20.00     0.169 C 
HETATM   12  C4  UNL     1     -34.863  13.922  -3.928  1.00 20.00     0.062 C 
ENDBRANCH   5   7
ENDBRANCH   4   5
ENDBRANCH   2   4
TORSDOF 3
ENDMDL
MODEL 3
REMARK VINA RESULT:      -4.3     17.485     18.574
REMARK  3 active torsions:
REMARK  status: ('A' for Active; 'I' for Inactive)
REMARK    1  A    between atoms: C2_2  and  C9_9 
REMARK    2  A    between atoms: C7_7  and  N10_10 
REMARK    3  A    between atoms: C9_9  and  N10_10 
ROOT
HETATM    1  C1  UNL     1     -28.138  17.551  12.223  1.00 20.00    -0.109 C 
HETATM    2  C2  UNL     1     -27.062  18.083  12.265  1.00 20.00    -0.077 C 
HETATM    3  C8  UNL     1     -29.448  16.904  12.172  1.00 20.00     0.112 C 
ENDROOT
BRANCH   2   4
HETATM    4  C9  UNL     1     -25.751  18.735  12.323  1.00 20.00     0.363 C 
BRANCH   4   5
HETATM    5  N10 UNL     1     -25.120  18.751  11.013  1.00 20.00     0.099 N 
HETATM    6  H26 UNL     1     -25.825  18.905  10.296  1.00 20.00     0.317 HD
BRANCH   5   7
HETATM    7  C7  UNL     1     -24.459  17.493  10.751  1.00 20.00     0.225 C 
HETATM    8  C3  UNL     1     -23.527  17.116  11.903  1.00 20.00     0.062 C 
HETATM    9  C5  UNL     1     -22.245  17.943  11.882  1.00 20.00     0.169 C 
HETATM   10  O11 UNL     1     -21.591  17.829  10.619  1.00 20.00    -0.391 OA
HETATM   11  C6  UNL     1     -22.394  18.329   9.550  1.00 20.00     0.169 C 
HETATM   12  C4  UNL     1     -23.691  17.535   9.428  1.00 20.00     0.062 C 
ENDBRANCH   5   7
ENDBRANCH   4   5
ENDBRANCH   2   4
TORSDOF 3
ENDMDL
MODEL 4
REMARK VINA RESULT:      -4.3     15.253     17.153
REMARK  3 active torsions:
REMARK  status: ('A' for Active; 'I' for Inactive)
REMARK    1  A    between atoms: C2_2  and  C9_9 
REMARK    2  A    between atoms: C7_7  and  N10_10 
REMARK    3  A    between atoms: C9_9  and  N10_10 
ROOT
HETATM    1  C1  UNL     1     -25.894  19.065   5.944  1.00 20.00    -0.109 C 
HETATM    2  C2  UNL     1     -25.340  19.155   7.005  1.00 20.00    -0.077 C 
HETATM    3  C8  UNL     1     -26.569  18.954   4.652  1.00 20.00     0.112 C 
ENDROOT
BRANCH   2   4
HETATM    4  C9  UNL     1     -24.657  19.263   8.298  1.00 20.00     0.363 C 
BRANCH   4   5
HETATM    5  N10 UNL     1     -25.007  18.150   9.164  1.00 20.00     0.099 N 
HETATM    6  H26 UNL     1     -26.015  18.122   9.296  1.00 20.00     0.317 HD
BRANCH   5   7
HETATM    7  C7  UNL     1     -24.374  18.292  10.456  1.00 20.00     0.225 C 
HETATM    8  C3  UNL     1     -23.558  17.046  10.805  1.00 20.00     0.062 C 
HETATM    9  C5  UNL     1     -24.455  15.887  11.227  1.00 20.00     0.169 C 
HETATM   10  O11 UNL     1     -25.307  16.274  12.304  1.00 20.00    -0.391 OA
HETATM   11  C6  UNL     1     -26.189  17.335  11.937  1.00 20.00     0.169 C 
HETATM   12  C4  UNL     1     -25.405  18.584  11.549  1.00 20.00     0.062 C 
ENDBRANCH   5   7
ENDBRANCH   4   5
ENDBRANCH   2   4
TORSDOF 3
ENDMDL
MODEL 5
REMARK VINA RESULT:      -4.2      2.155      2.639
REMARK  3 active torsions:
REMARK  status: ('A' for Active; 'I' for Inactive)
REMARK    1  A    between atoms: C2_2  and  C9_9 
REMARK    2  A    between atoms: C7_7  and  N10_10 
REMARK    3  A    between atoms: C9_9  and  N10_10 
ROOT
HETATM    1  C1  UNL     1     -31.643  18.289  -0.712  1.00 20.00    -0.109 C 
HETATM    2  C2  UNL     1     -32.406  18.296  -1.639  1.00 20.00    -0.077 C 
HETATM    3  C8  UNL     1     -30.714  18.281   0.417  1.00 20.00     0.112 C 
ENDROOT
BRANCH   2   4
HETATM    4  C9  UNL     1     -33.332  18.303  -2.775  1.00 20.00     0.363 C 
BRANCH   4   5
HETATM    5  N10 UNL     1     -32.985  17.267  -3.735  1.00 20.00     0.099 N 
HETATM    6  H26 UNL     1     -33.528  17.394  -4.585  1.00 20.00     0.317 HD
BRANCH   5   7
HETATM    7  C7  UNL     1     -33.268  15.957  -3.194  1.00 20.00     0.225 C 
HETATM    8  C3  UNL     1     -32.969  14.866  -4.224  1.00 20.00     0.062 C 
HETATM    9  C5  UNL     1     -34.048  14.798  -5.300  1.00 20.00     0.169 C 
HETATM   10  O11 UNL     1     -35.338  14.627  -4.713  1.00 20.00    -0.391 OA
HETATM   11  C6  UNL     1     -35.696  15.723  -3.872  1.00 20.00     0.169 C 
HETATM   12  C4  UNL     1     -34.717  15.859  -2.710  1.00 20.00     0.062 C 
ENDBRANCH   5   7
ENDBRANCH   4   5
ENDBRANCH   2   4
TORSDOF 3
ENDMDL
MODEL 6
REMARK VINA RESULT:      -4.2     11.137     12.242
REMARK  3 active torsions:
REMARK  status: ('A' for Active; 'I' for Inactive)
REMARK    1  A    between atoms: C2_2  and  C9_9 
REMARK    2  A    between atoms: C7_7  and  N10_10 
REMARK    3  A    between atoms: C9_9  and  N10_10 
ROOT
HETATM    1  C1  UNL     1     -32.891   8.349   0.756  1.00 20.00    -0.109 C 
HETATM    2  C2  UNL     1     -32.522   7.747   1.727  1.00 20.00    -0.077 C 
HETATM    3  C8  UNL     1     -33.340   9.081  -0.427  1.00 20.00     0.112 C 
ENDROOT
BRANCH   2   4
HETATM    4  C9  UNL     1     -32.066   7.010   2.910  1.00 20.00     0.363 C 
BRANCH   4   5
HETATM    5  N10 UNL     1     -32.937   5.879   3.184  1.00 20.00     0.099 N 
HETATM    6  H26 UNL     1     -33.061   5.330   2.337  1.00 20.00     0.317 HD
BRANCH   5   7
HETATM    7  C7  UNL     1     -34.232   6.332   3.639  1.00 20.00     0.225 C 
HETATM    8  C3  UNL     1     -34.088   7.328   4.791  1.00 20.00     0.062 C 
HETATM    9  C5  UNL     1     -33.729   6.628   6.097  1.00 20.00     0.169 C 
HETATM   10  O11 UNL     1     -34.680   5.608   6.402  1.00 20.00    -0.391 OA
HETATM   11  C6  UNL     1     -34.707   4.585   5.407  1.00 20.00     0.169 C 
HETATM   12  C4  UNL     1     -35.117   5.153   4.052  1.00 20.00     0.062 C 
ENDBRANCH   5   7
ENDBRANCH   4   5
ENDBRANCH   2   4
TORSDOF 3
ENDMDL
MODEL 7
REMARK VINA RESULT:      -4.2     15.817     17.633
REMARK  3 active torsions:
REMARK  status: ('A' for Active; 'I' for Inactive)
REMARK    1  A    between atoms: C2_2  and  C9_9 
REMARK    2  A    between atoms: C7_7  and  N10_10 
REMARK    3  A    between atoms: C9_9  and  N10_10 
ROOT
HETATM    1  C1  UNL     1     -26.672  19.248   6.900  1.00 20.00    -0.109 C 
HETATM    2  C2  UNL     1     -25.563  19.237   7.360  1.00 20.00    -0.077 C 
HETATM    3  C8  UNL     1     -28.022  19.262   6.340  1.00 20.00     0.112 C 
ENDROOT
BRANCH   2   4
HETATM    4  C9  UNL     1     -24.207  19.227   7.916  1.00 20.00     0.363 C 
BRANCH   4   5
HETATM    5  N10 UNL     1     -24.241  19.158   9.368  1.00 20.00     0.099 N 
HETATM    6  H26 UNL     1     -23.422  19.622   9.751  1.00 20.00     0.317 HD
BRANCH   5   7
HETATM    7  C7  UNL     1     -24.245  17.782   9.812  1.00 20.00     0.225 C 
HETATM    8  C3  UNL     1     -24.973  17.643  11.150  1.00 20.00     0.062 C 
HETATM    9  C5  UNL     1     -24.120  18.151  12.308  1.00 20.00     0.169 C 
HETATM   10  O11 UNL     1     -22.853  17.495  12.329  1.00 20.00    -0.391 OA
HETATM   11  C6  UNL     1     -22.095  17.751  11.148  1.00 20.00     0.169 C 
HETATM   12  C4  UNL     1     -22.821  17.229   9.912  1.00 20.00     0.062 C 
ENDBRANCH   5   7
ENDBRANCH   4   5
ENDBRANCH   2   4
TORSDOF 3
ENDMDL
MODEL 8
REMARK VINA RESULT:      -4.1      2.256      3.002
REMARK  3 active torsions:
REMARK  status: ('A' for Active; 'I' for Inactive)
REMARK    1  A    between atoms: C2_2  and  C9_9 
REMARK    2  A    between atoms: C7_7  and  N10_10 
REMARK    3  A    between atoms: C9_9  and  N10_10 
ROOT
HETATM    1  C1  UNL     1     -31.725  18.474  -1.054  1.00 20.00    -0.109 C 
HETATM    2  C2  UNL     1     -32.313  18.628  -2.089  1.00 20.00    -0.077 C 
HETATM    3  C8  UNL     1     -31.010  18.285   0.207  1.00 20.00     0.112 C 
ENDROOT
BRANCH   2   4
HETATM    4  C9  UNL     1     -33.032  18.824  -3.352  1.00 20.00     0.363 C 
BRANCH   4   5
HETATM    5  N10 UNL     1     -32.980  17.624  -4.170  1.00 20.00     0.099 N 
HETATM    6  H26 UNL     1     -32.934  17.881  -5.153  1.00 20.00     0.317 HD
BRANCH   5   7
HETATM    7  C7  UNL     1     -34.157  16.812  -3.958  1.00 20.00     0.225 C 
HETATM    8  C3  UNL     1     -33.782  15.449  -3.373  1.00 20.00     0.062 C 
HETATM    9  C5  UNL     1     -33.180  14.531  -4.432  1.00 20.00     0.169 C 
HETATM   10  O11 UNL     1     -34.061  14.399  -5.547  1.00 20.00    -0.391 OA
HETATM   11  C6  UNL     1     -34.291  15.646  -6.201  1.00 20.00     0.169 C 
HETATM   12  C4  UNL     1     -34.954  16.642  -5.254  1.00 20.00     0.062 C 
ENDBRANCH   5   7
ENDBRANCH   4   5
ENDBRANCH   2   4
TORSDOF 3
ENDMDL
MODEL 9
REMARK VINA RESULT:      -4.0      0.895      1.764
REMARK  3 active torsions:
REMARK  status: ('A' for Active; 'I' for Inactive)
REMARK    1  A    between atoms: C2_2  and  C9_9 
REMARK    2  A    between atoms: C7_7  and  N10_10 
REMARK    3  A    between atoms: C9_9  and  N10_10 
ROOT
HETATM    1  C1  UNL     1     -34.828  17.116  -0.856  1.00 20.00    -0.109 C 
HETATM    2  C2  UNL     1     -34.105  16.845  -1.775  1.00 20.00    -0.077 C 
HETATM    3  C8  UNL     1     -35.707  17.447   0.265  1.00 20.00     0.112 C 
ENDROOT
BRANCH   2   4
HETATM    4  C9  UNL     1     -33.223  16.507  -2.896  1.00 20.00     0.363 C 
BRANCH   4   5
HETATM    5  N10 UNL     1     -33.802  15.455  -3.715  1.00 20.00     0.099 N 
HETATM    6  H26 UNL     1     -33.204  15.279  -4.518  1.00 20.00     0.317 HD
BRANCH   5   7
HETATM    7  C7  UNL     1     -35.111  15.842  -4.189  1.00 20.00     0.225 C 
HETATM    8  C3  UNL     1     -36.157  14.787  -3.824  1.00 20.00     0.062 C 
HETATM    9  C5  UNL     1     -36.052  13.559  -4.722  1.00 20.00     0.169 C 
HETATM   10  O11 UNL     1     -36.138  13.929  -6.098  1.00 20.00    -0.391 OA
HETATM   11  C6  UNL     1     -35.070  14.790  -6.490  1.00 20.00     0.169 C 
HETATM   12  C4  UNL     1     -35.103  16.094  -5.699  1.00 20.00     0.062 C 
ENDBRANCH   5   7
ENDBRANCH   4   5
ENDBRANCH   2   4
TORSDOF 3
ENDMDL
