MODEL 1
REMARK VINA RESULT:      -5.1      0.000      0.000
REMARK  4 active torsions:
REMARK  status: ('A' for Active; 'I' for Inactive)
REMARK    1  A    between atoms: C2_2  and  C7_7 
REMARK    2  A    between atoms: C3_3  and  C8_8 
REMARK    3  A    between atoms: C3_3  and  C9_9 
REMARK    4  A    between atoms: C7_7  and  C8_8 
ROOT
HETATM    1  C1  UNL     1     -32.697   8.323   1.122  1.00 20.00    -0.111 C 
HETATM    2  C2  UNL     1     -32.631   7.305   1.755  1.00 20.00    -0.107 C 
HETATM    3  C4  UNL     1     -32.779   9.561   0.348  1.00 20.00     0.112 C 
ENDROOT
BRANCH   2   4
HETATM    4  C7  UNL     1     -32.554   6.056   2.527  1.00 20.00     0.101 C 
BRANCH   4   5
HETATM    5  C8  UNL     1     -33.905   5.348   2.597  1.00 20.00     0.090 C 
BRANCH   5   6
HETATM    6  C3  UNL     1     -34.237   4.797   3.980  1.00 20.00     0.131 C 
HETATM    7  O10 UNL     1     -34.127   3.602   4.254  1.00 20.00    -0.298 OA
BRANCH   6   8
HETATM    8  C9  UNL     1     -34.714   5.816   5.012  1.00 20.00     0.047 C 
HETATM    9  C5  UNL     1     -35.060   5.101   6.313  1.00 20.00     0.017 C 
HETATM   10  C6  UNL     1     -33.659   6.894   5.243  1.00 20.00     0.017 C 
ENDBRANCH   6   8
ENDBRANCH   5   6
ENDBRANCH   4   5
ENDBRANCH   2   4
TORSDOF 4
ENDMDL
MODEL 2
REMARK VINA RESULT:      -5.0      1.463      1.928
REMARK  4 active torsions:
REMARK  status: ('A' for Active; 'I' for Inactive)
REMARK    1  A    between atoms: C2_2  and  C7_7 
REMARK    2  A    between atoms: C3_3  and  C8_8 
REMARK    3  A    between atoms: C3_3  and  C9_9 
REMARK    4  A    between atoms: C7_7  and  C8_8 
ROOT
HETATM    1  C1  UNL     1     -32.913   8.561   0.507  1.00 20.00    -0.111 C 
HETATM    2  C2  UNL     1     -32.505   8.003   1.490  1.00 20.00    -0.107 C 
HETATM    3  C4  UNL     1     -33.413   9.237  -0.688  1.00 20.00     0.112 C 
ENDROOT
BRANCH   2   4
HETATM    4  C7  UNL     1     -32.011   7.318   2.693  1.00 20.00     0.101 C 
BRANCH   4   5
HETATM    5  C8  UNL     1     -32.917   6.157   3.097  1.00 20.00     0.090 C 
BRANCH   5   6
HETATM    6  C3  UNL     1     -33.688   6.404   4.389  1.00 20.00     0.131 C 
HETATM    7  O10 UNL     1     -33.439   7.354   5.132  1.00 20.00    -0.298 OA
BRANCH   6   8
HETATM    8  C9  UNL     1     -34.795   5.403   4.713  1.00 20.00     0.047 C 
HETATM    9  C5  UNL     1     -34.517   4.086   3.998  1.00 20.00     0.017 C 
HETATM   10  C6  UNL     1     -34.918   5.194   6.220  1.00 20.00     0.017 C 
ENDBRANCH   6   8
ENDBRANCH   5   6
ENDBRANCH   4   5
ENDBRANCH   2   4
TORSDOF 4
ENDMDL
MODEL 3
REMARK VINA RESULT:      -4.7     11.078     12.309
REMARK  4 active torsions:
REMARK  status: ('A' for Active; 'I' for Inactive)
REMARK    1  A    between atoms: C2_2  and  C7_7 
REMARK    2  A    between atoms: C3_3  and  C8_8 
REMARK    3  A    between atoms: C3_3  and  C9_9 
REMARK    4  A    between atoms: C7_7  and  C8_8 
ROOT
HETATM    1  C1  UNL     1     -33.234  17.251  -1.997  1.00 20.00    -0.111 C 
HETATM    2  C2  UNL     1     -34.040  16.435  -2.355  1.00 20.00    -0.107 C 
HETATM    3  C4  UNL     1     -32.252  18.241  -1.558  1.00 20.00     0.112 C 
ENDROOT
BRANCH   2   4
HETATM    4  C7  UNL     1     -35.024  15.434  -2.789  1.00 20.00     0.101 C 
BRANCH   4   5
HETATM    5  C8  UNL     1     -34.419  14.434  -3.773  1.00 20.00     0.090 C 
BRANCH   5   6
HETATM    6  C3  UNL     1     -35.431  13.850  -4.752  1.00 20.00     0.131 C 
HETATM    7  O10 UNL     1     -36.087  12.841  -4.495  1.00 20.00    -0.298 OA
BRANCH   6   8
HETATM    8  C9  UNL     1     -35.588  14.591  -6.077  1.00 20.00     0.047 C 
HETATM    9  C5  UNL     1     -36.628  15.695  -5.925  1.00 20.00     0.017 C 
HETATM   10  C6  UNL     1     -34.252  15.159  -6.547  1.00 20.00     0.017 C 
ENDBRANCH   6   8
ENDBRANCH   5   6
ENDBRANCH   4   5
ENDBRANCH   2   4
TORSDOF 4
ENDMDL
MODEL 4
REMARK VINA RESULT:      -4.7     11.347     12.107
REMARK  4 active torsions:
REMARK  status: ('A' for Active; 'I' for Inactive)
REMARK    1  A    between atoms: C2_2  and  C7_7 
REMARK    2  A    between atoms: C3_3  and  C8_8 
REMARK    3  A    between atoms: C3_3  and  C9_9 
REMARK    4  A    between atoms: C7_7  and  C8_8 
ROOT
HETATM    1  C1  UNL     1     -34.664  16.118  -2.118  1.00 20.00    -0.111 C 
HETATM    2  C2  UNL     1     -34.190  15.503  -3.035  1.00 20.00    -0.107 C 
HETATM    3  C4  UNL     1     -35.244  16.866  -1.004  1.00 20.00     0.112 C 
ENDROOT
BRANCH   2   4
HETATM    4  C7  UNL     1     -33.615  14.750  -4.159  1.00 20.00     0.101 C 
BRANCH   4   5
HETATM    5  C8  UNL     1     -34.555  14.720  -5.362  1.00 20.00     0.090 C 
BRANCH   5   6
HETATM    6  C3  UNL     1     -35.904  14.072  -5.069  1.00 20.00     0.131 C 
HETATM    7  O10 UNL     1     -36.002  12.917  -4.656  1.00 20.00    -0.298 OA
BRANCH   6   8
HETATM    8  C9  UNL     1     -37.134  14.941  -5.315  1.00 20.00     0.047 C 
HETATM    9  C5  UNL     1     -38.122  14.766  -4.168  1.00 20.00     0.017 C 
HETATM   10  C6  UNL     1     -36.743  16.407  -5.481  1.00 20.00     0.017 C 
ENDBRANCH   6   8
ENDBRANCH   5   6
ENDBRANCH   4   5
ENDBRANCH   2   4
TORSDOF 4
ENDMDL
MODEL 5
REMARK VINA RESULT:      -4.6     10.955     12.383
REMARK  4 active torsions:
REMARK  status: ('A' for Active; 'I' for Inactive)
REMARK    1  A    between atoms: C2_2  and  C7_7 
REMARK    2  A    between atoms: C3_3  and  C8_8 
REMARK    3  A    between atoms: C3_3  and  C9_9 
REMARK    4  A    between atoms: C7_7  and  C8_8 
ROOT
HETATM    1  C1  UNL     1     -35.029  16.470  -1.435  1.00 20.00    -0.111 C 
HETATM    2  C2  UNL     1     -34.632  15.870  -2.397  1.00 20.00    -0.107 C 
HETATM    3  C4  UNL     1     -35.510  17.204  -0.266  1.00 20.00     0.112 C 
ENDROOT
BRANCH   2   4
HETATM    4  C7  UNL     1     -34.147  15.140  -3.577  1.00 20.00     0.101 C 
BRANCH   4   5
HETATM    5  C8  UNL     1     -34.999  13.907  -3.871  1.00 20.00     0.090 C 
BRANCH   5   6
HETATM    6  C3  UNL     1     -36.261  14.212  -4.672  1.00 20.00     0.131 C 
HETATM    7  O10 UNL     1     -37.297  13.562  -4.537  1.00 20.00    -0.298 OA
BRANCH   6   8
HETATM    8  C9  UNL     1     -36.166  15.375  -5.656  1.00 20.00     0.047 C 
HETATM    9  C5  UNL     1     -35.753  14.853  -7.027  1.00 20.00     0.017 C 
HETATM   10  C6  UNL     1     -37.489  16.132  -5.735  1.00 20.00     0.017 C 
ENDBRANCH   6   8
ENDBRANCH   5   6
ENDBRANCH   4   5
ENDBRANCH   2   4
TORSDOF 4
ENDMDL
MODEL 6
REMARK VINA RESULT:      -4.6     11.581     12.405
REMARK  4 active torsions:
REMARK  status: ('A' for Active; 'I' for Inactive)
REMARK    1  A    between atoms: C2_2  and  C7_7 
REMARK    2  A    between atoms: C3_3  and  C8_8 
REMARK    3  A    between atoms: C3_3  and  C9_9 
REMARK    4  A    between atoms: C7_7  and  C8_8 
ROOT
HETATM    1  C1  UNL     1     -34.723  16.667  -1.573  1.00 20.00    -0.111 C 
HETATM    2  C2  UNL     1     -34.034  16.269  -2.473  1.00 20.00    -0.107 C 
HETATM    3  C4  UNL     1     -35.558  17.153  -0.476  1.00 20.00     0.112 C 
ENDROOT
BRANCH   2   4
HETATM    4  C7  UNL     1     -33.187  15.786  -3.573  1.00 20.00     0.101 C 
BRANCH   4   5
HETATM    5  C8  UNL     1     -33.728  14.492  -4.178  1.00 20.00     0.090 C 
BRANCH   5   6
HETATM    6  C3  UNL     1     -34.371  14.678  -5.548  1.00 20.00     0.131 C 
HETATM    7  O10 UNL     1     -33.708  14.731  -6.583  1.00 20.00    -0.298 OA
BRANCH   6   8
HETATM    8  C9  UNL     1     -35.894  14.793  -5.564  1.00 20.00     0.047 C 
HETATM    9  C5  UNL     1     -36.479  13.996  -4.404  1.00 20.00     0.017 C 
HETATM   10  C6  UNL     1     -36.331  16.254  -5.501  1.00 20.00     0.017 C 
ENDBRANCH   6   8
ENDBRANCH   5   6
ENDBRANCH   4   5
ENDBRANCH   2   4
TORSDOF 4
ENDMDL
MODEL 7
REMARK VINA RESULT:      -4.4      9.586     10.448
REMARK  4 active torsions:
REMARK  status: ('A' for Active; 'I' for Inactive)
REMARK    1  A    between atoms: C2_2  and  C7_7 
REMARK    2  A    between atoms: C3_3  and  C8_8 
REMARK    3  A    between atoms: C3_3  and  C9_9 
REMARK    4  A    between atoms: C7_7  and  C8_8 
ROOT
HETATM    1  C1  UNL     1     -42.257   2.901  -3.399  1.00 20.00    -0.111 C 
HETATM    2  C2  UNL     1     -42.766   3.559  -2.533  1.00 20.00    -0.107 C 
HETATM    3  C4  UNL     1     -41.641   2.097  -4.454  1.00 20.00     0.112 C 
ENDROOT
BRANCH   2   4
HETATM    4  C7  UNL     1     -43.393   4.362  -1.473  1.00 20.00     0.101 C 
BRANCH   4   5
HETATM    5  C8  UNL     1     -42.929   5.816  -1.515  1.00 20.00     0.090 C 
BRANCH   5   6
HETATM    6  C3  UNL     1     -41.620   6.063  -0.772  1.00 20.00     0.131 C 
HETATM    7  O10 UNL     1     -40.583   5.463  -1.051  1.00 20.00    -0.298 OA
BRANCH   6   8
HETATM    8  C9  UNL     1     -41.667   7.104   0.344  1.00 20.00     0.047 C 
HETATM    9  C5  UNL     1     -41.364   8.483  -0.231  1.00 20.00     0.017 C 
HETATM   10  C6  UNL     1     -43.023   7.090   1.046  1.00 20.00     0.017 C 
ENDBRANCH   6   8
ENDBRANCH   5   6
ENDBRANCH   4   5
ENDBRANCH   2   4
TORSDOF 4
ENDMDL
MODEL 8
REMARK VINA RESULT:      -4.3     11.452     12.580
REMARK  4 active torsions:
REMARK  status: ('A' for Active; 'I' for Inactive)
REMARK    1  A    between atoms: C2_2  and  C7_7 
REMARK    2  A    between atoms: C3_3  and  C8_8 
REMARK    3  A    between atoms: C3_3  and  C9_9 
REMARK    4  A    between atoms: C7_7  and  C8_8 
ROOT
HETATM    1  C1  UNL     1     -33.231  16.644  -2.685  1.00 20.00    -0.111 C 
HETATM    2  C2  UNL     1     -33.467  15.679  -3.360  1.00 20.00    -0.107 C 
HETATM    3  C4  UNL     1     -32.944  17.822  -1.868  1.00 20.00     0.112 C 
ENDROOT
BRANCH   2   4
HETATM    4  C7  UNL     1     -33.758  14.500  -4.189  1.00 20.00     0.101 C 
BRANCH   4   5
HETATM    5  C8  UNL     1     -35.242  14.142  -4.165  1.00 20.00     0.090 C 
BRANCH   5   6
HETATM    6  C3  UNL     1     -35.994  14.566  -5.422  1.00 20.00     0.131 C 
HETATM    7  O10 UNL     1     -35.988  13.889  -6.450  1.00 20.00    -0.298 OA
BRANCH   6   8
HETATM    8  C9  UNL     1     -36.762  15.882  -5.334  1.00 20.00     0.047 C 
HETATM    9  C5  UNL     1     -37.157  16.147  -3.886  1.00 20.00     0.017 C 
HETATM   10  C6  UNL     1     -35.935  17.035  -5.895  1.00 20.00     0.017 C 
ENDBRANCH   6   8
ENDBRANCH   5   6
ENDBRANCH   4   5
ENDBRANCH   2   4
TORSDOF 4
ENDMDL
MODEL 9
REMARK VINA RESULT:      -4.3     11.308     12.376
REMARK  4 active torsions:
REMARK  status: ('A' for Active; 'I' for Inactive)
REMARK    1  A    between atoms: C2_2  and  C7_7 
REMARK    2  A    between atoms: C3_3  and  C8_8 
REMARK    3  A    between atoms: C3_3  and  C9_9 
REMARK    4  A    between atoms: C7_7  and  C8_8 
ROOT
HETATM    1  C1  UNL     1     -31.292  18.439  -0.040  1.00 20.00    -0.111 C 
HETATM    2  C2  UNL     1     -31.958  18.338  -1.034  1.00 20.00    -0.107 C 
HETATM    3  C4  UNL     1     -30.482  18.558   1.172  1.00 20.00     0.112 C 
ENDROOT
BRANCH   2   4
HETATM    4  C7  UNL     1     -32.772  18.210  -2.252  1.00 20.00     0.101 C 
BRANCH   4   5
HETATM    5  C8  UNL     1     -32.934  16.752  -2.674  1.00 20.00     0.090 C 
BRANCH   5   6
HETATM    6  C3  UNL     1     -34.296  16.161  -2.324  1.00 20.00     0.131 C 
HETATM    7  O10 UNL     1     -34.988  16.603  -1.407  1.00 20.00    -0.298 OA
BRANCH   6   8
HETATM    8  C9  UNL     1     -34.757  14.984  -3.181  1.00 20.00     0.047 C 
HETATM    9  C5  UNL     1     -36.128  15.289  -3.772  1.00 20.00     0.017 C 
HETATM   10  C6  UNL     1     -33.743  14.678  -4.279  1.00 20.00     0.017 C 
ENDBRANCH   6   8
ENDBRANCH   5   6
ENDBRANCH   4   5
ENDBRANCH   2   4
TORSDOF 4
ENDMDL
