MODEL 1
REMARK VINA RESULT:      -5.5      0.000      0.000
REMARK  3 active torsions:
REMARK  status: ('A' for Active; 'I' for Inactive)
REMARK    1  A    between atoms: C2_2  and  C9_9 
REMARK    2  A    between atoms: C6_6  and  C9_9 
REMARK    3  A    between atoms: C7_7  and  O10_10 
ROOT
HETATM    1  C1  UNL     1     -32.830   8.224   0.984  1.00 20.00    -0.111 C 
HETATM    2  C2  UNL     1     -32.645   7.724   2.061  1.00 20.00    -0.107 C 
HETATM    3  C8  UNL     1     -33.055   8.832  -0.326  1.00 20.00     0.112 C 
ENDROOT
BRANCH   2   4
HETATM    4  C9  UNL     1     -32.422   7.116   3.377  1.00 20.00     0.101 C 
BRANCH   4   5
HETATM    5  C6  UNL     1     -33.710   6.531   3.938  1.00 20.00     0.025 C 
HETATM    6  C4  UNL     1     -34.006   5.126   3.423  1.00 20.00     0.008 C 
HETATM    7  C3  UNL     1     -34.964   4.526   4.453  1.00 20.00     0.003 C 
HETATM    8  C5  UNL     1     -34.855   5.399   5.702  1.00 20.00     0.032 C 
HETATM    9  C7  UNL     1     -33.670   6.323   5.449  1.00 20.00     0.123 C 
BRANCH   9  10
HETATM   10  O10 UNL     1     -33.810   7.549   6.141  1.00 20.00    -0.395 OA
HETATM   11  H24 UNL     1     -34.615   7.978   5.803  1.00 20.00     0.210 HD
ENDBRANCH   9  10
ENDBRANCH   4   5
ENDBRANCH   2   4
TORSDOF 3
ENDMDL
MODEL 2
REMARK VINA RESULT:      -5.0      1.654      2.095
REMARK  3 active torsions:
REMARK  status: ('A' for Active; 'I' for Inactive)
REMARK    1  A    between atoms: C2_2  and  C9_9 
REMARK    2  A    between atoms: C6_6  and  C9_9 
REMARK    3  A    between atoms: C7_7  and  O10_10 
ROOT
HETATM    1  C1  UNL     1     -32.857   8.125   1.335  1.00 20.00    -0.111 C 
HETATM    2  C2  UNL     1     -32.914   7.014   1.787  1.00 20.00    -0.107 C 
HETATM    3  C8  UNL     1     -32.789   9.478   0.785  1.00 20.00     0.112 C 
ENDROOT
BRANCH   2   4
HETATM    4  C9  UNL     1     -32.982   5.655   2.335  1.00 20.00     0.101 C 
BRANCH   4   5
HETATM    5  C6  UNL     1     -33.231   5.677   3.835  1.00 20.00     0.025 C 
HETATM    6  C4  UNL     1     -33.358   7.088   4.402  1.00 20.00     0.008 C 
HETATM    7  C3  UNL     1     -34.113   6.912   5.721  1.00 20.00     0.003 C 
HETATM    8  C5  UNL     1     -34.755   5.526   5.667  1.00 20.00     0.032 C 
HETATM    9  C7  UNL     1     -34.560   5.043   4.236  1.00 20.00     0.123 C 
BRANCH   9  10
HETATM   10  O10 UNL     1     -34.497   3.631   4.168  1.00 20.00    -0.395 OA
HETATM   11  H24 UNL     1     -33.784   3.347   4.766  1.00 20.00     0.210 HD
ENDBRANCH   9  10
ENDBRANCH   4   5
ENDBRANCH   2   4
TORSDOF 3
ENDMDL
MODEL 3
REMARK VINA RESULT:      -4.8     14.816     15.707
REMARK  3 active torsions:
REMARK  status: ('A' for Active; 'I' for Inactive)
REMARK    1  A    between atoms: C2_2  and  C9_9 
REMARK    2  A    between atoms: C6_6  and  C9_9 
REMARK    3  A    between atoms: C7_7  and  O10_10 
ROOT
HETATM    1  C1  UNL     1     -25.537  18.916   7.282  1.00 20.00    -0.111 C 
HETATM    2  C2  UNL     1     -24.626  19.029   8.057  1.00 20.00    -0.107 C 
HETATM    3  C8  UNL     1     -26.645  18.780   6.337  1.00 20.00     0.112 C 
ENDROOT
BRANCH   2   4
HETATM    4  C9  UNL     1     -23.518  19.169   9.007  1.00 20.00     0.101 C 
BRANCH   4   5
HETATM    5  C6  UNL     1     -23.681  18.223  10.188  1.00 20.00     0.025 C 
HETATM    6  C4  UNL     1     -24.996  18.418  10.936  1.00 20.00     0.008 C 
HETATM    7  C3  UNL     1     -25.218  17.102  11.684  1.00 20.00     0.003 C 
HETATM    8  C5  UNL     1     -24.294  16.075  11.031  1.00 20.00     0.032 C 
HETATM    9  C7  UNL     1     -23.751  16.755   9.780  1.00 20.00     0.123 C 
BRANCH   9  10
HETATM   10  O10 UNL     1     -22.473  16.257   9.432  1.00 20.00    -0.395 OA
HETATM   11  H24 UNL     1     -22.396  15.368   9.820  1.00 20.00     0.210 HD
ENDBRANCH   9  10
ENDBRANCH   4   5
ENDBRANCH   2   4
TORSDOF 3
ENDMDL
MODEL 4
REMARK VINA RESULT:      -4.6     11.206     11.873
REMARK  3 active torsions:
REMARK  status: ('A' for Active; 'I' for Inactive)
REMARK    1  A    between atoms: C2_2  and  C9_9 
REMARK    2  A    between atoms: C6_6  and  C9_9 
REMARK    3  A    between atoms: C7_7  and  O10_10 
ROOT
HETATM    1  C1  UNL     1     -32.919  17.046  -2.407  1.00 20.00    -0.111 C 
HETATM    2  C2  UNL     1     -33.373  16.137  -3.048  1.00 20.00    -0.107 C 
HETATM    3  C8  UNL     1     -32.367  18.153  -1.627  1.00 20.00     0.112 C 
ENDROOT
BRANCH   2   4
HETATM    4  C9  UNL     1     -33.925  15.024  -3.826  1.00 20.00     0.101 C 
BRANCH   4   5
HETATM    5  C6  UNL     1     -35.425  14.892  -3.611  1.00 20.00     0.025 C 
HETATM    6  C4  UNL     1     -36.169  16.218  -3.737  1.00 20.00     0.008 C 
HETATM    7  C3  UNL     1     -37.619  15.827  -4.029  1.00 20.00     0.003 C 
HETATM    8  C5  UNL     1     -37.587  14.366  -4.478  1.00 20.00     0.032 C 
HETATM    9  C7  UNL     1     -36.113  14.030  -4.665  1.00 20.00     0.123 C 
BRANCH   9  10
HETATM   10  O10 UNL     1     -35.862  12.655  -4.448  1.00 20.00    -0.395 OA
HETATM   11  H24 UNL     1     -35.813  12.230  -5.322  1.00 20.00     0.210 HD
ENDBRANCH   9  10
ENDBRANCH   4   5
ENDBRANCH   2   4
TORSDOF 3
ENDMDL
MODEL 5
REMARK VINA RESULT:      -4.6     10.976     12.025
REMARK  3 active torsions:
REMARK  status: ('A' for Active; 'I' for Inactive)
REMARK    1  A    between atoms: C2_2  and  C9_9 
REMARK    2  A    between atoms: C6_6  and  C9_9 
REMARK    3  A    between atoms: C7_7  and  O10_10 
ROOT
HETATM    1  C1  UNL     1     -31.750  18.178  -0.827  1.00 20.00    -0.111 C 
HETATM    2  C2  UNL     1     -32.279  17.850  -1.855  1.00 20.00    -0.107 C 
HETATM    3  C8  UNL     1     -31.107  18.576   0.424  1.00 20.00     0.112 C 
ENDROOT
BRANCH   2   4
HETATM    4  C9  UNL     1     -32.920  17.452  -3.113  1.00 20.00     0.101 C 
BRANCH   4   5
HETATM    5  C6  UNL     1     -33.567  16.080  -2.992  1.00 20.00     0.025 C 
HETATM    6  C4  UNL     1     -35.074  16.145  -2.761  1.00 20.00     0.008 C 
HETATM    7  C3  UNL     1     -35.595  14.775  -3.199  1.00 20.00     0.003 C 
HETATM    8  C5  UNL     1     -34.488  14.142  -4.040  1.00 20.00     0.032 C 
HETATM    9  C7  UNL     1     -33.467  15.251  -4.268  1.00 20.00     0.123 C 
BRANCH   9  10
HETATM   10  O10 UNL     1     -32.164  14.729  -4.441  1.00 20.00    -0.395 OA
HETATM   11  H24 UNL     1     -31.538  15.431  -4.191  1.00 20.00     0.210 HD
ENDBRANCH   9  10
ENDBRANCH   4   5
ENDBRANCH   2   4
TORSDOF 3
ENDMDL
MODEL 6
REMARK VINA RESULT:      -4.5     11.329     12.088
REMARK  3 active torsions:
REMARK  status: ('A' for Active; 'I' for Inactive)
REMARK    1  A    between atoms: C2_2  and  C9_9 
REMARK    2  A    between atoms: C6_6  and  C9_9 
REMARK    3  A    between atoms: C7_7  and  O10_10 
ROOT
HETATM    1  C1  UNL     1     -38.615  14.787  -4.236  1.00 20.00    -0.111 C 
HETATM    2  C2  UNL     1     -37.479  14.411  -4.344  1.00 20.00    -0.107 C 
HETATM    3  C8  UNL     1     -39.998  15.246  -4.106  1.00 20.00     0.112 C 
ENDROOT
BRANCH   2   4
HETATM    4  C9  UNL     1     -36.093  13.949  -4.470  1.00 20.00     0.101 C 
BRANCH   4   5
HETATM    5  C6  UNL     1     -35.110  15.071  -4.171  1.00 20.00     0.025 C 
HETATM    6  C4  UNL     1     -35.218  15.601  -2.744  1.00 20.00     0.008 C 
HETATM    7  C3  UNL     1     -33.874  16.279  -2.476  1.00 20.00     0.003 C 
HETATM    8  C5  UNL     1     -32.912  15.764  -3.546  1.00 20.00     0.032 C 
HETATM    9  C7  UNL     1     -33.651  14.630  -4.245  1.00 20.00     0.123 C 
BRANCH   9  10
HETATM   10  O10 UNL     1     -33.226  14.483  -5.587  1.00 20.00    -0.395 OA
HETATM   11  H24 UNL     1     -33.989  14.158  -6.095  1.00 20.00     0.210 HD
ENDBRANCH   9  10
ENDBRANCH   4   5
ENDBRANCH   2   4
TORSDOF 3
ENDMDL
MODEL 7
REMARK VINA RESULT:      -4.5     11.487     12.101
REMARK  3 active torsions:
REMARK  status: ('A' for Active; 'I' for Inactive)
REMARK    1  A    between atoms: C2_2  and  C9_9 
REMARK    2  A    between atoms: C6_6  and  C9_9 
REMARK    3  A    between atoms: C7_7  and  O10_10 
ROOT
HETATM    1  C1  UNL     1     -34.683  16.813  -1.402  1.00 20.00    -0.111 C 
HETATM    2  C2  UNL     1     -34.095  16.298  -2.314  1.00 20.00    -0.107 C 
HETATM    3  C8  UNL     1     -35.398  17.441  -0.291  1.00 20.00     0.112 C 
ENDROOT
BRANCH   2   4
HETATM    4  C9  UNL     1     -33.380  15.664  -3.426  1.00 20.00     0.101 C 
BRANCH   4   5
HETATM    5  C6  UNL     1     -34.281  14.700  -4.183  1.00 20.00     0.025 C 
HETATM    6  C4  UNL     1     -35.730  14.732  -3.706  1.00 20.00     0.008 C 
HETATM    7  C3  UNL     1     -36.538  14.159  -4.872  1.00 20.00     0.003 C 
HETATM    8  C5  UNL     1     -35.626  14.218  -6.097  1.00 20.00     0.032 C 
HETATM    9  C7  UNL     1     -34.418  15.039  -5.665  1.00 20.00     0.123 C 
BRANCH   9  10
HETATM   10  O10 UNL     1     -33.256  14.673  -6.385  1.00 20.00    -0.395 OA
HETATM   11  H24 UNL     1     -33.096  15.369  -7.045  1.00 20.00     0.210 HD
ENDBRANCH   9  10
ENDBRANCH   4   5
ENDBRANCH   2   4
TORSDOF 3
ENDMDL
MODEL 8
REMARK VINA RESULT:      -4.5      9.571     10.385
REMARK  3 active torsions:
REMARK  status: ('A' for Active; 'I' for Inactive)
REMARK    1  A    between atoms: C2_2  and  C9_9 
REMARK    2  A    between atoms: C6_6  and  C9_9 
REMARK    3  A    between atoms: C7_7  and  O10_10 
ROOT
HETATM    1  C1  UNL     1     -42.262   3.098  -3.222  1.00 20.00    -0.111 C 
HETATM    2  C2  UNL     1     -42.698   3.874  -2.415  1.00 20.00    -0.107 C 
HETATM    3  C8  UNL     1     -41.732   2.153  -4.204  1.00 20.00     0.112 C 
ENDROOT
BRANCH   2   4
HETATM    4  C9  UNL     1     -43.225   4.824  -1.430  1.00 20.00     0.101 C 
BRANCH   4   5
HETATM    5  C6  UNL     1     -42.128   5.739  -0.905  1.00 20.00     0.025 C 
HETATM    6  C4  UNL     1     -42.162   7.134  -1.524  1.00 20.00     0.008 C 
HETATM    7  C3  UNL     1     -41.400   8.018  -0.535  1.00 20.00     0.003 C 
HETATM    8  C5  UNL     1     -41.331   7.235   0.776  1.00 20.00     0.032 C 
HETATM    9  C7  UNL     1     -42.255   6.040   0.585  1.00 20.00     0.123 C 
BRANCH   9  10
HETATM   10  O10 UNL     1     -41.845   4.935   1.369  1.00 20.00    -0.395 OA
HETATM   11  H24 UNL     1     -41.083   5.227   1.899  1.00 20.00     0.210 HD
ENDBRANCH   9  10
ENDBRANCH   4   5
ENDBRANCH   2   4
TORSDOF 3
ENDMDL
MODEL 9
REMARK VINA RESULT:      -4.4     11.161     12.868
REMARK  3 active torsions:
REMARK  status: ('A' for Active; 'I' for Inactive)
REMARK    1  A    between atoms: C2_2  and  C9_9 
REMARK    2  A    between atoms: C6_6  and  C9_9 
REMARK    3  A    between atoms: C7_7  and  O10_10 
ROOT
HETATM    1  C1  UNL     1     -34.291  16.214  -2.407  1.00 20.00    -0.111 C 
HETATM    2  C2  UNL     1     -34.525  15.263  -3.104  1.00 20.00    -0.107 C 
HETATM    3  C8  UNL     1     -34.007  17.371  -1.559  1.00 20.00     0.112 C 
ENDROOT
BRANCH   2   4
HETATM    4  C9  UNL     1     -34.810  14.100  -3.950  1.00 20.00     0.101 C 
BRANCH   4   5
HETATM    5  C6  UNL     1     -35.296  14.526  -5.328  1.00 20.00     0.025 C 
HETATM    6  C4  UNL     1     -36.489  15.477  -5.277  1.00 20.00     0.008 C 
HETATM    7  C3  UNL     1     -36.479  16.189  -6.630  1.00 20.00     0.003 C 
HETATM    8  C5  UNL     1     -35.090  15.960  -7.227  1.00 20.00     0.032 C 
HETATM    9  C7  UNL     1     -34.265  15.337  -6.107  1.00 20.00     0.123 C 
BRANCH   9  10
HETATM   10  O10 UNL     1     -33.239  14.508  -6.618  1.00 20.00    -0.395 OA
HETATM   11  H24 UNL     1     -32.396  14.973  -6.475  1.00 20.00     0.210 HD
ENDBRANCH   9  10
ENDBRANCH   4   5
ENDBRANCH   2   4
TORSDOF 3
ENDMDL
