MODEL 1
REMARK VINA RESULT:      -5.2      0.000      0.000
REMARK  4 active torsions:
REMARK  status: ('A' for Active; 'I' for Inactive)
REMARK    1  A    between atoms: C2_2  and  C6_6 
REMARK    2  A    between atoms: C3_3  and  C6_6 
REMARK    3  A    between atoms: C3_3  and  C7_7 
REMARK    4  A    between atoms: C7_7  and  C8_8 
ROOT
HETATM    1  C1  UNL     1     -32.804   8.290   1.066  1.00 20.00    -0.111 C 
HETATM    2  C2  UNL     1     -32.706   7.543   2.001  1.00 20.00    -0.100 C 
HETATM    3  C4  UNL     1     -32.923   9.198  -0.073  1.00 20.00     0.112 C 
ENDROOT
BRANCH   2   4
HETATM    4  C6  UNL     1     -32.585   6.637   3.149  1.00 20.00     0.172 C 
BRANCH   4   5
HETATM    5  C3  UNL     1     -33.463   5.406   3.015  1.00 20.00     0.137 C 
HETATM    6  O9  UNL     1     -33.118   4.413   2.375  1.00 20.00    -0.297 OA
BRANCH   5   7
HETATM    7  C7  UNL     1     -34.806   5.482   3.726  1.00 20.00     0.079 C 
BRANCH   7   8
HETATM    8  C8  UNL     1     -34.753   4.915   5.143  1.00 20.00     0.003 C 
HETATM    9  C5  UNL     1     -34.478   6.002   6.168  1.00 20.00     0.005 C 
ENDBRANCH   7   8
ENDBRANCH   5   7
ENDBRANCH   4   5
ENDBRANCH   2   4
TORSDOF 4
ENDMDL
MODEL 2
REMARK VINA RESULT:      -4.6      1.321      1.710
REMARK  4 active torsions:
REMARK  status: ('A' for Active; 'I' for Inactive)
REMARK    1  A    between atoms: C2_2  and  C6_6 
REMARK    2  A    between atoms: C3_3  and  C6_6 
REMARK    3  A    between atoms: C3_3  and  C7_7 
REMARK    4  A    between atoms: C7_7  and  C8_8 
ROOT
HETATM    1  C1  UNL     1     -32.793   7.131   2.078  1.00 20.00    -0.111 C 
HETATM    2  C2  UNL     1     -33.015   5.972   2.297  1.00 20.00    -0.100 C 
HETATM    3  C4  UNL     1     -32.522   8.542   1.810  1.00 20.00     0.112 C 
ENDROOT
BRANCH   2   4
HETATM    4  C6  UNL     1     -33.295   4.557   2.568  1.00 20.00     0.172 C 
BRANCH   4   5
HETATM    5  C3  UNL     1     -34.109   4.356   3.833  1.00 20.00     0.137 C 
HETATM    6  O9  UNL     1     -34.093   3.304   4.471  1.00 20.00    -0.297 OA
BRANCH   5   7
HETATM    7  C7  UNL     1     -34.951   5.549   4.264  1.00 20.00     0.079 C 
BRANCH   7   8
HETATM    8  C8  UNL     1     -34.763   5.898   5.738  1.00 20.00     0.003 C 
HETATM    9  C5  UNL     1     -33.670   6.936   5.930  1.00 20.00     0.005 C 
ENDBRANCH   7   8
ENDBRANCH   5   7
ENDBRANCH   4   5
ENDBRANCH   2   4
TORSDOF 4
ENDMDL
MODEL 3
REMARK VINA RESULT:      -4.5      1.416      4.963
REMARK  4 active torsions:
REMARK  status: ('A' for Active; 'I' for Inactive)
REMARK    1  A    between atoms: C2_2  and  C6_6 
REMARK    2  A    between atoms: C3_3  and  C6_6 
REMARK    3  A    between atoms: C3_3  and  C7_7 
REMARK    4  A    between atoms: C7_7  and  C8_8 
ROOT
HETATM    1  C1  UNL     1     -34.468   5.560   4.930  1.00 20.00    -0.111 C 
HETATM    2  C2  UNL     1     -33.946   5.718   3.860  1.00 20.00    -0.100 C 
HETATM    3  C4  UNL     1     -35.103   5.369   6.232  1.00 20.00     0.112 C 
ENDROOT
BRANCH   2   4
HETATM    4  C6  UNL     1     -33.313   5.906   2.549  1.00 20.00     0.172 C 
BRANCH   4   5
HETATM    5  C3  UNL     1     -32.369   7.095   2.524  1.00 20.00     0.137 C 
HETATM    6  O9  UNL     1     -31.860   7.558   3.544  1.00 20.00    -0.297 OA
BRANCH   5   7
HETATM    7  C7  UNL     1     -32.092   7.679   1.146  1.00 20.00     0.079 C 
BRANCH   7   8
HETATM    8  C8  UNL     1     -32.862   8.972   0.890  1.00 20.00     0.003 C 
HETATM    9  C5  UNL     1     -33.550   8.952  -0.465  1.00 20.00     0.005 C 
ENDBRANCH   7   8
ENDBRANCH   5   7
ENDBRANCH   4   5
ENDBRANCH   2   4
TORSDOF 4
ENDMDL
MODEL 4
REMARK VINA RESULT:      -4.4      1.475      1.544
REMARK  4 active torsions:
REMARK  status: ('A' for Active; 'I' for Inactive)
REMARK    1  A    between atoms: C2_2  and  C6_6 
REMARK    2  A    between atoms: C3_3  and  C6_6 
REMARK    3  A    between atoms: C3_3  and  C7_7 
REMARK    4  A    between atoms: C7_7  and  C8_8 
ROOT
HETATM    1  C1  UNL     1     -32.916   8.335   0.869  1.00 20.00    -0.111 C 
HETATM    2  C2  UNL     1     -32.560   7.720   1.838  1.00 20.00    -0.100 C 
HETATM    3  C4  UNL     1     -33.352   9.083  -0.308  1.00 20.00     0.112 C 
ENDROOT
BRANCH   2   4
HETATM    4  C6  UNL     1     -32.116   6.970   3.018  1.00 20.00     0.172 C 
BRANCH   4   5
HETATM    5  C3  UNL     1     -33.249   6.684   3.986  1.00 20.00     0.137 C 
HETATM    6  O9  UNL     1     -33.420   7.334   5.017  1.00 20.00    -0.297 OA
BRANCH   5   7
HETATM    7  C7  UNL     1     -34.166   5.533   3.596  1.00 20.00     0.079 C 
BRANCH   7   8
HETATM    8  C8  UNL     1     -35.303   5.324   4.593  1.00 20.00     0.003 C 
HETATM    9  C5  UNL     1     -34.778   4.917   5.960  1.00 20.00     0.005 C 
ENDBRANCH   7   8
ENDBRANCH   5   7
ENDBRANCH   4   5
ENDBRANCH   2   4
TORSDOF 4
ENDMDL
MODEL 5
REMARK VINA RESULT:      -4.2     10.654     12.187
REMARK  4 active torsions:
REMARK  status: ('A' for Active; 'I' for Inactive)
REMARK    1  A    between atoms: C2_2  and  C6_6 
REMARK    2  A    between atoms: C3_3  and  C6_6 
REMARK    3  A    between atoms: C3_3  and  C7_7 
REMARK    4  A    between atoms: C7_7  and  C8_8 
ROOT
HETATM    1  C1  UNL     1     -33.843  15.879  -3.019  1.00 20.00    -0.111 C 
HETATM    2  C2  UNL     1     -34.462  14.941  -3.442  1.00 20.00    -0.100 C 
HETATM    3  C4  UNL     1     -33.088  17.021  -2.506  1.00 20.00     0.112 C 
ENDROOT
BRANCH   2   4
HETATM    4  C6  UNL     1     -35.224  13.796  -3.952  1.00 20.00     0.172 C 
BRANCH   4   5
HETATM    5  C3  UNL     1     -36.478  14.216  -4.698  1.00 20.00     0.137 C 
HETATM    6  O9  UNL     1     -37.578  13.708  -4.484  1.00 20.00    -0.297 OA
BRANCH   5   7
HETATM    7  C7  UNL     1     -36.284  15.314  -5.734  1.00 20.00     0.079 C 
BRANCH   7   8
HETATM    8  C8  UNL     1     -35.627  14.804  -7.014  1.00 20.00     0.003 C 
HETATM    9  C5  UNL     1     -34.198  15.305  -7.146  1.00 20.00     0.005 C 
ENDBRANCH   7   8
ENDBRANCH   5   7
ENDBRANCH   4   5
ENDBRANCH   2   4
TORSDOF 4
ENDMDL
MODEL 6
REMARK VINA RESULT:      -4.2     10.789     11.497
REMARK  4 active torsions:
REMARK  status: ('A' for Active; 'I' for Inactive)
REMARK    1  A    between atoms: C2_2  and  C6_6 
REMARK    2  A    between atoms: C3_3  and  C6_6 
REMARK    3  A    between atoms: C3_3  and  C7_7 
REMARK    4  A    between atoms: C7_7  and  C8_8 
ROOT
HETATM    1  C1  UNL     1     -34.951  16.145  -1.923  1.00 20.00    -0.111 C 
HETATM    2  C2  UNL     1     -34.717  15.404  -2.839  1.00 20.00    -0.100 C 
HETATM    3  C4  UNL     1     -35.235  17.048  -0.810  1.00 20.00     0.112 C 
ENDROOT
BRANCH   2   4
HETATM    4  C6  UNL     1     -34.435  14.492  -3.953  1.00 20.00     0.172 C 
BRANCH   4   5
HETATM    5  C3  UNL     1     -35.690  13.833  -4.498  1.00 20.00     0.137 C 
HETATM    6  O9  UNL     1     -35.871  12.616  -4.454  1.00 20.00    -0.297 OA
BRANCH   5   7
HETATM    7  C7  UNL     1     -36.715  14.781  -5.103  1.00 20.00     0.079 C 
BRANCH   7   8
HETATM    8  C8  UNL     1     -38.007  14.845  -4.293  1.00 20.00     0.003 C 
HETATM    9  C5  UNL     1     -38.348  16.273  -3.901  1.00 20.00     0.005 C 
ENDBRANCH   7   8
ENDBRANCH   5   7
ENDBRANCH   4   5
ENDBRANCH   2   4
TORSDOF 4
ENDMDL
MODEL 7
REMARK VINA RESULT:      -4.1     10.649     11.467
REMARK  4 active torsions:
REMARK  status: ('A' for Active; 'I' for Inactive)
REMARK    1  A    between atoms: C2_2  and  C6_6 
REMARK    2  A    between atoms: C3_3  and  C6_6 
REMARK    3  A    between atoms: C3_3  and  C7_7 
REMARK    4  A    between atoms: C7_7  and  C8_8 
ROOT
HETATM    1  C1  UNL     1     -34.614  16.535  -1.746  1.00 20.00    -0.111 C 
HETATM    2  C2  UNL     1     -33.959  16.120  -2.663  1.00 20.00    -0.100 C 
HETATM    3  C4  UNL     1     -35.410  17.043  -0.630  1.00 20.00     0.112 C 
ENDROOT
BRANCH   2   4
HETATM    4  C6  UNL     1     -33.161  15.604  -3.781  1.00 20.00     0.172 C 
BRANCH   4   5
HETATM    5  C3  UNL     1     -33.942  14.643  -4.659  1.00 20.00     0.137 C 
HETATM    6  O9  UNL     1     -33.816  14.612  -5.883  1.00 20.00    -0.297 OA
BRANCH   5   7
HETATM    7  C7  UNL     1     -34.897  13.715  -3.923  1.00 20.00     0.079 C 
BRANCH   7   8
HETATM    8  C8  UNL     1     -36.277  13.656  -4.573  1.00 20.00     0.003 C 
HETATM    9  C5  UNL     1     -37.105  14.885  -4.236  1.00 20.00     0.005 C 
ENDBRANCH   7   8
ENDBRANCH   5   7
ENDBRANCH   4   5
ENDBRANCH   2   4
TORSDOF 4
ENDMDL
MODEL 8
REMARK VINA RESULT:      -4.0     10.557     12.229
REMARK  4 active torsions:
REMARK  status: ('A' for Active; 'I' for Inactive)
REMARK    1  A    between atoms: C2_2  and  C6_6 
REMARK    2  A    between atoms: C3_3  and  C6_6 
REMARK    3  A    between atoms: C3_3  and  C7_7 
REMARK    4  A    between atoms: C7_7  and  C8_8 
ROOT
HETATM    1  C1  UNL     1     -33.960  15.865  -2.916  1.00 20.00    -0.111 C 
HETATM    2  C2  UNL     1     -34.471  14.881  -3.376  1.00 20.00    -0.100 C 
HETATM    3  C4  UNL     1     -33.337  17.063  -2.356  1.00 20.00     0.112 C 
ENDROOT
BRANCH   2   4
HETATM    4  C6  UNL     1     -35.096  13.681  -3.946  1.00 20.00     0.172 C 
BRANCH   4   5
HETATM    5  C3  UNL     1     -36.300  14.007  -4.810  1.00 20.00     0.137 C 
HETATM    6  O9  UNL     1     -37.444  13.671  -4.505  1.00 20.00    -0.297 OA
BRANCH   5   7
HETATM    7  C7  UNL     1     -35.999  14.781  -6.085  1.00 20.00     0.079 C 
BRANCH   7   8
HETATM    8  C8  UNL     1     -36.703  16.134  -6.132  1.00 20.00     0.003 C 
HETATM    9  C5  UNL     1     -35.720  17.280  -5.962  1.00 20.00     0.005 C 
ENDBRANCH   7   8
ENDBRANCH   5   7
ENDBRANCH   4   5
ENDBRANCH   2   4
TORSDOF 4
ENDMDL
MODEL 9
REMARK VINA RESULT:      -3.9     15.492     16.225
REMARK  4 active torsions:
REMARK  status: ('A' for Active; 'I' for Inactive)
REMARK    1  A    between atoms: C2_2  and  C6_6 
REMARK    2  A    between atoms: C3_3  and  C6_6 
REMARK    3  A    between atoms: C3_3  and  C7_7 
REMARK    4  A    between atoms: C7_7  and  C8_8 
ROOT
HETATM    1  C1  UNL     1     -25.862  19.169   6.551  1.00 20.00    -0.111 C 
HETATM    2  C2  UNL     1     -25.013  19.092   7.397  1.00 20.00    -0.100 C 
HETATM    3  C4  UNL     1     -26.894  19.263   5.520  1.00 20.00     0.112 C 
ENDROOT
BRANCH   2   4
HETATM    4  C6  UNL     1     -23.981  18.999   8.436  1.00 20.00     0.172 C 
BRANCH   4   5
HETATM    5  C3  UNL     1     -22.915  17.969   8.108  1.00 20.00     0.137 C 
HETATM    6  O9  UNL     1     -22.326  17.947   7.028  1.00 20.00    -0.297 OA
BRANCH   5   7
HETATM    7  C7  UNL     1     -22.622  16.960   9.209  1.00 20.00     0.079 C 
BRANCH   7   8
HETATM    8  C8  UNL     1     -23.545  17.121  10.414  1.00 20.00     0.003 C 
HETATM    9  C5  UNL     1     -22.761  17.423  11.681  1.00 20.00     0.005 C 
ENDBRANCH   7   8
ENDBRANCH   5   7
ENDBRANCH   4   5
ENDBRANCH   2   4
TORSDOF 4
ENDMDL
