MODEL 1
REMARK VINA RESULT:      -3.9      0.000      0.000
REMARK  3 active torsions:
REMARK  status: ('A' for Active; 'I' for Inactive)
REMARK    1  A    between atoms: C1_1  and  C3_3 
REMARK    2  A    between atoms: C2_2  and  C4_4 
REMARK    3  A    between atoms: C4_4  and  S7_7 
ROOT
HETATM    1  C1  UNL     1     -35.579  14.888  -3.963  1.00 20.00     0.081 C 
HETATM    2  C2  UNL     1     -34.267  14.798  -3.706  1.00 20.00    -0.010 C 
ENDROOT
BRANCH   1   3
HETATM    3  C3  UNL     1     -36.413  13.665  -4.371  1.00 20.00     0.198 C 
HETATM    4  O5  UNL     1     -35.794  12.578  -4.537  1.00 20.00    -0.645 OA
HETATM    5  O6  UNL     1     -37.651  13.905  -4.494  1.00 20.00    -0.645 OA
ENDBRANCH   1   3
BRANCH   2   6
HETATM    6  C4  UNL     1     -33.422  15.972  -3.318  1.00 20.00     0.098 C 
BRANCH   6   7
HETATM    7  S7  UNL     1     -34.208  16.886  -1.964  1.00 20.00    -0.178 SA
HETATM    8  H12 UNL     1     -33.364  17.926  -1.982  1.00 20.00     0.101 HD
ENDBRANCH   6   7
ENDBRANCH   2   6
TORSDOF 3
ENDMDL
MODEL 2
REMARK VINA RESULT:      -3.8      0.196      1.236
REMARK  3 active torsions:
REMARK  status: ('A' for Active; 'I' for Inactive)
REMARK    1  A    between atoms: C1_1  and  C3_3 
REMARK    2  A    between atoms: C2_2  and  C4_4 
REMARK    3  A    between atoms: C4_4  and  S7_7 
ROOT
HETATM    1  C1  UNL     1     -35.474  14.879  -4.291  1.00 20.00     0.081 C 
HETATM    2  C2  UNL     1     -34.312  14.809  -3.626  1.00 20.00    -0.010 C 
ENDROOT
BRANCH   1   3
HETATM    3  C3  UNL     1     -36.392  13.658  -4.452  1.00 20.00     0.198 C 
HETATM    4  O5  UNL     1     -37.633  13.879  -4.519  1.00 20.00    -0.645 OA
HETATM    5  O6  UNL     1     -35.775  12.553  -4.499  1.00 20.00    -0.645 OA
ENDBRANCH   1   3
BRANCH   2   6
HETATM    6  C4  UNL     1     -33.387  15.975  -3.463  1.00 20.00     0.098 C 
BRANCH   6   7
HETATM    7  S7  UNL     1     -33.912  16.995  -2.059  1.00 20.00    -0.178 SA
HETATM    8  H12 UNL     1     -34.620  17.878  -2.778  1.00 20.00     0.101 HD
ENDBRANCH   6   7
ENDBRANCH   2   6
TORSDOF 3
ENDMDL
MODEL 3
REMARK VINA RESULT:      -3.7      1.193      1.484
REMARK  3 active torsions:
REMARK  status: ('A' for Active; 'I' for Inactive)
REMARK    1  A    between atoms: C1_1  and  C3_3 
REMARK    2  A    between atoms: C2_2  and  C4_4 
REMARK    3  A    between atoms: C4_4  and  S7_7 
ROOT
HETATM    1  C1  UNL     1     -35.875  14.717  -3.794  1.00 20.00     0.081 C 
HETATM    2  C2  UNL     1     -34.726  15.114  -3.229  1.00 20.00    -0.010 C 
ENDROOT
BRANCH   1   3
HETATM    3  C3  UNL     1     -35.919  13.606  -4.853  1.00 20.00     0.198 C 
HETATM    4  O5  UNL     1     -36.096  13.962  -6.051  1.00 20.00    -0.645 OA
HETATM    5  O6  UNL     1     -35.768  12.440  -4.382  1.00 20.00    -0.645 OA
ENDBRANCH   1   3
BRANCH   2   6
HETATM    6  C4  UNL     1     -34.647  16.201  -2.203  1.00 20.00     0.098 C 
BRANCH   6   7
HETATM    7  S7  UNL     1     -33.141  17.180  -2.447  1.00 20.00    -0.178 SA
HETATM    8  H12 UNL     1     -32.436  16.213  -3.050  1.00 20.00     0.101 HD
ENDBRANCH   6   7
ENDBRANCH   2   6
TORSDOF 3
ENDMDL
MODEL 4
REMARK VINA RESULT:      -3.5     10.778     11.144
REMARK  3 active torsions:
REMARK  status: ('A' for Active; 'I' for Inactive)
REMARK    1  A    between atoms: C1_1  and  C3_3 
REMARK    2  A    between atoms: C2_2  and  C4_4 
REMARK    3  A    between atoms: C4_4  and  S7_7 
ROOT
HETATM    1  C1  UNL     1     -33.350   5.619   2.768  1.00 20.00     0.081 C 
HETATM    2  C2  UNL     1     -33.079   6.928   2.672  1.00 20.00    -0.010 C 
ENDROOT
BRANCH   1   3
HETATM    3  C3  UNL     1     -34.300   5.062   3.838  1.00 20.00     0.198 C 
HETATM    4  O5  UNL     1     -34.964   5.901   4.509  1.00 20.00    -0.645 OA
HETATM    5  O6  UNL     1     -34.301   3.798   3.917  1.00 20.00    -0.645 OA
ENDBRANCH   1   3
BRANCH   2   6
HETATM    6  C4  UNL     1     -32.148   7.502   1.649  1.00 20.00     0.098 C 
BRANCH   6   7
HETATM    7  S7  UNL     1     -32.984   8.806   0.707  1.00 20.00    -0.178 SA
HETATM    8  H12 UNL     1     -32.899   9.747   1.657  1.00 20.00     0.101 HD
ENDBRANCH   6   7
ENDBRANCH   2   6
TORSDOF 3
ENDMDL
MODEL 5
REMARK VINA RESULT:      -3.5     11.331     11.616
REMARK  3 active torsions:
REMARK  status: ('A' for Active; 'I' for Inactive)
REMARK    1  A    between atoms: C1_1  and  C3_3 
REMARK    2  A    between atoms: C2_2  and  C4_4 
REMARK    3  A    between atoms: C4_4  and  S7_7 
ROOT
HETATM    1  C1  UNL     1     -33.701   6.517   4.373  1.00 20.00     0.081 C 
HETATM    2  C2  UNL     1     -33.144   6.366   3.164  1.00 20.00    -0.010 C 
ENDROOT
BRANCH   1   3
HETATM    3  C3  UNL     1     -34.708   5.503   4.936  1.00 20.00     0.198 C 
HETATM    4  O5  UNL     1     -35.130   4.614   4.146  1.00 20.00    -0.645 OA
HETATM    5  O6  UNL     1     -34.997   5.688   6.156  1.00 20.00    -0.645 OA
ENDBRANCH   1   3
BRANCH   2   6
HETATM    6  C4  UNL     1     -32.170   7.342   2.580  1.00 20.00     0.098 C 
BRANCH   6   7
HETATM    7  S7  UNL     1     -32.887   8.144   1.122  1.00 20.00    -0.178 SA
HETATM    8  H12 UNL     1     -31.729   8.328   0.473  1.00 20.00     0.101 HD
ENDBRANCH   6   7
ENDBRANCH   2   6
TORSDOF 3
ENDMDL
MODEL 6
REMARK VINA RESULT:      -3.5     17.804     18.502
REMARK  3 active torsions:
REMARK  status: ('A' for Active; 'I' for Inactive)
REMARK    1  A    between atoms: C1_1  and  C3_3 
REMARK    2  A    between atoms: C2_2  and  C4_4 
REMARK    3  A    between atoms: C4_4  and  S7_7 
ROOT
HETATM    1  C1  UNL     1     -22.484  17.017   9.209  1.00 20.00     0.081 C 
HETATM    2  C2  UNL     1     -22.829  17.935  10.123  1.00 20.00    -0.010 C 
ENDROOT
BRANCH   1   3
HETATM    3  C3  UNL     1     -22.217  17.391   7.743  1.00 20.00     0.198 C 
HETATM    4  O5  UNL     1     -21.363  16.700   7.121  1.00 20.00    -0.645 OA
HETATM    5  O6  UNL     1     -22.904  18.371   7.329  1.00 20.00    -0.645 OA
ENDBRANCH   1   3
BRANCH   2   6
HETATM    6  C4  UNL     1     -23.109  17.603  11.556  1.00 20.00     0.098 C 
BRANCH   6   7
HETATM    7  S7  UNL     1     -24.301  16.241  11.660  1.00 20.00    -0.178 SA
HETATM    8  H12 UNL     1     -25.130  16.841  12.526  1.00 20.00     0.101 HD
ENDBRANCH   6   7
ENDBRANCH   2   6
TORSDOF 3
ENDMDL
MODEL 7
REMARK VINA RESULT:      -3.4     11.221     11.506
REMARK  3 active torsions:
REMARK  status: ('A' for Active; 'I' for Inactive)
REMARK    1  A    between atoms: C1_1  and  C3_3 
REMARK    2  A    between atoms: C2_2  and  C4_4 
REMARK    3  A    between atoms: C4_4  and  S7_7 
ROOT
HETATM    1  C1  UNL     1     -33.656   6.610   4.373  1.00 20.00     0.081 C 
HETATM    2  C2  UNL     1     -33.222   6.482   3.111  1.00 20.00    -0.010 C 
ENDROOT
BRANCH   1   3
HETATM    3  C3  UNL     1     -34.751   5.701   4.951  1.00 20.00     0.198 C 
HETATM    4  O5  UNL     1     -34.753   5.528   6.201  1.00 20.00    -0.645 OA
HETATM    5  O6  UNL     1     -35.538   5.226   4.079  1.00 20.00    -0.645 OA
ENDBRANCH   1   3
BRANCH   2   6
HETATM    6  C4  UNL     1     -32.167   7.359   2.513  1.00 20.00     0.098 C 
BRANCH   6   7
HETATM    7  S7  UNL     1     -32.823   8.227   1.063  1.00 20.00    -0.178 SA
HETATM    8  H12 UNL     1     -33.202   7.128   0.396  1.00 20.00     0.101 HD
ENDBRANCH   6   7
ENDBRANCH   2   6
TORSDOF 3
ENDMDL
MODEL 8
REMARK VINA RESULT:      -3.3      1.676      2.278
REMARK  3 active torsions:
REMARK  status: ('A' for Active; 'I' for Inactive)
REMARK    1  A    between atoms: C1_1  and  C3_3 
REMARK    2  A    between atoms: C2_2  and  C4_4 
REMARK    3  A    between atoms: C4_4  and  S7_7 
ROOT
HETATM    1  C1  UNL     1     -34.749  15.204  -3.096  1.00 20.00     0.081 C 
HETATM    2  C2  UNL     1     -33.788  16.082  -2.775  1.00 20.00    -0.010 C 
ENDROOT
BRANCH   1   3
HETATM    3  C3  UNL     1     -34.498  14.045  -4.072  1.00 20.00     0.198 C 
HETATM    4  O5  UNL     1     -35.450  13.238  -4.262  1.00 20.00    -0.645 OA
HETATM    5  O6  UNL     1     -33.338  14.043  -4.580  1.00 20.00    -0.645 OA
ENDBRANCH   1   3
BRANCH   2   6
HETATM    6  C4  UNL     1     -34.002  17.229  -1.837  1.00 20.00     0.098 C 
BRANCH   6   7
HETATM    7  S7  UNL     1     -32.441  18.105  -1.556  1.00 20.00    -0.178 SA
HETATM    8  H12 UNL     1     -32.865  19.300  -1.990  1.00 20.00     0.101 HD
ENDBRANCH   6   7
ENDBRANCH   2   6
TORSDOF 3
ENDMDL
MODEL 9
REMARK VINA RESULT:      -3.3     11.280     11.792
REMARK  3 active torsions:
REMARK  status: ('A' for Active; 'I' for Inactive)
REMARK    1  A    between atoms: C1_1  and  C3_3 
REMARK    2  A    between atoms: C2_2  and  C4_4 
REMARK    3  A    between atoms: C4_4  and  S7_7 
ROOT
HETATM    1  C1  UNL     1     -33.429   6.626   3.617  1.00 20.00     0.081 C 
HETATM    2  C2  UNL     1     -33.840   5.370   3.393  1.00 20.00    -0.010 C 
ENDROOT
BRANCH   1   3
HETATM    3  C3  UNL     1     -32.381   7.309   2.726  1.00 20.00     0.198 C 
HETATM    4  O5  UNL     1     -32.682   7.475   1.511  1.00 20.00    -0.645 OA
HETATM    5  O6  UNL     1     -31.318   7.630   3.335  1.00 20.00    -0.645 OA
ENDBRANCH   1   3
BRANCH   2   6
HETATM    6  C4  UNL     1     -34.850   4.670   4.250  1.00 20.00     0.098 C 
BRANCH   6   7
HETATM    7  S7  UNL     1     -34.797   5.326   5.939  1.00 20.00    -0.178 SA
HETATM    8  H12 UNL     1     -33.539   5.785   5.876  1.00 20.00     0.101 HD
ENDBRANCH   6   7
ENDBRANCH   2   6
TORSDOF 3
ENDMDL
