MODEL 1
REMARK VINA RESULT:      -4.4      0.000      0.000
REMARK  3 active torsions:
REMARK  status: ('A' for Active; 'I' for Inactive)
REMARK    1  A    between atoms: C6_6  and  N10_10 
REMARK    2  A    between atoms: C7_7  and  C8_8 
REMARK    3  A    between atoms: C8_8  and  N10_10 
ROOT
HETATM    1  C1  UNL     1     -25.579  19.210   6.788  1.00 20.00     0.013 C 
HETATM    2  C2  UNL     1     -25.377  19.153   7.970  1.00 20.00    -0.087 C 
HETATM    3  C6  UNL     1     -25.136  19.083   9.414  1.00 20.00     0.364 C 
ENDROOT
BRANCH   3   4
HETATM    4  N10 UNL     1     -23.705  19.053   9.696  1.00 20.00     0.117 N 
HETATM    5  H22 UNL     1     -23.504  19.702  10.459  1.00 20.00     0.319 HD
BRANCH   4   6
HETATM    6  C8  UNL     1     -23.272  17.719  10.066  1.00 20.00     0.241 C 
HETATM    7  C3  UNL     1     -22.573  17.101   8.920  1.00 20.00     0.101 C 
HETATM    8  N9  UNL     1     -22.022  16.614   8.022  1.00 20.00    -0.195 NA
HETATM    9  C5  UNL     1     -22.291  17.835  11.243  1.00 20.00     0.066 C 
BRANCH   6  10
HETATM   10  C7  UNL     1     -24.480  16.858  10.497  1.00 20.00     0.052 C 
HETATM   11  C4  UNL     1     -24.208  15.911  11.664  1.00 20.00     0.009 C 
ENDBRANCH   6  10
ENDBRANCH   4   6
ENDBRANCH   3   4
TORSDOF 3
ENDMDL
MODEL 2
REMARK VINA RESULT:      -4.2     15.415     17.695
REMARK  3 active torsions:
REMARK  status: ('A' for Active; 'I' for Inactive)
REMARK    1  A    between atoms: C6_6  and  N10_10 
REMARK    2  A    between atoms: C7_7  and  C8_8 
REMARK    3  A    between atoms: C8_8  and  N10_10 
ROOT
HETATM    1  C1  UNL     1     -35.472  17.385   0.516  1.00 20.00     0.013 C 
HETATM    2  C2  UNL     1     -35.221  16.930  -0.567  1.00 20.00    -0.087 C 
HETATM    3  C6  UNL     1     -34.911  16.374  -1.886  1.00 20.00     0.364 C 
ENDROOT
BRANCH   3   4
HETATM    4  N10 UNL     1     -36.135  16.090  -2.626  1.00 20.00     0.117 N 
HETATM    5  H22 UNL     1     -36.596  16.972  -2.857  1.00 20.00     0.319 HD
BRANCH   4   6
HETATM    6  C8  UNL     1     -35.852  15.357  -3.846  1.00 20.00     0.241 C 
HETATM    7  C3  UNL     1     -37.018  14.516  -4.188  1.00 20.00     0.101 C 
HETATM    8  N9  UNL     1     -37.933  13.856  -4.459  1.00 20.00    -0.195 NA
HETATM    9  C5  UNL     1     -35.620  16.369  -4.978  1.00 20.00     0.066 C 
BRANCH   6  10
HETATM   10  C7  UNL     1     -34.585  14.490  -3.674  1.00 20.00     0.052 C 
HETATM   11  C4  UNL     1     -33.517  14.696  -4.747  1.00 20.00     0.009 C 
ENDBRANCH   6  10
ENDBRANCH   4   6
ENDBRANCH   3   4
TORSDOF 3
ENDMDL
MODEL 3
REMARK VINA RESULT:      -4.0     16.199     18.168
REMARK  3 active torsions:
REMARK  status: ('A' for Active; 'I' for Inactive)
REMARK    1  A    between atoms: C6_6  and  N10_10 
REMARK    2  A    between atoms: C7_7  and  C8_8 
REMARK    3  A    between atoms: C8_8  and  N10_10 
ROOT
HETATM    1  C1  UNL     1     -34.116  17.827  -7.890  1.00 20.00     0.013 C 
HETATM    2  C2  UNL     1     -34.332  16.848  -7.230  1.00 20.00    -0.087 C 
HETATM    3  C6  UNL     1     -34.594  15.649  -6.429  1.00 20.00     0.364 C 
ENDROOT
BRANCH   3   4
HETATM    4  N10 UNL     1     -35.071  16.013  -5.099  1.00 20.00     0.117 N 
HETATM    5  H22 UNL     1     -36.093  16.040  -5.110  1.00 20.00     0.319 HD
BRANCH   4   6
HETATM    6  C8  UNL     1     -34.621  15.061  -4.102  1.00 20.00     0.241 C 
HETATM    7  C3  UNL     1     -35.323  13.777  -4.304  1.00 20.00     0.101 C 
HETATM    8  N9  UNL     1     -35.872  12.767  -4.463  1.00 20.00    -0.195 NA
HETATM    9  C5  UNL     1     -33.113  14.838  -4.288  1.00 20.00     0.066 C 
BRANCH   6  10
HETATM   10  C7  UNL     1     -34.880  15.606  -2.679  1.00 20.00     0.052 C 
HETATM   11  C4  UNL     1     -33.879  16.656  -2.203  1.00 20.00     0.009 C 
ENDBRANCH   6  10
ENDBRANCH   4   6
ENDBRANCH   3   4
TORSDOF 3
ENDMDL
MODEL 4
REMARK VINA RESULT:      -4.0     15.904     18.338
REMARK  3 active torsions:
REMARK  status: ('A' for Active; 'I' for Inactive)
REMARK    1  A    between atoms: C6_6  and  N10_10 
REMARK    2  A    between atoms: C7_7  and  C8_8 
REMARK    3  A    between atoms: C8_8  and  N10_10 
ROOT
HETATM    1  C1  UNL     1     -32.974  17.445  -1.943  1.00 20.00     0.013 C 
HETATM    2  C2  UNL     1     -33.653  16.578  -2.421  1.00 20.00    -0.087 C 
HETATM    3  C6  UNL     1     -34.480  15.517  -3.001  1.00 20.00     0.364 C 
ENDROOT
BRANCH   3   4
HETATM    4  N10 UNL     1     -35.343  16.050  -4.048  1.00 20.00     0.117 N 
HETATM    5  H22 UNL     1     -34.992  16.966  -4.333  1.00 20.00     0.319 HD
BRANCH   4   6
HETATM    6  C8  UNL     1     -35.382  15.166  -5.197  1.00 20.00     0.241 C 
HETATM    7  C3  UNL     1     -35.801  13.818  -4.759  1.00 20.00     0.101 C 
HETATM    8  N9  UNL     1     -36.131  12.760  -4.417  1.00 20.00    -0.195 NA
HETATM    9  C5  UNL     1     -36.417  15.709  -6.194  1.00 20.00     0.066 C 
BRANCH   6  10
HETATM   10  C7  UNL     1     -33.998  15.111  -5.884  1.00 20.00     0.052 C 
HETATM   11  C4  UNL     1     -34.029  15.281  -7.401  1.00 20.00     0.009 C 
ENDBRANCH   6  10
ENDBRANCH   4   6
ENDBRANCH   3   4
TORSDOF 3
ENDMDL
MODEL 5
REMARK VINA RESULT:      -4.0     16.055     18.461
REMARK  3 active torsions:
REMARK  status: ('A' for Active; 'I' for Inactive)
REMARK    1  A    between atoms: C6_6  and  N10_10 
REMARK    2  A    between atoms: C7_7  and  C8_8 
REMARK    3  A    between atoms: C8_8  and  N10_10 
ROOT
HETATM    1  C1  UNL     1     -33.216  17.425  -2.051  1.00 20.00     0.013 C 
HETATM    2  C2  UNL     1     -33.884  16.484  -2.384  1.00 20.00    -0.087 C 
HETATM    3  C6  UNL     1     -34.696  15.334  -2.791  1.00 20.00     0.364 C 
ENDROOT
BRANCH   3   4
HETATM    4  N10 UNL     1     -36.071  15.742  -3.055  1.00 20.00     0.117 N 
HETATM    5  H22 UNL     1     -36.124  16.762  -3.039  1.00 20.00     0.319 HD
BRANCH   4   6
HETATM    6  C8  UNL     1     -36.525  15.252  -4.342  1.00 20.00     0.241 C 
HETATM    7  C3  UNL     1     -36.171  13.823  -4.471  1.00 20.00     0.101 C 
HETATM    8  N9  UNL     1     -35.896  12.701  -4.572  1.00 20.00    -0.195 NA
HETATM    9  C5  UNL     1     -38.053  15.393  -4.405  1.00 20.00     0.066 C 
BRANCH   6  10
HETATM   10  C7  UNL     1     -35.893  16.075  -5.488  1.00 20.00     0.052 C 
HETATM   11  C4  UNL     1     -36.061  15.470  -6.880  1.00 20.00     0.009 C 
ENDBRANCH   6  10
ENDBRANCH   4   6
ENDBRANCH   3   4
TORSDOF 3
ENDMDL
MODEL 6
REMARK VINA RESULT:      -3.9      2.037      2.493
REMARK  3 active torsions:
REMARK  status: ('A' for Active; 'I' for Inactive)
REMARK    1  A    between atoms: C6_6  and  N10_10 
REMARK    2  A    between atoms: C7_7  and  C8_8 
REMARK    3  A    between atoms: C8_8  and  N10_10 
ROOT
HETATM    1  C1  UNL     1     -26.031  19.087   6.638  1.00 20.00     0.013 C 
HETATM    2  C2  UNL     1     -25.462  19.060   7.695  1.00 20.00    -0.087 C 
HETATM    3  C6  UNL     1     -24.766  19.032   8.984  1.00 20.00     0.364 C 
ENDROOT
BRANCH   3   4
HETATM    4  N10 UNL     1     -24.812  17.695   9.565  1.00 20.00     0.117 N 
HETATM    5  H22 UNL     1     -24.148  17.096   9.072  1.00 20.00     0.319 HD
BRANCH   4   6
HETATM    6  C8  UNL     1     -24.482  17.726  10.977  1.00 20.00     0.241 C 
HETATM    7  C3  UNL     1     -24.682  16.380  11.552  1.00 20.00     0.101 C 
HETATM    8  N9  UNL     1     -24.837  15.323  12.005  1.00 20.00    -0.195 NA
HETATM    9  C5  UNL     1     -23.003  18.114  11.122  1.00 20.00     0.066 C 
BRANCH   6  10
HETATM   10  C7  UNL     1     -25.353  18.769  11.714  1.00 20.00     0.052 C 
HETATM   11  C4  UNL     1     -26.752  18.284  12.090  1.00 20.00     0.009 C 
ENDBRANCH   6  10
ENDBRANCH   4   6
ENDBRANCH   3   4
TORSDOF 3
ENDMDL
MODEL 7
REMARK VINA RESULT:      -3.9     16.466     18.619
REMARK  3 active torsions:
REMARK  status: ('A' for Active; 'I' for Inactive)
REMARK    1  A    between atoms: C6_6  and  N10_10 
REMARK    2  A    between atoms: C7_7  and  C8_8 
REMARK    3  A    between atoms: C8_8  and  N10_10 
ROOT
HETATM    1  C1  UNL     1     -40.022  15.312  -4.188  1.00 20.00     0.013 C 
HETATM    2  C2  UNL     1     -38.937  15.826  -4.179  1.00 20.00    -0.087 C 
HETATM    3  C6  UNL     1     -37.614  16.456  -4.171  1.00 20.00     0.364 C 
ENDROOT
BRANCH   3   4
HETATM    4  N10 UNL     1     -36.723  15.771  -3.242  1.00 20.00     0.117 N 
HETATM    5  H22 UNL     1     -37.218  14.979  -2.829  1.00 20.00     0.319 HD
BRANCH   4   6
HETATM    6  C8  UNL     1     -35.527  15.299  -3.914  1.00 20.00     0.241 C 
HETATM    7  C3  UNL     1     -35.693  13.870  -4.254  1.00 20.00     0.101 C 
HETATM    8  N9  UNL     1     -35.823  12.749  -4.523  1.00 20.00    -0.195 NA
HETATM    9  C5  UNL     1     -35.350  16.101  -5.212  1.00 20.00     0.066 C 
BRANCH   6  10
HETATM   10  C7  UNL     1     -34.285  15.505  -3.018  1.00 20.00     0.052 C 
HETATM   11  C4  UNL     1     -34.454  16.555  -1.921  1.00 20.00     0.009 C 
ENDBRANCH   6  10
ENDBRANCH   4   6
ENDBRANCH   3   4
TORSDOF 3
ENDMDL
MODEL 8
REMARK VINA RESULT:      -3.9     16.210     18.375
REMARK  3 active torsions:
REMARK  status: ('A' for Active; 'I' for Inactive)
REMARK    1  A    between atoms: C6_6  and  N10_10 
REMARK    2  A    between atoms: C7_7  and  C8_8 
REMARK    3  A    between atoms: C8_8  and  N10_10 
ROOT
HETATM    1  C1  UNL     1     -36.638  16.762  -7.918  1.00 20.00     0.013 C 
HETATM    2  C2  UNL     1     -35.789  16.281  -7.218  1.00 20.00    -0.087 C 
HETATM    3  C6  UNL     1     -34.750  15.693  -6.369  1.00 20.00     0.364 C 
ENDROOT
BRANCH   3   4
HETATM    4  N10 UNL     1     -34.912  16.122  -4.985  1.00 20.00     0.117 N 
HETATM    5  H22 UNL     1     -35.887  16.387  -4.831  1.00 20.00     0.319 HD
BRANCH   4   6
HETATM    6  C8  UNL     1     -34.545  15.065  -4.062  1.00 20.00     0.241 C 
HETATM    7  C3  UNL     1     -35.441  13.909  -4.266  1.00 20.00     0.101 C 
HETATM    8  N9  UNL     1     -36.143  12.999  -4.426  1.00 20.00    -0.195 NA
HETATM    9  C5  UNL     1     -33.102  14.635  -4.364  1.00 20.00     0.066 C 
BRANCH   6  10
HETATM   10  C7  UNL     1     -34.628  15.569  -2.603  1.00 20.00     0.052 C 
HETATM   11  C4  UNL     1     -33.662  16.701  -2.259  1.00 20.00     0.009 C 
ENDBRANCH   6  10
ENDBRANCH   4   6
ENDBRANCH   3   4
TORSDOF 3
ENDMDL
MODEL 9
REMARK VINA RESULT:      -3.9     15.948     17.682
REMARK  3 active torsions:
REMARK  status: ('A' for Active; 'I' for Inactive)
REMARK    1  A    between atoms: C6_6  and  N10_10 
REMARK    2  A    between atoms: C7_7  and  C8_8 
REMARK    3  A    between atoms: C8_8  and  N10_10 
ROOT
HETATM    1  C1  UNL     1     -35.393  16.969  -0.837  1.00 20.00     0.013 C 
HETATM    2  C2  UNL     1     -34.646  16.644  -1.719  1.00 20.00    -0.087 C 
HETATM    3  C6  UNL     1     -33.730  16.246  -2.791  1.00 20.00     0.364 C 
ENDROOT
BRANCH   3   4
HETATM    4  N10 UNL     1     -34.420  16.225  -4.076  1.00 20.00     0.117 N 
HETATM    5  H22 UNL     1     -34.022  16.948  -4.678  1.00 20.00     0.319 HD
BRANCH   4   6
HETATM    6  C8  UNL     1     -34.290  14.932  -4.720  1.00 20.00     0.241 C 
HETATM    7  C3  UNL     1     -34.431  15.100  -6.181  1.00 20.00     0.101 C 
HETATM    8  N9  UNL     1     -34.541  15.231  -7.328  1.00 20.00    -0.195 NA
HETATM    9  C5  UNL     1     -32.890  14.376  -4.417  1.00 20.00     0.066 C 
BRANCH   6  10
HETATM   10  C7  UNL     1     -35.352  13.948  -4.178  1.00 20.00     0.052 C 
HETATM   11  C4  UNL     1     -36.782  14.484  -4.182  1.00 20.00     0.009 C 
ENDBRANCH   6  10
ENDBRANCH   4   6
ENDBRANCH   3   4
TORSDOF 3
ENDMDL
