MODEL 1
REMARK VINA RESULT:      -4.1      0.000      0.000
REMARK  2 active torsions:
REMARK  status: ('A' for Active; 'I' for Inactive)
REMARK    1  A    between atoms: C1_1  and  C3_3 
REMARK    2  A    between atoms: C2_2  and  C4_4 
ROOT
HETATM    1  C1  UNL     1     -34.226   4.754   3.399  1.00 20.00    -0.015 C 
HETATM    2  C2  UNL     1     -33.197   5.394   2.825  1.00 20.00    -0.015 C 
ENDROOT
BRANCH   1   3
HETATM    3  C3  UNL     1     -35.175   5.401   4.354  1.00 20.00     0.141 C 
HETATM    4 CL5  UNL     1     -34.607   5.169   6.021  1.00 20.00    -0.126 Cl
ENDBRANCH   1   3
BRANCH   2   5
HETATM    5  C4  UNL     1     -32.876   6.832   3.070  1.00 20.00     0.141 C 
HETATM    6 CL6  UNL     1     -32.482   7.635   1.536  1.00 20.00    -0.126 Cl
ENDBRANCH   2   5
TORSDOF 2
ENDMDL
MODEL 2
REMARK VINA RESULT:      -4.1      0.029      3.712
REMARK  2 active torsions:
REMARK  status: ('A' for Active; 'I' for Inactive)
REMARK    1  A    between atoms: C1_1  and  C3_3 
REMARK    2  A    between atoms: C2_2  and  C4_4 
ROOT
HETATM    1  C1  UNL     1     -33.199   5.391   2.849  1.00 20.00    -0.015 C 
HETATM    2  C2  UNL     1     -34.223   4.742   3.421  1.00 20.00    -0.015 C 
ENDROOT
BRANCH   1   3
HETATM    3  C3  UNL     1     -32.889   6.831   3.096  1.00 20.00     0.141 C 
HETATM    4 CL5  UNL     1     -32.498   7.637   1.563  1.00 20.00    -0.126 Cl
ENDBRANCH   1   3
BRANCH   2   5
HETATM    5  C4  UNL     1     -35.178   5.381   4.376  1.00 20.00     0.141 C 
HETATM    6 CL6  UNL     1     -34.589   5.191   6.040  1.00 20.00    -0.126 Cl
ENDBRANCH   2   5
TORSDOF 2
ENDMDL
MODEL 3
REMARK VINA RESULT:      -3.7      1.370      1.820
REMARK  2 active torsions:
REMARK  status: ('A' for Active; 'I' for Inactive)
REMARK    1  A    between atoms: C1_1  and  C3_3 
REMARK    2  A    between atoms: C2_2  and  C4_4 
ROOT
HETATM    1  C1  UNL     1     -35.275   5.206   4.765  1.00 20.00    -0.015 C 
HETATM    2  C2  UNL     1     -34.816   5.047   3.515  1.00 20.00    -0.015 C 
ENDROOT
BRANCH   1   3
HETATM    3  C3  UNL     1     -34.391   5.336   5.962  1.00 20.00     0.141 C 
HETATM    4 CL5  UNL     1     -33.804   7.006   6.102  1.00 20.00    -0.126 Cl
ENDBRANCH   1   3
BRANCH   2   5
HETATM    5  C4  UNL     1     -33.365   4.983   3.169  1.00 20.00     0.141 C 
HETATM    6 CL6  UNL     1     -32.775   6.599   2.728  1.00 20.00    -0.126 Cl
ENDBRANCH   2   5
TORSDOF 2
ENDMDL
MODEL 4
REMARK VINA RESULT:      -3.4      1.612      2.188
REMARK  2 active torsions:
REMARK  status: ('A' for Active; 'I' for Inactive)
REMARK    1  A    between atoms: C1_1  and  C3_3 
REMARK    2  A    between atoms: C2_2  and  C4_4 
ROOT
HETATM    1  C1  UNL     1     -32.897   6.511   3.330  1.00 20.00    -0.015 C 
HETATM    2  C2  UNL     1     -32.417   7.545   2.623  1.00 20.00    -0.015 C 
ENDROOT
BRANCH   1   3
HETATM    3  C3  UNL     1     -33.526   5.307   2.711  1.00 20.00     0.141 C 
HETATM    4 CL5  UNL     1     -34.438   4.402   3.937  1.00 20.00    -0.126 Cl
ENDBRANCH   1   3
BRANCH   2   5
HETATM    5  C4  UNL     1     -32.452   7.616   1.132  1.00 20.00     0.141 C 
HETATM    6 CL6  UNL     1     -32.926   9.247   0.614  1.00 20.00    -0.126 Cl
ENDBRANCH   2   5
TORSDOF 2
ENDMDL
MODEL 5
REMARK VINA RESULT:      -3.4      1.607      4.236
REMARK  2 active torsions:
REMARK  status: ('A' for Active; 'I' for Inactive)
REMARK    1  A    between atoms: C1_1  and  C3_3 
REMARK    2  A    between atoms: C2_2  and  C4_4 
ROOT
HETATM    1  C1  UNL     1     -32.395   7.543   2.597  1.00 20.00    -0.015 C 
HETATM    2  C2  UNL     1     -32.873   6.515   3.314  1.00 20.00    -0.015 C 
ENDROOT
BRANCH   1   3
HETATM    3  C3  UNL     1     -32.462   7.614   1.107  1.00 20.00     0.141 C 
HETATM    4 CL5  UNL     1     -32.955   9.243   0.600  1.00 20.00    -0.126 Cl
ENDBRANCH   1   3
BRANCH   2   5
HETATM    5  C4  UNL     1     -33.532   5.319   2.710  1.00 20.00     0.141 C 
HETATM    6 CL6  UNL     1     -34.456   4.445   3.949  1.00 20.00    -0.126 Cl
ENDBRANCH   2   5
TORSDOF 2
ENDMDL
MODEL 6
REMARK VINA RESULT:      -3.4      1.082      1.510
REMARK  2 active torsions:
REMARK  status: ('A' for Active; 'I' for Inactive)
REMARK    1  A    between atoms: C1_1  and  C3_3 
REMARK    2  A    between atoms: C2_2  and  C4_4 
ROOT
HETATM    1  C1  UNL     1     -33.417   6.926   4.652  1.00 20.00    -0.015 C 
HETATM    2  C2  UNL     1     -32.578   7.316   3.681  1.00 20.00    -0.015 C 
ENDROOT
BRANCH   1   3
HETATM    3  C3  UNL     1     -34.500   5.916   4.454  1.00 20.00     0.141 C 
HETATM    4 CL5  UNL     1     -34.875   5.120   5.996  1.00 20.00    -0.126 Cl
ENDBRANCH   1   3
BRANCH   2   5
HETATM    5  C4  UNL     1     -32.624   6.786   2.285  1.00 20.00     0.141 C 
HETATM    6 CL6  UNL     1     -32.627   8.132   1.127  1.00 20.00    -0.126 Cl
ENDBRANCH   2   5
TORSDOF 2
ENDMDL
MODEL 7
REMARK VINA RESULT:      -3.4      1.084      4.116
REMARK  2 active torsions:
REMARK  status: ('A' for Active; 'I' for Inactive)
REMARK    1  A    between atoms: C1_1  and  C3_3 
REMARK    2  A    between atoms: C2_2  and  C4_4 
ROOT
HETATM    1  C1  UNL     1     -32.578   7.311   3.679  1.00 20.00    -0.015 C 
HETATM    2  C2  UNL     1     -33.418   6.917   4.648  1.00 20.00    -0.015 C 
ENDROOT
BRANCH   1   3
HETATM    3  C3  UNL     1     -32.631   6.796   2.278  1.00 20.00     0.141 C 
HETATM    4 CL5  UNL     1     -32.644   8.154   1.134  1.00 20.00    -0.126 Cl
ENDBRANCH   1   3
BRANCH   2   5
HETATM    5  C4  UNL     1     -34.508   5.918   4.442  1.00 20.00     0.141 C 
HETATM    6 CL6  UNL     1     -34.880   5.103   5.976  1.00 20.00    -0.126 Cl
ENDBRANCH   2   5
TORSDOF 2
ENDMDL
MODEL 8
REMARK VINA RESULT:      -3.3      1.847      3.664
REMARK  2 active torsions:
REMARK  status: ('A' for Active; 'I' for Inactive)
REMARK    1  A    between atoms: C1_1  and  C3_3 
REMARK    2  A    between atoms: C2_2  and  C4_4 
ROOT
HETATM    1  C1  UNL     1     -33.640   6.859   5.384  1.00 20.00    -0.015 C 
HETATM    2  C2  UNL     1     -34.403   5.879   5.889  1.00 20.00    -0.015 C 
ENDROOT
BRANCH   1   3
HETATM    3  C3  UNL     1     -33.547   7.168   3.926  1.00 20.00     0.141 C 
HETATM    4 CL5  UNL     1     -31.848   7.393   3.461  1.00 20.00    -0.126 Cl
ENDBRANCH   1   3
BRANCH   2   5
HETATM    5  C4  UNL     1     -35.253   4.979   5.054  1.00 20.00     0.141 C 
HETATM    6 CL6  UNL     1     -34.227   3.965   4.017  1.00 20.00    -0.126 Cl
ENDBRANCH   2   5
TORSDOF 2
ENDMDL
MODEL 9
REMARK VINA RESULT:      -3.1      1.661      3.626
REMARK  2 active torsions:
REMARK  status: ('A' for Active; 'I' for Inactive)
REMARK    1  A    between atoms: C1_1  and  C3_3 
REMARK    2  A    between atoms: C2_2  and  C4_4 
ROOT
HETATM    1  C1  UNL     1     -32.644   7.040   3.613  1.00 20.00    -0.015 C 
HETATM    2  C2  UNL     1     -33.428   6.917   4.694  1.00 20.00    -0.015 C 
ENDROOT
BRANCH   1   3
HETATM    3  C3  UNL     1     -32.966   6.440   2.284  1.00 20.00     0.141 C 
HETATM    4 CL5  UNL     1     -33.008   4.669   2.413  1.00 20.00    -0.126 Cl
ENDBRANCH   1   3
BRANCH   2   5
HETATM    5  C4  UNL     1     -34.719   6.167   4.698  1.00 20.00     0.141 C 
HETATM    6 CL6  UNL     1     -34.784   5.079   6.101  1.00 20.00    -0.126 Cl
ENDBRANCH   2   5
TORSDOF 2
ENDMDL
