MODEL 1
REMARK VINA RESULT:      -4.8      0.000      0.000
REMARK  1 active torsions:
REMARK  status: ('A' for Active; 'I' for Inactive)
REMARK    1  A    between atoms: C1_1  and  C6_6 
ROOT
HETATM    1  C2  UNL     1     -35.155  15.557  -2.666  1.00 20.00     0.021 C 
HETATM    2  C3  UNL     1     -34.059  14.686  -4.851  1.00 20.00     0.027 A 
HETATM    3  C4  UNL     1     -34.272  16.596  -2.002  1.00 20.00     0.075 C 
HETATM    4  C5  UNL     1     -34.865  17.140  -4.571  1.00 20.00     0.084 C 
HETATM    5  C6  UNL     1     -35.541  14.695  -5.127  1.00 20.00     0.097 A 
HETATM    6  C7  UNL     1     -34.941  15.694  -4.152  1.00 20.00    -0.017 A 
HETATM    7  S10 UNL     1     -34.433  18.056  -3.058  1.00 20.00    -0.168 SA
ENDROOT
BRANCH   5   8
HETATM    8  C1  UNL     1     -36.328  13.593  -4.610  1.00 20.00     0.177 C 
HETATM    9  O8  UNL     1     -37.557  13.836  -4.453  1.00 20.00    -0.648 OA
HETATM   10  O9  UNL     1     -35.677  12.536  -4.385  1.00 20.00    -0.648 OA
ENDBRANCH   5   8
TORSDOF 1
ENDMDL
MODEL 2
REMARK VINA RESULT:      -4.8      0.007      1.023
REMARK  1 active torsions:
REMARK  status: ('A' for Active; 'I' for Inactive)
REMARK    1  A    between atoms: C1_1  and  C6_6 
ROOT
HETATM    1  C2  UNL     1     -35.155  15.557  -2.667  1.00 20.00     0.021 C 
HETATM    2  C3  UNL     1     -34.062  14.687  -4.854  1.00 20.00     0.027 A 
HETATM    3  C4  UNL     1     -34.273  16.598  -2.005  1.00 20.00     0.075 C 
HETATM    4  C5  UNL     1     -34.874  17.139  -4.573  1.00 20.00     0.084 C 
HETATM    5  C6  UNL     1     -35.544  14.691  -5.127  1.00 20.00     0.097 A 
HETATM    6  C7  UNL     1     -34.945  15.694  -4.153  1.00 20.00    -0.017 A 
HETATM    7  S10 UNL     1     -34.441  18.058  -3.062  1.00 20.00    -0.168 SA
ENDROOT
BRANCH   5   8
HETATM    8  C1  UNL     1     -36.327  13.588  -4.607  1.00 20.00     0.177 C 
HETATM    9  O8  UNL     1     -35.679  12.531  -4.372  1.00 20.00    -0.648 OA
HETATM   10  O9  UNL     1     -37.556  13.835  -4.458  1.00 20.00    -0.648 OA
ENDBRANCH   5   8
TORSDOF 1
ENDMDL
MODEL 3
REMARK VINA RESULT:      -4.5      1.335      1.901
REMARK  1 active torsions:
REMARK  status: ('A' for Active; 'I' for Inactive)
REMARK    1  A    between atoms: C1_1  and  C6_6 
ROOT
HETATM    1  C2  UNL     1     -33.878  15.458  -3.921  1.00 20.00     0.021 C 
HETATM    2  C3  UNL     1     -36.291  16.102  -4.627  1.00 20.00     0.027 A 
HETATM    3  C4  UNL     1     -33.129  16.673  -3.407  1.00 20.00     0.075 C 
HETATM    4  C5  UNL     1     -35.474  16.223  -2.164  1.00 20.00     0.084 C 
HETATM    5  C6  UNL     1     -36.403  14.710  -4.060  1.00 20.00     0.097 A 
HETATM    6  C7  UNL     1     -35.326  15.657  -3.553  1.00 20.00    -0.017 A 
HETATM    7  S10 UNL     1     -33.871  17.001  -1.790  1.00 20.00    -0.168 SA
ENDROOT
BRANCH   5   8
HETATM    8  C1  UNL     1     -36.019  13.602  -4.913  1.00 20.00     0.177 C 
HETATM    9  O8  UNL     1     -35.754  12.525  -4.311  1.00 20.00    -0.648 OA
HETATM   10  O9  UNL     1     -36.002  13.866  -6.148  1.00 20.00    -0.648 OA
ENDBRANCH   5   8
TORSDOF 1
ENDMDL
MODEL 4
REMARK VINA RESULT:      -4.2      1.234      1.575
REMARK  1 active torsions:
REMARK  status: ('A' for Active; 'I' for Inactive)
REMARK    1  A    between atoms: C1_1  and  C6_6 
ROOT
HETATM    1  C2  UNL     1     -35.638  16.021  -2.793  1.00 20.00     0.021 C 
HETATM    2  C3  UNL     1     -34.819  13.776  -3.804  1.00 20.00     0.027 A 
HETATM    3  C4  UNL     1     -34.710  16.479  -1.684  1.00 20.00     0.075 C 
HETATM    4  C5  UNL     1     -33.467  15.984  -4.021  1.00 20.00     0.084 C 
HETATM    5  C6  UNL     1     -35.410  14.539  -4.962  1.00 20.00     0.097 A 
HETATM    6  C7  UNL     1     -34.784  15.286  -3.795  1.00 20.00    -0.017 A 
HETATM    7  S10 UNL     1     -33.220  17.029  -2.551  1.00 20.00    -0.168 SA
ENDROOT
BRANCH   5   8
HETATM    8  C1  UNL     1     -36.853  14.537  -5.103  1.00 20.00     0.177 C 
HETATM    9  O8  UNL     1     -37.455  13.627  -4.469  1.00 20.00    -0.648 OA
HETATM   10  O9  UNL     1     -37.313  15.450  -5.844  1.00 20.00    -0.648 OA
ENDBRANCH   5   8
TORSDOF 1
ENDMDL
MODEL 5
REMARK VINA RESULT:      -4.2      1.640      2.285
REMARK  1 active torsions:
REMARK  status: ('A' for Active; 'I' for Inactive)
REMARK    1  A    between atoms: C1_1  and  C6_6 
ROOT
HETATM    1  C2  UNL     1     -33.248  16.259  -3.077  1.00 20.00     0.021 C 
HETATM    2  C3  UNL     1     -35.637  16.405  -4.081  1.00 20.00     0.027 A 
HETATM    3  C4  UNL     1     -32.859  17.572  -2.428  1.00 20.00     0.075 C 
HETATM    4  C5  UNL     1     -35.180  16.547  -1.527  1.00 20.00     0.084 C 
HETATM    5  C6  UNL     1     -35.504  14.989  -3.580  1.00 20.00     0.097 A 
HETATM    6  C7  UNL     1     -34.738  16.114  -2.901  1.00 20.00    -0.017 A 
HETATM    7  S10 UNL     1     -33.850  17.630  -0.915  1.00 20.00    -0.168 SA
ENDROOT
BRANCH   5   8
HETATM    8  C1  UNL     1     -34.780  14.047  -4.410  1.00 20.00     0.177 C 
HETATM    9  O8  UNL     1     -34.459  12.966  -3.843  1.00 20.00    -0.648 OA
HETATM   10  O9  UNL     1     -34.568  14.436  -5.592  1.00 20.00    -0.648 OA
ENDBRANCH   5   8
TORSDOF 1
ENDMDL
MODEL 6
REMARK VINA RESULT:      -4.0      1.162      1.631
REMARK  1 active torsions:
REMARK  status: ('A' for Active; 'I' for Inactive)
REMARK    1  A    between atoms: C1_1  and  C6_6 
ROOT
HETATM    1  C2  UNL     1     -35.421  16.223  -3.782  1.00 20.00     0.021 C 
HETATM    2  C3  UNL     1     -34.426  14.799  -5.709  1.00 20.00     0.027 A 
HETATM    3  C4  UNL     1     -34.667  17.531  -3.639  1.00 20.00     0.075 C 
HETATM    4  C5  UNL     1     -35.611  17.074  -6.119  1.00 20.00     0.084 C 
HETATM    5  C6  UNL     1     -35.907  14.522  -5.737  1.00 20.00     0.097 A 
HETATM    6  C7  UNL     1     -35.391  15.865  -5.246  1.00 20.00    -0.017 A 
HETATM    7  S10 UNL     1     -35.189  18.504  -5.073  1.00 20.00    -0.168 SA
ENDROOT
BRANCH   5   8
HETATM    8  C1  UNL     1     -36.433  13.576  -4.772  1.00 20.00     0.177 C 
HETATM    9  O8  UNL     1     -35.621  12.690  -4.388  1.00 20.00    -0.648 OA
HETATM   10  O9  UNL     1     -37.638  13.767  -4.446  1.00 20.00    -0.648 OA
ENDBRANCH   5   8
TORSDOF 1
ENDMDL
MODEL 7
REMARK VINA RESULT:      -3.9      1.206      1.827
REMARK  1 active torsions:
REMARK  status: ('A' for Active; 'I' for Inactive)
REMARK    1  A    between atoms: C1_1  and  C6_6 
ROOT
HETATM    1  C2  UNL     1     -35.738  16.894  -4.737  1.00 20.00     0.021 C 
HETATM    2  C3  UNL     1     -35.444  15.188  -2.804  1.00 20.00     0.027 A 
HETATM    3  C4  UNL     1     -35.334  18.285  -4.289  1.00 20.00     0.075 C 
HETATM    4  C5  UNL     1     -33.437  16.414  -3.906  1.00 20.00     0.084 C 
HETATM    5  C6  UNL     1     -35.102  14.427  -4.059  1.00 20.00     0.097 A 
HETATM    6  C7  UNL     1     -34.860  15.926  -3.986  1.00 20.00    -0.017 A 
HETATM    7  S10 UNL     1     -33.529  18.211  -4.185  1.00 20.00    -0.168 SA
ENDROOT
BRANCH   5   8
HETATM    8  C1  UNL     1     -36.199  13.930  -4.866  1.00 20.00     0.177 C 
HETATM    9  O8  UNL     1     -37.282  13.742  -4.245  1.00 20.00    -0.648 OA
HETATM   10  O9  UNL     1     -35.922  13.752  -6.084  1.00 20.00    -0.648 OA
ENDBRANCH   5   8
TORSDOF 1
ENDMDL
MODEL 8
REMARK VINA RESULT:      -3.9      1.208      1.968
REMARK  1 active torsions:
REMARK  status: ('A' for Active; 'I' for Inactive)
REMARK    1  A    between atoms: C1_1  and  C6_6 
ROOT
HETATM    1  C2  UNL     1     -35.877  16.932  -4.782  1.00 20.00     0.021 C 
HETATM    2  C3  UNL     1     -35.455  15.257  -2.846  1.00 20.00     0.027 A 
HETATM    3  C4  UNL     1     -35.525  18.343  -4.355  1.00 20.00     0.075 C 
HETATM    4  C5  UNL     1     -33.535  16.564  -4.010  1.00 20.00     0.084 C 
HETATM    5  C6  UNL     1     -35.111  14.501  -4.104  1.00 20.00     0.097 A 
HETATM    6  C7  UNL     1     -34.936  16.011  -4.048  1.00 20.00    -0.017 A 
HETATM    7  S10 UNL     1     -33.717  18.352  -4.298  1.00 20.00    -0.168 SA
ENDROOT
BRANCH   5   8
HETATM    8  C1  UNL     1     -36.206  13.949  -4.878  1.00 20.00     0.177 C 
HETATM    9  O8  UNL     1     -35.958  13.757  -6.100  1.00 20.00    -0.648 OA
HETATM   10  O9  UNL     1     -37.262  13.733  -4.221  1.00 20.00    -0.648 OA
ENDBRANCH   5   8
TORSDOF 1
ENDMDL
MODEL 9
REMARK VINA RESULT:      -3.9      1.567      1.743
REMARK  1 active torsions:
REMARK  status: ('A' for Active; 'I' for Inactive)
REMARK    1  A    between atoms: C1_1  and  C6_6 
ROOT
HETATM    1  C2  UNL     1     -35.595  15.977  -3.130  1.00 20.00     0.021 C 
HETATM    2  C3  UNL     1     -34.166  13.971  -3.949  1.00 20.00     0.027 A 
HETATM    3  C4  UNL     1     -35.233  16.345  -1.704  1.00 20.00     0.075 C 
HETATM    4  C5  UNL     1     -33.135  16.289  -3.390  1.00 20.00     0.084 C 
HETATM    5  C6  UNL     1     -34.360  14.841  -5.164  1.00 20.00     0.097 A 
HETATM    6  C7  UNL     1     -34.334  15.463  -3.777  1.00 20.00    -0.017 A 
HETATM    7  S10 UNL     1     -33.610  17.132  -1.847  1.00 20.00    -0.168 SA
ENDROOT
BRANCH   5   8
HETATM    8  C1  UNL     1     -35.624  14.744  -5.867  1.00 20.00     0.177 C 
HETATM    9  O8  UNL     1     -35.958  15.771  -6.520  1.00 20.00    -0.648 OA
HETATM   10  O9  UNL     1     -36.223  13.641  -5.731  1.00 20.00    -0.648 OA
ENDBRANCH   5   8
TORSDOF 1
ENDMDL
