MODEL 1
REMARK VINA RESULT:      -4.7      0.000      0.000
REMARK  3 active torsions:
REMARK  status: ('A' for Active; 'I' for Inactive)
REMARK    1  A    between atoms: C2_2  and  C9_9 
REMARK    2  A    between atoms: C6_6  and  C9_9 
REMARK    3  A    between atoms: C7_7  and  O10_10 
ROOT
HETATM    1  C3  UNL     1     -34.382   6.255   6.294  1.00 20.00     0.003 C 
HETATM    2  C4  UNL     1     -33.383   6.750   5.246  1.00 20.00     0.008 C 
HETATM    3  C5  UNL     1     -35.321   5.283   5.575  1.00 20.00     0.032 C 
HETATM    4  C6  UNL     1     -33.936   6.268   3.903  1.00 20.00     0.022 C 
HETATM    5  C7  UNL     1     -34.620   4.949   4.264  1.00 20.00     0.122 C 
ENDROOT
BRANCH   4   6
HETATM    6  C9  UNL     1     -32.862   6.155   2.833  1.00 20.00     0.010 C 
HETATM    7  C8  UNL     1     -33.336   5.266   1.679  1.00 20.00     0.014 C 
BRANCH   6   8
HETATM    8  C2  UNL     1     -32.488   7.521   2.311  1.00 20.00    -0.032 C 
HETATM    9  C1  UNL     1     -32.532   7.868   1.019  1.00 20.00     0.007 C 
ENDBRANCH   6   8
ENDBRANCH   4   6
BRANCH   5  10
HETATM   10  O10 UNL     1     -33.661   3.920   4.479  1.00 20.00    -0.395 OA
HETATM   11  H26 UNL     1     -33.002   4.278   5.096  1.00 20.00     0.210 HD
ENDBRANCH   5  10
TORSDOF 3
ENDMDL
MODEL 2
REMARK VINA RESULT:      -4.6     11.786     12.695
REMARK  3 active torsions:
REMARK  status: ('A' for Active; 'I' for Inactive)
REMARK    1  A    between atoms: C2_2  and  C9_9 
REMARK    2  A    between atoms: C6_6  and  C9_9 
REMARK    3  A    between atoms: C7_7  and  O10_10 
ROOT
HETATM    1  C3  UNL     1     -35.991  14.302  -5.657  1.00 20.00     0.003 C 
HETATM    2  C4  UNL     1     -35.887  14.760  -4.201  1.00 20.00     0.008 C 
HETATM    3  C5  UNL     1     -34.709  14.768  -6.353  1.00 20.00     0.032 C 
HETATM    4  C6  UNL     1     -34.686  15.708  -4.161  1.00 20.00     0.022 C 
HETATM    5  C7  UNL     1     -33.751  15.127  -5.223  1.00 20.00     0.122 C 
ENDROOT
BRANCH   4   6
HETATM    6  C9  UNL     1     -34.077  15.826  -2.773  1.00 20.00     0.010 C 
HETATM    7  C8  UNL     1     -32.987  16.902  -2.748  1.00 20.00     0.014 C 
BRANCH   6   8
HETATM    8  C2  UNL     1     -35.142  16.148  -1.753  1.00 20.00    -0.032 C 
HETATM    9  C1  UNL     1     -35.020  17.092  -0.813  1.00 20.00     0.007 C 
ENDBRANCH   6   8
ENDBRANCH   4   6
BRANCH   5  10
HETATM   10  O10 UNL     1     -33.108  13.951  -4.745  1.00 20.00    -0.395 OA
HETATM   11  H26 UNL     1     -33.498  13.204  -5.228  1.00 20.00     0.210 HD
ENDBRANCH   5  10
TORSDOF 3
ENDMDL
MODEL 3
REMARK VINA RESULT:      -4.5     11.823     12.547
REMARK  3 active torsions:
REMARK  status: ('A' for Active; 'I' for Inactive)
REMARK    1  A    between atoms: C2_2  and  C9_9 
REMARK    2  A    between atoms: C6_6  and  C9_9 
REMARK    3  A    between atoms: C7_7  and  O10_10 
ROOT
HETATM    1  C3  UNL     1     -33.574  14.638  -4.383  1.00 20.00     0.003 C 
HETATM    2  C4  UNL     1     -33.234  15.780  -3.423  1.00 20.00     0.008 C 
HETATM    3  C5  UNL     1     -35.020  14.232  -4.083  1.00 20.00     0.032 C 
HETATM    4  C6  UNL     1     -34.388  15.818  -2.418  1.00 20.00     0.022 C 
HETATM    5  C7  UNL     1     -35.590  15.377  -3.254  1.00 20.00     0.122 C 
ENDROOT
BRANCH   4   6
HETATM    6  C9  UNL     1     -34.540  17.176  -1.752  1.00 20.00     0.010 C 
HETATM    7  C8  UNL     1     -35.328  17.054  -0.444  1.00 20.00     0.014 C 
BRANCH   6   8
HETATM    8  C2  UNL     1     -33.188  17.790  -1.483  1.00 20.00    -0.032 C 
HETATM    9  C1  UNL     1     -32.852  18.393  -0.337  1.00 20.00     0.007 C 
ENDBRANCH   6   8
ENDBRANCH   4   6
BRANCH   5  10
HETATM   10  O10 UNL     1     -36.024  16.424  -4.113  1.00 20.00    -0.395 OA
HETATM   11  H26 UNL     1     -35.906  16.106  -5.023  1.00 20.00     0.210 HD
ENDBRANCH   5  10
TORSDOF 3
ENDMDL
MODEL 4
REMARK VINA RESULT:      -4.5     11.836     12.480
REMARK  3 active torsions:
REMARK  status: ('A' for Active; 'I' for Inactive)
REMARK    1  A    between atoms: C2_2  and  C9_9 
REMARK    2  A    between atoms: C6_6  and  C9_9 
REMARK    3  A    between atoms: C7_7  and  O10_10 
ROOT
HETATM    1  C3  UNL     1     -34.676  17.436  -0.953  1.00 20.00     0.003 C 
HETATM    2  C4  UNL     1     -35.158  16.313  -1.874  1.00 20.00     0.008 C 
HETATM    3  C5  UNL     1     -33.250  17.780  -1.394  1.00 20.00     0.032 C 
HETATM    4  C6  UNL     1     -33.912  15.854  -2.635  1.00 20.00     0.022 C 
HETATM    5  C7  UNL     1     -33.094  17.139  -2.768  1.00 20.00     0.122 C 
ENDROOT
BRANCH   4   6
HETATM    6  C9  UNL     1     -34.247  15.175  -3.953  1.00 20.00     0.010 C 
HETATM    7  C8  UNL     1     -33.017  14.462  -4.525  1.00 20.00     0.014 C 
BRANCH   6   8
HETATM    8  C2  UNL     1     -35.374  14.187  -3.769  1.00 20.00    -0.032 C 
HETATM    9  C1  UNL     1     -36.224  13.830  -4.738  1.00 20.00     0.007 C 
ENDBRANCH   6   8
ENDBRANCH   4   6
BRANCH   5  10
HETATM   10  O10 UNL     1     -33.646  17.993  -3.763  1.00 20.00    -0.395 OA
HETATM   11  H26 UNL     1     -34.437  17.547  -4.105  1.00 20.00     0.210 HD
ENDBRANCH   5  10
TORSDOF 3
ENDMDL
MODEL 5
REMARK VINA RESULT:      -4.4     15.778     16.774
REMARK  3 active torsions:
REMARK  status: ('A' for Active; 'I' for Inactive)
REMARK    1  A    between atoms: C2_2  and  C9_9 
REMARK    2  A    between atoms: C6_6  and  C9_9 
REMARK    3  A    between atoms: C7_7  and  O10_10 
ROOT
HETATM    1  C3  UNL     1     -26.783  17.003  12.332  1.00 20.00     0.003 C 
HETATM    2  C4  UNL     1     -25.298  16.688  12.139  1.00 20.00     0.008 C 
HETATM    3  C5  UNL     1     -26.948  18.502  12.067  1.00 20.00     0.032 C 
HETATM    4  C6  UNL     1     -24.607  18.050  12.039  1.00 20.00     0.022 C 
HETATM    5  C7  UNL     1     -25.663  18.926  11.365  1.00 20.00     0.122 C 
ENDROOT
BRANCH   4   6
HETATM    6  C9  UNL     1     -23.276  17.980  11.306  1.00 20.00     0.010 C 
HETATM    7  C8  UNL     1     -22.126  17.748  12.291  1.00 20.00     0.014 C 
BRANCH   6   8
HETATM    8  C2  UNL     1     -23.298  16.881  10.272  1.00 20.00    -0.032 C 
HETATM    9  C1  UNL     1     -22.662  16.943   9.097  1.00 20.00     0.007 C 
ENDBRANCH   6   8
ENDBRANCH   4   6
BRANCH   5  10
HETATM   10  O10 UNL     1     -25.755  18.634   9.976  1.00 20.00    -0.395 OA
HETATM   11  H26 UNL     1     -26.525  19.121   9.639  1.00 20.00     0.210 HD
ENDBRANCH   5  10
TORSDOF 3
ENDMDL
MODEL 6
REMARK VINA RESULT:      -4.2     11.870     13.362
REMARK  3 active torsions:
REMARK  status: ('A' for Active; 'I' for Inactive)
REMARK    1  A    between atoms: C2_2  and  C9_9 
REMARK    2  A    between atoms: C6_6  and  C9_9 
REMARK    3  A    between atoms: C7_7  and  O10_10 
ROOT
HETATM    1  C3  UNL     1     -37.300  16.398  -6.179  1.00 20.00     0.003 C 
HETATM    2  C4  UNL     1     -36.654  16.099  -4.825  1.00 20.00     0.008 C 
HETATM    3  C5  UNL     1     -36.317  15.912  -7.248  1.00 20.00     0.032 C 
HETATM    4  C6  UNL     1     -35.211  15.705  -5.146  1.00 20.00     0.022 C 
HETATM    5  C7  UNL     1     -35.334  15.015  -6.505  1.00 20.00     0.122 C 
ENDROOT
BRANCH   4   6
HETATM    6  C9  UNL     1     -34.579  14.853  -4.056  1.00 20.00     0.010 C 
HETATM    7  C8  UNL     1     -33.114  14.548  -4.385  1.00 20.00     0.014 C 
BRANCH   6   8
HETATM    8  C2  UNL     1     -34.672  15.549  -2.720  1.00 20.00    -0.032 C 
HETATM    9  C1  UNL     1     -33.857  16.535  -2.329  1.00 20.00     0.007 C 
ENDBRANCH   6   8
ENDBRANCH   4   6
BRANCH   5  10
HETATM   10  O10 UNL     1     -35.883  13.710  -6.366  1.00 20.00    -0.395 OA
HETATM   11  H26 UNL     1     -36.711  13.700  -6.874  1.00 20.00     0.210 HD
ENDBRANCH   5  10
TORSDOF 3
ENDMDL
MODEL 7
REMARK VINA RESULT:      -4.2     11.388     12.542
REMARK  3 active torsions:
REMARK  status: ('A' for Active; 'I' for Inactive)
REMARK    1  A    between atoms: C2_2  and  C9_9 
REMARK    2  A    between atoms: C6_6  and  C9_9 
REMARK    3  A    between atoms: C7_7  and  O10_10 
ROOT
HETATM    1  C3  UNL     1     -34.227  17.403  -1.501  1.00 20.00     0.003 C 
HETATM    2  C4  UNL     1     -35.176  16.406  -2.170  1.00 20.00     0.008 C 
HETATM    3  C5  UNL     1     -32.861  17.218  -2.168  1.00 20.00     0.032 C 
HETATM    4  C6  UNL     1     -34.277  15.491  -3.004  1.00 20.00     0.022 C 
HETATM    5  C7  UNL     1     -33.142  16.421  -3.436  1.00 20.00     0.122 C 
ENDROOT
BRANCH   4   6
HETATM    6  C9  UNL     1     -35.021  14.822  -4.149  1.00 20.00     0.010 C 
HETATM    7  C8  UNL     1     -34.961  13.297  -4.018  1.00 20.00     0.014 C 
BRANCH   6   8
HETATM    8  C2  UNL     1     -36.459  15.279  -4.184  1.00 20.00    -0.032 C 
HETATM    9  C1  UNL     1     -37.505  14.456  -4.320  1.00 20.00     0.007 C 
ENDBRANCH   6   8
ENDBRANCH   4   6
BRANCH   5  10
HETATM   10  O10 UNL     1     -33.568  17.298  -4.471  1.00 20.00    -0.395 OA
HETATM   11  H26 UNL     1     -33.345  16.866  -5.312  1.00 20.00     0.210 HD
ENDBRANCH   5  10
TORSDOF 3
ENDMDL
MODEL 8
REMARK VINA RESULT:      -4.1     12.040     12.968
REMARK  3 active torsions:
REMARK  status: ('A' for Active; 'I' for Inactive)
REMARK    1  A    between atoms: C2_2  and  C9_9 
REMARK    2  A    between atoms: C6_6  and  C9_9 
REMARK    3  A    between atoms: C7_7  and  O10_10 
ROOT
HETATM    1  C3  UNL     1     -33.899  15.392  -3.717  1.00 20.00     0.003 C 
HETATM    2  C4  UNL     1     -33.087  16.514  -3.067  1.00 20.00     0.008 C 
HETATM    3  C5  UNL     1     -35.226  15.318  -2.956  1.00 20.00     0.032 C 
HETATM    4  C6  UNL     1     -33.844  16.870  -1.786  1.00 20.00     0.022 C 
HETATM    5  C7  UNL     1     -35.304  16.619  -2.166  1.00 20.00     0.122 C 
ENDROOT
BRANCH   4   6
HETATM    6  C9  UNL     1     -33.547  18.280  -1.301  1.00 20.00     0.010 C 
HETATM    7  C8  UNL     1     -34.070  18.485   0.125  1.00 20.00     0.014 C 
BRANCH   6   8
HETATM    8  C2  UNL     1     -32.064  18.555  -1.349  1.00 20.00    -0.032 C 
HETATM    9  C1  UNL     1     -31.199  18.181  -0.399  1.00 20.00     0.007 C 
ENDBRANCH   6   8
ENDBRANCH   4   6
BRANCH   5  10
HETATM   10  O10 UNL     1     -35.799  17.660  -2.999  1.00 20.00    -0.395 OA
HETATM   11  H26 UNL     1     -35.148  18.380  -2.963  1.00 20.00     0.210 HD
ENDBRANCH   5  10
TORSDOF 3
ENDMDL
MODEL 9
REMARK VINA RESULT:      -4.1     11.688     12.822
REMARK  3 active torsions:
REMARK  status: ('A' for Active; 'I' for Inactive)
REMARK    1  A    between atoms: C2_2  and  C9_9 
REMARK    2  A    between atoms: C6_6  and  C9_9 
REMARK    3  A    between atoms: C7_7  and  O10_10 
ROOT
HETATM    1  C3  UNL     1     -38.261  17.141  -4.127  1.00 20.00     0.003 C 
HETATM    2  C4  UNL     1     -36.985  16.921  -3.311  1.00 20.00     0.008 C 
HETATM    3  C5  UNL     1     -38.281  16.054  -5.206  1.00 20.00     0.032 C 
HETATM    4  C6  UNL     1     -36.172  15.895  -4.104  1.00 20.00     0.022 C 
HETATM    5  C7  UNL     1     -37.250  15.027  -4.754  1.00 20.00     0.122 C 
ENDROOT
BRANCH   4   6
HETATM    6  C9  UNL     1     -35.182  15.135  -3.236  1.00 20.00     0.010 C 
HETATM    7  C8  UNL     1     -34.177  14.369  -4.102  1.00 20.00     0.014 C 
BRANCH   6   8
HETATM    8  C2  UNL     1     -34.451  16.080  -2.314  1.00 20.00    -0.032 C 
HETATM    9  C1  UNL     1     -33.275  16.650  -2.603  1.00 20.00     0.007 C 
ENDBRANCH   6   8
ENDBRANCH   4   6
BRANCH   5  10
HETATM   10  O10 UNL     1     -37.835  14.144  -3.804  1.00 20.00    -0.395 OA
HETATM   11  H26 UNL     1     -37.105  13.780  -3.275  1.00 20.00     0.210 HD
ENDBRANCH   5  10
TORSDOF 3
ENDMDL
