MODEL 1
REMARK VINA RESULT:      -4.8      0.000      0.000
REMARK  1 active torsions:
REMARK  status: ('A' for Active; 'I' for Inactive)
REMARK    1  A    between atoms: C3_3  and  C8_8 
ROOT
HETATM    1  C1  UNL     1     -35.315  13.728  -4.134  1.00 20.00     0.087 C 
HETATM    2  C2  UNL     1     -34.721  14.950  -3.722  1.00 20.00     0.090 C 
HETATM    3  C3  UNL     1     -35.202  15.653  -2.687  1.00 20.00    -0.011 C 
HETATM    4  N9  UNL     1     -35.797  12.728  -4.473  1.00 20.00    -0.192 NA
ENDROOT
BRANCH   3   5
HETATM    5  C8  UNL     1     -34.605  16.961  -2.209  1.00 20.00     0.013 C 
HETATM    6  C4  UNL     1     -34.955  17.137  -0.737  1.00 20.00     0.035 C 
HETATM    7  C6  UNL     1     -34.179  18.306  -0.144  1.00 20.00     0.168 C 
HETATM    8  O10 UNL     1     -32.775  18.131  -0.335  1.00 20.00    -0.391 OA
HETATM    9  C7  UNL     1     -32.421  18.079  -1.717  1.00 20.00     0.168 C 
HETATM   10  C5  UNL     1     -33.094  16.894  -2.401  1.00 20.00     0.035 C 
ENDBRANCH   3   5
TORSDOF 1
ENDMDL
MODEL 2
REMARK VINA RESULT:      -4.6     10.978     11.848
REMARK  1 active torsions:
REMARK  status: ('A' for Active; 'I' for Inactive)
REMARK    1  A    between atoms: C3_3  and  C8_8 
ROOT
HETATM    1  C1  UNL     1     -32.691   8.552   0.810  1.00 20.00     0.087 C 
HETATM    2  C2  UNL     1     -32.879   7.411   1.634  1.00 20.00     0.090 C 
HETATM    3  C3  UNL     1     -32.974   7.513   2.966  1.00 20.00    -0.011 C 
HETATM    4  N9  UNL     1     -32.539   9.483   0.133  1.00 20.00    -0.192 NA
ENDROOT
BRANCH   3   5
HETATM    5  C8  UNL     1     -33.174   6.327   3.888  1.00 20.00     0.013 C 
HETATM    6  C4  UNL     1     -34.101   6.752   5.020  1.00 20.00     0.035 C 
HETATM    7  C6  UNL     1     -34.531   5.540   5.836  1.00 20.00     0.168 C 
HETATM    8  O10 UNL     1     -35.138   4.554   4.999  1.00 20.00    -0.391 OA
HETATM    9  C7  UNL     1     -34.238   4.065   4.003  1.00 20.00     0.168 C 
HETATM   10  C5  UNL     1     -33.793   5.193   3.079  1.00 20.00     0.035 C 
ENDBRANCH   3   5
TORSDOF 1
ENDMDL
MODEL 3
REMARK VINA RESULT:      -4.5     14.286     15.732
REMARK  1 active torsions:
REMARK  status: ('A' for Active; 'I' for Inactive)
REMARK    1  A    between atoms: C3_3  and  C8_8 
ROOT
HETATM    1  C1  UNL     1     -24.716  19.083   6.713  1.00 20.00     0.087 C 
HETATM    2  C2  UNL     1     -24.904  18.867   8.104  1.00 20.00     0.090 C 
HETATM    3  C3  UNL     1     -23.980  18.248   8.851  1.00 20.00    -0.011 C 
HETATM    4  N9  UNL     1     -24.565  19.262   5.577  1.00 20.00    -0.192 NA
ENDROOT
BRANCH   3   5
HETATM    5  C8  UNL     1     -24.133  17.993  10.337  1.00 20.00     0.013 C 
HETATM    6  C4  UNL     1     -25.406  18.683  10.811  1.00 20.00     0.035 C 
HETATM    7  C6  UNL     1     -25.740  18.259  12.236  1.00 20.00     0.168 C 
HETATM    8  O10 UNL     1     -25.842  16.837  12.331  1.00 20.00    -0.391 OA
HETATM    9  C7  UNL     1     -24.617  16.185  11.998  1.00 20.00     0.168 C 
HETATM   10  C5  UNL     1     -24.219  16.488  10.557  1.00 20.00     0.035 C 
ENDBRANCH   3   5
TORSDOF 1
ENDMDL
MODEL 4
REMARK VINA RESULT:      -4.4     16.054     16.447
REMARK  1 active torsions:
REMARK  status: ('A' for Active; 'I' for Inactive)
REMARK    1  A    between atoms: C3_3  and  C8_8 
ROOT
HETATM    1  C1  UNL     1     -21.907  17.355   7.775  1.00 20.00     0.087 C 
HETATM    2  C2  UNL     1     -22.503  17.247   9.059  1.00 20.00     0.090 C 
HETATM    3  C3  UNL     1     -23.529  18.027   9.427  1.00 20.00    -0.011 C 
HETATM    4  N9  UNL     1     -21.418  17.441   6.726  1.00 20.00    -0.192 NA
ENDROOT
BRANCH   3   5
HETATM    5  C8  UNL     1     -24.198  17.950  10.784  1.00 20.00     0.013 C 
HETATM    6  C4  UNL     1     -25.448  18.821  10.750  1.00 20.00     0.035 C 
HETATM    7  C6  UNL     1     -26.289  18.590  12.000  1.00 20.00     0.168 C 
HETATM    8  O10 UNL     1     -26.614  17.207  12.143  1.00 20.00    -0.391 OA
HETATM    9  C7  UNL     1     -25.450  16.392  12.290  1.00 20.00     0.168 C 
HETATM   10  C5  UNL     1     -24.561  16.495  11.055  1.00 20.00     0.035 C 
ENDBRANCH   3   5
TORSDOF 1
ENDMDL
MODEL 5
REMARK VINA RESULT:      -4.4      3.571      5.235
REMARK  1 active torsions:
REMARK  status: ('A' for Active; 'I' for Inactive)
REMARK    1  A    between atoms: C3_3  and  C8_8 
ROOT
HETATM    1  C1  UNL     1     -32.847  17.411  -1.937  1.00 20.00     0.087 C 
HETATM    2  C2  UNL     1     -33.670  16.531  -2.689  1.00 20.00     0.090 C 
HETATM    3  C3  UNL     1     -33.169  15.764  -3.668  1.00 20.00    -0.011 C 
HETATM    4  N9  UNL     1     -32.177  18.130  -1.319  1.00 20.00    -0.192 NA
ENDROOT
BRANCH   3   5
HETATM    5  C8  UNL     1     -34.005  14.811  -4.498  1.00 20.00     0.013 C 
HETATM    6  C4  UNL     1     -35.239  14.429  -3.691  1.00 20.00     0.035 C 
HETATM    7  C6  UNL     1     -36.231  13.672  -4.565  1.00 20.00     0.168 C 
HETATM    8  O10 UNL     1     -36.573  14.436  -5.722  1.00 20.00    -0.391 OA
HETATM    9  C7  UNL     1     -35.438  14.703  -6.546  1.00 20.00     0.168 C 
HETATM   10  C5  UNL     1     -34.401  15.523  -5.787  1.00 20.00     0.035 C 
ENDBRANCH   3   5
TORSDOF 1
ENDMDL
MODEL 6
REMARK VINA RESULT:      -4.4      0.936      1.831
REMARK  1 active torsions:
REMARK  status: ('A' for Active; 'I' for Inactive)
REMARK    1  A    between atoms: C3_3  and  C8_8 
ROOT
HETATM    1  C1  UNL     1     -35.853  13.977  -4.338  1.00 20.00     0.087 C 
HETATM    2  C2  UNL     1     -35.302  14.854  -3.367  1.00 20.00     0.090 C 
HETATM    3  C3  UNL     1     -34.123  15.461  -3.556  1.00 20.00    -0.011 C 
HETATM    4  N9  UNL     1     -36.307  13.260  -5.131  1.00 20.00    -0.192 NA
ENDROOT
BRANCH   3   5
HETATM    5  C8  UNL     1     -33.493  16.404  -2.551  1.00 20.00     0.013 C 
HETATM    6  C4  UNL     1     -32.939  17.606  -3.305  1.00 20.00     0.035 C 
HETATM    7  C6  UNL     1     -32.515  18.696  -2.328  1.00 20.00     0.168 C 
HETATM    8  O10 UNL     1     -33.601  19.063  -1.476  1.00 20.00    -0.391 OA
HETATM    9  C7  UNL     1     -34.055  17.968  -0.680  1.00 20.00     0.168 C 
HETATM   10  C5  UNL     1     -34.570  16.836  -1.562  1.00 20.00     0.035 C 
ENDBRANCH   3   5
TORSDOF 1
ENDMDL
MODEL 7
REMARK VINA RESULT:      -4.3      3.578      5.175
REMARK  1 active torsions:
REMARK  status: ('A' for Active; 'I' for Inactive)
REMARK    1  A    between atoms: C3_3  and  C8_8 
ROOT
HETATM    1  C1  UNL     1     -31.635  18.187  -1.020  1.00 20.00     0.087 C 
HETATM    2  C2  UNL     1     -32.771  17.820  -1.789  1.00 20.00     0.090 C 
HETATM    3  C3  UNL     1     -32.735  16.797  -2.654  1.00 20.00    -0.011 C 
HETATM    4  N9  UNL     1     -30.708  18.488  -0.389  1.00 20.00    -0.192 NA
ENDROOT
BRANCH   3   5
HETATM    5  C8  UNL     1     -33.919  16.368  -3.497  1.00 20.00     0.013 C 
HETATM    6  C4  UNL     1     -33.515  15.135  -4.295  1.00 20.00     0.035 C 
HETATM    7  C6  UNL     1     -34.734  14.517  -4.969  1.00 20.00     0.168 C 
HETATM    8  O10 UNL     1     -35.747  14.216  -4.008  1.00 20.00    -0.391 OA
HETATM    9  C7  UNL     1     -36.214  15.385  -3.334  1.00 20.00     0.168 C 
HETATM   10  C5  UNL     1     -35.080  16.051  -2.562  1.00 20.00     0.035 C 
ENDBRANCH   3   5
TORSDOF 1
ENDMDL
MODEL 8
REMARK VINA RESULT:      -4.2      3.367      4.942
REMARK  1 active torsions:
REMARK  status: ('A' for Active; 'I' for Inactive)
REMARK    1  A    between atoms: C3_3  and  C8_8 
ROOT
HETATM    1  C1  UNL     1     -34.907  17.694   0.373  1.00 20.00     0.087 C 
HETATM    2  C2  UNL     1     -35.097  16.960  -0.828  1.00 20.00     0.090 C 
HETATM    3  C3  UNL     1     -34.231  17.041  -1.847  1.00 20.00    -0.011 C 
HETATM    4  N9  UNL     1     -34.754  18.292   1.355  1.00 20.00    -0.192 NA
ENDROOT
BRANCH   3   5
HETATM    5  C8  UNL     1     -34.389  16.278  -3.147  1.00 20.00     0.013 C 
HETATM    6  C4  UNL     1     -33.047  15.650  -3.499  1.00 20.00     0.035 C 
HETATM    7  C6  UNL     1     -33.206  14.675  -4.659  1.00 20.00     0.168 C 
HETATM    8  O10 UNL     1     -34.190  13.684  -4.357  1.00 20.00    -0.391 OA
HETATM    9  C7  UNL     1     -35.480  14.256  -4.137  1.00 20.00     0.168 C 
HETATM   10  C5  UNL     1     -35.452  15.205  -2.944  1.00 20.00     0.035 C 
ENDBRANCH   3   5
TORSDOF 1
ENDMDL
MODEL 9
REMARK VINA RESULT:      -4.2      3.517      5.104
REMARK  1 active torsions:
REMARK  status: ('A' for Active; 'I' for Inactive)
REMARK    1  A    between atoms: C3_3  and  C8_8 
ROOT
HETATM    1  C1  UNL     1     -34.374  17.352  -0.932  1.00 20.00     0.087 C 
HETATM    2  C2  UNL     1     -34.788  16.426  -1.927  1.00 20.00     0.090 C 
HETATM    3  C3  UNL     1     -33.943  15.975  -2.864  1.00 20.00    -0.011 C 
HETATM    4  N9  UNL     1     -34.039  18.107  -0.118  1.00 20.00    -0.192 NA
ENDROOT
BRANCH   3   5
HETATM    5  C8  UNL     1     -34.336  14.989  -3.945  1.00 20.00     0.013 C 
HETATM    6  C4  UNL     1     -35.748  14.499  -3.654  1.00 20.00     0.035 C 
HETATM    7  C6  UNL     1     -36.285  13.698  -4.834  1.00 20.00     0.168 C 
HETATM    8  O10 UNL     1     -36.231  14.468  -6.036  1.00 20.00    -0.391 OA
HETATM    9  C7  UNL     1     -34.895  14.837  -6.379  1.00 20.00     0.168 C 
HETATM   10  C5  UNL     1     -34.278  15.706  -5.289  1.00 20.00     0.035 C 
ENDBRANCH   3   5
TORSDOF 1
ENDMDL
