MODEL 1
REMARK VINA RESULT:      -4.2      0.000      0.000
REMARK  2 active torsions:
REMARK  status: ('A' for Active; 'I' for Inactive)
REMARK    1  A    between atoms: C4_4  and  N9_9 
REMARK    2  A    between atoms: C7_7  and  N9_9 
ROOT
HETATM    1  C1  UNL     1     -36.436  13.810  -4.595  1.00 20.00     0.094 C 
HETATM    2  C6  UNL     1     -36.532  16.081  -5.553  1.00 20.00     0.059 C 
HETATM    3  C7  UNL     1     -37.096  15.120  -4.515  1.00 20.00     0.322 C 
HETATM    4  N8  UNL     1     -35.917  12.774  -4.660  1.00 20.00    -0.195 NA
ENDROOT
BRANCH   3   5
HETATM    5  N9  UNL     1     -36.951  15.667  -3.176  1.00 20.00     0.106 N 
HETATM    6  H21 UNL     1     -37.750  16.256  -2.959  1.00 20.00     0.318 HD
BRANCH   5   7
HETATM    7  C4  UNL     1     -35.730  16.474  -3.078  1.00 20.00     0.226 A 
HETATM    8  C2  UNL     1     -35.226  16.928  -1.733  1.00 20.00     0.042 A 
HETATM    9  C3  UNL     1     -34.469  15.881  -2.503  1.00 20.00     0.016 A 
HETATM   10  C5  UNL     1     -33.147  16.204  -3.106  1.00 20.00     0.012 C 
ENDBRANCH   5   7
ENDBRANCH   3   5
TORSDOF 2
ENDMDL
MODEL 2
REMARK VINA RESULT:      -4.2     16.556     18.156
REMARK  2 active torsions:
REMARK  status: ('A' for Active; 'I' for Inactive)
REMARK    1  A    between atoms: C4_4  and  N9_9 
REMARK    2  A    between atoms: C7_7  and  N9_9 
ROOT
HETATM    1  C1  UNL     1     -24.342  19.052   7.562  1.00 20.00     0.094 C 
HETATM    2  C6  UNL     1     -22.431  18.307   8.932  1.00 20.00     0.059 C 
HETATM    3  C7  UNL     1     -23.616  19.257   8.822  1.00 20.00     0.322 C 
HETATM    4  N8  UNL     1     -24.914  18.892   6.565  1.00 20.00    -0.195 NA
ENDROOT
BRANCH   3   5
HETATM    5  N9  UNL     1     -24.520  19.083   9.948  1.00 20.00     0.106 N 
HETATM    6  H21 UNL     1     -24.587  19.954  10.469  1.00 20.00     0.318 HD
BRANCH   5   7
HETATM    7  C4  UNL     1     -24.028  18.034  10.847  1.00 20.00     0.226 A 
HETATM    8  C2  UNL     1     -24.258  18.137  12.332  1.00 20.00     0.042 A 
HETATM    9  C3  UNL     1     -24.997  17.102  11.530  1.00 20.00     0.016 A 
HETATM   10  C5  UNL     1     -24.665  15.658  11.683  1.00 20.00     0.012 C 
ENDBRANCH   5   7
ENDBRANCH   3   5
TORSDOF 2
ENDMDL
MODEL 3
REMARK VINA RESULT:      -4.1     11.244     12.033
REMARK  2 active torsions:
REMARK  status: ('A' for Active; 'I' for Inactive)
REMARK    1  A    between atoms: C4_4  and  N9_9 
REMARK    2  A    between atoms: C7_7  and  N9_9 
ROOT
HETATM    1  C1  UNL     1     -32.608   7.742   1.430  1.00 20.00     0.094 C 
HETATM    2  C6  UNL     1     -33.031   5.443   2.216  1.00 20.00     0.059 C 
HETATM    3  C7  UNL     1     -32.595   6.851   2.597  1.00 20.00     0.322 C 
HETATM    4  N8  UNL     1     -32.616   8.445   0.507  1.00 20.00    -0.195 NA
ENDROOT
BRANCH   3   5
HETATM    5  N9  UNL     1     -33.452   7.390   3.641  1.00 20.00     0.106 N 
HETATM    6  H21 UNL     1     -33.125   8.315   3.907  1.00 20.00     0.318 HD
BRANCH   5   7
HETATM    7  C4  UNL     1     -33.429   6.525   4.825  1.00 20.00     0.226 A 
HETATM    8  C2  UNL     1     -33.871   7.057   6.163  1.00 20.00     0.042 A 
HETATM    9  C3  UNL     1     -34.718   6.044   5.441  1.00 20.00     0.016 A 
HETATM   10  C5  UNL     1     -34.826   4.653   5.961  1.00 20.00     0.012 C 
ENDBRANCH   5   7
ENDBRANCH   3   5
TORSDOF 2
ENDMDL
MODEL 4
REMARK VINA RESULT:      -4.0     11.021     11.890
REMARK  2 active torsions:
REMARK  status: ('A' for Active; 'I' for Inactive)
REMARK    1  A    between atoms: C4_4  and  N9_9 
REMARK    2  A    between atoms: C7_7  and  N9_9 
ROOT
HETATM    1  C1  UNL     1     -34.117   6.249   4.998  1.00 20.00     0.094 C 
HETATM    2  C6  UNL     1     -34.383   3.945   4.158  1.00 20.00     0.059 C 
HETATM    3  C7  UNL     1     -34.327   5.425   3.800  1.00 20.00     0.322 C 
HETATM    4  N8  UNL     1     -33.956   6.901   5.944  1.00 20.00    -0.195 NA
ENDROOT
BRANCH   3   5
HETATM    5  N9  UNL     1     -33.271   5.679   2.833  1.00 20.00     0.106 N 
HETATM    6  H21 UNL     1     -32.402   5.267   3.161  1.00 20.00     0.318 HD
BRANCH   5   7
HETATM    7  C4  UNL     1     -33.070   7.121   2.657  1.00 20.00     0.226 A 
HETATM    8  C2  UNL     1     -31.686   7.710   2.731  1.00 20.00     0.042 A 
HETATM    9  C3  UNL     1     -32.405   7.649   1.411  1.00 20.00     0.016 A 
HETATM   10  C5  UNL     1     -32.900   8.900   0.770  1.00 20.00     0.012 C 
ENDBRANCH   5   7
ENDBRANCH   3   5
TORSDOF 2
ENDMDL
MODEL 5
REMARK VINA RESULT:      -4.0      1.406      1.501
REMARK  2 active torsions:
REMARK  status: ('A' for Active; 'I' for Inactive)
REMARK    1  A    between atoms: C4_4  and  N9_9 
REMARK    2  A    between atoms: C7_7  and  N9_9 
ROOT
HETATM    1  C1  UNL     1     -37.868  15.043  -4.143  1.00 20.00     0.094 C 
HETATM    2  C6  UNL     1     -36.980  17.166  -5.032  1.00 20.00     0.059 C 
HETATM    3  C7  UNL     1     -37.549  16.440  -3.820  1.00 20.00     0.322 C 
HETATM    4  N8  UNL     1     -38.124  13.941  -4.399  1.00 20.00    -0.195 NA
ENDROOT
BRANCH   3   5
HETATM    5  N9  UNL     1     -36.616  16.490  -2.706  1.00 20.00     0.106 N 
HETATM    6  H21 UNL     1     -36.798  17.318  -2.146  1.00 20.00     0.318 HD
BRANCH   5   7
HETATM    7  C4  UNL     1     -35.234  16.545  -3.193  1.00 20.00     0.226 A 
HETATM    8  C2  UNL     1     -34.086  16.584  -2.219  1.00 20.00     0.042 A 
HETATM    9  C3  UNL     1     -34.326  15.350  -3.044  1.00 20.00     0.016 A 
HETATM   10  C5  UNL     1     -33.383  14.985  -4.137  1.00 20.00     0.012 C 
ENDBRANCH   5   7
ENDBRANCH   3   5
TORSDOF 2
ENDMDL
MODEL 6
REMARK VINA RESULT:      -3.9      1.801      2.038
REMARK  2 active torsions:
REMARK  status: ('A' for Active; 'I' for Inactive)
REMARK    1  A    between atoms: C4_4  and  N9_9 
REMARK    2  A    between atoms: C7_7  and  N9_9 
ROOT
HETATM    1  C1  UNL     1     -35.522  13.912  -4.946  1.00 20.00     0.094 C 
HETATM    2  C6  UNL     1     -34.733  15.125  -6.944  1.00 20.00     0.059 C 
HETATM    3  C7  UNL     1     -34.986  15.185  -5.443  1.00 20.00     0.322 C 
HETATM    4  N8  UNL     1     -35.949  12.907  -4.554  1.00 20.00    -0.195 NA
ENDROOT
BRANCH   3   5
HETATM    5  N9  UNL     1     -33.764  15.520  -4.730  1.00 20.00     0.106 N 
HETATM    6  H21 UNL     1     -33.394  14.688  -4.278  1.00 20.00     0.318 HD
BRANCH   5   7
HETATM    7  C4  UNL     1     -34.026  16.535  -3.705  1.00 20.00     0.226 A 
HETATM    8  C2  UNL     1     -34.432  16.123  -2.315  1.00 20.00     0.042 A 
HETATM    9  C3  UNL     1     -33.071  16.717  -2.553  1.00 20.00     0.016 A 
HETATM   10  C5  UNL     1     -32.752  18.083  -2.053  1.00 20.00     0.012 C 
ENDBRANCH   5   7
ENDBRANCH   3   5
TORSDOF 2
ENDMDL
MODEL 7
REMARK VINA RESULT:      -3.9      1.675      2.169
REMARK  2 active torsions:
REMARK  status: ('A' for Active; 'I' for Inactive)
REMARK    1  A    between atoms: C4_4  and  N9_9 
REMARK    2  A    between atoms: C7_7  and  N9_9 
ROOT
HETATM    1  C1  UNL     1     -36.893  14.424  -4.153  1.00 20.00     0.094 C 
HETATM    2  C6  UNL     1     -34.463  14.068  -3.920  1.00 20.00     0.059 C 
HETATM    3  C7  UNL     1     -35.610  15.066  -3.838  1.00 20.00     0.322 C 
HETATM    4  N8  UNL     1     -37.906  13.917  -4.405  1.00 20.00    -0.195 NA
ENDROOT
BRANCH   3   5
HETATM    5  N9  UNL     1     -35.671  15.671  -2.517  1.00 20.00     0.106 N 
HETATM    6  H21 UNL     1     -36.419  16.359  -2.490  1.00 20.00     0.318 HD
BRANCH   5   7
HETATM    7  C4  UNL     1     -34.405  16.339  -2.197  1.00 20.00     0.226 A 
HETATM    8  C2  UNL     1     -33.975  17.559  -2.967  1.00 20.00     0.042 A 
HETATM    9  C3  UNL     1     -34.407  17.693  -1.533  1.00 20.00     0.016 A 
HETATM   10  C5  UNL     1     -33.406  18.009  -0.476  1.00 20.00     0.012 C 
ENDBRANCH   5   7
ENDBRANCH   3   5
TORSDOF 2
ENDMDL
MODEL 8
REMARK VINA RESULT:      -3.9      1.443      2.348
REMARK  2 active torsions:
REMARK  status: ('A' for Active; 'I' for Inactive)
REMARK    1  A    between atoms: C4_4  and  N9_9 
REMARK    2  A    between atoms: C7_7  and  N9_9 
ROOT
HETATM    1  C1  UNL     1     -35.473  13.893  -4.191  1.00 20.00     0.094 C 
HETATM    2  C6  UNL     1     -33.557  15.355  -3.665  1.00 20.00     0.059 C 
HETATM    3  C7  UNL     1     -35.074  15.231  -3.737  1.00 20.00     0.322 C 
HETATM    4  N8  UNL     1     -35.788  12.837  -4.554  1.00 20.00    -0.195 NA
ENDROOT
BRANCH   3   5
HETATM    5  N9  UNL     1     -35.674  15.514  -2.443  1.00 20.00     0.106 N 
HETATM    6  H21 UNL     1     -36.642  15.796  -2.571  1.00 20.00     0.318 HD
BRANCH   5   7
HETATM    7  C4  UNL     1     -34.954  16.598  -1.766  1.00 20.00     0.226 A 
HETATM    8  C2  UNL     1     -35.453  18.016  -1.861  1.00 20.00     0.042 A 
HETATM    9  C3  UNL     1     -35.555  17.272  -0.558  1.00 20.00     0.016 A 
HETATM   10  C5  UNL     1     -34.690  17.655   0.592  1.00 20.00     0.012 C 
ENDBRANCH   5   7
ENDBRANCH   3   5
TORSDOF 2
ENDMDL
MODEL 9
REMARK VINA RESULT:      -3.8      2.381      2.987
REMARK  2 active torsions:
REMARK  status: ('A' for Active; 'I' for Inactive)
REMARK    1  A    between atoms: C4_4  and  N9_9 
REMARK    2  A    between atoms: C7_7  and  N9_9 
ROOT
HETATM    1  C1  UNL     1     -34.319  15.038  -6.211  1.00 20.00     0.094 C 
HETATM    2  C6  UNL     1     -34.586  14.124  -3.935  1.00 20.00     0.059 C 
HETATM    3  C7  UNL     1     -33.691  14.903  -4.890  1.00 20.00     0.322 C 
HETATM    4  N8  UNL     1     -34.814  15.141  -7.255  1.00 20.00    -0.195 NA
ENDROOT
BRANCH   3   5
HETATM    5  N9  UNL     1     -33.386  16.218  -4.351  1.00 20.00     0.106 N 
HETATM    6  H21 UNL     1     -32.435  16.476  -4.601  1.00 20.00     0.318 HD
BRANCH   5   7
HETATM    7  C4  UNL     1     -33.503  16.216  -2.889  1.00 20.00     0.226 A 
HETATM    8  C2  UNL     1     -32.879  17.319  -2.075  1.00 20.00     0.042 A 
HETATM    9  C3  UNL     1     -34.376  17.230  -2.195  1.00 20.00     0.016 A 
HETATM   10  C5  UNL     1     -35.199  16.830  -1.019  1.00 20.00     0.012 C 
ENDBRANCH   5   7
ENDBRANCH   3   5
TORSDOF 2
ENDMDL
