MODEL 1
REMARK VINA RESULT:      -4.2      0.000      0.000
REMARK  2 active torsions:
REMARK  status: ('A' for Active; 'I' for Inactive)
REMARK    1  A    between atoms: C4_4  and  N9_9 
REMARK    2  A    between atoms: C7_7  and  N9_9 
ROOT
HETATM    1  C1  UNL     1     -24.192  18.992   7.588  1.00 20.00     0.094 C 
HETATM    2  C6  UNL     1     -22.510  18.590   9.345  1.00 20.00     0.059 C 
HETATM    3  C7  UNL     1     -23.964  18.921   9.037  1.00 20.00     0.322 C 
HETATM    4  N8  UNL     1     -24.372  19.050   6.443  1.00 20.00    -0.195 NA
ENDROOT
BRANCH   3   5
HETATM    5  N9  UNL     1     -24.852  17.934   9.630  1.00 20.00     0.106 N 
HETATM    6  H21 UNL     1     -25.767  18.348   9.784  1.00 20.00     0.318 HD
BRANCH   5   7
HETATM    7  C4  UNL     1     -24.322  17.467  10.913  1.00 20.00     0.226 A 
HETATM    8  C2  UNL     1     -24.865  16.208  11.539  1.00 20.00     0.042 A 
HETATM    9  C3  UNL     1     -25.139  17.542  12.181  1.00 20.00     0.016 A 
HETATM   10  C5  UNL     1     -26.525  18.091  12.199  1.00 20.00     0.012 C 
ENDBRANCH   5   7
ENDBRANCH   3   5
TORSDOF 2
ENDMDL
MODEL 2
REMARK VINA RESULT:      -4.1     15.710     16.362
REMARK  2 active torsions:
REMARK  status: ('A' for Active; 'I' for Inactive)
REMARK    1  A    between atoms: C4_4  and  N9_9 
REMARK    2  A    between atoms: C7_7  and  N9_9 
ROOT
HETATM    1  C1  UNL     1     -32.668   7.566   1.639  1.00 20.00     0.094 C 
HETATM    2  C6  UNL     1     -32.976   5.128   1.838  1.00 20.00     0.059 C 
HETATM    3  C7  UNL     1     -32.637   6.424   2.561  1.00 20.00     0.322 C 
HETATM    4  N8  UNL     1     -32.691   8.469   0.910  1.00 20.00    -0.195 NA
ENDROOT
BRANCH   3   5
HETATM    5  N9  UNL     1     -33.558   6.652   3.663  1.00 20.00     0.106 N 
HETATM    6  H21 UNL     1     -33.053   7.043   4.454  1.00 20.00     0.318 HD
BRANCH   5   7
HETATM    7  C4  UNL     1     -34.188   5.397   4.079  1.00 20.00     0.226 A 
HETATM    8  C2  UNL     1     -35.666   5.357   4.370  1.00 20.00     0.042 A 
HETATM    9  C3  UNL     1     -34.677   5.188   5.491  1.00 20.00     0.016 A 
HETATM   10  C5  UNL     1     -34.549   6.240   6.539  1.00 20.00     0.012 C 
ENDBRANCH   5   7
ENDBRANCH   3   5
TORSDOF 2
ENDMDL
MODEL 3
REMARK VINA RESULT:      -4.1     16.248     17.777
REMARK  2 active torsions:
REMARK  status: ('A' for Active; 'I' for Inactive)
REMARK    1  A    between atoms: C4_4  and  N9_9 
REMARK    2  A    between atoms: C7_7  and  N9_9 
ROOT
HETATM    1  C1  UNL     1     -36.364  13.806  -4.465  1.00 20.00     0.094 C 
HETATM    2  C6  UNL     1     -36.610  16.049  -5.457  1.00 20.00     0.059 C 
HETATM    3  C7  UNL     1     -36.995  15.123  -4.312  1.00 20.00     0.322 C 
HETATM    4  N8  UNL     1     -35.866  12.764  -4.586  1.00 20.00    -0.195 NA
ENDROOT
BRANCH   3   5
HETATM    5  N9  UNL     1     -36.622  15.706  -3.034  1.00 20.00     0.106 N 
HETATM    6  H21 UNL     1     -37.359  16.329  -2.715  1.00 20.00     0.318 HD
BRANCH   5   7
HETATM    7  C4  UNL     1     -35.379  16.470  -3.157  1.00 20.00     0.226 A 
HETATM    8  C2  UNL     1     -34.091  15.904  -2.615  1.00 20.00     0.042 A 
HETATM    9  C3  UNL     1     -34.717  17.103  -1.957  1.00 20.00     0.016 A 
HETATM   10  C5  UNL     1     -35.288  16.988  -0.584  1.00 20.00     0.012 C 
ENDBRANCH   5   7
ENDBRANCH   3   5
TORSDOF 2
ENDMDL
MODEL 4
REMARK VINA RESULT:      -4.0     15.938     17.560
REMARK  2 active torsions:
REMARK  status: ('A' for Active; 'I' for Inactive)
REMARK    1  A    between atoms: C4_4  and  N9_9 
REMARK    2  A    between atoms: C7_7  and  N9_9 
ROOT
HETATM    1  C1  UNL     1     -37.076  14.331  -4.435  1.00 20.00     0.094 C 
HETATM    2  C6  UNL     1     -34.737  13.679  -4.005  1.00 20.00     0.059 C 
HETATM    3  C7  UNL     1     -35.673  14.748  -4.554  1.00 20.00     0.322 C 
HETATM    4  N8  UNL     1     -38.184  14.000  -4.343  1.00 20.00    -0.195 NA
ENDROOT
BRANCH   3   5
HETATM    5  N9  UNL     1     -35.472  16.010  -3.862  1.00 20.00     0.106 N 
HETATM    6  H21 UNL     1     -34.946  16.645  -4.457  1.00 20.00     0.318 HD
BRANCH   5   7
HETATM    7  C4  UNL     1     -34.728  15.805  -2.617  1.00 20.00     0.226 A 
HETATM    8  C2  UNL     1     -34.895  16.770  -1.472  1.00 20.00     0.042 A 
HETATM    9  C3  UNL     1     -33.589  16.711  -2.217  1.00 20.00     0.016 A 
HETATM   10  C5  UNL     1     -33.158  17.862  -3.061  1.00 20.00     0.012 C 
ENDBRANCH   5   7
ENDBRANCH   3   5
TORSDOF 2
ENDMDL
MODEL 5
REMARK VINA RESULT:      -4.0     16.207     17.785
REMARK  2 active torsions:
REMARK  status: ('A' for Active; 'I' for Inactive)
REMARK    1  A    between atoms: C4_4  and  N9_9 
REMARK    2  A    between atoms: C7_7  and  N9_9 
ROOT
HETATM    1  C1  UNL     1     -35.930  13.923  -4.961  1.00 20.00     0.094 C 
HETATM    2  C6  UNL     1     -34.223  15.136  -6.263  1.00 20.00     0.059 C 
HETATM    3  C7  UNL     1     -35.533  15.233  -5.494  1.00 20.00     0.322 C 
HETATM    4  N8  UNL     1     -36.244  12.888  -4.541  1.00 20.00    -0.195 NA
ENDROOT
BRANCH   3   5
HETATM    5  N9  UNL     1     -35.422  16.195  -4.409  1.00 20.00     0.106 N 
HETATM    6  H21 UNL     1     -34.907  17.011  -4.729  1.00 20.00     0.318 HD
BRANCH   5   7
HETATM    7  C4  UNL     1     -34.716  15.608  -3.268  1.00 20.00     0.226 A 
HETATM    8  C2  UNL     1     -34.796  16.265  -1.914  1.00 20.00     0.042 A 
HETATM    9  C3  UNL     1     -33.495  16.265  -2.671  1.00 20.00     0.016 A 
HETATM   10  C5  UNL     1     -32.941  17.542  -3.203  1.00 20.00     0.012 C 
ENDBRANCH   5   7
ENDBRANCH   3   5
TORSDOF 2
ENDMDL
MODEL 6
REMARK VINA RESULT:      -3.9     15.156     16.692
REMARK  2 active torsions:
REMARK  status: ('A' for Active; 'I' for Inactive)
REMARK    1  A    between atoms: C4_4  and  N9_9 
REMARK    2  A    between atoms: C7_7  and  N9_9 
ROOT
HETATM    1  C1  UNL     1     -35.358  13.720  -4.287  1.00 20.00     0.094 C 
HETATM    2  C6  UNL     1     -33.052  14.589  -4.352  1.00 20.00     0.059 C 
HETATM    3  C7  UNL     1     -34.517  14.907  -4.085  1.00 20.00     0.322 C 
HETATM    4  N8  UNL     1     -36.024  12.784  -4.449  1.00 20.00    -0.195 NA
ENDROOT
BRANCH   3   5
HETATM    5  N9  UNL     1     -34.694  15.415  -2.735  1.00 20.00     0.106 N 
HETATM    6  H21 UNL     1     -35.649  15.246  -2.429  1.00 20.00     0.318 HD
BRANCH   5   7
HETATM    7  C4  UNL     1     -34.430  16.855  -2.686  1.00 20.00     0.226 A 
HETATM    8  C2  UNL     1     -33.308  17.387  -1.832  1.00 20.00     0.042 A 
HETATM    9  C3  UNL     1     -34.736  17.674  -1.455  1.00 20.00     0.016 A 
HETATM   10  C5  UNL     1     -35.320  17.068  -0.224  1.00 20.00     0.012 C 
ENDBRANCH   5   7
ENDBRANCH   3   5
TORSDOF 2
ENDMDL
MODEL 7
REMARK VINA RESULT:      -3.7     13.194     15.012
REMARK  2 active torsions:
REMARK  status: ('A' for Active; 'I' for Inactive)
REMARK    1  A    between atoms: C4_4  and  N9_9 
REMARK    2  A    between atoms: C7_7  and  N9_9 
ROOT
HETATM    1  C1  UNL     1     -31.765  18.473  -0.725  1.00 20.00     0.094 C 
HETATM    2  C6  UNL     1     -34.079  18.126   0.052  1.00 20.00     0.059 C 
HETATM    3  C7  UNL     1     -33.182  18.703  -1.035  1.00 20.00     0.322 C 
HETATM    4  N8  UNL     1     -30.645  18.293  -0.480  1.00 20.00    -0.195 NA
ENDROOT
BRANCH   3   5
HETATM    5  N9  UNL     1     -33.506  18.124  -2.328  1.00 20.00     0.106 N 
HETATM    6  H21 UNL     1     -34.475  18.327  -2.560  1.00 20.00     0.318 HD
BRANCH   5   7
HETATM    7  C4  UNL     1     -33.321  16.670  -2.304  1.00 20.00     0.226 A 
HETATM    8  C2  UNL     1     -33.271  15.897  -3.597  1.00 20.00     0.042 A 
HETATM    9  C3  UNL     1     -34.441  15.725  -2.667  1.00 20.00     0.016 A 
HETATM   10  C5  UNL     1     -35.792  16.212  -3.068  1.00 20.00     0.012 C 
ENDBRANCH   5   7
ENDBRANCH   3   5
TORSDOF 2
ENDMDL
MODEL 8
REMARK VINA RESULT:      -3.7     16.897     18.824
REMARK  2 active torsions:
REMARK  status: ('A' for Active; 'I' for Inactive)
REMARK    1  A    between atoms: C4_4  and  N9_9 
REMARK    2  A    between atoms: C7_7  and  N9_9 
ROOT
HETATM    1  C1  UNL     1     -35.078  13.599  -4.217  1.00 20.00     0.094 C 
HETATM    2  C6  UNL     1     -34.575  15.679  -2.991  1.00 20.00     0.059 C 
HETATM    3  C7  UNL     1     -34.026  14.564  -3.871  1.00 20.00     0.322 C 
HETATM    4  N8  UNL     1     -35.908  12.835  -4.488  1.00 20.00    -0.195 NA
ENDROOT
BRANCH   3   5
HETATM    5  N9  UNL     1     -33.438  15.110  -5.084  1.00 20.00     0.106 N 
HETATM    6  H21 UNL     1     -33.168  16.077  -4.926  1.00 20.00     0.318 HD
BRANCH   5   7
HETATM    7  C4  UNL     1     -34.398  15.063  -6.190  1.00 20.00     0.226 A 
HETATM    8  C2  UNL     1     -33.943  15.367  -7.594  1.00 20.00     0.042 A 
HETATM    9  C3  UNL     1     -34.868  16.318  -6.884  1.00 20.00     0.016 A 
HETATM   10  C5  UNL     1     -34.386  17.672  -6.486  1.00 20.00     0.012 C 
ENDBRANCH   5   7
ENDBRANCH   3   5
TORSDOF 2
ENDMDL
MODEL 9
REMARK VINA RESULT:      -3.7     15.703     16.704
REMARK  2 active torsions:
REMARK  status: ('A' for Active; 'I' for Inactive)
REMARK    1  A    between atoms: C4_4  and  N9_9 
REMARK    2  A    between atoms: C7_7  and  N9_9 
ROOT
HETATM    1  C1  UNL     1     -34.770   5.308   5.229  1.00 20.00     0.094 C 
HETATM    2  C6  UNL     1     -33.840   4.303   3.178  1.00 20.00     0.059 C 
HETATM    3  C7  UNL     1     -34.671   5.433   3.768  1.00 20.00     0.322 C 
HETATM    4  N8  UNL     1     -34.850   5.208   6.382  1.00 20.00    -0.195 NA
ENDROOT
BRANCH   3   5
HETATM    5  N9  UNL     1     -34.103   6.724   3.420  1.00 20.00     0.106 N 
HETATM    6  H21 UNL     1     -34.682   7.174   2.716  1.00 20.00     0.318 HD
BRANCH   5   7
HETATM    7  C4  UNL     1     -32.748   6.565   2.885  1.00 20.00     0.226 A 
HETATM    8  C2  UNL     1     -31.695   7.601   3.182  1.00 20.00     0.042 A 
HETATM    9  C3  UNL     1     -32.225   7.453   1.781  1.00 20.00     0.016 A 
HETATM   10  C5  UNL     1     -33.050   8.537   1.177  1.00 20.00     0.012 C 
ENDBRANCH   5   7
ENDBRANCH   3   5
TORSDOF 2
ENDMDL
