MODEL 1
REMARK VINA RESULT:      -4.2      0.000      0.000
REMARK  1 active torsions:
REMARK  status: ('A' for Active; 'I' for Inactive)
REMARK    1  A    between atoms: C8_8  and  N10_10 
ROOT
HETATM    1  C1  UNL     1     -34.122  14.803  -4.651  1.00 20.00     0.130 C 
HETATM    2  C2  UNL     1     -32.926  15.246  -3.843  1.00 20.00     0.108 C 
HETATM    3  C3  UNL     1     -35.423  14.686  -3.894  1.00 20.00     0.108 C 
HETATM    4  C5  UNL     1     -33.285  16.445  -2.970  1.00 20.00     0.280 C 
HETATM    5  C6  UNL     1     -35.644  15.916  -3.019  1.00 20.00     0.280 C 
HETATM    6  N10 UNL     1     -34.481  16.177  -2.157  1.00 20.00     0.094 N 
HETATM    7  O11 UNL     1     -34.018  14.449  -5.824  1.00 20.00    -0.298 OA
ENDROOT
BRANCH   6   8
HETATM    8  C8  UNL     1     -34.753  17.305  -1.266  1.00 20.00     0.227 A 
HETATM    9  C4  UNL     1     -36.171  17.665  -0.906  1.00 20.00     0.042 A 
HETATM   10  C7  UNL     1     -35.264  17.065   0.132  1.00 20.00     0.017 A 
HETATM   11  C9  UNL     1     -34.767  17.897   1.264  1.00 20.00     0.012 C 
ENDBRANCH   6   8
TORSDOF 1
ENDMDL
MODEL 2
REMARK VINA RESULT:      -4.1      1.705      2.275
REMARK  1 active torsions:
REMARK  status: ('A' for Active; 'I' for Inactive)
REMARK    1  A    between atoms: C8_8  and  N10_10 
ROOT
HETATM    1  C1  UNL     1     -35.242  14.511  -5.417  1.00 20.00     0.130 C 
HETATM    2  C2  UNL     1     -34.410  15.642  -5.972  1.00 20.00     0.108 C 
HETATM    3  C3  UNL     1     -34.986  14.149  -3.973  1.00 20.00     0.108 C 
HETATM    4  C5  UNL     1     -34.386  16.816  -4.996  1.00 20.00     0.280 C 
HETATM    5  C6  UNL     1     -34.930  15.405  -3.109  1.00 20.00     0.280 C 
HETATM    6  N10 UNL     1     -33.977  16.387  -3.650  1.00 20.00     0.094 N 
HETATM    7  O11 UNL     1     -35.998  13.852  -6.128  1.00 20.00    -0.298 OA
ENDROOT
BRANCH   6   8
HETATM    8  C8  UNL     1     -33.877  17.541  -2.758  1.00 20.00     0.227 A 
HETATM    9  C4  UNL     1     -34.098  17.378  -1.276  1.00 20.00     0.042 A 
HETATM   10  C7  UNL     1     -32.718  17.665  -1.800  1.00 20.00     0.017 A 
HETATM   11  C9  UNL     1     -32.085  18.991  -1.558  1.00 20.00     0.012 C 
ENDBRANCH   6   8
TORSDOF 1
ENDMDL
MODEL 3
REMARK VINA RESULT:      -4.1      2.602      4.887
REMARK  1 active torsions:
REMARK  status: ('A' for Active; 'I' for Inactive)
REMARK    1  A    between atoms: C8_8  and  N10_10 
ROOT
HETATM    1  C1  UNL     1     -33.596  18.235  -0.421  1.00 20.00     0.130 C 
HETATM    2  C2  UNL     1     -34.776  17.308  -0.265  1.00 20.00     0.108 C 
HETATM    3  C3  UNL     1     -32.496  17.756  -1.339  1.00 20.00     0.108 C 
HETATM    4  C5  UNL     1     -35.237  16.795  -1.627  1.00 20.00     0.280 C 
HETATM    5  C6  UNL     1     -33.083  17.219  -2.641  1.00 20.00     0.280 C 
HETATM    6  N10 UNL     1     -34.121  16.209  -2.385  1.00 20.00     0.094 N 
HETATM    7  O11 UNL     1     -33.484  19.263   0.245  1.00 20.00    -0.298 OA
ENDROOT
BRANCH   6   8
HETATM    8  C8  UNL     1     -34.604  15.646  -3.646  1.00 20.00     0.227 A 
HETATM    9  C4  UNL     1     -33.679  14.841  -4.522  1.00 20.00     0.042 A 
HETATM   10  C7  UNL     1     -34.801  14.158  -3.789  1.00 20.00     0.017 A 
HETATM   11  C9  UNL     1     -35.973  13.628  -4.541  1.00 20.00     0.012 C 
ENDBRANCH   6   8
TORSDOF 1
ENDMDL
MODEL 4
REMARK VINA RESULT:      -4.0      1.691      2.481
REMARK  1 active torsions:
REMARK  status: ('A' for Active; 'I' for Inactive)
REMARK    1  A    between atoms: C8_8  and  N10_10 
ROOT
HETATM    1  C1  UNL     1     -35.376  14.002  -4.333  1.00 20.00     0.130 C 
HETATM    2  C2  UNL     1     -36.098  14.987  -3.446  1.00 20.00     0.108 C 
HETATM    3  C3  UNL     1     -34.104  14.500  -4.975  1.00 20.00     0.108 C 
HETATM    4  C5  UNL     1     -35.116  15.677  -2.503  1.00 20.00     0.280 C 
HETATM    5  C6  UNL     1     -33.232  15.217  -3.948  1.00 20.00     0.280 C 
HETATM    6  N10 UNL     1     -33.986  16.264  -3.241  1.00 20.00     0.094 N 
HETATM    7  O11 UNL     1     -35.854  12.903  -4.606  1.00 20.00    -0.298 OA
ENDROOT
BRANCH   6   8
HETATM    8  C8  UNL     1     -33.107  16.993  -2.328  1.00 20.00     0.227 A 
HETATM    9  C4  UNL     1     -32.598  18.363  -2.695  1.00 20.00     0.042 A 
HETATM   10  C7  UNL     1     -33.613  18.210  -1.595  1.00 20.00     0.017 A 
HETATM   11  C9  UNL     1     -33.222  18.446  -0.177  1.00 20.00     0.012 C 
ENDBRANCH   6   8
TORSDOF 1
ENDMDL
MODEL 5
REMARK VINA RESULT:      -4.0      2.570      3.485
REMARK  1 active torsions:
REMARK  status: ('A' for Active; 'I' for Inactive)
REMARK    1  A    between atoms: C8_8  and  N10_10 
ROOT
HETATM    1  C1  UNL     1     -37.475  14.631  -4.372  1.00 20.00     0.130 C 
HETATM    2  C2  UNL     1     -37.593  16.113  -4.633  1.00 20.00     0.108 C 
HETATM    3  C3  UNL     1     -36.070  14.092  -4.246  1.00 20.00     0.108 C 
HETATM    4  C5  UNL     1     -36.673  16.895  -3.700  1.00 20.00     0.280 C 
HETATM    5  C6  UNL     1     -35.235  14.986  -3.334  1.00 20.00     0.280 C 
HETATM    6  N10 UNL     1     -35.292  16.392  -3.762  1.00 20.00     0.094 N 
HETATM    7  O11 UNL     1     -38.457  13.890  -4.375  1.00 20.00    -0.298 OA
ENDROOT
BRANCH   6   8
HETATM    8  C8  UNL     1     -34.415  17.213  -2.928  1.00 20.00     0.227 A 
HETATM    9  C4  UNL     1     -33.031  16.730  -2.575  1.00 20.00     0.042 A 
HETATM   10  C7  UNL     1     -33.203  17.882  -3.527  1.00 20.00     0.017 A 
HETATM   11  C9  UNL     1     -32.827  19.261  -3.108  1.00 20.00     0.012 C 
ENDBRANCH   6   8
TORSDOF 1
ENDMDL
MODEL 6
REMARK VINA RESULT:      -3.8     11.362     12.059
REMARK  1 active torsions:
REMARK  status: ('A' for Active; 'I' for Inactive)
REMARK    1  A    between atoms: C8_8  and  N10_10 
ROOT
HETATM    1  C1  UNL     1     -34.538   5.370   5.640  1.00 20.00     0.130 C 
HETATM    2  C2  UNL     1     -34.155   6.808   5.893  1.00 20.00     0.108 C 
HETATM    3  C3  UNL     1     -34.856   5.013   4.208  1.00 20.00     0.108 C 
HETATM    4  C5  UNL     1     -33.136   7.279   4.858  1.00 20.00     0.280 C 
HETATM    5  C6  UNL     1     -33.799   5.583   3.268  1.00 20.00     0.280 C 
HETATM    6  N10 UNL     1     -33.606   7.024   3.488  1.00 20.00     0.094 N 
HETATM    7  O11 UNL     1     -34.692   4.568   6.560  1.00 20.00    -0.298 OA
ENDROOT
BRANCH   6   8
HETATM    8  C8  UNL     1     -32.654   7.563   2.517  1.00 20.00     0.227 A 
HETATM    9  C4  UNL     1     -32.375   6.822   1.234  1.00 20.00     0.042 A 
HETATM   10  C7  UNL     1     -33.141   8.116   1.201  1.00 20.00     0.017 A 
HETATM   11  C9  UNL     1     -32.517   9.341   0.627  1.00 20.00     0.012 C 
ENDBRANCH   6   8
TORSDOF 1
ENDMDL
MODEL 7
REMARK VINA RESULT:      -3.7      2.476      4.815
REMARK  1 active torsions:
REMARK  status: ('A' for Active; 'I' for Inactive)
REMARK    1  A    between atoms: C8_8  and  N10_10 
ROOT
HETATM    1  C1  UNL     1     -34.016  17.706  -0.838  1.00 20.00     0.130 C 
HETATM    2  C2  UNL     1     -33.114  18.100  -1.983  1.00 20.00     0.108 C 
HETATM    3  C3  UNL     1     -35.289  16.988  -1.216  1.00 20.00     0.108 C 
HETATM    4  C5  UNL     1     -32.946  16.935  -2.955  1.00 20.00     0.280 C 
HETATM    5  C6  UNL     1     -35.000  15.886  -2.231  1.00 20.00     0.280 C 
HETATM    6  N10 UNL     1     -34.248  16.402  -3.385  1.00 20.00     0.094 N 
HETATM    7  O11 UNL     1     -33.782  18.048   0.320  1.00 20.00    -0.298 OA
ENDROOT
BRANCH   6   8
HETATM    8  C8  UNL     1     -34.061  15.348  -4.381  1.00 20.00     0.227 A 
HETATM    9  C4  UNL     1     -35.218  14.471  -4.786  1.00 20.00     0.042 A 
HETATM   10  C7  UNL     1     -34.669  15.483  -5.755  1.00 20.00     0.017 A 
HETATM   11  C9  UNL     1     -33.911  15.035  -6.956  1.00 20.00     0.012 C 
ENDBRANCH   6   8
TORSDOF 1
ENDMDL
MODEL 8
REMARK VINA RESULT:      -3.7      2.479      4.981
REMARK  1 active torsions:
REMARK  status: ('A' for Active; 'I' for Inactive)
REMARK    1  A    between atoms: C8_8  and  N10_10 
ROOT
HETATM    1  C1  UNL     1     -34.986  16.814  -1.534  1.00 20.00     0.130 C 
HETATM    2  C2  UNL     1     -33.601  16.831  -2.135  1.00 20.00     0.108 C 
HETATM    3  C3  UNL     1     -36.133  16.846  -2.515  1.00 20.00     0.108 C 
HETATM    4  C5  UNL     1     -33.506  15.833  -3.286  1.00 20.00     0.280 C 
HETATM    5  C6  UNL     1     -35.897  15.848  -3.644  1.00 20.00     0.280 C 
HETATM    6  N10 UNL     1     -34.580  16.044  -4.269  1.00 20.00     0.094 N 
HETATM    7  O11 UNL     1     -35.168  16.885  -0.319  1.00 20.00    -0.298 OA
ENDROOT
BRANCH   6   8
HETATM    8  C8  UNL     1     -34.416  15.136  -5.403  1.00 20.00     0.227 A 
HETATM    9  C4  UNL     1     -35.618  14.661  -6.178  1.00 20.00     0.042 A 
HETATM   10  C7  UNL     1     -34.652  15.625  -6.810  1.00 20.00     0.017 A 
HETATM   11  C9  UNL     1     -33.763  15.175  -7.918  1.00 20.00     0.012 C 
ENDBRANCH   6   8
TORSDOF 1
ENDMDL
MODEL 9
REMARK VINA RESULT:      -3.6     15.572     17.068
REMARK  1 active torsions:
REMARK  status: ('A' for Active; 'I' for Inactive)
REMARK    1  A    between atoms: C8_8  and  N10_10 
ROOT
HETATM    1  C1  UNL     1     -28.141  18.333  11.816  1.00 20.00     0.130 C 
HETATM    2  C2  UNL     1     -27.584  19.050  10.609  1.00 20.00     0.108 C 
HETATM    3  C3  UNL     1     -27.367  17.122  12.280  1.00 20.00     0.108 C 
HETATM    4  C5  UNL     1     -26.078  19.250  10.754  1.00 20.00     0.280 C 
HETATM    5  C6  UNL     1     -25.874  17.430  12.332  1.00 20.00     0.280 C 
HETATM    6  N10 UNL     1     -25.395  17.983  11.056  1.00 20.00     0.094 N 
HETATM    7  O11 UNL     1     -29.217  18.648  12.319  1.00 20.00    -0.298 OA
ENDROOT
BRANCH   6   8
HETATM    8  C8  UNL     1     -23.947  18.185  11.103  1.00 20.00     0.227 A 
HETATM    9  C4  UNL     1     -23.051  17.132  11.702  1.00 20.00     0.042 A 
HETATM   10  C7  UNL     1     -23.036  17.373  10.217  1.00 20.00     0.017 A 
HETATM   11  C9  UNL     1     -21.853  18.010   9.574  1.00 20.00     0.012 C 
ENDBRANCH   6   8
TORSDOF 1
ENDMDL
