MODEL 1
REMARK VINA RESULT:      -4.7      0.000      0.000
REMARK  2 active torsions:
REMARK  status: ('A' for Active; 'I' for Inactive)
REMARK    1  A    between atoms: C5_5  and  N8_8 
REMARK    2  A    between atoms: C7_7  and  N8_8 
ROOT
HETATM    1  C1  UNL     1     -34.705   5.633   5.950  1.00 20.00     0.013 C 
HETATM    2  C2  UNL     1     -34.583   5.208   4.834  1.00 20.00    -0.087 C 
HETATM    3  C7  UNL     1     -34.440   4.686   3.473  1.00 20.00     0.362 C 
ENDROOT
BRANCH   3   4
HETATM    4  N8  UNL     1     -33.211   5.168   2.865  1.00 20.00     0.099 N 
HETATM    5  H19 UNL     1     -33.122   4.790   1.926  1.00 20.00     0.317 HD
BRANCH   4   6
HETATM    6  C5  UNL     1     -33.215   6.632   2.784  1.00 20.00     0.225 A 
HETATM    7  C3  UNL     1     -32.017   7.423   3.241  1.00 20.00     0.042 A 
HETATM    8  C4  UNL     1     -32.346   7.341   1.776  1.00 20.00     0.016 A 
HETATM    9  C6  UNL     1     -32.859   8.540   1.056  1.00 20.00     0.012 C 
ENDBRANCH   4   6
ENDBRANCH   3   4
TORSDOF 2
ENDMDL
MODEL 2
REMARK VINA RESULT:      -4.5      0.897      4.294
REMARK  2 active torsions:
REMARK  status: ('A' for Active; 'I' for Inactive)
REMARK    1  A    between atoms: C5_5  and  N8_8 
REMARK    2  A    between atoms: C7_7  and  N8_8 
ROOT
HETATM    1  C1  UNL     1     -32.920   8.643   0.479  1.00 20.00     0.013 C 
HETATM    2  C2  UNL     1     -32.606   7.977   1.428  1.00 20.00    -0.087 C 
HETATM    3  C7  UNL     1     -32.219   7.168   2.586  1.00 20.00     0.362 C 
ENDROOT
BRANCH   3   4
HETATM    4  N8  UNL     1     -33.134   6.052   2.761  1.00 20.00     0.099 N 
HETATM    5  H19 UNL     1     -32.614   5.226   3.045  1.00 20.00     0.317 HD
BRANCH   4   6
HETATM    6  C5  UNL     1     -34.131   6.358   3.791  1.00 20.00     0.225 A 
HETATM    7  C3  UNL     1     -35.194   5.351   4.143  1.00 20.00     0.042 A 
HETATM    8  C4  UNL     1     -34.093   5.650   5.122  1.00 20.00     0.016 A 
HETATM    9  C6  UNL     1     -34.388   6.396   6.376  1.00 20.00     0.012 C 
ENDBRANCH   4   6
ENDBRANCH   3   4
TORSDOF 2
ENDMDL
MODEL 3
REMARK VINA RESULT:      -4.4      1.351      2.121
REMARK  2 active torsions:
REMARK  status: ('A' for Active; 'I' for Inactive)
REMARK    1  A    between atoms: C5_5  and  N8_8 
REMARK    2  A    between atoms: C7_7  and  N8_8 
ROOT
HETATM    1  C1  UNL     1     -33.724   7.266   6.231  1.00 20.00     0.013 C 
HETATM    2  C2  UNL     1     -34.281   6.246   5.927  1.00 20.00    -0.087 C 
HETATM    3  C7  UNL     1     -34.962   5.002   5.563  1.00 20.00     0.362 C 
ENDROOT
BRANCH   3   4
HETATM    4  N8  UNL     1     -34.904   4.787   4.127  1.00 20.00     0.099 N 
HETATM    5  H19 UNL     1     -35.593   5.373   3.665  1.00 20.00     0.317 HD
BRANCH   4   6
HETATM    6  C5  UNL     1     -33.575   5.126   3.608  1.00 20.00     0.225 A 
HETATM    7  C3  UNL     1     -33.160   4.682   2.230  1.00 20.00     0.042 A 
HETATM    8  C4  UNL     1     -33.425   6.137   2.500  1.00 20.00     0.016 A 
HETATM    9  C6  UNL     1     -32.298   7.111   2.522  1.00 20.00     0.012 C 
ENDBRANCH   4   6
ENDBRANCH   3   4
TORSDOF 2
ENDMDL
MODEL 4
REMARK VINA RESULT:      -4.3      1.167      3.714
REMARK  2 active torsions:
REMARK  status: ('A' for Active; 'I' for Inactive)
REMARK    1  A    between atoms: C5_5  and  N8_8 
REMARK    2  A    between atoms: C7_7  and  N8_8 
ROOT
HETATM    1  C1  UNL     1     -32.241   7.176   2.697  1.00 20.00     0.013 C 
HETATM    2  C2  UNL     1     -32.834   6.141   2.558  1.00 20.00    -0.087 C 
HETATM    3  C7  UNL     1     -33.557   4.879   2.384  1.00 20.00     0.362 C 
ENDROOT
BRANCH   3   4
HETATM    4  N8  UNL     1     -33.976   4.345   3.669  1.00 20.00     0.099 N 
HETATM    5  H19 UNL     1     -33.171   3.967   4.161  1.00 20.00     0.317 HD
BRANCH   4   6
HETATM    6  C5  UNL     1     -34.578   5.399   4.493  1.00 20.00     0.225 A 
HETATM    7  C3  UNL     1     -35.211   5.060   5.817  1.00 20.00     0.042 A 
HETATM    8  C4  UNL     1     -33.920   5.828   5.780  1.00 20.00     0.016 A 
HETATM    9  C6  UNL     1     -33.894   7.267   6.163  1.00 20.00     0.012 C 
ENDBRANCH   4   6
ENDBRANCH   3   4
TORSDOF 2
ENDMDL
MODEL 5
REMARK VINA RESULT:      -4.1      1.551      2.394
REMARK  2 active torsions:
REMARK  status: ('A' for Active; 'I' for Inactive)
REMARK    1  A    between atoms: C5_5  and  N8_8 
REMARK    2  A    between atoms: C7_7  and  N8_8 
ROOT
HETATM    1  C1  UNL     1     -34.926   4.838   5.906  1.00 20.00     0.013 C 
HETATM    2  C2  UNL     1     -34.392   5.914   5.928  1.00 20.00    -0.087 C 
HETATM    3  C7  UNL     1     -33.744   7.227   5.959  1.00 20.00     0.362 C 
ENDROOT
BRANCH   3   4
HETATM    4  N8  UNL     1     -32.748   7.332   4.905  1.00 20.00     0.099 N 
HETATM    5  H19 UNL     1     -31.950   6.744   5.129  1.00 20.00     0.317 HD
BRANCH   4   6
HETATM    6  C5  UNL     1     -33.307   6.897   3.622  1.00 20.00     0.225 A 
HETATM    7  C3  UNL     1     -32.590   7.210   2.335  1.00 20.00     0.042 A 
HETATM    8  C4  UNL     1     -32.644   5.794   2.837  1.00 20.00     0.016 A 
HETATM    9  C6  UNL     1     -33.470   4.778   2.127  1.00 20.00     0.012 C 
ENDBRANCH   4   6
ENDBRANCH   3   4
TORSDOF 2
ENDMDL
MODEL 6
REMARK VINA RESULT:      -3.9     15.730     16.338
REMARK  2 active torsions:
REMARK  status: ('A' for Active; 'I' for Inactive)
REMARK    1  A    between atoms: C5_5  and  N8_8 
REMARK    2  A    between atoms: C7_7  and  N8_8 
ROOT
HETATM    1  C1  UNL     1     -26.204  17.903  12.332  1.00 20.00     0.013 C 
HETATM    2  C2  UNL     1     -25.481  17.006  11.994  1.00 20.00    -0.087 C 
HETATM    3  C7  UNL     1     -24.603  15.909  11.582  1.00 20.00     0.362 C 
ENDROOT
BRANCH   3   4
HETATM    4  N8  UNL     1     -23.281  16.408  11.245  1.00 20.00     0.099 N 
HETATM    5  H19 UNL     1     -22.609  15.646  11.277  1.00 20.00     0.317 HD
BRANCH   4   6
HETATM    6  C5  UNL     1     -23.275  16.983   9.896  1.00 20.00     0.225 A 
HETATM    7  C3  UNL     1     -23.094  18.466   9.702  1.00 20.00     0.042 A 
HETATM    8  C4  UNL     1     -21.997  17.519   9.302  1.00 20.00     0.016 A 
HETATM    9  C6  UNL     1     -21.689  17.296   7.862  1.00 20.00     0.012 C 
ENDBRANCH   4   6
ENDBRANCH   3   4
TORSDOF 2
ENDMDL
MODEL 7
REMARK VINA RESULT:      -3.7      9.311     10.316
REMARK  2 active torsions:
REMARK  status: ('A' for Active; 'I' for Inactive)
REMARK    1  A    between atoms: C5_5  and  N8_8 
REMARK    2  A    between atoms: C7_7  and  N8_8 
ROOT
HETATM    1  C1  UNL     1     -41.620   2.347  -4.173  1.00 20.00     0.013 C 
HETATM    2  C2  UNL     1     -42.097   3.045  -3.321  1.00 20.00    -0.087 C 
HETATM    3  C7  UNL     1     -42.684   3.896  -2.282  1.00 20.00     0.362 C 
ENDROOT
BRANCH   3   4
HETATM    4  N8  UNL     1     -41.643   4.523  -1.484  1.00 20.00     0.099 N 
HETATM    5  H19 UNL     1     -40.920   4.893  -2.095  1.00 20.00     0.317 HD
BRANCH   4   6
HETATM    6  C5  UNL     1     -42.197   5.625  -0.691  1.00 20.00     0.225 A 
HETATM    7  C3  UNL     1     -42.425   5.456   0.789  1.00 20.00     0.042 A 
HETATM    8  C4  UNL     1     -41.329   6.361   0.299  1.00 20.00     0.016 A 
HETATM    9  C6  UNL     1     -41.454   7.838   0.451  1.00 20.00     0.012 C 
ENDBRANCH   4   6
ENDBRANCH   3   4
TORSDOF 2
ENDMDL
MODEL 8
REMARK VINA RESULT:      -3.6      1.536      3.856
REMARK  2 active torsions:
REMARK  status: ('A' for Active; 'I' for Inactive)
REMARK    1  A    between atoms: C5_5  and  N8_8 
REMARK    2  A    between atoms: C7_7  and  N8_8 
ROOT
HETATM    1  C1  UNL     1     -33.246   4.296   2.246  1.00 20.00     0.013 C 
HETATM    2  C2  UNL     1     -32.968   5.456   2.378  1.00 20.00    -0.087 C 
HETATM    3  C7  UNL     1     -32.625   6.872   2.534  1.00 20.00     0.362 C 
ENDROOT
BRANCH   3   4
HETATM    4  N8  UNL     1     -33.394   7.470   3.614  1.00 20.00     0.099 N 
HETATM    5  H19 UNL     1     -34.357   7.598   3.317  1.00 20.00     0.317 HD
BRANCH   4   6
HETATM    6  C5  UNL     1     -33.377   6.605   4.798  1.00 20.00     0.225 A 
HETATM    7  C3  UNL     1     -33.837   7.134   6.131  1.00 20.00     0.042 A 
HETATM    8  C4  UNL     1     -34.670   6.117   5.402  1.00 20.00     0.016 A 
HETATM    9  C6  UNL     1     -34.775   4.725   5.920  1.00 20.00     0.012 C 
ENDBRANCH   4   6
ENDBRANCH   3   4
TORSDOF 2
ENDMDL
MODEL 9
REMARK VINA RESULT:      -3.5     11.343     11.855
REMARK  2 active torsions:
REMARK  status: ('A' for Active; 'I' for Inactive)
REMARK    1  A    between atoms: C5_5  and  N8_8 
REMARK    2  A    between atoms: C7_7  and  N8_8 
ROOT
HETATM    1  C1  UNL     1     -35.847  13.918  -4.269  1.00 20.00     0.013 C 
HETATM    2  C2  UNL     1     -34.704  14.264  -4.388  1.00 20.00    -0.087 C 
HETATM    3  C7  UNL     1     -33.307  14.681  -4.536  1.00 20.00     0.362 C 
ENDROOT
BRANCH   3   4
HETATM    4  N8  UNL     1     -33.144  16.074  -4.155  1.00 20.00     0.099 N 
HETATM    5  H19 UNL     1     -33.822  16.646  -4.651  1.00 20.00     0.317 HD
BRANCH   4   6
HETATM    6  C5  UNL     1     -33.354  16.241  -2.713  1.00 20.00     0.225 A 
HETATM    7  C3  UNL     1     -32.931  17.513  -2.026  1.00 20.00     0.042 A 
HETATM    8  C4  UNL     1     -34.392  17.208  -2.202  1.00 20.00     0.016 A 
HETATM    9  C6  UNL     1     -35.229  16.852  -1.022  1.00 20.00     0.012 C 
ENDBRANCH   4   6
ENDBRANCH   3   4
TORSDOF 2
ENDMDL
