MODEL 1
REMARK VINA RESULT:      -4.1      0.000      0.000
REMARK  3 active torsions:
REMARK  status: ('A' for Active; 'I' for Inactive)
REMARK    1  A    between atoms: C4_4  and  N10_10 
REMARK    2  A    between atoms: C7_7  and  C8_8 
REMARK    3  A    between atoms: C7_7  and  N10_10 
ROOT
HETATM    1  C1  UNL     1     -36.205  13.838  -4.976  1.00 20.00     0.065 C 
HETATM    2  C6  UNL     1     -35.543  15.781  -6.348  1.00 20.00     0.027 C 
HETATM    3  C8  UNL     1     -36.653  15.134  -5.520  1.00 20.00     0.116 C 
HETATM    4  N9  UNL     1     -35.853  12.818  -4.548  1.00 20.00    -0.197 NA
ENDROOT
BRANCH   3   5
HETATM    5  C7  UNL     1     -37.165  16.064  -4.411  1.00 20.00     0.288 C 
BRANCH   5   6
HETATM    6  N10 UNL     1     -36.615  15.714  -3.113  1.00 20.00     0.089 N 
HETATM    7  H24 UNL     1     -37.371  15.486  -2.472  1.00 20.00     0.316 HD
BRANCH   6   8
HETATM    8  C4  UNL     1     -35.850  16.835  -2.557  1.00 20.00     0.224 A 
HETATM    9  C2  UNL     1     -35.056  16.663  -1.288  1.00 20.00     0.042 A 
HETATM   10  C3  UNL     1     -34.343  16.878  -2.595  1.00 20.00     0.016 A 
HETATM   11  C5  UNL     1     -33.526  15.784  -3.190  1.00 20.00     0.012 C 
ENDBRANCH   6   8
ENDBRANCH   5   6
ENDBRANCH   3   5
TORSDOF 3
ENDMDL
MODEL 2
REMARK VINA RESULT:      -4.0      1.480      2.266
REMARK  3 active torsions:
REMARK  status: ('A' for Active; 'I' for Inactive)
REMARK    1  A    between atoms: C4_4  and  N10_10 
REMARK    2  A    between atoms: C7_7  and  C8_8 
REMARK    3  A    between atoms: C7_7  and  N10_10 
ROOT
HETATM    1  C1  UNL     1     -35.919  13.837  -5.075  1.00 20.00     0.065 C 
HETATM    2  C6  UNL     1     -35.793  14.857  -7.320  1.00 20.00     0.027 C 
HETATM    3  C8  UNL     1     -35.449  15.009  -5.838  1.00 20.00     0.116 C 
HETATM    4  N9  UNL     1     -36.290  12.916  -4.474  1.00 20.00    -0.197 NA
ENDROOT
BRANCH   3   5
HETATM    5  C7  UNL     1     -33.952  15.262  -5.615  1.00 20.00     0.288 C 
BRANCH   5   6
HETATM    6  N10 UNL     1     -33.502  14.762  -4.327  1.00 20.00     0.089 N 
HETATM    7  H24 UNL     1     -34.284  14.339  -3.834  1.00 20.00     0.316 HD
BRANCH   6   8
HETATM    8  C4  UNL     1     -32.965  15.854  -3.509  1.00 20.00     0.224 A 
HETATM    9  C2  UNL     1     -33.498  17.255  -3.659  1.00 20.00     0.042 A 
HETATM   10  C3  UNL     1     -33.756  16.488  -2.391  1.00 20.00     0.016 A 
HETATM   11  C5  UNL     1     -35.140  16.056  -2.046  1.00 20.00     0.012 C 
ENDBRANCH   6   8
ENDBRANCH   5   6
ENDBRANCH   3   5
TORSDOF 3
ENDMDL
MODEL 3
REMARK VINA RESULT:      -4.0     16.034     17.969
REMARK  3 active torsions:
REMARK  status: ('A' for Active; 'I' for Inactive)
REMARK    1  A    between atoms: C4_4  and  N10_10 
REMARK    2  A    between atoms: C7_7  and  C8_8 
REMARK    3  A    between atoms: C7_7  and  N10_10 
ROOT
HETATM    1  C1  UNL     1     -24.402  19.181   6.684  1.00 20.00     0.065 C 
HETATM    2  C6  UNL     1     -22.901  17.989   8.241  1.00 20.00     0.027 C 
HETATM    3  C8  UNL     1     -23.881  19.149   8.064  1.00 20.00     0.116 C 
HETATM    4  N9  UNL     1     -24.811  19.207   5.599  1.00 20.00    -0.197 NA
ENDROOT
BRANCH   3   5
HETATM    5  C7  UNL     1     -25.018  19.108   9.094  1.00 20.00     0.288 C 
BRANCH   5   6
HETATM    6  N10 UNL     1     -24.988  17.892   9.889  1.00 20.00     0.089 N 
HETATM    7  H24 UNL     1     -25.721  17.262   9.575  1.00 20.00     0.316 HD
BRANCH   6   8
HETATM    8  C4  UNL     1     -25.202  18.196  11.307  1.00 20.00     0.224 A 
HETATM    9  C2  UNL     1     -25.208  17.093  12.332  1.00 20.00     0.042 A 
HETATM   10  C3  UNL     1     -24.095  18.105  12.327  1.00 20.00     0.016 A 
HETATM   11  C5  UNL     1     -22.709  17.693  11.969  1.00 20.00     0.012 C 
ENDBRANCH   6   8
ENDBRANCH   5   6
ENDBRANCH   3   5
TORSDOF 3
ENDMDL
MODEL 4
REMARK VINA RESULT:      -4.0     11.157     12.167
REMARK  3 active torsions:
REMARK  status: ('A' for Active; 'I' for Inactive)
REMARK    1  A    between atoms: C4_4  and  N10_10 
REMARK    2  A    between atoms: C7_7  and  C8_8 
REMARK    3  A    between atoms: C7_7  and  N10_10 
ROOT
HETATM    1  C1  UNL     1     -32.785   8.124   1.182  1.00 20.00     0.065 C 
HETATM    2  C6  UNL     1     -31.494   7.524   3.200  1.00 20.00     0.027 C 
HETATM    3  C8  UNL     1     -32.813   7.360   2.444  1.00 20.00     0.116 C 
HETATM    4  N9  UNL     1     -32.764   8.726   0.190  1.00 20.00    -0.197 NA
ENDROOT
BRANCH   3   5
HETATM    5  C7  UNL     1     -33.161   5.885   2.201  1.00 20.00     0.288 C 
BRANCH   5   6
HETATM    6  N10 UNL     1     -33.266   5.139   3.443  1.00 20.00     0.089 N 
HETATM    7  H24 UNL     1     -33.129   4.148   3.259  1.00 20.00     0.316 HD
BRANCH   6   8
HETATM    8  C4  UNL     1     -34.588   5.328   4.048  1.00 20.00     0.224 A 
HETATM    9  C2  UNL     1     -34.924   4.680   5.366  1.00 20.00     0.042 A 
HETATM   10  C3  UNL     1     -34.799   6.176   5.277  1.00 20.00     0.016 A 
HETATM   11  C5  UNL     1     -33.678   6.875   5.968  1.00 20.00     0.012 C 
ENDBRANCH   6   8
ENDBRANCH   5   6
ENDBRANCH   3   5
TORSDOF 3
ENDMDL
MODEL 5
REMARK VINA RESULT:      -3.8      1.461      2.022
REMARK  3 active torsions:
REMARK  status: ('A' for Active; 'I' for Inactive)
REMARK    1  A    between atoms: C4_4  and  N10_10 
REMARK    2  A    between atoms: C7_7  and  C8_8 
REMARK    3  A    between atoms: C7_7  and  N10_10 
ROOT
HETATM    1  C1  UNL     1     -35.502  13.962  -4.406  1.00 20.00     0.065 C 
HETATM    2  C6  UNL     1     -33.510  15.287  -3.793  1.00 20.00     0.027 C 
HETATM    3  C8  UNL     1     -34.974  15.329  -4.233  1.00 20.00     0.116 C 
HETATM    4  N9  UNL     1     -35.917  12.888  -4.543  1.00 20.00    -0.197 NA
ENDROOT
BRANCH   3   5
HETATM    5  C7  UNL     1     -35.844  16.151  -3.273  1.00 20.00     0.288 C 
BRANCH   5   6
HETATM    6  N10 UNL     1     -35.414  16.008  -1.892  1.00 20.00     0.089 N 
HETATM    7  H24 UNL     1     -35.968  15.288  -1.436  1.00 20.00     0.316 HD
BRANCH   6   8
HETATM    8  C4  UNL     1     -35.588  17.268  -1.164  1.00 20.00     0.224 A 
HETATM    9  C2  UNL     1     -35.145  17.388   0.271  1.00 20.00     0.042 A 
HETATM   10  C3  UNL     1     -34.425  18.158  -0.802  1.00 20.00     0.016 A 
HETATM   11  C5  UNL     1     -33.018  17.815  -1.152  1.00 20.00     0.012 C 
ENDBRANCH   6   8
ENDBRANCH   5   6
ENDBRANCH   3   5
TORSDOF 3
ENDMDL
MODEL 6
REMARK VINA RESULT:      -3.8      1.477      1.922
REMARK  3 active torsions:
REMARK  status: ('A' for Active; 'I' for Inactive)
REMARK    1  A    between atoms: C4_4  and  N10_10 
REMARK    2  A    between atoms: C7_7  and  C8_8 
REMARK    3  A    between atoms: C7_7  and  N10_10 
ROOT
HETATM    1  C1  UNL     1     -36.866  14.118  -4.547  1.00 20.00     0.065 C 
HETATM    2  C6  UNL     1     -39.031  15.304  -4.479  1.00 20.00     0.027 C 
HETATM    3  C8  UNL     1     -37.593  15.260  -3.961  1.00 20.00     0.116 C 
HETATM    4  N9  UNL     1     -36.294  13.219  -5.007  1.00 20.00    -0.197 NA
ENDROOT
BRANCH   3   5
HETATM    5  C7  UNL     1     -36.851  16.582  -4.201  1.00 20.00     0.288 C 
BRANCH   5   6
HETATM    6  N10 UNL     1     -35.520  16.368  -4.742  1.00 20.00     0.089 N 
HETATM    7  H24 UNL     1     -35.408  15.390  -4.995  1.00 20.00     0.316 HD
BRANCH   6   8
HETATM    8  C4  UNL     1     -34.497  16.718  -3.752  1.00 20.00     0.224 A 
HETATM    9  C2  UNL     1     -34.340  15.902  -2.496  1.00 20.00     0.042 A 
HETATM   10  C3  UNL     1     -33.259  15.883  -3.542  1.00 20.00     0.016 A 
HETATM   11  C5  UNL     1     -32.991  14.640  -4.319  1.00 20.00     0.012 C 
ENDBRANCH   6   8
ENDBRANCH   5   6
ENDBRANCH   3   5
TORSDOF 3
ENDMDL
MODEL 7
REMARK VINA RESULT:      -3.8      1.784      2.783
REMARK  3 active torsions:
REMARK  status: ('A' for Active; 'I' for Inactive)
REMARK    1  A    between atoms: C4_4  and  N10_10 
REMARK    2  A    between atoms: C7_7  and  C8_8 
REMARK    3  A    between atoms: C7_7  and  N10_10 
ROOT
HETATM    1  C1  UNL     1     -36.336  15.801  -5.890  1.00 20.00     0.065 C 
HETATM    2  C6  UNL     1     -36.068  13.671  -4.670  1.00 20.00     0.027 C 
HETATM    3  C8  UNL     1     -35.535  14.566  -5.789  1.00 20.00     0.116 C 
HETATM    4  N9  UNL     1     -36.966  16.772  -5.971  1.00 20.00    -0.197 NA
ENDROOT
BRANCH   3   5
HETATM    5  C7  UNL     1     -34.041  14.877  -5.621  1.00 20.00     0.288 C 
BRANCH   5   6
HETATM    6  N10 UNL     1     -33.822  16.130  -4.919  1.00 20.00     0.089 N 
HETATM    7  H24 UNL     1     -33.156  16.698  -5.437  1.00 20.00     0.316 HD
BRANCH   6   8
HETATM    8  C4  UNL     1     -33.288  15.884  -3.577  1.00 20.00     0.224 A 
HETATM    9  C2  UNL     1     -32.985  17.034  -2.653  1.00 20.00     0.042 A 
HETATM   10  C3  UNL     1     -34.112  16.092  -2.331  1.00 20.00     0.016 A 
HETATM   11  C5  UNL     1     -35.523  16.569  -2.375  1.00 20.00     0.012 C 
ENDBRANCH   6   8
ENDBRANCH   5   6
ENDBRANCH   3   5
TORSDOF 3
ENDMDL
MODEL 8
REMARK VINA RESULT:      -3.8      3.598      6.079
REMARK  3 active torsions:
REMARK  status: ('A' for Active; 'I' for Inactive)
REMARK    1  A    between atoms: C4_4  and  N10_10 
REMARK    2  A    between atoms: C7_7  and  C8_8 
REMARK    3  A    between atoms: C7_7  and  N10_10 
ROOT
HETATM    1  C1  UNL     1     -31.592  18.474   0.210  1.00 20.00     0.065 C 
HETATM    2  C6  UNL     1     -32.416  18.007   2.490  1.00 20.00     0.027 C 
HETATM    3  C8  UNL     1     -32.712  18.676   1.148  1.00 20.00     0.116 C 
HETATM    4  N9  UNL     1     -30.710  18.317  -0.528  1.00 20.00    -0.197 NA
ENDROOT
BRANCH   3   5
HETATM    5  C7  UNL     1     -34.042  18.202   0.546  1.00 20.00     0.288 C 
BRANCH   5   6
HETATM    6  N10 UNL     1     -33.890  17.762  -0.830  1.00 20.00     0.089 N 
HETATM    7  H24 UNL     1     -33.914  18.568  -1.450  1.00 20.00     0.316 HD
BRANCH   6   8
HETATM    8  C4  UNL     1     -34.975  16.848  -1.203  1.00 20.00     0.224 A 
HETATM    9  C2  UNL     1     -35.766  17.077  -2.464  1.00 20.00     0.042 A 
HETATM   10  C3  UNL     1     -34.856  15.885  -2.357  1.00 20.00     0.016 A 
HETATM   11  C5  UNL     1     -33.633  15.799  -3.204  1.00 20.00     0.012 C 
ENDBRANCH   6   8
ENDBRANCH   5   6
ENDBRANCH   3   5
TORSDOF 3
ENDMDL
MODEL 9
REMARK VINA RESULT:      -3.7      1.847      3.979
REMARK  3 active torsions:
REMARK  status: ('A' for Active; 'I' for Inactive)
REMARK    1  A    between atoms: C4_4  and  N10_10 
REMARK    2  A    between atoms: C7_7  and  C8_8 
REMARK    3  A    between atoms: C7_7  and  N10_10 
ROOT
HETATM    1  C1  UNL     1     -36.065  13.996  -4.242  1.00 20.00     0.065 C 
HETATM    2  C6  UNL     1     -34.733  15.533  -2.842  1.00 20.00     0.027 C 
HETATM    3  C8  UNL     1     -34.696  14.403  -3.871  1.00 20.00     0.116 C 
HETATM    4  N9  UNL     1     -37.141  13.674  -4.533  1.00 20.00    -0.197 NA
ENDROOT
BRANCH   3   5
HETATM    5  C7  UNL     1     -33.865  14.774  -5.107  1.00 20.00     0.288 C 
BRANCH   5   6
HETATM    6  N10 UNL     1     -34.049  16.163  -5.490  1.00 20.00     0.089 N 
HETATM    7  H24 UNL     1     -34.785  16.578  -4.923  1.00 20.00     0.316 HD
BRANCH   6   8
HETATM    8  C4  UNL     1     -34.430  16.263  -6.902  1.00 20.00     0.224 A 
HETATM    9  C2  UNL     1     -35.339  15.235  -7.523  1.00 20.00     0.042 A 
HETATM   10  C3  UNL     1     -35.822  16.647  -7.337  1.00 20.00     0.016 A 
HETATM   11  C5  UNL     1     -36.911  16.943  -6.363  1.00 20.00     0.012 C 
ENDBRANCH   6   8
ENDBRANCH   5   6
ENDBRANCH   3   5
TORSDOF 3
ENDMDL
