MODEL 1
REMARK VINA RESULT:      -4.2      0.000      0.000
REMARK  1 active torsions:
REMARK  status: ('A' for Active; 'I' for Inactive)
REMARK    1  A    between atoms: C4_4  and  N6_6 
ROOT
HETATM    1  C1  UNL     1     -32.780   7.047   2.530  1.00 20.00     0.158 C 
HETATM    2  N6  UNL     1     -32.996   6.364   3.465  1.00 20.00    -0.270 NA
HETATM    3  S7  UNL     1     -32.470   7.976   1.275  1.00 20.00    -0.055 SA
ENDROOT
BRANCH   2   4
HETATM    4  C4  UNL     1     -34.247   5.617   3.413  1.00 20.00     0.114 A 
HETATM    5  C2  UNL     1     -34.258   4.232   4.001  1.00 20.00     0.034 A 
HETATM    6  C3  UNL     1     -34.997   5.345   4.691  1.00 20.00     0.008 A 
HETATM    7  C5  UNL     1     -34.522   5.856   6.007  1.00 20.00     0.012 C 
ENDBRANCH   2   4
TORSDOF 1
ENDMDL
MODEL 2
REMARK VINA RESULT:      -3.3     16.629     16.977
REMARK  1 active torsions:
REMARK  status: ('A' for Active; 'I' for Inactive)
REMARK    1  A    between atoms: C4_4  and  N6_6 
ROOT
HETATM    1  C1  UNL     1     -22.856  17.012   9.587  1.00 20.00     0.158 C 
HETATM    2  N6  UNL     1     -23.837  16.657  10.135  1.00 20.00    -0.270 NA
HETATM    3  S7  UNL     1     -21.540  17.488   8.827  1.00 20.00    -0.055 SA
ENDROOT
BRANCH   2   4
HETATM    4  C4  UNL     1     -23.784  16.698  11.591  1.00 20.00     0.114 A 
HETATM    5  C2  UNL     1     -23.163  17.909  12.233  1.00 20.00     0.034 A 
HETATM    6  C3  UNL     1     -24.647  17.687  12.332  1.00 20.00     0.008 A 
HETATM    7  C5  UNL     1     -25.589  18.596  11.623  1.00 20.00     0.012 C 
ENDBRANCH   2   4
TORSDOF 1
ENDMDL
MODEL 3
REMARK VINA RESULT:      -3.3     16.053     16.721
REMARK  1 active torsions:
REMARK  status: ('A' for Active; 'I' for Inactive)
REMARK    1  A    between atoms: C4_4  and  N6_6 
ROOT
HETATM    1  C1  UNL     1     -25.025  19.051   6.678  1.00 20.00     0.158 C 
HETATM    2  N6  UNL     1     -23.948  18.889   7.128  1.00 20.00    -0.270 NA
HETATM    3  S7  UNL     1     -26.473  19.263   6.051  1.00 20.00    -0.055 SA
ENDROOT
BRANCH   2   4
HETATM    4  C4  UNL     1     -23.826  19.155   8.556  1.00 20.00     0.114 A 
HETATM    5  C2  UNL     1     -24.128  18.028   9.505  1.00 20.00     0.034 A 
HETATM    6  C3  UNL     1     -22.712  18.504   9.335  1.00 20.00     0.008 A 
HETATM    7  C5  UNL     1     -21.701  17.627   8.679  1.00 20.00     0.012 C 
ENDBRANCH   2   4
TORSDOF 1
ENDMDL
MODEL 4
REMARK VINA RESULT:      -3.2     16.167     16.859
REMARK  1 active torsions:
REMARK  status: ('A' for Active; 'I' for Inactive)
REMARK    1  A    between atoms: C4_4  and  N6_6 
ROOT
HETATM    1  C1  UNL     1     -24.314  18.556   8.737  1.00 20.00     0.158 C 
HETATM    2  N6  UNL     1     -23.756  18.094   9.665  1.00 20.00    -0.270 NA
HETATM    3  S7  UNL     1     -25.051  19.179   7.470  1.00 20.00    -0.055 SA
ENDROOT
BRANCH   2   4
HETATM    4  C4  UNL     1     -24.568  17.943  10.866  1.00 20.00     0.114 A 
HETATM    5  C2  UNL     1     -24.583  16.596  11.535  1.00 20.00     0.034 A 
HETATM    6  C3  UNL     1     -23.889  17.754  12.197  1.00 20.00     0.008 A 
HETATM    7  C5  UNL     1     -22.405  17.760  12.332  1.00 20.00     0.012 C 
ENDBRANCH   2   4
TORSDOF 1
ENDMDL
MODEL 5
REMARK VINA RESULT:      -3.1      9.602      9.992
REMARK  1 active torsions:
REMARK  status: ('A' for Active; 'I' for Inactive)
REMARK    1  A    between atoms: C4_4  and  N6_6 
ROOT
HETATM    1  C1  UNL     1     -42.610   4.105  -2.102  1.00 20.00     0.158 C 
HETATM    2  N6  UNL     1     -42.680   4.992  -1.330  1.00 20.00    -0.270 NA
HETATM    3  S7  UNL     1     -42.536   2.904  -3.145  1.00 20.00    -0.055 SA
ENDROOT
BRANCH   2   4
HETATM    4  C4  UNL     1     -41.404   5.579  -0.940  1.00 20.00     0.114 A 
HETATM    5  C2  UNL     1     -41.196   7.043  -1.214  1.00 20.00     0.034 A 
HETATM    6  C3  UNL     1     -41.362   6.562   0.201  1.00 20.00     0.008 A 
HETATM    7  C5  UNL     1     -42.583   6.921   0.976  1.00 20.00     0.012 C 
ENDBRANCH   2   4
TORSDOF 1
ENDMDL
MODEL 6
REMARK VINA RESULT:      -3.1     16.116     17.093
REMARK  1 active torsions:
REMARK  status: ('A' for Active; 'I' for Inactive)
REMARK    1  A    between atoms: C4_4  and  N6_6 
ROOT
HETATM    1  C1  UNL     1     -24.445  16.612  11.133  1.00 20.00     0.158 C 
HETATM    2  N6  UNL     1     -23.681  16.699  10.241  1.00 20.00    -0.270 NA
HETATM    3  S7  UNL     1     -25.484  16.476  12.332  1.00 20.00    -0.055 SA
ENDROOT
BRANCH   2   4
HETATM    4  C4  UNL     1     -22.859  17.903  10.243  1.00 20.00     0.114 A 
HETATM    5  C2  UNL     1     -21.764  18.002   9.216  1.00 20.00     0.034 A 
HETATM    6  C3  UNL     1     -22.979  18.880   9.102  1.00 20.00     0.008 A 
HETATM    7  C5  UNL     1     -23.949  18.675   7.989  1.00 20.00     0.012 C 
ENDBRANCH   2   4
TORSDOF 1
ENDMDL
MODEL 7
REMARK VINA RESULT:      -3.0     16.615     17.308
REMARK  1 active torsions:
REMARK  status: ('A' for Active; 'I' for Inactive)
REMARK    1  A    between atoms: C4_4  and  N6_6 
ROOT
HETATM    1  C1  UNL     1     -26.192  18.198  11.816  1.00 20.00     0.158 C 
HETATM    2  N6  UNL     1     -25.124  18.501  11.422  1.00 20.00    -0.270 NA
HETATM    3  S7  UNL     1     -27.644  17.798  12.332  1.00 20.00    -0.055 SA
ENDROOT
BRANCH   2   4
HETATM    4  C4  UNL     1     -24.006  17.987  12.201  1.00 20.00     0.114 A 
HETATM    5  C2  UNL     1     -23.544  16.583  11.918  1.00 20.00     0.034 A 
HETATM    6  C3  UNL     1     -22.681  17.749  11.523  1.00 20.00     0.008 A 
HETATM    7  C5  UNL     1     -22.466  18.068  10.084  1.00 20.00     0.012 C 
ENDBRANCH   2   4
TORSDOF 1
ENDMDL
MODEL 8
REMARK VINA RESULT:      -3.0      9.673     10.054
REMARK  1 active torsions:
REMARK  status: ('A' for Active; 'I' for Inactive)
REMARK    1  A    between atoms: C4_4  and  N6_6 
ROOT
HETATM    1  C1  UNL     1     -43.317   5.474  -1.523  1.00 20.00     0.158 C 
HETATM    2  N6  UNL     1     -43.251   6.501  -0.950  1.00 20.00    -0.270 NA
HETATM    3  S7  UNL     1     -43.417   4.095  -2.312  1.00 20.00    -0.055 SA
ENDROOT
BRANCH   2   4
HETATM    4  C4  UNL     1     -42.518   6.464   0.309  1.00 20.00     0.114 A 
HETATM    5  C2  UNL     1     -41.019   6.355   0.240  1.00 20.00     0.034 A 
HETATM    6  C3  UNL     1     -41.656   7.639   0.695  1.00 20.00     0.008 A 
HETATM    7  C5  UNL     1     -41.566   8.861  -0.152  1.00 20.00     0.012 C 
ENDBRANCH   2   4
TORSDOF 1
ENDMDL
MODEL 9
REMARK VINA RESULT:      -3.0      9.228      9.688
REMARK  1 active torsions:
REMARK  status: ('A' for Active; 'I' for Inactive)
REMARK    1  A    between atoms: C4_4  and  N6_6 
ROOT
HETATM    1  C1  UNL     1     -42.170   5.564   0.685  1.00 20.00     0.158 C 
HETATM    2  N6  UNL     1     -41.240   6.228   0.397  1.00 20.00    -0.270 NA
HETATM    3  S7  UNL     1     -43.417   4.662   1.092  1.00 20.00    -0.055 SA
ENDROOT
BRANCH   2   4
HETATM    4  C4  UNL     1     -41.318   6.873  -0.908  1.00 20.00     0.114 A 
HETATM    5  C2  UNL     1     -42.630   7.493  -1.304  1.00 20.00     0.034 A 
HETATM    6  C3  UNL     1     -41.453   8.372  -0.983  1.00 20.00     0.008 A 
HETATM    7  C5  UNL     1     -41.465   9.224   0.239  1.00 20.00     0.012 C 
ENDBRANCH   2   4
TORSDOF 1
ENDMDL
