MODEL 1
REMARK VINA RESULT:      -4.9      0.000      0.000
REMARK  3 active torsions:
REMARK  status: ('A' for Active; 'I' for Inactive)
REMARK    1  A    between atoms: C2_2  and  C8_8 
REMARK    2  A    between atoms: C5_5  and  N9_9 
REMARK    3  A    between atoms: C8_8  and  N9_9 
ROOT
HETATM    1  C1  UNL     1     -32.907   8.299   0.878  1.00 20.00    -0.109 C 
HETATM    2  C2  UNL     1     -32.579   7.647   1.832  1.00 20.00    -0.077 C 
HETATM    3  C6  UNL     1     -33.307   9.093  -0.282  1.00 20.00     0.112 C 
ENDROOT
BRANCH   2   4
HETATM    4  C8  UNL     1     -32.184   6.854   3.000  1.00 20.00     0.363 C 
BRANCH   4   5
HETATM    5  N9  UNL     1     -33.234   6.849   4.005  1.00 20.00     0.099 N 
HETATM    6  H22 UNL     1     -33.632   7.780   4.088  1.00 20.00     0.317 HD
BRANCH   5   7
HETATM    7  C5  UNL     1     -34.300   5.914   3.631  1.00 20.00     0.225 A 
HETATM    8  C3  UNL     1     -34.086   4.427   3.745  1.00 20.00     0.042 A 
HETATM    9  C4  UNL     1     -35.068   5.114   4.654  1.00 20.00     0.016 A 
HETATM   10  C7  UNL     1     -34.792   5.213   6.116  1.00 20.00     0.012 C 
ENDBRANCH   5   7
ENDBRANCH   4   5
ENDBRANCH   2   4
TORSDOF 3
ENDMDL
MODEL 2
REMARK VINA RESULT:      -4.0     15.502     16.357
REMARK  3 active torsions:
REMARK  status: ('A' for Active; 'I' for Inactive)
REMARK    1  A    between atoms: C2_2  and  C8_8 
REMARK    2  A    between atoms: C5_5  and  N9_9 
REMARK    3  A    between atoms: C8_8  and  N9_9 
ROOT
HETATM    1  C1  UNL     1     -25.477  18.934   7.113  1.00 20.00    -0.109 C 
HETATM    2  C2  UNL     1     -24.622  19.066   7.947  1.00 20.00    -0.077 C 
HETATM    3  C6  UNL     1     -26.518  18.773   6.100  1.00 20.00     0.112 C 
ENDROOT
BRANCH   2   4
HETATM    4  C8  UNL     1     -23.582  19.224   8.968  1.00 20.00     0.363 C 
BRANCH   4   5
HETATM    5  N9  UNL     1     -24.052  18.763  10.264  1.00 20.00     0.099 N 
HETATM    6  H22 UNL     1     -24.956  18.309  10.158  1.00 20.00     0.317 HD
BRANCH   5   7
HETATM    7  C5  UNL     1     -23.109  17.800  10.842  1.00 20.00     0.225 A 
HETATM    8  C3  UNL     1     -22.882  17.753  12.330  1.00 20.00     0.042 A 
HETATM    9  C4  UNL     1     -23.564  16.604  11.640  1.00 20.00     0.016 A 
HETATM   10  C7  UNL     1     -25.004  16.320  11.903  1.00 20.00     0.012 C 
ENDBRANCH   5   7
ENDBRANCH   4   5
ENDBRANCH   2   4
TORSDOF 3
ENDMDL
MODEL 3
REMARK VINA RESULT:      -3.9      1.469      2.116
REMARK  3 active torsions:
REMARK  status: ('A' for Active; 'I' for Inactive)
REMARK    1  A    between atoms: C2_2  and  C8_8 
REMARK    2  A    between atoms: C5_5  and  N9_9 
REMARK    3  A    between atoms: C8_8  and  N9_9 
ROOT
HETATM    1  C1  UNL     1     -32.796   6.993   1.884  1.00 20.00    -0.109 C 
HETATM    2  C2  UNL     1     -33.108   5.872   2.181  1.00 20.00    -0.077 C 
HETATM    3  C6  UNL     1     -32.417   8.358   1.524  1.00 20.00     0.112 C 
ENDROOT
BRANCH   2   4
HETATM    4  C8  UNL     1     -33.494   4.506   2.546  1.00 20.00     0.363 C 
BRANCH   4   5
HETATM    5  N9  UNL     1     -33.584   4.358   3.989  1.00 20.00     0.099 N 
HETATM    6  H22 UNL     1     -32.758   4.759   4.426  1.00 20.00     0.317 HD
BRANCH   5   7
HETATM    7  C5  UNL     1     -34.770   5.050   4.505  1.00 20.00     0.225 A 
HETATM    8  C3  UNL     1     -35.060   5.068   5.983  1.00 20.00     0.042 A 
HETATM    9  C4  UNL     1     -34.677   6.341   5.279  1.00 20.00     0.016 A 
HETATM   10  C7  UNL     1     -33.374   7.001   5.581  1.00 20.00     0.012 C 
ENDBRANCH   5   7
ENDBRANCH   4   5
ENDBRANCH   2   4
TORSDOF 3
ENDMDL
MODEL 4
REMARK VINA RESULT:      -3.9     15.433     16.296
REMARK  3 active torsions:
REMARK  status: ('A' for Active; 'I' for Inactive)
REMARK    1  A    between atoms: C2_2  and  C8_8 
REMARK    2  A    between atoms: C5_5  and  N9_9 
REMARK    3  A    between atoms: C8_8  and  N9_9 
ROOT
HETATM    1  C1  UNL     1     -25.461  19.061   6.887  1.00 20.00    -0.109 C 
HETATM    2  C2  UNL     1     -24.659  19.063   7.781  1.00 20.00    -0.077 C 
HETATM    3  C6  UNL     1     -26.439  19.061   5.800  1.00 20.00     0.112 C 
ENDROOT
BRANCH   2   4
HETATM    4  C8  UNL     1     -23.684  19.065   8.876  1.00 20.00     0.363 C 
BRANCH   4   5
HETATM    5  N9  UNL     1     -24.352  19.088  10.166  1.00 20.00     0.099 N 
HETATM    6  H22 UNL     1     -25.243  19.571  10.081  1.00 20.00     0.317 HD
BRANCH   5   7
HETATM    7  C5  UNL     1     -24.601  17.724  10.643  1.00 20.00     0.225 A 
HETATM    8  C3  UNL     1     -23.664  16.604  10.274  1.00 20.00     0.042 A 
HETATM    9  C4  UNL     1     -23.747  17.071  11.701  1.00 20.00     0.016 A 
HETATM   10  C7  UNL     1     -22.586  17.764  12.331  1.00 20.00     0.012 C 
ENDBRANCH   5   7
ENDBRANCH   4   5
ENDBRANCH   2   4
TORSDOF 3
ENDMDL
MODEL 5
REMARK VINA RESULT:      -3.8     16.093     17.067
REMARK  3 active torsions:
REMARK  status: ('A' for Active; 'I' for Inactive)
REMARK    1  A    between atoms: C2_2  and  C8_8 
REMARK    2  A    between atoms: C5_5  and  N9_9 
REMARK    3  A    between atoms: C8_8  and  N9_9 
ROOT
HETATM    1  C1  UNL     1     -26.911  17.889  12.223  1.00 20.00    -0.109 C 
HETATM    2  C2  UNL     1     -25.735  17.646  12.275  1.00 20.00    -0.077 C 
HETATM    3  C6  UNL     1     -28.341  18.182  12.158  1.00 20.00     0.112 C 
ENDROOT
BRANCH   2   4
HETATM    4  C8  UNL     1     -24.301  17.351  12.332  1.00 20.00     0.363 C 
BRANCH   4   5
HETATM    5  N9  UNL     1     -23.520  18.462  11.814  1.00 20.00     0.099 N 
HETATM    6  H22 UNL     1     -22.892  18.804  12.536  1.00 20.00     0.317 HD
BRANCH   5   7
HETATM    7  C5  UNL     1     -22.722  18.038  10.659  1.00 20.00     0.225 A 
HETATM    8  C3  UNL     1     -23.247  16.990   9.712  1.00 20.00     0.042 A 
HETATM    9  C4  UNL     1     -23.088  18.411   9.244  1.00 20.00     0.016 A 
HETATM   10  C7  UNL     1     -24.291  19.231   8.920  1.00 20.00     0.012 C 
ENDBRANCH   5   7
ENDBRANCH   4   5
ENDBRANCH   2   4
TORSDOF 3
ENDMDL
MODEL 6
REMARK VINA RESULT:      -3.8     11.306     12.414
REMARK  3 active torsions:
REMARK  status: ('A' for Active; 'I' for Inactive)
REMARK    1  A    between atoms: C2_2  and  C8_8 
REMARK    2  A    between atoms: C5_5  and  N9_9 
REMARK    3  A    between atoms: C8_8  and  N9_9 
ROOT
HETATM    1  C1  UNL     1     -31.719  18.323  -0.939  1.00 20.00    -0.109 C 
HETATM    2  C2  UNL     1     -32.429  18.303  -1.908  1.00 20.00    -0.077 C 
HETATM    3  C6  UNL     1     -30.854  18.345   0.239  1.00 20.00     0.112 C 
ENDROOT
BRANCH   2   4
HETATM    4  C8  UNL     1     -33.301  18.277  -3.086  1.00 20.00     0.363 C 
BRANCH   4   5
HETATM    5  N9  UNL     1     -32.907  17.219  -4.001  1.00 20.00     0.099 N 
HETATM    6  H22 UNL     1     -31.918  17.308  -4.221  1.00 20.00     0.317 HD
BRANCH   5   7
HETATM    7  C5  UNL     1     -33.138  15.903  -3.398  1.00 20.00     0.225 A 
HETATM    8  C3  UNL     1     -34.532  15.464  -3.032  1.00 20.00     0.042 A 
HETATM    9  C4  UNL     1     -33.799  14.775  -4.150  1.00 20.00     0.016 A 
HETATM   10  C7  UNL     1     -34.270  14.921  -5.557  1.00 20.00     0.012 C 
ENDBRANCH   5   7
ENDBRANCH   4   5
ENDBRANCH   2   4
TORSDOF 3
ENDMDL
MODEL 7
REMARK VINA RESULT:      -3.7     14.968     16.081
REMARK  3 active torsions:
REMARK  status: ('A' for Active; 'I' for Inactive)
REMARK    1  A    between atoms: C2_2  and  C8_8 
REMARK    2  A    between atoms: C5_5  and  N9_9 
REMARK    3  A    between atoms: C8_8  and  N9_9 
ROOT
HETATM    1  C1  UNL     1     -26.134  19.156   4.785  1.00 20.00    -0.109 C 
HETATM    2  C2  UNL     1     -25.797  19.206   5.937  1.00 20.00    -0.077 C 
HETATM    3  C6  UNL     1     -26.546  19.093   3.384  1.00 20.00     0.112 C 
ENDROOT
BRANCH   2   4
HETATM    4  C8  UNL     1     -25.384  19.262   7.342  1.00 20.00     0.363 C 
BRANCH   4   5
HETATM    5  N9  UNL     1     -23.961  19.000   7.477  1.00 20.00     0.099 N 
HETATM    6  H22 UNL     1     -23.435  19.690   6.946  1.00 20.00     0.317 HD
BRANCH   5   7
HETATM    7  C5  UNL     1     -23.553  19.078   8.883  1.00 20.00     0.225 A 
HETATM    8  C3  UNL     1     -23.784  17.914   9.811  1.00 20.00     0.042 A 
HETATM    9  C4  UNL     1     -22.382  18.299   9.428  1.00 20.00     0.016 A 
HETATM   10  C7  UNL     1     -21.562  17.390   8.576  1.00 20.00     0.012 C 
ENDBRANCH   5   7
ENDBRANCH   4   5
ENDBRANCH   2   4
TORSDOF 3
ENDMDL
MODEL 8
REMARK VINA RESULT:      -3.7      9.737     10.439
REMARK  3 active torsions:
REMARK  status: ('A' for Active; 'I' for Inactive)
REMARK    1  A    between atoms: C2_2  and  C8_8 
REMARK    2  A    between atoms: C5_5  and  N9_9 
REMARK    3  A    between atoms: C8_8  and  N9_9 
ROOT
HETATM    1  C1  UNL     1     -42.274   2.587  -3.379  1.00 20.00    -0.109 C 
HETATM    2  C2  UNL     1     -42.590   3.528  -2.703  1.00 20.00    -0.077 C 
HETATM    3  C6  UNL     1     -41.891   1.442  -4.204  1.00 20.00     0.112 C 
ENDROOT
BRANCH   2   4
HETATM    4  C8  UNL     1     -42.981   4.676  -1.880  1.00 20.00     0.363 C 
BRANCH   4   5
HETATM    5  N9  UNL     1     -42.292   4.657  -0.600  1.00 20.00     0.099 N 
HETATM    6  H22 UNL     1     -41.896   3.734  -0.439  1.00 20.00     0.317 HD
BRANCH   5   7
HETATM    7  C5  UNL     1     -41.208   5.643  -0.583  1.00 20.00     0.225 A 
HETATM    8  C3  UNL     1     -41.347   6.944  -1.331  1.00 20.00     0.042 A 
HETATM    9  C4  UNL     1     -41.312   6.945   0.172  1.00 20.00     0.016 A 
HETATM   10  C7  UNL     1     -42.528   7.322   0.949  1.00 20.00     0.012 C 
ENDBRANCH   5   7
ENDBRANCH   4   5
ENDBRANCH   2   4
TORSDOF 3
ENDMDL
MODEL 9
REMARK VINA RESULT:      -3.6     11.243     11.923
REMARK  3 active torsions:
REMARK  status: ('A' for Active; 'I' for Inactive)
REMARK    1  A    between atoms: C2_2  and  C8_8 
REMARK    2  A    between atoms: C5_5  and  N9_9 
REMARK    3  A    between atoms: C8_8  and  N9_9 
ROOT
HETATM    1  C1  UNL     1     -34.580  16.476  -1.895  1.00 20.00    -0.109 C 
HETATM    2  C2  UNL     1     -33.889  16.015  -2.764  1.00 20.00    -0.077 C 
HETATM    3  C6  UNL     1     -35.422  17.034  -0.839  1.00 20.00     0.112 C 
ENDROOT
BRANCH   2   4
HETATM    4  C8  UNL     1     -33.050  15.456  -3.828  1.00 20.00     0.363 C 
BRANCH   4   5
HETATM    5  N9  UNL     1     -33.824  14.587  -4.698  1.00 20.00     0.099 N 
HETATM    6  H22 UNL     1     -34.322  13.899  -4.138  1.00 20.00     0.317 HD
BRANCH   5   7
HETATM    7  C5  UNL     1     -34.803  15.364  -5.465  1.00 20.00     0.225 A 
HETATM    8  C3  UNL     1     -35.570  14.725  -6.593  1.00 20.00     0.042 A 
HETATM    9  C4  UNL     1     -36.289  15.140  -5.339  1.00 20.00     0.016 A 
HETATM   10  C7  UNL     1     -36.867  14.108  -4.431  1.00 20.00     0.012 C 
ENDBRANCH   5   7
ENDBRANCH   4   5
ENDBRANCH   2   4
TORSDOF 3
ENDMDL
