MODEL 1
REMARK VINA RESULT:      -6.0      0.000      0.000
REMARK  1 active torsions:
REMARK  status: ('A' for Active; 'I' for Inactive)
REMARK    1  A    between atoms: C5_5  and  C6_6 
ROOT
HETATM    1  C1  UNL     1     -34.218   4.204   4.317  1.00 20.00     0.014 A 
HETATM    2  C2  UNL     1     -34.390   6.137   6.084  1.00 20.00     0.275 C 
HETATM    3  C3  UNL     1     -35.028   5.138   5.173  1.00 20.00     0.021 A 
HETATM    4  C4  UNL     1     -34.703   5.528   3.780  1.00 20.00     0.034 A 
HETATM    5  C5  UNL     1     -33.887   6.786   3.849  1.00 20.00     0.331 C 
HETATM    6  N7  UNL     1     -33.407   6.837   5.242  1.00 20.00     0.097 N 
HETATM    7  H18 UNL     1     -33.279   7.799   5.550  1.00 20.00     0.316 HD
ENDROOT
BRANCH   5   8
HETATM    8  C6  UNL     1     -32.726   6.790   2.871  1.00 20.00     0.418 C 
HETATM    9  F8  UNL     1     -31.607   7.230   3.473  1.00 20.00    -0.169 F 
HETATM   10  F9  UNL     1     -32.501   5.548   2.405  1.00 20.00    -0.169 F 
HETATM   11  F10 UNL     1     -32.994   7.596   1.828  1.00 20.00    -0.169 F 
ENDBRANCH   5   8
TORSDOF 1
ENDMDL
MODEL 2
REMARK VINA RESULT:      -6.0      0.021      1.192
REMARK  1 active torsions:
REMARK  status: ('A' for Active; 'I' for Inactive)
REMARK    1  A    between atoms: C5_5  and  C6_6 
ROOT
HETATM    1  C1  UNL     1     -34.218   4.206   4.300  1.00 20.00     0.014 A 
HETATM    2  C2  UNL     1     -34.403   6.126   6.081  1.00 20.00     0.275 C 
HETATM    3  C3  UNL     1     -35.035   5.134   5.158  1.00 20.00     0.021 A 
HETATM    4  C4  UNL     1     -34.700   5.535   3.770  1.00 20.00     0.034 A 
HETATM    5  C5  UNL     1     -33.884   6.792   3.855  1.00 20.00     0.331 C 
HETATM    6  N7  UNL     1     -33.414   6.832   5.252  1.00 20.00     0.097 N 
HETATM    7  H18 UNL     1     -33.289   7.792   5.569  1.00 20.00     0.316 HD
ENDROOT
BRANCH   5   8
HETATM    8  C6  UNL     1     -32.717   6.804   2.886  1.00 20.00     0.418 C 
HETATM    9  F8  UNL     1     -32.974   7.621   1.850  1.00 20.00    -0.169 F 
HETATM   10  F9  UNL     1     -31.600   7.233   3.501  1.00 20.00    -0.169 F 
HETATM   11  F10 UNL     1     -32.492   5.567   2.407  1.00 20.00    -0.169 F 
ENDBRANCH   5   8
TORSDOF 1
ENDMDL
MODEL 3
REMARK VINA RESULT:      -5.2      2.709      3.688
REMARK  1 active torsions:
REMARK  status: ('A' for Active; 'I' for Inactive)
REMARK    1  A    between atoms: C5_5  and  C6_6 
ROOT
HETATM    1  C1  UNL     1     -32.444   6.858   3.639  1.00 20.00     0.014 A 
HETATM    2  C2  UNL     1     -33.485   4.715   2.538  1.00 20.00     0.275 C 
HETATM    3  C3  UNL     1     -33.242   6.190   2.552  1.00 20.00     0.021 A 
HETATM    4  C4  UNL     1     -33.946   6.751   3.730  1.00 20.00     0.034 A 
HETATM    5  C5  UNL     1     -34.644   5.612   4.415  1.00 20.00     0.331 C 
HETATM    6  N7  UNL     1     -33.981   4.405   3.887  1.00 20.00     0.097 N 
HETATM    7  H18 UNL     1     -34.622   3.614   3.869  1.00 20.00     0.316 HD
ENDROOT
BRANCH   5   8
HETATM    8  C6  UNL     1     -34.535   5.677   5.927  1.00 20.00     0.418 C 
HETATM    9  F8  UNL     1     -33.543   4.880   6.361  1.00 20.00    -0.169 F 
HETATM   10  F9  UNL     1     -34.277   6.936   6.325  1.00 20.00    -0.169 F 
HETATM   11  F10 UNL     1     -35.685   5.276   6.498  1.00 20.00    -0.169 F 
ENDBRANCH   5   8
TORSDOF 1
ENDMDL
MODEL 4
REMARK VINA RESULT:      -4.8     15.269     16.197
REMARK  1 active torsions:
REMARK  status: ('A' for Active; 'I' for Inactive)
REMARK    1  A    between atoms: C5_5  and  C6_6 
ROOT
HETATM    1  C1  UNL     1     -26.288  19.235  10.829  1.00 20.00     0.014 A 
HETATM    2  C2  UNL     1     -27.583  17.461  12.266  1.00 20.00     0.275 C 
HETATM    3  C3  UNL     1     -27.062  18.847  12.059  1.00 20.00     0.021 A 
HETATM    4  C4  UNL     1     -25.581  18.779  12.081  1.00 20.00     0.034 A 
HETATM    5  C5  UNL     1     -25.206  17.347  12.331  1.00 20.00     0.331 C 
HETATM    6  N7  UNL     1     -26.428  16.585  12.014  1.00 20.00     0.097 N 
HETATM    7  H18 UNL     1     -26.484  15.735  12.571  1.00 20.00     0.316 HD
ENDROOT
BRANCH   5   8
HETATM    8  C6  UNL     1     -24.039  16.886  11.478  1.00 20.00     0.418 C 
HETATM    9  F8  UNL     1     -23.318  15.958  12.131  1.00 20.00    -0.169 F 
HETATM   10  F9  UNL     1     -24.482  16.350  10.326  1.00 20.00    -0.169 F 
HETATM   11  F10 UNL     1     -23.233  17.923  11.185  1.00 20.00    -0.169 F 
ENDBRANCH   5   8
TORSDOF 1
ENDMDL
MODEL 5
REMARK VINA RESULT:      -4.8     15.455     16.462
REMARK  1 active torsions:
REMARK  status: ('A' for Active; 'I' for Inactive)
REMARK    1  A    between atoms: C5_5  and  C6_6 
ROOT
HETATM    1  C1  UNL     1     -22.280  17.376   9.153  1.00 20.00     0.014 A 
HETATM    2  C2  UNL     1     -24.380  18.926   8.871  1.00 20.00     0.275 C 
HETATM    3  C3  UNL     1     -22.923  18.736   9.148  1.00 20.00     0.021 A 
HETATM    4  C4  UNL     1     -22.800  17.995  10.426  1.00 20.00     0.034 A 
HETATM    5  C5  UNL     1     -24.192  17.761  10.940  1.00 20.00     0.331 C 
HETATM    6  N7  UNL     1     -25.057  17.974   9.765  1.00 20.00     0.097 N 
HETATM    7  H18 UNL     1     -25.973  18.321  10.044  1.00 20.00     0.316 HD
ENDROOT
BRANCH   5   8
HETATM    8  C6  UNL     1     -24.382  16.369  11.512  1.00 20.00     0.418 C 
HETATM    9  F8  UNL     1     -23.297  15.997  12.213  1.00 20.00    -0.169 F 
HETATM   10  F9  UNL     1     -25.450  16.340  12.331  1.00 20.00    -0.169 F 
HETATM   11  F10 UNL     1     -24.577  15.478  10.524  1.00 20.00    -0.169 F 
ENDBRANCH   5   8
TORSDOF 1
ENDMDL
MODEL 6
REMARK VINA RESULT:      -4.6      8.880      9.527
REMARK  1 active torsions:
REMARK  status: ('A' for Active; 'I' for Inactive)
REMARK    1  A    between atoms: C5_5  and  C6_6 
ROOT
HETATM    1  C1  UNL     1     -41.348   5.276  -1.126  1.00 20.00     0.014 A 
HETATM    2  C2  UNL     1     -43.222   5.055   0.699  1.00 20.00     0.275 C 
HETATM    3  C3  UNL     1     -42.775   5.014  -0.727  1.00 20.00     0.021 A 
HETATM    4  C4  UNL     1     -42.368   6.388  -1.110  1.00 20.00     0.034 A 
HETATM    5  C5  UNL     1     -42.598   7.269   0.083  1.00 20.00     0.331 C 
HETATM    6  N7  UNL     1     -42.707   6.332   1.216  1.00 20.00     0.097 N 
HETATM    7  H18 UNL     1     -43.315   6.705   1.943  1.00 20.00     0.316 HD
ENDROOT
BRANCH   5   8
HETATM    8  C6  UNL     1     -41.476   8.266   0.305  1.00 20.00     0.418 C 
HETATM    9  F8  UNL     1     -41.971   9.448   0.711  1.00 20.00    -0.169 F 
HETATM   10  F9  UNL     1     -40.625   7.814   1.244  1.00 20.00    -0.169 F 
HETATM   11  F10 UNL     1     -40.789   8.461  -0.835  1.00 20.00    -0.169 F 
ENDBRANCH   5   8
TORSDOF 1
ENDMDL
MODEL 7
REMARK VINA RESULT:      -4.4     11.640     12.559
REMARK  1 active torsions:
REMARK  status: ('A' for Active; 'I' for Inactive)
REMARK    1  A    between atoms: C5_5  and  C6_6 
ROOT
HETATM    1  C1  UNL     1     -33.127  14.753  -4.279  1.00 20.00     0.014 A 
HETATM    2  C2  UNL     1     -34.369  17.063  -4.400  1.00 20.00     0.275 C 
HETATM    3  C3  UNL     1     -33.517  16.074  -3.672  1.00 20.00     0.021 A 
HETATM    4  C4  UNL     1     -34.349  14.877  -3.401  1.00 20.00     0.034 A 
HETATM    5  C5  UNL     1     -35.720  15.156  -3.945  1.00 20.00     0.331 C 
HETATM    6  N7  UNL     1     -35.524  16.285  -4.873  1.00 20.00     0.097 N 
HETATM    7  H18 UNL     1     -36.360  16.865  -4.925  1.00 20.00     0.316 HD
ENDROOT
BRANCH   5   8
HETATM    8  C6  UNL     1     -36.326  13.962  -4.659  1.00 20.00     0.418 C 
HETATM    9  F8  UNL     1     -37.660  13.945  -4.495  1.00 20.00    -0.169 F 
HETATM   10  F9  UNL     1     -36.058  14.016  -5.976  1.00 20.00    -0.169 F 
HETATM   11  F10 UNL     1     -35.821  12.816  -4.167  1.00 20.00    -0.169 F 
ENDBRANCH   5   8
TORSDOF 1
ENDMDL
MODEL 8
REMARK VINA RESULT:      -4.4     11.668     12.556
REMARK  1 active torsions:
REMARK  status: ('A' for Active; 'I' for Inactive)
REMARK    1  A    between atoms: C5_5  and  C6_6 
ROOT
HETATM    1  C1  UNL     1     -33.150  14.783  -4.244  1.00 20.00     0.014 A 
HETATM    2  C2  UNL     1     -34.396  17.084  -4.456  1.00 20.00     0.275 C 
HETATM    3  C3  UNL     1     -33.555  16.119  -3.683  1.00 20.00     0.021 A 
HETATM    4  C4  UNL     1     -34.388  14.927  -3.394  1.00 20.00     0.034 A 
HETATM    5  C5  UNL     1     -35.750  15.185  -3.971  1.00 20.00     0.331 C 
HETATM    6  N7  UNL     1     -35.540  16.288  -4.928  1.00 20.00     0.097 N 
HETATM    7  H18 UNL     1     -36.377  16.863  -5.012  1.00 20.00     0.316 HD
ENDROOT
BRANCH   5   8
HETATM    8  C6  UNL     1     -36.338  13.969  -4.661  1.00 20.00     0.418 C 
HETATM    9  F8  UNL     1     -36.083  14.008  -5.981  1.00 20.00    -0.169 F 
HETATM   10  F9  UNL     1     -35.807  12.840  -4.157  1.00 20.00    -0.169 F 
HETATM   11  F10 UNL     1     -37.671  13.929  -4.486  1.00 20.00    -0.169 F 
ENDBRANCH   5   8
TORSDOF 1
ENDMDL
MODEL 9
REMARK VINA RESULT:      -4.3     11.868     12.480
REMARK  1 active torsions:
REMARK  status: ('A' for Active; 'I' for Inactive)
REMARK    1  A    between atoms: C5_5  and  C6_6 
ROOT
HETATM    1  C1  UNL     1     -33.473  16.996  -3.776  1.00 20.00     0.014 A 
HETATM    2  C2  UNL     1     -35.080  16.275  -1.830  1.00 20.00     0.275 C 
HETATM    3  C3  UNL     1     -33.708  16.417  -2.408  1.00 20.00     0.021 A 
HETATM    4  C4  UNL     1     -33.616  15.508  -3.575  1.00 20.00     0.034 A 
HETATM    5  C5  UNL     1     -34.931  14.792  -3.687  1.00 20.00     0.331 C 
HETATM    6  N7  UNL     1     -35.861  15.604  -2.880  1.00 20.00     0.097 N 
HETATM    7  H18 UNL     1     -36.597  15.026  -2.477  1.00 20.00     0.316 HD
ENDROOT
BRANCH   5   8
HETATM    8  C6  UNL     1     -35.416  14.668  -5.119  1.00 20.00     0.418 C 
HETATM    9  F8  UNL     1     -34.373  14.592  -5.963  1.00 20.00    -0.169 F 
HETATM   10  F9  UNL     1     -36.167  13.562  -5.267  1.00 20.00    -0.169 F 
HETATM   11  F10 UNL     1     -36.160  15.738  -5.456  1.00 20.00    -0.169 F 
ENDBRANCH   5   8
TORSDOF 1
ENDMDL
