MODEL 1
REMARK VINA RESULT:      -4.8      0.000      0.000
REMARK  4 active torsions:
REMARK  status: ('A' for Active; 'I' for Inactive)
REMARK    1  A    between atoms: C1_1  and  C3_3 
REMARK    2  A    between atoms: C2_2  and  C6_6 
REMARK    3  A    between atoms: C6_6  and  C7_7 
REMARK    4  A    between atoms: C7_7  and  O8_8 
ROOT
HETATM    1  C1  UNL     1     -33.123   6.921   3.458  1.00 20.00    -0.079 C 
HETATM    2  C2  UNL     1     -33.609   6.706   4.534  1.00 20.00    -0.100 C 
ENDROOT
BRANCH   2   3
HETATM    3  C6  UNL     1     -34.204   6.441   5.853  1.00 20.00     0.120 C 
BRANCH   3   4
HETATM    4  C7  UNL     1     -34.746   5.022   5.945  1.00 20.00     0.176 C 
BRANCH   4   5
HETATM    5  O8  UNL     1     -35.523   4.731   4.790  1.00 20.00    -0.400 OA
HETATM    6  H18 UNL     1     -34.914   4.740   4.034  1.00 20.00     0.209 HD
ENDBRANCH   4   5
ENDBRANCH   3   4
ENDBRANCH   2   3
BRANCH   1   7
HETATM    7  C3  UNL     1     -32.552   7.175   2.182  1.00 20.00     0.060 C 
HETATM    8  C4  UNL     1     -32.955   8.203   1.423  1.00 20.00    -0.022 C 
HETATM    9  C5  UNL     1     -32.385   8.511   0.077  1.00 20.00     0.036 C 
ENDBRANCH   1   7
TORSDOF 4
ENDMDL
MODEL 2
REMARK VINA RESULT:      -4.5      2.548      5.146
REMARK  4 active torsions:
REMARK  status: ('A' for Active; 'I' for Inactive)
REMARK    1  A    between atoms: C1_1  and  C3_3 
REMARK    2  A    between atoms: C2_2  and  C6_6 
REMARK    3  A    between atoms: C6_6  and  C7_7 
REMARK    4  A    between atoms: C7_7  and  O8_8 
ROOT
HETATM    1  C1  UNL     1     -33.118   6.546   2.814  1.00 20.00    -0.079 C 
HETATM    2  C2  UNL     1     -32.605   7.265   2.001  1.00 20.00    -0.100 C 
ENDROOT
BRANCH   2   3
HETATM    3  C6  UNL     1     -31.976   8.148   1.007  1.00 20.00     0.120 C 
BRANCH   3   4
HETATM    4  C7  UNL     1     -32.962   9.179   0.475  1.00 20.00     0.176 C 
BRANCH   4   5
HETATM    5  O8  UNL     1     -33.748   8.600  -0.560  1.00 20.00    -0.400 OA
HETATM    6  H18 UNL     1     -34.636   8.465  -0.192  1.00 20.00     0.209 HD
ENDBRANCH   4   5
ENDBRANCH   3   4
ENDBRANCH   2   3
BRANCH   1   7
HETATM    7  C3  UNL     1     -33.730   5.695   3.773  1.00 20.00     0.060 C 
HETATM    8  C4  UNL     1     -34.227   6.173   4.922  1.00 20.00    -0.022 C 
HETATM    9  C5  UNL     1     -34.880   5.320   5.959  1.00 20.00     0.036 C 
ENDBRANCH   1   7
TORSDOF 4
ENDMDL
MODEL 3
REMARK VINA RESULT:      -4.0     10.935     11.716
REMARK  4 active torsions:
REMARK  status: ('A' for Active; 'I' for Inactive)
REMARK    1  A    between atoms: C1_1  and  C3_3 
REMARK    2  A    between atoms: C2_2  and  C6_6 
REMARK    3  A    between atoms: C6_6  and  C7_7 
REMARK    4  A    between atoms: C7_7  and  O8_8 
ROOT
HETATM    1  C1  UNL     1     -34.455  15.861  -2.642  1.00 20.00    -0.079 C 
HETATM    2  C2  UNL     1     -34.865  14.944  -3.299  1.00 20.00    -0.100 C 
ENDROOT
BRANCH   2   3
HETATM    3  C6  UNL     1     -35.367  13.822  -4.107  1.00 20.00     0.120 C 
BRANCH   3   4
HETATM    4  C7  UNL     1     -36.556  14.238  -4.961  1.00 20.00     0.176 C 
BRANCH   4   5
HETATM    5  O8  UNL     1     -37.754  13.711  -4.403  1.00 20.00    -0.400 OA
HETATM    6  H18 UNL     1     -38.437  13.783  -5.089  1.00 20.00     0.209 HD
ENDBRANCH   4   5
ENDBRANCH   3   4
ENDBRANCH   2   3
BRANCH   1   7
HETATM    7  C3  UNL     1     -33.974  16.948  -1.863  1.00 20.00     0.060 C 
HETATM    8  C4  UNL     1     -32.760  17.476  -2.066  1.00 20.00    -0.022 C 
HETATM    9  C5  UNL     1     -32.211  18.618  -1.275  1.00 20.00     0.036 C 
ENDBRANCH   1   7
TORSDOF 4
ENDMDL
MODEL 4
REMARK VINA RESULT:      -4.0     10.762     11.438
REMARK  4 active torsions:
REMARK  status: ('A' for Active; 'I' for Inactive)
REMARK    1  A    between atoms: C1_1  and  C3_3 
REMARK    2  A    between atoms: C2_2  and  C6_6 
REMARK    3  A    between atoms: C6_6  and  C7_7 
REMARK    4  A    between atoms: C7_7  and  O8_8 
ROOT
HETATM    1  C1  UNL     1     -34.770  16.284  -2.047  1.00 20.00    -0.079 C 
HETATM    2  C2  UNL     1     -34.671  15.426  -2.882  1.00 20.00    -0.100 C 
ENDROOT
BRANCH   2   3
HETATM    3  C6  UNL     1     -34.552  14.374  -3.904  1.00 20.00     0.120 C 
BRANCH   3   4
HETATM    4  C7  UNL     1     -35.918  13.873  -4.349  1.00 20.00     0.176 C 
BRANCH   4   5
HETATM    5  O8  UNL     1     -35.954  12.453  -4.275  1.00 20.00    -0.400 OA
HETATM    6  H18 UNL     1     -35.311  12.192  -3.596  1.00 20.00     0.209 HD
ENDBRANCH   4   5
ENDBRANCH   3   4
ENDBRANCH   2   3
BRANCH   1   7
HETATM    7  C3  UNL     1     -34.883  17.296  -1.057  1.00 20.00     0.060 C 
HETATM    8  C4  UNL     1     -35.451  17.056   0.132  1.00 20.00    -0.022 C 
HETATM    9  C5  UNL     1     -35.592  18.086   1.204  1.00 20.00     0.036 C 
ENDBRANCH   1   7
TORSDOF 4
ENDMDL
MODEL 5
REMARK VINA RESULT:      -3.8     10.905     11.677
REMARK  4 active torsions:
REMARK  status: ('A' for Active; 'I' for Inactive)
REMARK    1  A    between atoms: C1_1  and  C3_3 
REMARK    2  A    between atoms: C2_2  and  C6_6 
REMARK    3  A    between atoms: C6_6  and  C7_7 
REMARK    4  A    between atoms: C7_7  and  O8_8 
ROOT
HETATM    1  C1  UNL     1     -34.804  16.353  -1.906  1.00 20.00    -0.079 C 
HETATM    2  C2  UNL     1     -34.718  15.513  -2.760  1.00 20.00    -0.100 C 
ENDROOT
BRANCH   2   3
HETATM    3  C6  UNL     1     -34.610  14.484  -3.805  1.00 20.00     0.120 C 
BRANCH   3   4
HETATM    4  C7  UNL     1     -33.280  14.574  -4.541  1.00 20.00     0.176 C 
BRANCH   4   5
HETATM    5  O8  UNL     1     -32.628  13.310  -4.507  1.00 20.00    -0.400 OA
HETATM    6  H18 UNL     1     -32.872  12.892  -3.666  1.00 20.00     0.209 HD
ENDBRANCH   4   5
ENDBRANCH   3   4
ENDBRANCH   2   3
BRANCH   1   7
HETATM    7  C3  UNL     1     -34.905  17.350  -0.899  1.00 20.00     0.060 C 
HETATM    8  C4  UNL     1     -35.428  17.083   0.305  1.00 20.00    -0.022 C 
HETATM    9  C5  UNL     1     -35.555  18.096   1.395  1.00 20.00     0.036 C 
ENDBRANCH   1   7
TORSDOF 4
ENDMDL
MODEL 6
REMARK VINA RESULT:      -3.8     11.359     12.261
REMARK  4 active torsions:
REMARK  status: ('A' for Active; 'I' for Inactive)
REMARK    1  A    between atoms: C1_1  and  C3_3 
REMARK    2  A    between atoms: C2_2  and  C6_6 
REMARK    3  A    between atoms: C6_6  and  C7_7 
REMARK    4  A    between atoms: C7_7  and  O8_8 
ROOT
HETATM    1  C1  UNL     1     -33.838  16.479  -2.353  1.00 20.00    -0.079 C 
HETATM    2  C2  UNL     1     -34.166  15.578  -3.075  1.00 20.00    -0.100 C 
ENDROOT
BRANCH   2   3
HETATM    3  C6  UNL     1     -34.570  14.473  -3.958  1.00 20.00     0.120 C 
BRANCH   3   4
HETATM    4  C7  UNL     1     -34.356  14.824  -5.424  1.00 20.00     0.176 C 
BRANCH   4   5
HETATM    5  O8  UNL     1     -33.023  14.502  -5.803  1.00 20.00    -0.400 OA
HETATM    6  H18 UNL     1     -33.078  13.720  -6.377  1.00 20.00     0.209 HD
ENDBRANCH   4   5
ENDBRANCH   3   4
ENDBRANCH   2   3
BRANCH   1   7
HETATM    7  C3  UNL     1     -33.444  17.544  -1.499  1.00 20.00     0.060 C 
HETATM    8  C4  UNL     1     -32.181  17.989  -1.467  1.00 20.00    -0.022 C 
HETATM    9  C5  UNL     1     -31.719  19.105  -0.588  1.00 20.00     0.036 C 
ENDBRANCH   1   7
TORSDOF 4
ENDMDL
MODEL 7
REMARK VINA RESULT:      -3.8     11.306     12.197
REMARK  4 active torsions:
REMARK  status: ('A' for Active; 'I' for Inactive)
REMARK    1  A    between atoms: C1_1  and  C3_3 
REMARK    2  A    between atoms: C2_2  and  C6_6 
REMARK    3  A    between atoms: C6_6  and  C7_7 
REMARK    4  A    between atoms: C7_7  and  O8_8 
ROOT
HETATM    1  C1  UNL     1     -33.869  16.596  -2.362  1.00 20.00    -0.079 C 
HETATM    2  C2  UNL     1     -33.111  17.484  -2.080  1.00 20.00    -0.100 C 
ENDROOT
BRANCH   2   3
HETATM    3  C6  UNL     1     -32.182  18.572  -1.737  1.00 20.00     0.120 C 
BRANCH   3   4
HETATM    4  C7  UNL     1     -31.686  18.449  -0.304  1.00 20.00     0.176 C 
BRANCH   4   5
HETATM    5  O8  UNL     1     -30.271  18.303  -0.298  1.00 20.00    -0.400 OA
HETATM    6  H18 UNL     1     -29.961  18.618   0.566  1.00 20.00     0.209 HD
ENDBRANCH   4   5
ENDBRANCH   3   4
ENDBRANCH   2   3
BRANCH   1   7
HETATM    7  C3  UNL     1     -34.762  15.542  -2.693  1.00 20.00     0.060 C 
HETATM    8  C4  UNL     1     -34.594  14.797  -3.794  1.00 20.00    -0.022 C 
HETATM    9  C5  UNL     1     -35.504  13.679  -4.184  1.00 20.00     0.036 C 
ENDBRANCH   1   7
TORSDOF 4
ENDMDL
MODEL 8
REMARK VINA RESULT:      -3.8      9.542      9.878
REMARK  4 active torsions:
REMARK  status: ('A' for Active; 'I' for Inactive)
REMARK    1  A    between atoms: C1_1  and  C3_3 
REMARK    2  A    between atoms: C2_2  and  C6_6 
REMARK    3  A    between atoms: C6_6  and  C7_7 
REMARK    4  A    between atoms: C7_7  and  O8_8 
ROOT
HETATM    1  C1  UNL     1     -41.263   5.804  -0.758  1.00 20.00    -0.079 C 
HETATM    2  C2  UNL     1     -41.288   6.786  -0.068  1.00 20.00    -0.100 C 
ENDROOT
BRANCH   2   3
HETATM    3  C6  UNL     1     -41.316   7.989   0.778  1.00 20.00     0.120 C 
BRANCH   3   4
HETATM    4  C7  UNL     1     -41.724   9.221  -0.018  1.00 20.00     0.176 C 
BRANCH   4   5
HETATM    5  O8  UNL     1     -41.152  10.383   0.571  1.00 20.00    -0.400 OA
HETATM    6  H18 UNL     1     -40.437  10.078   1.152  1.00 20.00     0.209 HD
ENDBRANCH   4   5
ENDBRANCH   3   4
ENDBRANCH   2   3
BRANCH   1   7
HETATM    7  C3  UNL     1     -41.236   4.639  -1.571  1.00 20.00     0.060 C 
HETATM    8  C4  UNL     1     -42.339   4.178  -2.176  1.00 20.00    -0.022 C 
HETATM    9  C5  UNL     1     -42.360   2.960  -3.040  1.00 20.00     0.036 C 
ENDBRANCH   1   7
TORSDOF 4
ENDMDL
MODEL 9
REMARK VINA RESULT:      -3.6     15.201     15.630
REMARK  4 active torsions:
REMARK  status: ('A' for Active; 'I' for Inactive)
REMARK    1  A    between atoms: C1_1  and  C3_3 
REMARK    2  A    between atoms: C2_2  and  C6_6 
REMARK    3  A    between atoms: C6_6  and  C7_7 
REMARK    4  A    between atoms: C7_7  and  O8_8 
ROOT
HETATM    1  C1  UNL     1     -24.973  18.879   7.615  1.00 20.00    -0.079 C 
HETATM    2  C2  UNL     1     -24.019  18.783   8.337  1.00 20.00    -0.100 C 
ENDROOT
BRANCH   2   3
HETATM    3  C6  UNL     1     -22.851  18.667   9.224  1.00 20.00     0.120 C 
BRANCH   3   4
HETATM    4  C7  UNL     1     -22.838  17.332   9.955  1.00 20.00     0.176 C 
BRANCH   4   5
HETATM    5  O8  UNL     1     -22.337  16.318   9.091  1.00 20.00    -0.400 OA
HETATM    6  H18 UNL     1     -22.557  16.589   8.185  1.00 20.00     0.209 HD
ENDBRANCH   4   5
ENDBRANCH   3   4
ENDBRANCH   2   3
BRANCH   1   7
HETATM    7  C3  UNL     1     -26.101  18.997   6.758  1.00 20.00     0.060 C 
HETATM    8  C4  UNL     1     -25.965  19.137   5.433  1.00 20.00    -0.022 C 
HETATM    9  C5  UNL     1     -27.118  19.263   4.492  1.00 20.00     0.036 C 
ENDBRANCH   1   7
TORSDOF 4
ENDMDL
