MODEL 1
REMARK VINA RESULT:      -4.8      0.000      0.000
REMARK  3 active torsions:
REMARK  status: ('A' for Active; 'I' for Inactive)
REMARK    1  A    between atoms: C4_4  and  C6_6 
REMARK    2  A    between atoms: C6_6  and  C7_7 
REMARK    3  A    between atoms: C7_7  and  C8_8 
ROOT
HETATM    1  C1  UNL     1     -35.071   5.072   5.589  1.00 20.00     0.029 C 
HETATM    2  C2  UNL     1     -34.486   4.685   4.255  1.00 20.00     0.034 C 
HETATM    3  C3  UNL     1     -34.182   6.228   5.998  1.00 20.00     0.168 C 
HETATM    4  C4  UNL     1     -34.132   6.044   3.675  1.00 20.00     0.121 C 
HETATM    5  O9  UNL     1     -33.744   6.866   4.789  1.00 20.00    -0.386 OA
ENDROOT
BRANCH   4   6
HETATM    6  C6  UNL     1     -33.009   5.993   2.658  1.00 20.00     0.033 C 
BRANCH   6   7
HETATM    7  C7  UNL     1     -32.412   7.384   2.415  1.00 20.00     0.022 C 
BRANCH   7   8
HETATM    8  C8  UNL     1     -32.843   8.005   1.080  1.00 20.00     0.078 C 
HETATM    9  C5  UNL     1     -31.814   7.733  -0.010  1.00 20.00     0.026 C 
HETATM   10 CL10 UNL     1     -33.065   9.774   1.236  1.00 20.00    -0.125 Cl
ENDBRANCH   7   8
ENDBRANCH   6   7
ENDBRANCH   4   6
TORSDOF 3
ENDMDL
MODEL 2
REMARK VINA RESULT:      -4.4      1.150      1.383
REMARK  3 active torsions:
REMARK  status: ('A' for Active; 'I' for Inactive)
REMARK    1  A    between atoms: C4_4  and  C6_6 
REMARK    2  A    between atoms: C6_6  and  C7_7 
REMARK    3  A    between atoms: C7_7  and  C8_8 
ROOT
HETATM    1  C1  UNL     1     -35.086   4.947   4.867  1.00 20.00     0.029 C 
HETATM    2  C2  UNL     1     -34.227   5.272   3.672  1.00 20.00     0.034 C 
HETATM    3  C3  UNL     1     -34.408   5.737   5.966  1.00 20.00     0.168 C 
HETATM    4  C4  UNL     1     -33.906   6.736   3.921  1.00 20.00     0.121 C 
HETATM    5  O9  UNL     1     -33.815   6.890   5.348  1.00 20.00    -0.386 OA
ENDROOT
BRANCH   4   6
HETATM    6  C6  UNL     1     -32.612   7.190   3.272  1.00 20.00     0.033 C 
BRANCH   6   7
HETATM    7  C7  UNL     1     -32.642   6.971   1.756  1.00 20.00     0.022 C 
BRANCH   7   8
HETATM    8  C8  UNL     1     -32.479   8.267   0.952  1.00 20.00     0.078 C 
HETATM    9  C5  UNL     1     -33.085   9.453   1.693  1.00 20.00     0.026 C 
HETATM   10 CL10 UNL     1     -33.259   8.131  -0.654  1.00 20.00    -0.125 Cl
ENDBRANCH   7   8
ENDBRANCH   6   7
ENDBRANCH   4   6
TORSDOF 3
ENDMDL
MODEL 3
REMARK VINA RESULT:      -4.1     15.262     16.422
REMARK  3 active torsions:
REMARK  status: ('A' for Active; 'I' for Inactive)
REMARK    1  A    between atoms: C4_4  and  C6_6 
REMARK    2  A    between atoms: C6_6  and  C7_7 
REMARK    3  A    between atoms: C7_7  and  C8_8 
ROOT
HETATM    1  C1  UNL     1     -26.065  19.011   6.262  1.00 20.00     0.029 C 
HETATM    2  C2  UNL     1     -25.851  19.177   7.745  1.00 20.00     0.034 C 
HETATM    3  C3  UNL     1     -24.676  19.263   5.715  1.00 20.00     0.168 C 
HETATM    4  C4  UNL     1     -24.479  18.550   7.924  1.00 20.00     0.121 C 
HETATM    5  O9  UNL     1     -23.745  18.838   6.722  1.00 20.00    -0.386 OA
ENDROOT
BRANCH   4   6
HETATM    6  C6  UNL     1     -23.724  19.080   9.127  1.00 20.00     0.033 C 
BRANCH   6   7
HETATM    7  C7  UNL     1     -23.114  17.940   9.950  1.00 20.00     0.022 C 
BRANCH   7   8
HETATM    8  C8  UNL     1     -23.765  17.770  11.329  1.00 20.00     0.078 C 
HETATM    9  C5  UNL     1     -24.016  16.299  11.640  1.00 20.00     0.026 C 
HETATM   10 CL10 UNL     1     -25.319  18.652  11.420  1.00 20.00    -0.125 Cl
ENDBRANCH   7   8
ENDBRANCH   6   7
ENDBRANCH   4   6
TORSDOF 3
ENDMDL
MODEL 4
REMARK VINA RESULT:      -4.0     11.333     12.250
REMARK  3 active torsions:
REMARK  status: ('A' for Active; 'I' for Inactive)
REMARK    1  A    between atoms: C4_4  and  C6_6 
REMARK    2  A    between atoms: C6_6  and  C7_7 
REMARK    3  A    between atoms: C7_7  and  C8_8 
ROOT
HETATM    1  C1  UNL     1     -31.961  18.610   1.350  1.00 20.00     0.029 C 
HETATM    2  C2  UNL     1     -32.949  18.555   0.212  1.00 20.00     0.034 C 
HETATM    3  C3  UNL     1     -30.686  18.144   0.681  1.00 20.00     0.168 C 
HETATM    4  C4  UNL     1     -32.094  19.026  -0.952  1.00 20.00     0.121 C 
HETATM    5  O9  UNL     1     -30.765  18.542  -0.696  1.00 20.00    -0.386 OA
ENDROOT
BRANCH   4   6
HETATM    6  C6  UNL     1     -32.574  18.520  -2.298  1.00 20.00     0.033 C 
BRANCH   6   7
HETATM    7  C7  UNL     1     -32.726  16.995  -2.300  1.00 20.00     0.022 C 
BRANCH   7   8
HETATM    8  C8  UNL     1     -34.050  16.516  -2.909  1.00 20.00     0.078 C 
HETATM    9  C5  UNL     1     -35.099  16.280  -1.829  1.00 20.00     0.026 C 
HETATM   10 CL10 UNL     1     -33.822  15.000  -3.833  1.00 20.00    -0.125 Cl
ENDBRANCH   7   8
ENDBRANCH   6   7
ENDBRANCH   4   6
TORSDOF 3
ENDMDL
MODEL 5
REMARK VINA RESULT:      -4.0     10.790     11.634
REMARK  3 active torsions:
REMARK  status: ('A' for Active; 'I' for Inactive)
REMARK    1  A    between atoms: C4_4  and  C6_6 
REMARK    2  A    between atoms: C6_6  and  C7_7 
REMARK    3  A    between atoms: C7_7  and  C8_8 
ROOT
HETATM    1  C1  UNL     1     -34.373  17.280  -1.374  1.00 20.00     0.029 C 
HETATM    2  C2  UNL     1     -34.823  16.056  -2.130  1.00 20.00     0.034 C 
HETATM    3  C3  UNL     1     -32.962  17.466  -1.889  1.00 20.00     0.168 C 
HETATM    4  C4  UNL     1     -34.180  16.286  -3.487  1.00 20.00     0.121 C 
HETATM    5  O9  UNL     1     -32.936  16.960  -3.232  1.00 20.00    -0.386 OA
ENDROOT
BRANCH   4   6
HETATM    6  C6  UNL     1     -33.922  15.006  -4.258  1.00 20.00     0.033 C 
BRANCH   6   7
HETATM    7  C7  UNL     1     -34.943  13.922  -3.897  1.00 20.00     0.022 C 
BRANCH   7   8
HETATM    8  C8  UNL     1     -36.101  13.821  -4.898  1.00 20.00     0.078 C 
HETATM    9  C5  UNL     1     -35.753  14.507  -6.213  1.00 20.00     0.026 C 
HETATM   10 CL10 UNL     1     -37.589  14.564  -4.237  1.00 20.00    -0.125 Cl
ENDBRANCH   7   8
ENDBRANCH   6   7
ENDBRANCH   4   6
TORSDOF 3
ENDMDL
MODEL 6
REMARK VINA RESULT:      -4.0     11.203     11.879
REMARK  3 active torsions:
REMARK  status: ('A' for Active; 'I' for Inactive)
REMARK    1  A    between atoms: C4_4  and  C6_6 
REMARK    2  A    between atoms: C6_6  and  C7_7 
REMARK    3  A    between atoms: C7_7  and  C8_8 
ROOT
HETATM    1  C1  UNL     1     -36.310  13.821  -4.814  1.00 20.00     0.029 C 
HETATM    2  C2  UNL     1     -35.480  14.462  -3.731  1.00 20.00     0.034 C 
HETATM    3  C3  UNL     1     -35.660  14.361  -6.069  1.00 20.00     0.168 C 
HETATM    4  C4  UNL     1     -34.092  14.414  -4.346  1.00 20.00     0.121 C 
HETATM    5  O9  UNL     1     -34.275  14.581  -5.762  1.00 20.00    -0.386 OA
ENDROOT
BRANCH   4   6
HETATM    6  C6  UNL     1     -33.159  15.486  -3.818  1.00 20.00     0.033 C 
BRANCH   6   7
HETATM    7  C7  UNL     1     -33.779  16.229  -2.629  1.00 20.00     0.022 C 
BRANCH   7   8
HETATM    8  C8  UNL     1     -32.912  17.386  -2.117  1.00 20.00     0.078 C 
HETATM    9  C5  UNL     1     -33.502  17.997  -0.851  1.00 20.00     0.026 C 
HETATM   10 CL10 UNL     1     -32.754  18.668  -3.356  1.00 20.00    -0.125 Cl
ENDBRANCH   7   8
ENDBRANCH   6   7
ENDBRANCH   4   6
TORSDOF 3
ENDMDL
MODEL 7
REMARK VINA RESULT:      -4.0     15.223     16.383
REMARK  3 active torsions:
REMARK  status: ('A' for Active; 'I' for Inactive)
REMARK    1  A    between atoms: C4_4  and  C6_6 
REMARK    2  A    between atoms: C6_6  and  C7_7 
REMARK    3  A    between atoms: C7_7  and  C8_8 
ROOT
HETATM    1  C1  UNL     1     -26.078  19.040   5.579  1.00 20.00     0.029 C 
HETATM    2  C2  UNL     1     -26.109  19.263   7.069  1.00 20.00     0.034 C 
HETATM    3  C3  UNL     1     -24.614  19.260   5.259  1.00 20.00     0.168 C 
HETATM    4  C4  UNL     1     -24.795  18.632   7.496  1.00 20.00     0.121 C 
HETATM    5  O9  UNL     1     -23.869  18.868   6.422  1.00 20.00    -0.386 OA
ENDROOT
BRANCH   4   6
HETATM    6  C6  UNL     1     -24.241  19.203   8.787  1.00 20.00     0.033 C 
BRANCH   6   7
HETATM    7  C7  UNL     1     -24.528  18.278   9.974  1.00 20.00     0.022 C 
BRANCH   7   8
HETATM    8  C8  UNL     1     -23.376  17.314  10.286  1.00 20.00     0.078 C 
HETATM    9  C5  UNL     1     -23.133  17.216  11.788  1.00 20.00     0.026 C 
HETATM   10 CL10 UNL     1     -21.862  17.841   9.490  1.00 20.00    -0.125 Cl
ENDBRANCH   7   8
ENDBRANCH   6   7
ENDBRANCH   4   6
TORSDOF 3
ENDMDL
MODEL 8
REMARK VINA RESULT:      -3.9     10.857     11.844
REMARK  3 active torsions:
REMARK  status: ('A' for Active; 'I' for Inactive)
REMARK    1  A    between atoms: C4_4  and  C6_6 
REMARK    2  A    between atoms: C6_6  and  C7_7 
REMARK    3  A    between atoms: C7_7  and  C8_8 
ROOT
HETATM    1  C1  UNL     1     -34.758  14.207  -3.925  1.00 20.00     0.029 C 
HETATM    2  C2  UNL     1     -35.224  15.398  -3.126  1.00 20.00     0.034 C 
HETATM    3  C3  UNL     1     -33.461  14.715  -4.518  1.00 20.00     0.168 C 
HETATM    4  C4  UNL     1     -33.909  15.926  -2.578  1.00 20.00     0.121 C 
HETATM    5  O9  UNL     1     -32.919  15.665  -3.588  1.00 20.00    -0.386 OA
ENDROOT
BRANCH   4   6
HETATM    6  C6  UNL     1     -33.939  17.407  -2.258  1.00 20.00     0.033 C 
BRANCH   6   7
HETATM    7  C7  UNL     1     -32.527  17.956  -2.021  1.00 20.00     0.022 C 
BRANCH   7   8
HETATM    8  C8  UNL     1     -32.377  18.689  -0.682  1.00 20.00     0.078 C 
HETATM    9  C5  UNL     1     -31.026  18.392  -0.041  1.00 20.00     0.026 C 
HETATM   10 CL10 UNL     1     -33.673  18.216   0.459  1.00 20.00    -0.125 Cl
ENDBRANCH   7   8
ENDBRANCH   6   7
ENDBRANCH   4   6
TORSDOF 3
ENDMDL
MODEL 9
REMARK VINA RESULT:      -3.9     10.972     12.303
REMARK  3 active torsions:
REMARK  status: ('A' for Active; 'I' for Inactive)
REMARK    1  A    between atoms: C4_4  and  C6_6 
REMARK    2  A    between atoms: C6_6  and  C7_7 
REMARK    3  A    between atoms: C7_7  and  C8_8 
ROOT
HETATM    1  C1  UNL     1     -35.625  15.263  -6.957  1.00 20.00     0.029 C 
HETATM    2  C2  UNL     1     -35.937  15.419  -5.491  1.00 20.00     0.034 C 
HETATM    3  C3  UNL     1     -34.118  15.112  -6.943  1.00 20.00     0.168 C 
HETATM    4  C4  UNL     1     -34.945  14.453  -4.866  1.00 20.00     0.121 C 
HETATM    5  O9  UNL     1     -33.772  14.490  -5.696  1.00 20.00    -0.386 OA
ENDROOT
BRANCH   4   6
HETATM    6  C6  UNL     1     -34.576  14.805  -3.438  1.00 20.00     0.033 C 
BRANCH   6   7
HETATM    7  C7  UNL     1     -33.512  15.907  -3.392  1.00 20.00     0.022 C 
BRANCH   7   8
HETATM    8  C8  UNL     1     -33.902  17.091  -2.498  1.00 20.00     0.078 C 
HETATM    9  C5  UNL     1     -32.685  17.665  -1.783  1.00 20.00     0.026 C 
HETATM   10 CL10 UNL     1     -35.112  16.602  -1.273  1.00 20.00    -0.125 Cl
ENDBRANCH   7   8
ENDBRANCH   6   7
ENDBRANCH   4   6
TORSDOF 3
ENDMDL
