MODEL 1
REMARK VINA RESULT:      -4.9      0.000      0.000
REMARK  3 active torsions:
REMARK  status: ('A' for Active; 'I' for Inactive)
REMARK    1  A    between atoms: C4_4  and  C6_6 
REMARK    2  A    between atoms: C6_6  and  C7_7 
REMARK    3  A    between atoms: C7_7  and  C8_8 
ROOT
HETATM    1  C1  UNL     1     -35.013   5.097   5.629  1.00 20.00     0.029 C 
HETATM    2  C2  UNL     1     -34.440   4.692   4.294  1.00 20.00     0.034 C 
HETATM    3  C3  UNL     1     -34.143   6.280   5.998  1.00 20.00     0.168 C 
HETATM    4  C4  UNL     1     -34.122   6.045   3.679  1.00 20.00     0.121 C 
HETATM    5  O9  UNL     1     -33.735   6.899   4.768  1.00 20.00    -0.386 OA
ENDROOT
BRANCH   4   6
HETATM    6  C6  UNL     1     -33.013   5.994   2.646  1.00 20.00     0.033 C 
BRANCH   6   7
HETATM    7  C7  UNL     1     -32.427   7.386   2.387  1.00 20.00     0.022 C 
BRANCH   7   8
HETATM    8  C8  UNL     1     -32.789   7.950   1.007  1.00 20.00     0.078 C 
HETATM    9  C5  UNL     1     -33.069   9.446   1.081  1.00 20.00     0.026 C 
HETATM   10 CL10 UNL     1     -31.471   7.667  -0.170  1.00 20.00    -0.125 Cl
ENDBRANCH   7   8
ENDBRANCH   6   7
ENDBRANCH   4   6
TORSDOF 3
ENDMDL
MODEL 2
REMARK VINA RESULT:      -4.2      0.959      1.300
REMARK  3 active torsions:
REMARK  status: ('A' for Active; 'I' for Inactive)
REMARK    1  A    between atoms: C4_4  and  C6_6 
REMARK    2  A    between atoms: C6_6  and  C7_7 
REMARK    3  A    between atoms: C7_7  and  C8_8 
ROOT
HETATM    1  C1  UNL     1     -34.418   6.098   5.927  1.00 20.00     0.029 C 
HETATM    2  C2  UNL     1     -33.727   6.796   4.782  1.00 20.00     0.034 C 
HETATM    3  C3  UNL     1     -35.196   5.015   5.210  1.00 20.00     0.168 C 
HETATM    4  C4  UNL     1     -33.383   5.624   3.877  1.00 20.00     0.121 C 
HETATM    5  O9  UNL     1     -34.448   4.673   4.033  1.00 20.00    -0.386 OA
ENDROOT
BRANCH   4   6
HETATM    6  C6  UNL     1     -33.245   6.009   2.417  1.00 20.00     0.033 C 
BRANCH   6   7
HETATM    7  C7  UNL     1     -32.537   7.359   2.260  1.00 20.00     0.022 C 
BRANCH   7   8
HETATM    8  C8  UNL     1     -32.805   8.032   0.908  1.00 20.00     0.078 C 
HETATM    9  C5  UNL     1     -33.045   9.527   1.077  1.00 20.00     0.026 C 
HETATM   10 CL10 UNL     1     -31.433   7.791  -0.215  1.00 20.00    -0.125 Cl
ENDBRANCH   7   8
ENDBRANCH   6   7
ENDBRANCH   4   6
TORSDOF 3
ENDMDL
MODEL 3
REMARK VINA RESULT:      -4.1     10.771     11.614
REMARK  3 active torsions:
REMARK  status: ('A' for Active; 'I' for Inactive)
REMARK    1  A    between atoms: C4_4  and  C6_6 
REMARK    2  A    between atoms: C6_6  and  C7_7 
REMARK    3  A    between atoms: C7_7  and  C8_8 
ROOT
HETATM    1  C1  UNL     1     -34.302  17.288  -1.514  1.00 20.00     0.029 C 
HETATM    2  C2  UNL     1     -34.785  16.023  -2.178  1.00 20.00     0.034 C 
HETATM    3  C3  UNL     1     -32.890  17.401  -2.047  1.00 20.00     0.168 C 
HETATM    4  C4  UNL     1     -34.145  16.138  -3.551  1.00 20.00     0.121 C 
HETATM    5  O9  UNL     1     -32.885  16.798  -3.351  1.00 20.00    -0.386 OA
ENDROOT
BRANCH   4   6
HETATM    6  C6  UNL     1     -33.923  14.799  -4.228  1.00 20.00     0.033 C 
BRANCH   6   7
HETATM    7  C7  UNL     1     -35.022  13.798  -3.859  1.00 20.00     0.022 C 
BRANCH   7   8
HETATM    8  C8  UNL     1     -36.173  13.758  -4.873  1.00 20.00     0.078 C 
HETATM    9  C5  UNL     1     -37.403  14.481  -4.337  1.00 20.00     0.026 C 
HETATM   10 CL10 UNL     1     -35.692  14.510  -6.424  1.00 20.00    -0.125 Cl
ENDBRANCH   7   8
ENDBRANCH   6   7
ENDBRANCH   4   6
TORSDOF 3
ENDMDL
MODEL 4
REMARK VINA RESULT:      -4.1     16.154     17.029
REMARK  3 active torsions:
REMARK  status: ('A' for Active; 'I' for Inactive)
REMARK    1  A    between atoms: C4_4  and  C6_6 
REMARK    2  A    between atoms: C6_6  and  C7_7 
REMARK    3  A    between atoms: C7_7  and  C8_8 
ROOT
HETATM    1  C1  UNL     1     -22.453  17.762   7.852  1.00 20.00     0.029 C 
HETATM    2  C2  UNL     1     -21.966  17.054   9.091  1.00 20.00     0.034 C 
HETATM    3  C3  UNL     1     -23.663  18.509   8.372  1.00 20.00     0.168 C 
HETATM    4  C4  UNL     1     -22.222  18.104  10.159  1.00 20.00     0.121 C 
HETATM    5  O9  UNL     1     -23.407  18.807   9.754  1.00 20.00    -0.386 OA
ENDROOT
BRANCH   4   6
HETATM    6  C6  UNL     1     -22.417  17.521  11.545  1.00 20.00     0.033 C 
BRANCH   6   7
HETATM    7  C7  UNL     1     -23.605  18.171  12.261  1.00 20.00     0.022 C 
BRANCH   7   8
HETATM    8  C8  UNL     1     -24.842  17.265  12.332  1.00 20.00     0.078 C 
HETATM    9  C5  UNL     1     -26.104  18.028  11.947  1.00 20.00     0.026 C 
HETATM   10 CL10 UNL     1     -24.668  15.852  11.248  1.00 20.00    -0.125 Cl
ENDBRANCH   7   8
ENDBRANCH   6   7
ENDBRANCH   4   6
TORSDOF 3
ENDMDL
MODEL 5
REMARK VINA RESULT:      -3.9     11.430     12.321
REMARK  3 active torsions:
REMARK  status: ('A' for Active; 'I' for Inactive)
REMARK    1  A    between atoms: C4_4  and  C6_6 
REMARK    2  A    between atoms: C6_6  and  C7_7 
REMARK    3  A    between atoms: C7_7  and  C8_8 
ROOT
HETATM    1  C1  UNL     1     -31.912  18.732   1.309  1.00 20.00     0.029 C 
HETATM    2  C2  UNL     1     -32.893  18.708   0.164  1.00 20.00     0.034 C 
HETATM    3  C3  UNL     1     -30.668  18.155   0.667  1.00 20.00     0.168 C 
HETATM    4  C4  UNL     1     -32.000  19.080  -1.008  1.00 20.00     0.121 C 
HETATM    5  O9  UNL     1     -30.711  18.513  -0.724  1.00 20.00    -0.386 OA
ENDROOT
BRANCH   4   6
HETATM    6  C6  UNL     1     -32.507  18.564  -2.341  1.00 20.00     0.033 C 
BRANCH   6   7
HETATM    7  C7  UNL     1     -32.655  17.039  -2.330  1.00 20.00     0.022 C 
BRANCH   7   8
HETATM    8  C8  UNL     1     -34.006  16.556  -2.873  1.00 20.00     0.078 C 
HETATM    9  C5  UNL     1     -33.847  15.272  -3.677  1.00 20.00     0.026 C 
HETATM   10 CL10 UNL     1     -35.168  16.263  -1.543  1.00 20.00    -0.125 Cl
ENDBRANCH   7   8
ENDBRANCH   6   7
ENDBRANCH   4   6
TORSDOF 3
ENDMDL
MODEL 6
REMARK VINA RESULT:      -3.9     11.201     11.874
REMARK  3 active torsions:
REMARK  status: ('A' for Active; 'I' for Inactive)
REMARK    1  A    between atoms: C4_4  and  C6_6 
REMARK    2  A    between atoms: C6_6  and  C7_7 
REMARK    3  A    between atoms: C7_7  and  C8_8 
ROOT
HETATM    1  C1  UNL     1     -36.548  14.079  -4.558  1.00 20.00     0.029 C 
HETATM    2  C2  UNL     1     -35.677  14.773  -3.542  1.00 20.00     0.034 C 
HETATM    3  C3  UNL     1     -35.810  14.362  -5.849  1.00 20.00     0.168 C 
HETATM    4  C4  UNL     1     -34.288  14.487  -4.088  1.00 20.00     0.121 C 
HETATM    5  O9  UNL     1     -34.416  14.471  -5.519  1.00 20.00    -0.386 OA
ENDROOT
BRANCH   4   6
HETATM    6  C6  UNL     1     -33.253  15.515  -3.675  1.00 20.00     0.033 C 
BRANCH   6   7
HETATM    7  C7  UNL     1     -33.784  16.427  -2.565  1.00 20.00     0.022 C 
BRANCH   7   8
HETATM    8  C8  UNL     1     -32.777  17.497  -2.123  1.00 20.00     0.078 C 
HETATM    9  C5  UNL     1     -32.737  18.656  -3.111  1.00 20.00     0.026 C 
HETATM   10 CL10 UNL     1     -33.185  18.136  -0.502  1.00 20.00    -0.125 Cl
ENDBRANCH   7   8
ENDBRANCH   6   7
ENDBRANCH   4   6
TORSDOF 3
ENDMDL
MODEL 7
REMARK VINA RESULT:      -3.9     11.097     12.322
REMARK  3 active torsions:
REMARK  status: ('A' for Active; 'I' for Inactive)
REMARK    1  A    between atoms: C4_4  and  C6_6 
REMARK    2  A    between atoms: C6_6  and  C7_7 
REMARK    3  A    between atoms: C7_7  and  C8_8 
ROOT
HETATM    1  C1  UNL     1     -35.622  15.235  -6.956  1.00 20.00     0.029 C 
HETATM    2  C2  UNL     1     -35.938  15.404  -5.491  1.00 20.00     0.034 C 
HETATM    3  C3  UNL     1     -34.115  15.092  -6.937  1.00 20.00     0.168 C 
HETATM    4  C4  UNL     1     -34.942  14.448  -4.855  1.00 20.00     0.121 C 
HETATM    5  O9  UNL     1     -33.768  14.484  -5.683  1.00 20.00    -0.386 OA
ENDROOT
BRANCH   4   6
HETATM    6  C6  UNL     1     -34.578  14.815  -3.429  1.00 20.00     0.033 C 
BRANCH   6   7
HETATM    7  C7  UNL     1     -33.517  15.921  -3.391  1.00 20.00     0.022 C 
BRANCH   7   8
HETATM    8  C8  UNL     1     -33.897  17.096  -2.482  1.00 20.00     0.078 C 
HETATM    9  C5  UNL     1     -34.961  16.687  -1.471  1.00 20.00     0.026 C 
HETATM   10 CL10 UNL     1     -32.469  17.714  -1.598  1.00 20.00    -0.125 Cl
ENDBRANCH   7   8
ENDBRANCH   6   7
ENDBRANCH   4   6
TORSDOF 3
ENDMDL
MODEL 8
REMARK VINA RESULT:      -3.9     10.638     11.903
REMARK  3 active torsions:
REMARK  status: ('A' for Active; 'I' for Inactive)
REMARK    1  A    between atoms: C4_4  and  C6_6 
REMARK    2  A    between atoms: C6_6  and  C7_7 
REMARK    3  A    between atoms: C7_7  and  C8_8 
ROOT
HETATM    1  C1  UNL     1     -38.745  16.342  -4.212  1.00 20.00     0.029 C 
HETATM    2  C2  UNL     1     -37.303  16.068  -4.556  1.00 20.00     0.034 C 
HETATM    3  C3  UNL     1     -39.398  15.010  -4.512  1.00 20.00     0.168 C 
HETATM    4  C4  UNL     1     -37.140  14.640  -4.063  1.00 20.00     0.121 C 
HETATM    5  O9  UNL     1     -38.407  13.996  -4.276  1.00 20.00    -0.386 OA
ENDROOT
BRANCH   4   6
HETATM    6  C6  UNL     1     -36.046  13.873  -4.780  1.00 20.00     0.033 C 
BRANCH   6   7
HETATM    7  C7  UNL     1     -34.772  13.795  -3.933  1.00 20.00     0.022 C 
BRANCH   7   8
HETATM    8  C8  UNL     1     -33.592  14.565  -4.538  1.00 20.00     0.078 C 
HETATM    9  C5  UNL     1     -33.925  15.073  -5.935  1.00 20.00     0.026 C 
HETATM   10 CL10 UNL     1     -33.137  15.959  -3.511  1.00 20.00    -0.125 Cl
ENDBRANCH   7   8
ENDBRANCH   6   7
ENDBRANCH   4   6
TORSDOF 3
ENDMDL
MODEL 9
REMARK VINA RESULT:      -3.9     10.941     11.859
REMARK  3 active torsions:
REMARK  status: ('A' for Active; 'I' for Inactive)
REMARK    1  A    between atoms: C4_4  and  C6_6 
REMARK    2  A    between atoms: C6_6  and  C7_7 
REMARK    3  A    between atoms: C7_7  and  C8_8 
ROOT
HETATM    1  C1  UNL     1     -34.894  14.192  -3.890  1.00 20.00     0.029 C 
HETATM    2  C2  UNL     1     -35.351  15.379  -3.080  1.00 20.00     0.034 C 
HETATM    3  C3  UNL     1     -33.615  14.712  -4.511  1.00 20.00     0.168 C 
HETATM    4  C4  UNL     1     -34.029  15.919  -2.561  1.00 20.00     0.121 C 
HETATM    5  O9  UNL     1     -33.061  15.667  -3.593  1.00 20.00    -0.386 OA
ENDROOT
BRANCH   4   6
HETATM    6  C6  UNL     1     -34.066  17.401  -2.240  1.00 20.00     0.033 C 
BRANCH   6   7
HETATM    7  C7  UNL     1     -32.653  17.983  -2.130  1.00 20.00     0.022 C 
BRANCH   7   8
HETATM    8  C8  UNL     1     -32.387  18.685  -0.792  1.00 20.00     0.078 C 
HETATM    9  C5  UNL     1     -33.498  18.397   0.210  1.00 20.00     0.026 C 
HETATM   10 CL10 UNL     1     -30.826  18.163  -0.090  1.00 20.00    -0.125 Cl
ENDBRANCH   7   8
ENDBRANCH   6   7
ENDBRANCH   4   6
TORSDOF 3
ENDMDL
