MODEL 1
REMARK VINA RESULT:      -4.4      0.000      0.000
REMARK  6 active torsions:
REMARK  status: ('A' for Active; 'I' for Inactive)
REMARK    1  A    between atoms: C1_1  and  C6_6 
REMARK    2  A    between atoms: C1_1  and  C7_7 
REMARK    3  A    between atoms: C6_6  and  C10_10 
REMARK    4  A    between atoms: C7_7  and  C11_11 
REMARK    5  A    between atoms: C8_8  and  C9_9 
REMARK    6  A    between atoms: C9_9  and  C11_11 
ROOT
HETATM    1  C1  UNL     1     -35.567  13.927  -4.627  1.00 20.00     0.127 C 
HETATM    2  O12 UNL     1     -36.023  12.785  -4.699  1.00 20.00    -0.298 OA
ENDROOT
BRANCH   1   3
HETATM    3  C6  UNL     1     -36.084  15.025  -5.539  1.00 20.00     0.082 C 
BRANCH   3   4
HETATM    4  C10 UNL     1     -35.590  14.883  -6.984  1.00 20.00    -0.016 C 
HETATM    5  C3  UNL     1     -34.092  15.174  -7.097  1.00 20.00     0.010 C 
HETATM    6  C4  UNL     1     -36.375  15.825  -7.899  1.00 20.00     0.010 C 
ENDBRANCH   3   4
ENDBRANCH   1   3
BRANCH   1   7
HETATM    7  C7  UNL     1     -34.507  14.316  -3.607  1.00 20.00     0.082 C 
BRANCH   7   8
HETATM    8  C11 UNL     1     -34.504  15.818  -3.273  1.00 20.00    -0.012 C 
HETATM    9  C5  UNL     1     -33.066  16.330  -3.122  1.00 20.00     0.010 C 
BRANCH   8  10
HETATM   10  C9  UNL     1     -35.285  16.121  -1.976  1.00 20.00     0.004 C 
BRANCH  10  11
HETATM   11  C8  UNL     1     -34.659  17.232  -1.130  1.00 20.00    -0.004 C 
HETATM   12  C2  UNL     1     -35.264  17.272   0.265  1.00 20.00     0.005 C 
ENDBRANCH  10  11
ENDBRANCH   8  10
ENDBRANCH   7   8
ENDBRANCH   1   7
TORSDOF 6
ENDMDL
MODEL 2
REMARK VINA RESULT:      -4.4      1.054      2.267
REMARK  6 active torsions:
REMARK  status: ('A' for Active; 'I' for Inactive)
REMARK    1  A    between atoms: C1_1  and  C6_6 
REMARK    2  A    between atoms: C1_1  and  C7_7 
REMARK    3  A    between atoms: C6_6  and  C10_10 
REMARK    4  A    between atoms: C7_7  and  C11_11 
REMARK    5  A    between atoms: C8_8  and  C9_9 
REMARK    6  A    between atoms: C9_9  and  C11_11 
ROOT
HETATM    1  C1  UNL     1     -35.914  14.015  -4.833  1.00 20.00     0.127 C 
HETATM    2  O12 UNL     1     -35.894  12.838  -4.473  1.00 20.00    -0.298 OA
ENDROOT
BRANCH   1   3
HETATM    3  C6  UNL     1     -35.884  14.373  -6.308  1.00 20.00     0.082 C 
BRANCH   3   4
HETATM    4  C10 UNL     1     -35.064  15.636  -6.599  1.00 20.00    -0.016 C 
HETATM    5  C3  UNL     1     -35.928  16.736  -7.221  1.00 20.00     0.010 C 
HETATM    6  C4  UNL     1     -33.899  15.299  -7.531  1.00 20.00     0.010 C 
ENDBRANCH   3   4
ENDBRANCH   1   3
BRANCH   1   7
HETATM    7  C7  UNL     1     -36.012  15.167  -3.842  1.00 20.00     0.082 C 
BRANCH   7   8
HETATM    8  C11 UNL     1     -34.826  15.233  -2.865  1.00 20.00    -0.012 C 
HETATM    9  C5  UNL     1     -35.130  16.206  -1.718  1.00 20.00     0.010 C 
BRANCH   8  10
HETATM   10  C9  UNL     1     -33.525  15.678  -3.569  1.00 20.00     0.004 C 
BRANCH  10  11
HETATM   11  C8  UNL     1     -33.078  17.092  -3.194  1.00 20.00    -0.004 C 
HETATM   12  C2  UNL     1     -33.460  18.097  -4.270  1.00 20.00     0.005 C 
ENDBRANCH  10  11
ENDBRANCH   8  10
ENDBRANCH   7   8
ENDBRANCH   1   7
TORSDOF 6
ENDMDL
MODEL 3
REMARK VINA RESULT:      -4.4     10.345     11.610
REMARK  6 active torsions:
REMARK  status: ('A' for Active; 'I' for Inactive)
REMARK    1  A    between atoms: C1_1  and  C6_6 
REMARK    2  A    between atoms: C1_1  and  C7_7 
REMARK    3  A    between atoms: C6_6  and  C10_10 
REMARK    4  A    between atoms: C7_7  and  C11_11 
REMARK    5  A    between atoms: C8_8  and  C9_9 
REMARK    6  A    between atoms: C9_9  and  C11_11 
ROOT
HETATM    1  C1  UNL     1     -32.346   7.360   2.844  1.00 20.00     0.127 C 
HETATM    2  O12 UNL     1     -31.432   7.511   3.656  1.00 20.00    -0.298 OA
ENDROOT
BRANCH   1   3
HETATM    3  C6  UNL     1     -32.141   7.698   1.378  1.00 20.00     0.082 C 
BRANCH   3   4
HETATM    4  C10 UNL     1     -33.218   8.641   0.827  1.00 20.00    -0.016 C 
HETATM    5  C3  UNL     1     -33.284   8.587  -0.701  1.00 20.00     0.010 C 
HETATM    6  C4  UNL     1     -32.944  10.074   1.287  1.00 20.00     0.010 C 
ENDBRANCH   3   4
ENDBRANCH   1   3
BRANCH   1   7
HETATM    7  C7  UNL     1     -33.700   6.791   3.242  1.00 20.00     0.082 C 
BRANCH   7   8
HETATM    8  C11 UNL     1     -33.643   5.310   3.652  1.00 20.00    -0.012 C 
HETATM    9  C5  UNL     1     -33.475   4.417   2.414  1.00 20.00     0.010 C 
BRANCH   8  10
HETATM   10  C9  UNL     1     -34.911   4.874   4.417  1.00 20.00     0.004 C 
BRANCH  10  11
HETATM   11  C8  UNL     1     -34.839   5.135   5.923  1.00 20.00    -0.004 C 
HETATM   12  C2  UNL     1     -34.203   6.485   6.221  1.00 20.00     0.005 C 
ENDBRANCH  10  11
ENDBRANCH   8  10
ENDBRANCH   7   8
ENDBRANCH   1   7
TORSDOF 6
ENDMDL
MODEL 4
REMARK VINA RESULT:      -4.3      1.658      2.282
REMARK  6 active torsions:
REMARK  status: ('A' for Active; 'I' for Inactive)
REMARK    1  A    between atoms: C1_1  and  C6_6 
REMARK    2  A    between atoms: C1_1  and  C7_7 
REMARK    3  A    between atoms: C6_6  and  C10_10 
REMARK    4  A    between atoms: C7_7  and  C11_11 
REMARK    5  A    between atoms: C8_8  and  C9_9 
REMARK    6  A    between atoms: C9_9  and  C11_11 
ROOT
HETATM    1  C1  UNL     1     -36.564  14.282  -4.611  1.00 20.00     0.127 C 
HETATM    2  O12 UNL     1     -37.591  13.625  -4.439  1.00 20.00    -0.298 OA
ENDROOT
BRANCH   1   3
HETATM    3  C6  UNL     1     -36.537  15.428  -5.607  1.00 20.00     0.082 C 
BRANCH   3   4
HETATM    4  C10 UNL     1     -37.360  16.637  -5.148  1.00 20.00    -0.016 C 
HETATM    5  C3  UNL     1     -38.592  16.846  -6.031  1.00 20.00     0.010 C 
HETATM    6  C4  UNL     1     -36.491  17.896  -5.161  1.00 20.00     0.010 C 
ENDBRANCH   3   4
ENDBRANCH   1   3
BRANCH   1   7
HETATM    7  C7  UNL     1     -35.291  14.022  -3.818  1.00 20.00     0.082 C 
BRANCH   7   8
HETATM    8  C11 UNL     1     -34.232  15.125  -3.988  1.00 20.00    -0.012 C 
HETATM    9  C5  UNL     1     -32.903  14.522  -4.466  1.00 20.00     0.010 C 
BRANCH   8  10
HETATM   10  C9  UNL     1     -33.989  15.898  -2.674  1.00 20.00     0.004 C 
BRANCH  10  11
HETATM   11  C8  UNL     1     -35.274  16.240  -1.917  1.00 20.00    -0.004 C 
HETATM   12  C2  UNL     1     -34.993  17.152  -0.733  1.00 20.00     0.005 C 
ENDBRANCH  10  11
ENDBRANCH   8  10
ENDBRANCH   7   8
ENDBRANCH   1   7
TORSDOF 6
ENDMDL
MODEL 5
REMARK VINA RESULT:      -4.2      1.482      4.452
REMARK  6 active torsions:
REMARK  status: ('A' for Active; 'I' for Inactive)
REMARK    1  A    between atoms: C1_1  and  C6_6 
REMARK    2  A    between atoms: C1_1  and  C7_7 
REMARK    3  A    between atoms: C6_6  and  C10_10 
REMARK    4  A    between atoms: C7_7  and  C11_11 
REMARK    5  A    between atoms: C8_8  and  C9_9 
REMARK    6  A    between atoms: C9_9  and  C11_11 
ROOT
HETATM    1  C1  UNL     1     -33.710  14.551  -4.531  1.00 20.00     0.127 C 
HETATM    2  O12 UNL     1     -33.938  13.383  -4.217  1.00 20.00    -0.298 OA
ENDROOT
BRANCH   1   3
HETATM    3  C6  UNL     1     -32.925  15.462  -3.604  1.00 20.00     0.082 C 
BRANCH   3   4
HETATM    4  C10 UNL     1     -33.783  16.576  -2.993  1.00 20.00    -0.016 C 
HETATM    5  C3  UNL     1     -32.947  17.514  -2.119  1.00 20.00     0.010 C 
HETATM    6  C4  UNL     1     -34.918  15.968  -2.167  1.00 20.00     0.010 C 
ENDBRANCH   3   4
ENDBRANCH   1   3
BRANCH   1   7
HETATM    7  C7  UNL     1     -34.154  15.136  -5.864  1.00 20.00     0.082 C 
BRANCH   7   8
HETATM    8  C11 UNL     1     -35.575  14.712  -6.273  1.00 20.00    -0.012 C 
HETATM    9  C5  UNL     1     -35.836  15.062  -7.745  1.00 20.00     0.010 C 
BRANCH   8  10
HETATM   10  C9  UNL     1     -36.652  15.387  -5.398  1.00 20.00     0.004 C 
BRANCH  10  11
HETATM   11  C8  UNL     1     -37.384  14.417  -4.468  1.00 20.00    -0.004 C 
HETATM   12  C2  UNL     1     -38.803  14.886  -4.185  1.00 20.00     0.005 C 
ENDBRANCH  10  11
ENDBRANCH   8  10
ENDBRANCH   7   8
ENDBRANCH   1   7
TORSDOF 6
ENDMDL
MODEL 6
REMARK VINA RESULT:      -4.2      1.757      2.660
REMARK  6 active torsions:
REMARK  status: ('A' for Active; 'I' for Inactive)
REMARK    1  A    between atoms: C1_1  and  C6_6 
REMARK    2  A    between atoms: C1_1  and  C7_7 
REMARK    3  A    between atoms: C6_6  and  C10_10 
REMARK    4  A    between atoms: C7_7  and  C11_11 
REMARK    5  A    between atoms: C8_8  and  C9_9 
REMARK    6  A    between atoms: C9_9  and  C11_11 
ROOT
HETATM    1  C1  UNL     1     -36.275  14.016  -4.725  1.00 20.00     0.127 C 
HETATM    2  O12 UNL     1     -36.035  12.819  -4.560  1.00 20.00    -0.298 OA
ENDROOT
BRANCH   1   3
HETATM    3  C6  UNL     1     -37.616  14.599  -4.317  1.00 20.00     0.082 C 
BRANCH   3   4
HETATM    4  C10 UNL     1     -37.763  16.079  -4.693  1.00 20.00    -0.016 C 
HETATM    5  C3  UNL     1     -37.916  16.961  -3.453  1.00 20.00     0.010 C 
HETATM    6  C4  UNL     1     -38.967  16.266  -5.618  1.00 20.00     0.010 C 
ENDBRANCH   3   4
ENDBRANCH   1   3
BRANCH   1   7
HETATM    7  C7  UNL     1     -35.245  14.980  -5.297  1.00 20.00     0.082 C 
BRANCH   7   8
HETATM    8  C11 UNL     1     -34.129  15.340  -4.302  1.00 20.00    -0.012 C 
HETATM    9  C5  UNL     1     -32.953  14.363  -4.440  1.00 20.00     0.010 C 
BRANCH   8  10
HETATM   10  C9  UNL     1     -34.630  15.318  -2.842  1.00 20.00     0.004 C 
BRANCH  10  11
HETATM   11  C8  UNL     1     -34.436  16.646  -2.107  1.00 20.00    -0.004 C 
HETATM   12  C2  UNL     1     -33.035  17.199  -2.324  1.00 20.00     0.005 C 
ENDBRANCH  10  11
ENDBRANCH   8  10
ENDBRANCH   7   8
ENDBRANCH   1   7
TORSDOF 6
ENDMDL
MODEL 7
REMARK VINA RESULT:      -4.1      1.541      4.323
REMARK  6 active torsions:
REMARK  status: ('A' for Active; 'I' for Inactive)
REMARK    1  A    between atoms: C1_1  and  C6_6 
REMARK    2  A    between atoms: C1_1  and  C7_7 
REMARK    3  A    between atoms: C6_6  and  C10_10 
REMARK    4  A    between atoms: C7_7  and  C11_11 
REMARK    5  A    between atoms: C8_8  and  C9_9 
REMARK    6  A    between atoms: C9_9  and  C11_11 
ROOT
HETATM    1  C1  UNL     1     -35.938  14.033  -4.916  1.00 20.00     0.127 C 
HETATM    2  O12 UNL     1     -35.921  12.856  -4.556  1.00 20.00    -0.298 OA
ENDROOT
BRANCH   1   3
HETATM    3  C6  UNL     1     -36.041  15.152  -3.895  1.00 20.00     0.082 C 
BRANCH   3   4
HETATM    4  C10 UNL     1     -34.855  15.186  -2.924  1.00 20.00    -0.016 C 
HETATM    5  C3  UNL     1     -35.018  16.290  -1.877  1.00 20.00     0.010 C 
HETATM    6  C4  UNL     1     -33.551  15.390  -3.698  1.00 20.00     0.010 C 
ENDBRANCH   3   4
ENDBRANCH   1   3
BRANCH   1   7
HETATM    7  C7  UNL     1     -35.813  14.438  -6.378  1.00 20.00     0.082 C 
BRANCH   7   8
HETATM    8  C11 UNL     1     -35.877  15.960  -6.596  1.00 20.00    -0.012 C 
HETATM    9  C5  UNL     1     -36.941  16.306  -7.647  1.00 20.00     0.010 C 
BRANCH   8  10
HETATM   10  C9  UNL     1     -34.518  16.535  -7.050  1.00 20.00     0.004 C 
BRANCH  10  11
HETATM   11  C8  UNL     1     -34.329  18.011  -6.697  1.00 20.00    -0.004 C 
HETATM   12  C2  UNL     1     -34.977  18.350  -5.363  1.00 20.00     0.005 C 
ENDBRANCH  10  11
ENDBRANCH   8  10
ENDBRANCH   7   8
ENDBRANCH   1   7
TORSDOF 6
ENDMDL
MODEL 8
REMARK VINA RESULT:      -4.1      1.847      2.717
REMARK  6 active torsions:
REMARK  status: ('A' for Active; 'I' for Inactive)
REMARK    1  A    between atoms: C1_1  and  C6_6 
REMARK    2  A    between atoms: C1_1  and  C7_7 
REMARK    3  A    between atoms: C6_6  and  C10_10 
REMARK    4  A    between atoms: C7_7  and  C11_11 
REMARK    5  A    between atoms: C8_8  and  C9_9 
REMARK    6  A    between atoms: C9_9  and  C11_11 
ROOT
HETATM    1  C1  UNL     1     -33.937  14.677  -4.295  1.00 20.00     0.127 C 
HETATM    2  O12 UNL     1     -32.943  14.239  -4.875  1.00 20.00    -0.298 OA
ENDROOT
BRANCH   1   3
HETATM    3  C6  UNL     1     -35.080  13.753  -3.915  1.00 20.00     0.082 C 
BRANCH   3   4
HETATM    4  C10 UNL     1     -36.258  13.826  -4.893  1.00 20.00    -0.016 C 
HETATM    5  C3  UNL     1     -35.852  14.483  -6.214  1.00 20.00     0.010 C 
HETATM    6  C4  UNL     1     -37.416  14.600  -4.261  1.00 20.00     0.010 C 
ENDBRANCH   3   4
ENDBRANCH   1   3
BRANCH   1   7
HETATM    7  C7  UNL     1     -34.063  16.139  -3.889  1.00 20.00     0.082 C 
BRANCH   7   8
HETATM    8  C11 UNL     1     -33.728  16.391  -2.409  1.00 20.00    -0.012 C 
HETATM    9  C5  UNL     1     -35.010  16.658  -1.608  1.00 20.00     0.010 C 
BRANCH   8  10
HETATM   10  C9  UNL     1     -32.767  17.586  -2.232  1.00 20.00     0.004 C 
BRANCH  10  11
HETATM   11  C8  UNL     1     -32.709  18.118  -0.798  1.00 20.00    -0.004 C 
HETATM   12  C2  UNL     1     -31.276  18.395  -0.368  1.00 20.00     0.005 C 
ENDBRANCH  10  11
ENDBRANCH   8  10
ENDBRANCH   7   8
ENDBRANCH   1   7
TORSDOF 6
ENDMDL
MODEL 9
REMARK VINA RESULT:      -4.0      3.463      7.206
REMARK  6 active torsions:
REMARK  status: ('A' for Active; 'I' for Inactive)
REMARK    1  A    between atoms: C1_1  and  C6_6 
REMARK    2  A    between atoms: C1_1  and  C7_7 
REMARK    3  A    between atoms: C6_6  and  C10_10 
REMARK    4  A    between atoms: C7_7  and  C11_11 
REMARK    5  A    between atoms: C8_8  and  C9_9 
REMARK    6  A    between atoms: C9_9  and  C11_11 
ROOT
HETATM    1  C1  UNL     1     -31.862  18.471  -0.159  1.00 20.00     0.127 C 
HETATM    2  O12 UNL     1     -30.725  18.312  -0.603  1.00 20.00    -0.298 OA
ENDROOT
BRANCH   1   3
HETATM    3  C6  UNL     1     -32.077  18.940   1.269  1.00 20.00     0.082 C 
BRANCH   3   4
HETATM    4  C10 UNL     1     -33.151  18.133   2.008  1.00 20.00    -0.016 C 
HETATM    5  C3  UNL     1     -34.377  18.991   2.330  1.00 20.00     0.010 C 
HETATM    6  C4  UNL     1     -32.571  17.549   3.298  1.00 20.00     0.010 C 
ENDBRANCH   3   4
ENDBRANCH   1   3
BRANCH   1   7
HETATM    7  C7  UNL     1     -33.105  18.256  -1.011  1.00 20.00     0.082 C 
BRANCH   7   8
HETATM    8  C11 UNL     1     -32.848  17.386  -2.253  1.00 20.00    -0.012 C 
HETATM    9  C5  UNL     1     -32.872  18.246  -3.524  1.00 20.00     0.010 C 
BRANCH   8  10
HETATM   10  C9  UNL     1     -33.893  16.257  -2.392  1.00 20.00     0.004 C 
BRANCH  10  11
HETATM   11  C8  UNL     1     -33.741  15.435  -3.674  1.00 20.00    -0.004 C 
HETATM   12  C2  UNL     1     -34.812  14.360  -3.772  1.00 20.00     0.005 C 
ENDBRANCH  10  11
ENDBRANCH   8  10
ENDBRANCH   7   8
ENDBRANCH   1   7
TORSDOF 6
ENDMDL
