MODEL 1
REMARK VINA RESULT:      -4.3      0.000      0.000
REMARK  5 active torsions:
REMARK  status: ('A' for Active; 'I' for Inactive)
REMARK    1  A    between atoms: C1_1  and  C7_7 
REMARK    2  A    between atoms: C1_1  and  C11_11 
REMARK    3  A    between atoms: C7_7  and  C10_10 
REMARK    4  A    between atoms: C8_8  and  C9_9 
REMARK    5  A    between atoms: C9_9  and  C10_10 
ROOT
HETATM    1  C1  UNL     1     -33.694  15.050  -4.760  1.00 20.00     0.134 C 
HETATM    2  O12 UNL     1     -33.329  13.899  -4.513  1.00 20.00    -0.297 OA
ENDROOT
BRANCH   1   3
HETATM    3  C7  UNL     1     -33.375  16.195  -3.800  1.00 20.00     0.083 C 
BRANCH   3   4
HETATM    4  C10 UNL     1     -34.065  16.060  -2.428  1.00 20.00    -0.012 C 
HETATM    5  C3  UNL     1     -35.575  15.864  -2.606  1.00 20.00     0.010 C 
BRANCH   4   6
HETATM    6  C9  UNL     1     -33.746  17.306  -1.575  1.00 20.00     0.004 C 
BRANCH   6   7
HETATM    7  C8  UNL     1     -32.458  18.021  -1.992  1.00 20.00    -0.004 C 
HETATM    8  C2  UNL     1     -31.577  18.323  -0.789  1.00 20.00     0.005 C 
ENDBRANCH   6   7
ENDBRANCH   4   6
ENDBRANCH   3   4
ENDBRANCH   1   3
BRANCH   1   9
HETATM    9  C11 UNL     1     -34.498  15.379  -6.036  1.00 20.00     0.009 C 
HETATM   10  C4  UNL     1     -35.796  14.562  -6.083  1.00 20.00     0.022 C 
HETATM   11  C5  UNL     1     -34.810  16.881  -6.056  1.00 20.00     0.022 C 
HETATM   12  C6  UNL     1     -33.658  15.028  -7.277  1.00 20.00     0.022 C 
ENDBRANCH   1   9
TORSDOF 5
ENDMDL
MODEL 2
REMARK VINA RESULT:      -4.2      1.146      1.765
REMARK  5 active torsions:
REMARK  status: ('A' for Active; 'I' for Inactive)
REMARK    1  A    between atoms: C1_1  and  C7_7 
REMARK    2  A    between atoms: C1_1  and  C11_11 
REMARK    3  A    between atoms: C7_7  and  C10_10 
REMARK    4  A    between atoms: C8_8  and  C9_9 
REMARK    5  A    between atoms: C9_9  and  C10_10 
ROOT
HETATM    1  C1  UNL     1     -34.250  14.999  -4.644  1.00 20.00     0.134 C 
HETATM    2  O12 UNL     1     -33.524  14.011  -4.516  1.00 20.00    -0.297 OA
ENDROOT
BRANCH   1   3
HETATM    3  C7  UNL     1     -33.788  16.376  -4.172  1.00 20.00     0.083 C 
BRANCH   3   4
HETATM    4  C10 UNL     1     -33.482  16.440  -2.663  1.00 20.00    -0.012 C 
HETATM    5  C3  UNL     1     -34.772  16.287  -1.849  1.00 20.00     0.010 C 
BRANCH   4   6
HETATM    6  C9  UNL     1     -32.761  17.768  -2.348  1.00 20.00     0.004 C 
BRANCH   6   7
HETATM    7  C8  UNL     1     -32.697  18.090  -0.853  1.00 20.00    -0.004 C 
HETATM    8  C2  UNL     1     -31.266  18.348  -0.402  1.00 20.00     0.005 C 
ENDBRANCH   6   7
ENDBRANCH   4   6
ENDBRANCH   3   4
ENDBRANCH   1   3
BRANCH   1   9
HETATM    9  C11 UNL     1     -35.656  14.883  -5.272  1.00 20.00     0.009 C 
HETATM   10  C4  UNL     1     -35.554  14.630  -6.782  1.00 20.00     0.022 C 
HETATM   11  C5  UNL     1     -36.414  13.739  -4.587  1.00 20.00     0.022 C 
HETATM   12  C6  UNL     1     -36.427  16.195  -5.049  1.00 20.00     0.022 C 
ENDBRANCH   1   9
TORSDOF 5
ENDMDL
MODEL 3
REMARK VINA RESULT:      -4.2      1.877      3.044
REMARK  5 active torsions:
REMARK  status: ('A' for Active; 'I' for Inactive)
REMARK    1  A    between atoms: C1_1  and  C7_7 
REMARK    2  A    between atoms: C1_1  and  C11_11 
REMARK    3  A    between atoms: C7_7  and  C10_10 
REMARK    4  A    between atoms: C8_8  and  C9_9 
REMARK    5  A    between atoms: C9_9  and  C10_10 
ROOT
HETATM    1  C1  UNL     1     -36.161  14.389  -4.169  1.00 20.00     0.134 C 
HETATM    2  O12 UNL     1     -36.196  13.235  -4.602  1.00 20.00    -0.297 OA
ENDROOT
BRANCH   1   3
HETATM    3  C7  UNL     1     -35.019  14.852  -3.268  1.00 20.00     0.083 C 
BRANCH   3   4
HETATM    4  C10 UNL     1     -33.830  15.458  -4.040  1.00 20.00    -0.012 C 
HETATM    5  C3  UNL     1     -32.838  14.360  -4.441  1.00 20.00     0.010 C 
BRANCH   4   6
HETATM    6  C9  UNL     1     -33.161  16.543  -3.171  1.00 20.00     0.004 C 
BRANCH   6   7
HETATM    7  C8  UNL     1     -33.931  16.861  -1.886  1.00 20.00    -0.004 C 
HETATM    8  C2  UNL     1     -33.258  17.976  -1.098  1.00 20.00     0.005 C 
ENDBRANCH   6   7
ENDBRANCH   4   6
ENDBRANCH   3   4
ENDBRANCH   1   3
BRANCH   1   9
HETATM    9  C11 UNL     1     -37.273  15.404  -4.507  1.00 20.00     0.009 C 
HETATM   10  C4  UNL     1     -37.119  15.916  -5.946  1.00 20.00     0.022 C 
HETATM   11  C5  UNL     1     -38.638  14.729  -4.323  1.00 20.00     0.022 C 
HETATM   12  C6  UNL     1     -37.179  16.606  -3.551  1.00 20.00     0.022 C 
ENDBRANCH   1   9
TORSDOF 5
ENDMDL
MODEL 4
REMARK VINA RESULT:      -4.1      1.694      2.768
REMARK  5 active torsions:
REMARK  status: ('A' for Active; 'I' for Inactive)
REMARK    1  A    between atoms: C1_1  and  C7_7 
REMARK    2  A    between atoms: C1_1  and  C11_11 
REMARK    3  A    between atoms: C7_7  and  C10_10 
REMARK    4  A    between atoms: C8_8  and  C9_9 
REMARK    5  A    between atoms: C9_9  and  C10_10 
ROOT
HETATM    1  C1  UNL     1     -34.211  15.947  -2.762  1.00 20.00     0.134 C 
HETATM    2  O12 UNL     1     -35.117  15.923  -1.926  1.00 20.00    -0.297 OA
ENDROOT
BRANCH   1   3
HETATM    3  C7  UNL     1     -32.939  16.756  -2.514  1.00 20.00     0.083 C 
BRANCH   3   4
HETATM    4  C10 UNL     1     -33.207  18.188  -2.010  1.00 20.00    -0.012 C 
HETATM    5  C3  UNL     1     -32.517  19.213  -2.917  1.00 20.00     0.010 C 
BRANCH   4   6
HETATM    6  C9  UNL     1     -32.730  18.307  -0.547  1.00 20.00     0.004 C 
BRANCH   6   7
HETATM    7  C8  UNL     1     -31.212  18.439  -0.406  1.00 20.00    -0.004 C 
HETATM    8  C2  UNL     1     -30.765  18.196   1.028  1.00 20.00     0.005 C 
ENDBRANCH   6   7
ENDBRANCH   4   6
ENDBRANCH   3   4
ENDBRANCH   1   3
BRANCH   1   9
HETATM    9  C11 UNL     1     -34.329  15.176  -4.094  1.00 20.00     0.009 C 
HETATM   10  C4  UNL     1     -32.995  14.508  -4.452  1.00 20.00     0.022 C 
HETATM   11  C5  UNL     1     -35.436  14.122  -3.963  1.00 20.00     0.022 C 
HETATM   12  C6  UNL     1     -34.703  16.153  -5.222  1.00 20.00     0.022 C 
ENDBRANCH   1   9
TORSDOF 5
ENDMDL
MODEL 5
REMARK VINA RESULT:      -4.1      1.361      1.764
REMARK  5 active torsions:
REMARK  status: ('A' for Active; 'I' for Inactive)
REMARK    1  A    between atoms: C1_1  and  C7_7 
REMARK    2  A    between atoms: C1_1  and  C11_11 
REMARK    3  A    between atoms: C7_7  and  C10_10 
REMARK    4  A    between atoms: C8_8  and  C9_9 
REMARK    5  A    between atoms: C9_9  and  C10_10 
ROOT
HETATM    1  C1  UNL     1     -35.463  14.795  -5.219  1.00 20.00     0.134 C 
HETATM    2  O12 UNL     1     -35.581  13.573  -5.115  1.00 20.00    -0.297 OA
ENDROOT
BRANCH   1   3
HETATM    3  C7  UNL     1     -35.716  15.711  -4.023  1.00 20.00     0.083 C 
BRANCH   3   4
HETATM    4  C10 UNL     1     -34.719  15.505  -2.867  1.00 20.00    -0.012 C 
HETATM    5  C3  UNL     1     -35.180  16.269  -1.620  1.00 20.00     0.010 C 
BRANCH   4   6
HETATM    6  C9  UNL     1     -33.314  15.953  -3.323  1.00 20.00     0.004 C 
BRANCH   6   7
HETATM    7  C8  UNL     1     -32.862  17.279  -2.705  1.00 20.00    -0.004 C 
HETATM    8  C2  UNL     1     -32.936  18.415  -3.714  1.00 20.00     0.005 C 
ENDBRANCH   6   7
ENDBRANCH   4   6
ENDBRANCH   3   4
ENDBRANCH   1   3
BRANCH   1   9
HETATM    9  C11 UNL     1     -35.068  15.450  -6.560  1.00 20.00     0.009 C 
HETATM   10  C4  UNL     1     -36.022  15.008  -7.678  1.00 20.00     0.022 C 
HETATM   11  C5  UNL     1     -35.102  16.975  -6.400  1.00 20.00     0.022 C 
HETATM   12  C6  UNL     1     -33.641  15.020  -6.941  1.00 20.00     0.022 C 
ENDBRANCH   1   9
TORSDOF 5
ENDMDL
MODEL 6
REMARK VINA RESULT:      -3.9      1.296      4.773
REMARK  5 active torsions:
REMARK  status: ('A' for Active; 'I' for Inactive)
REMARK    1  A    between atoms: C1_1  and  C7_7 
REMARK    2  A    between atoms: C1_1  and  C11_11 
REMARK    3  A    between atoms: C7_7  and  C10_10 
REMARK    4  A    between atoms: C8_8  and  C9_9 
REMARK    5  A    between atoms: C9_9  and  C10_10 
ROOT
HETATM    1  C1  UNL     1     -33.662  16.091  -3.966  1.00 20.00     0.134 C 
HETATM    2  O12 UNL     1     -32.756  15.266  -3.829  1.00 20.00    -0.297 OA
ENDROOT
BRANCH   1   3
HETATM    3  C7  UNL     1     -34.344  16.288  -5.318  1.00 20.00     0.083 C 
BRANCH   3   4
HETATM    4  C10 UNL     1     -34.386  15.010  -6.179  1.00 20.00    -0.012 C 
HETATM    5  C3  UNL     1     -33.893  15.307  -7.600  1.00 20.00     0.010 C 
BRANCH   4   6
HETATM    6  C9  UNL     1     -35.823  14.446  -6.180  1.00 20.00     0.004 C 
BRANCH   6   7
HETATM    7  C8  UNL     1     -36.241  13.833  -4.841  1.00 20.00    -0.004 C 
HETATM    8  C2  UNL     1     -37.463  14.535  -4.267  1.00 20.00     0.005 C 
ENDBRANCH   6   7
ENDBRANCH   4   6
ENDBRANCH   3   4
ENDBRANCH   1   3
BRANCH   1   9
HETATM    9  C11 UNL     1     -34.134  16.964  -2.784  1.00 20.00     0.009 C 
HETATM   10  C4  UNL     1     -34.906  18.190  -3.291  1.00 20.00     0.022 C 
HETATM   11  C5  UNL     1     -35.020  16.119  -1.861  1.00 20.00     0.022 C 
HETATM   12  C6  UNL     1     -32.912  17.455  -1.988  1.00 20.00     0.022 C 
ENDBRANCH   1   9
TORSDOF 5
ENDMDL
MODEL 7
REMARK VINA RESULT:      -3.9      1.977      2.751
REMARK  5 active torsions:
REMARK  status: ('A' for Active; 'I' for Inactive)
REMARK    1  A    between atoms: C1_1  and  C7_7 
REMARK    2  A    between atoms: C1_1  and  C11_11 
REMARK    3  A    between atoms: C7_7  and  C10_10 
REMARK    4  A    between atoms: C8_8  and  C9_9 
REMARK    5  A    between atoms: C9_9  and  C10_10 
ROOT
HETATM    1  C1  UNL     1     -35.439  15.944  -3.727  1.00 20.00     0.134 C 
HETATM    2  O12 UNL     1     -36.138  16.858  -4.169  1.00 20.00    -0.297 OA
ENDROOT
BRANCH   1   3
HETATM    3  C7  UNL     1     -35.001  15.931  -2.264  1.00 20.00     0.083 C 
BRANCH   3   4
HETATM    4  C10 UNL     1     -34.450  17.285  -1.774  1.00 20.00    -0.012 C 
HETATM    5  C3  UNL     1     -32.941  17.373  -2.033  1.00 20.00     0.010 C 
BRANCH   4   6
HETATM    6  C9  UNL     1     -34.783  17.456  -0.276  1.00 20.00     0.004 C 
BRANCH   6   7
HETATM    7  C8  UNL     1     -33.771  18.317   0.483  1.00 20.00    -0.004 C 
HETATM    8  C2  UNL     1     -33.824  18.047   1.979  1.00 20.00     0.005 C 
ENDBRANCH   6   7
ENDBRANCH   4   6
ENDBRANCH   3   4
ENDBRANCH   1   3
BRANCH   1   9
HETATM    9  C11 UNL     1     -34.968  14.786  -4.632  1.00 20.00     0.009 C 
HETATM   10  C4  UNL     1     -33.516  14.404  -4.312  1.00 20.00     0.022 C 
HETATM   11  C5  UNL     1     -35.895  13.581  -4.425  1.00 20.00     0.022 C 
HETATM   12  C6  UNL     1     -35.042  15.223  -6.106  1.00 20.00     0.022 C 
ENDBRANCH   1   9
TORSDOF 5
ENDMDL
MODEL 8
REMARK VINA RESULT:      -3.8      1.433      4.442
REMARK  5 active torsions:
REMARK  status: ('A' for Active; 'I' for Inactive)
REMARK    1  A    between atoms: C1_1  and  C7_7 
REMARK    2  A    between atoms: C1_1  and  C11_11 
REMARK    3  A    between atoms: C7_7  and  C10_10 
REMARK    4  A    between atoms: C8_8  and  C9_9 
REMARK    5  A    between atoms: C9_9  and  C10_10 
ROOT
HETATM    1  C1  UNL     1     -33.857  15.864  -3.126  1.00 20.00     0.134 C 
HETATM    2  O12 UNL     1     -32.746  15.700  -3.635  1.00 20.00    -0.297 OA
ENDROOT
BRANCH   1   3
HETATM    3  C7  UNL     1     -34.975  14.847  -3.344  1.00 20.00     0.083 C 
BRANCH   3   4
HETATM    4  C10 UNL     1     -35.884  15.176  -4.544  1.00 20.00    -0.012 C 
HETATM    5  C3  UNL     1     -37.343  14.836  -4.219  1.00 20.00     0.010 C 
BRANCH   4   6
HETATM    6  C9  UNL     1     -35.382  14.410  -5.786  1.00 20.00     0.004 C 
BRANCH   6   7
HETATM    7  C8  UNL     1     -34.518  15.258  -6.722  1.00 20.00    -0.004 C 
HETATM    8  C2  UNL     1     -34.864  16.736  -6.608  1.00 20.00     0.005 C 
ENDBRANCH   6   7
ENDBRANCH   4   6
ENDBRANCH   3   4
ENDBRANCH   1   3
BRANCH   1   9
HETATM    9  C11 UNL     1     -34.168  17.106  -2.264  1.00 20.00     0.009 C 
HETATM   10  C4  UNL     1     -35.170  16.758  -1.155  1.00 20.00     0.022 C 
HETATM   11  C5  UNL     1     -32.860  17.631  -1.656  1.00 20.00     0.022 C 
HETATM   12  C6  UNL     1     -34.783  18.205  -3.148  1.00 20.00     0.022 C 
ENDBRANCH   1   9
TORSDOF 5
ENDMDL
MODEL 9
REMARK VINA RESULT:      -3.8      1.990      2.602
REMARK  5 active torsions:
REMARK  status: ('A' for Active; 'I' for Inactive)
REMARK    1  A    between atoms: C1_1  and  C7_7 
REMARK    2  A    between atoms: C1_1  and  C11_11 
REMARK    3  A    between atoms: C7_7  and  C10_10 
REMARK    4  A    between atoms: C8_8  and  C9_9 
REMARK    5  A    between atoms: C9_9  and  C10_10 
ROOT
HETATM    1  C1  UNL     1     -35.200  16.033  -3.869  1.00 20.00     0.134 C 
HETATM    2  O12 UNL     1     -35.649  17.031  -4.436  1.00 20.00    -0.297 OA
ENDROOT
BRANCH   1   3
HETATM    3  C7  UNL     1     -35.045  15.999  -2.350  1.00 20.00     0.083 C 
BRANCH   3   4
HETATM    4  C10 UNL     1     -34.504  17.315  -1.756  1.00 20.00    -0.012 C 
HETATM    5  C3  UNL     1     -32.992  17.423  -1.985  1.00 20.00     0.010 C 
BRANCH   4   6
HETATM    6  C9  UNL     1     -34.861  17.379  -0.256  1.00 20.00     0.004 C 
BRANCH   6   7
HETATM    7  C8  UNL     1     -33.887  18.223   0.570  1.00 20.00    -0.004 C 
HETATM    8  C2  UNL     1     -34.186  18.116   2.058  1.00 20.00     0.005 C 
ENDBRANCH   6   7
ENDBRANCH   4   6
ENDBRANCH   3   4
ENDBRANCH   1   3
BRANCH   1   9
HETATM    9  C11 UNL     1     -34.766  14.786  -4.668  1.00 20.00     0.009 C 
HETATM   10  C4  UNL     1     -35.614  13.568  -4.274  1.00 20.00     0.022 C 
HETATM   11  C5  UNL     1     -34.913  15.077  -6.167  1.00 20.00     0.022 C 
HETATM   12  C6  UNL     1     -33.291  14.469  -4.365  1.00 20.00     0.022 C 
ENDBRANCH   1   9
TORSDOF 5
ENDMDL
