MODEL 1
REMARK VINA RESULT:      -4.5      0.000      0.000
REMARK  5 active torsions:
REMARK  status: ('A' for Active; 'I' for Inactive)
REMARK    1  A    between atoms: C1_1  and  C6_6 
REMARK    2  A    between atoms: C1_1  and  C9_9 
REMARK    3  A    between atoms: C6_6  and  C10_10 
REMARK    4  A    between atoms: C7_7  and  C8_8 
REMARK    5  A    between atoms: C8_8  and  C10_10 
ROOT
HETATM    1  C6  UNL     1     -33.839   6.892   3.062  1.00 20.00     0.082 C 
ENDROOT
BRANCH   1   2
HETATM    2  C1  UNL     1     -34.199   5.665   3.895  1.00 20.00     0.130 C 
HETATM    3  O11 UNL     1     -34.025   4.521   3.474  1.00 20.00    -0.298 OA
BRANCH   2   4
HETATM    4  C9  UNL     1     -34.732   5.933   5.302  1.00 20.00     0.047 C 
HETATM    5  C3  UNL     1     -34.797   4.646   6.120  1.00 20.00     0.017 C 
HETATM    6  C4  UNL     1     -33.865   6.974   6.001  1.00 20.00     0.017 C 
ENDBRANCH   2   4
ENDBRANCH   1   2
BRANCH   1   7
HETATM    7  C10 UNL     1     -32.364   6.929   2.626  1.00 20.00    -0.012 C 
HETATM    8  C5  UNL     1     -31.506   7.691   3.641  1.00 20.00     0.010 C 
BRANCH   7   9
HETATM    9  C8  UNL     1     -32.211   7.504   1.202  1.00 20.00     0.004 C 
BRANCH   9  10
HETATM   10  C7  UNL     1     -32.889   8.856   0.966  1.00 20.00    -0.004 C 
HETATM   11  C2  UNL     1     -33.514   8.924  -0.420  1.00 20.00     0.005 C 
ENDBRANCH   9  10
ENDBRANCH   7   9
ENDBRANCH   1   7
TORSDOF 5
ENDMDL
MODEL 2
REMARK VINA RESULT:      -4.5      1.540      4.890
REMARK  5 active torsions:
REMARK  status: ('A' for Active; 'I' for Inactive)
REMARK    1  A    between atoms: C1_1  and  C6_6 
REMARK    2  A    between atoms: C1_1  and  C9_9 
REMARK    3  A    between atoms: C6_6  and  C10_10 
REMARK    4  A    between atoms: C7_7  and  C8_8 
REMARK    5  A    between atoms: C8_8  and  C10_10 
ROOT
HETATM    1  C6  UNL     1     -33.737   6.537   2.177  1.00 20.00     0.082 C 
ENDROOT
BRANCH   1   2
HETATM    2  C1  UNL     1     -32.554   7.500   2.159  1.00 20.00     0.130 C 
HETATM    3  O11 UNL     1     -31.693   7.488   3.038  1.00 20.00    -0.298 OA
BRANCH   2   4
HETATM    4  C9  UNL     1     -32.466   8.443   0.959  1.00 20.00     0.047 C 
HETATM    5  C3  UNL     1     -33.165   7.849  -0.261  1.00 20.00     0.017 C 
HETATM    6  C4  UNL     1     -33.063   9.801   1.315  1.00 20.00     0.017 C 
ENDBRANCH   2   4
ENDBRANCH   1   2
BRANCH   1   7
HETATM    7  C10 UNL     1     -33.601   5.415   3.220  1.00 20.00    -0.012 C 
HETATM    8  C5  UNL     1     -33.145   4.105   2.570  1.00 20.00     0.010 C 
BRANCH   7   9
HETATM    9  C8  UNL     1     -34.907   5.230   4.023  1.00 20.00     0.004 C 
BRANCH   9  10
HETATM   10  C7  UNL     1     -34.761   5.339   5.543  1.00 20.00    -0.004 C 
HETATM   11  C2  UNL     1     -34.033   6.617   5.937  1.00 20.00     0.005 C 
ENDBRANCH   9  10
ENDBRANCH   7   9
ENDBRANCH   1   7
TORSDOF 5
ENDMDL
MODEL 3
REMARK VINA RESULT:      -4.5     10.663     12.078
REMARK  5 active torsions:
REMARK  status: ('A' for Active; 'I' for Inactive)
REMARK    1  A    between atoms: C1_1  and  C6_6 
REMARK    2  A    between atoms: C1_1  and  C9_9 
REMARK    3  A    between atoms: C6_6  and  C10_10 
REMARK    4  A    between atoms: C7_7  and  C8_8 
REMARK    5  A    between atoms: C8_8  and  C10_10 
ROOT
HETATM    1  C6  UNL     1     -35.140  14.076  -3.762  1.00 20.00     0.082 C 
ENDROOT
BRANCH   1   2
HETATM    2  C1  UNL     1     -36.360  14.292  -4.653  1.00 20.00     0.130 C 
HETATM    3  O11 UNL     1     -37.392  13.636  -4.511  1.00 20.00    -0.298 OA
BRANCH   2   4
HETATM    4  C9  UNL     1     -36.252  15.407  -5.693  1.00 20.00     0.047 C 
HETATM    5  C3  UNL     1     -35.856  14.850  -7.058  1.00 20.00     0.017 C 
HETATM    6  C4  UNL     1     -37.571  16.168  -5.783  1.00 20.00     0.017 C 
ENDBRANCH   2   4
ENDBRANCH   1   2
BRANCH   1   7
HETATM    7  C10 UNL     1     -34.057  15.155  -3.930  1.00 20.00    -0.012 C 
HETATM    8  C5  UNL     1     -32.731  14.542  -4.391  1.00 20.00     0.010 C 
BRANCH   7   9
HETATM    9  C8  UNL     1     -33.885  15.986  -2.641  1.00 20.00     0.004 C 
BRANCH   9  10
HETATM   10  C7  UNL     1     -35.167  16.226  -1.840  1.00 20.00    -0.004 C 
HETATM   11  C2  UNL     1     -35.926  17.436  -2.366  1.00 20.00     0.005 C 
ENDBRANCH   9  10
ENDBRANCH   7   9
ENDBRANCH   1   7
TORSDOF 5
ENDMDL
MODEL 4
REMARK VINA RESULT:      -4.4     10.848     12.135
REMARK  5 active torsions:
REMARK  status: ('A' for Active; 'I' for Inactive)
REMARK    1  A    between atoms: C1_1  and  C6_6 
REMARK    2  A    between atoms: C1_1  and  C9_9 
REMARK    3  A    between atoms: C6_6  and  C10_10 
REMARK    4  A    between atoms: C7_7  and  C8_8 
REMARK    5  A    between atoms: C8_8  and  C10_10 
ROOT
HETATM    1  C6  UNL     1     -35.711  15.341  -3.400  1.00 20.00     0.082 C 
ENDROOT
BRANCH   1   2
HETATM    2  C1  UNL     1     -35.296  14.297  -4.433  1.00 20.00     0.130 C 
HETATM    3  O11 UNL     1     -34.896  13.180  -4.102  1.00 20.00    -0.298 OA
BRANCH   2   4
HETATM    4  C9  UNL     1     -35.457  14.693  -5.900  1.00 20.00     0.047 C 
HETATM    5  C3  UNL     1     -36.387  15.894  -6.047  1.00 20.00     0.017 C 
HETATM    6  C4  UNL     1     -34.093  14.989  -6.515  1.00 20.00     0.017 C 
ENDBRANCH   2   4
ENDBRANCH   1   2
BRANCH   1   7
HETATM    7  C10 UNL     1     -34.589  15.713  -2.416  1.00 20.00    -0.012 C 
HETATM    8  C5  UNL     1     -35.076  16.731  -1.380  1.00 20.00     0.010 C 
BRANCH   7   9
HETATM    9  C8  UNL     1     -33.330  16.210  -3.157  1.00 20.00     0.004 C 
BRANCH   9  10
HETATM   10  C7  UNL     1     -33.196  17.730  -3.273  1.00 20.00    -0.004 C 
HETATM   11  C2  UNL     1     -33.762  18.235  -4.592  1.00 20.00     0.005 C 
ENDBRANCH   9  10
ENDBRANCH   7   9
ENDBRANCH   1   7
TORSDOF 5
ENDMDL
MODEL 5
REMARK VINA RESULT:      -4.3     10.565     11.942
REMARK  5 active torsions:
REMARK  status: ('A' for Active; 'I' for Inactive)
REMARK    1  A    between atoms: C1_1  and  C6_6 
REMARK    2  A    between atoms: C1_1  and  C9_9 
REMARK    3  A    between atoms: C6_6  and  C10_10 
REMARK    4  A    between atoms: C7_7  and  C8_8 
REMARK    5  A    between atoms: C8_8  and  C10_10 
ROOT
HETATM    1  C6  UNL     1     -34.555  14.369  -3.584  1.00 20.00     0.082 C 
ENDROOT
BRANCH   1   2
HETATM    2  C1  UNL     1     -35.621  14.050  -4.627  1.00 20.00     0.130 C 
HETATM    3  O11 UNL     1     -36.125  12.930  -4.720  1.00 20.00    -0.298 OA
BRANCH   2   4
HETATM    4  C9  UNL     1     -36.073  15.211  -5.513  1.00 20.00     0.047 C 
HETATM    5  C3  UNL     1     -35.880  14.882  -6.991  1.00 20.00     0.017 C 
HETATM    6  C4  UNL     1     -37.530  15.556  -5.223  1.00 20.00     0.017 C 
ENDBRANCH   2   4
ENDBRANCH   1   2
BRANCH   1   7
HETATM    7  C10 UNL     1     -34.491  15.858  -3.205  1.00 20.00    -0.012 C 
HETATM    8  C5  UNL     1     -33.041  16.340  -3.092  1.00 20.00     0.010 C 
BRANCH   7   9
HETATM    9  C8  UNL     1     -35.291  16.148  -1.917  1.00 20.00     0.004 C 
BRANCH   9  10
HETATM   10  C7  UNL     1     -34.709  17.241  -1.017  1.00 20.00    -0.004 C 
HETATM   11  C2  UNL     1     -35.361  17.228   0.358  1.00 20.00     0.005 C 
ENDBRANCH   9  10
ENDBRANCH   7   9
ENDBRANCH   1   7
TORSDOF 5
ENDMDL
MODEL 6
REMARK VINA RESULT:      -4.3     11.041     11.999
REMARK  5 active torsions:
REMARK  status: ('A' for Active; 'I' for Inactive)
REMARK    1  A    between atoms: C1_1  and  C6_6 
REMARK    2  A    between atoms: C1_1  and  C9_9 
REMARK    3  A    between atoms: C6_6  and  C10_10 
REMARK    4  A    between atoms: C7_7  and  C8_8 
REMARK    5  A    between atoms: C8_8  and  C10_10 
ROOT
HETATM    1  C6  UNL     1     -33.869  16.185  -4.173  1.00 20.00     0.082 C 
ENDROOT
BRANCH   1   2
HETATM    2  C1  UNL     1     -34.111  14.781  -4.720  1.00 20.00     0.130 C 
HETATM    3  O11 UNL     1     -33.297  13.872  -4.560  1.00 20.00    -0.298 OA
BRANCH   2   4
HETATM    4  C9  UNL     1     -35.446  14.550  -5.428  1.00 20.00     0.047 C 
HETATM    5  C3  UNL     1     -36.383  13.700  -4.572  1.00 20.00     0.017 C 
HETATM    6  C4  UNL     1     -36.095  15.886  -5.772  1.00 20.00     0.017 C 
ENDBRANCH   2   4
ENDBRANCH   1   2
BRANCH   1   7
HETATM    7  C10 UNL     1     -33.685  16.227  -2.647  1.00 20.00    -0.012 C 
HETATM    8  C5  UNL     1     -35.035  16.176  -1.924  1.00 20.00     0.010 C 
BRANCH   7   9
HETATM    9  C8  UNL     1     -32.850  17.450  -2.212  1.00 20.00     0.004 C 
BRANCH   9  10
HETATM   10  C7  UNL     1     -33.218  18.044  -0.850  1.00 20.00    -0.004 C 
HETATM   11  C2  UNL     1     -31.974  18.446  -0.070  1.00 20.00     0.005 C 
ENDBRANCH   9  10
ENDBRANCH   7   9
ENDBRANCH   1   7
TORSDOF 5
ENDMDL
MODEL 7
REMARK VINA RESULT:      -4.2      1.229      1.552
REMARK  5 active torsions:
REMARK  status: ('A' for Active; 'I' for Inactive)
REMARK    1  A    between atoms: C1_1  and  C6_6 
REMARK    2  A    between atoms: C1_1  and  C9_9 
REMARK    3  A    between atoms: C6_6  and  C10_10 
REMARK    4  A    between atoms: C7_7  and  C8_8 
REMARK    5  A    between atoms: C8_8  and  C10_10 
ROOT
HETATM    1  C6  UNL     1     -33.853   7.207   3.410  1.00 20.00     0.082 C 
ENDROOT
BRANCH   1   2
HETATM    2  C1  UNL     1     -34.055   6.575   4.784  1.00 20.00     0.130 C 
HETATM    3  O11 UNL     1     -33.624   7.100   5.810  1.00 20.00    -0.298 OA
BRANCH   2   4
HETATM    4  C9  UNL     1     -34.872   5.283   4.823  1.00 20.00     0.047 C 
HETATM    5  C3  UNL     1     -34.273   4.225   3.901  1.00 20.00     0.017 C 
HETATM    6  C4  UNL     1     -34.961   4.763   6.254  1.00 20.00     0.017 C 
ENDBRANCH   2   4
ENDBRANCH   1   2
BRANCH   1   7
HETATM    7  C10 UNL     1     -32.455   6.957   2.818  1.00 20.00    -0.012 C 
HETATM    8  C5  UNL     1     -31.374   7.684   3.624  1.00 20.00     0.010 C 
BRANCH   7   9
HETATM    9  C8  UNL     1     -32.401   7.332   1.321  1.00 20.00     0.004 C 
BRANCH   9  10
HETATM   10  C7  UNL     1     -32.813   8.769   0.992  1.00 20.00    -0.004 C 
HETATM   11  C2  UNL     1     -33.442   8.858  -0.392  1.00 20.00     0.005 C 
ENDBRANCH   9  10
ENDBRANCH   7   9
ENDBRANCH   1   7
TORSDOF 5
ENDMDL
MODEL 8
REMARK VINA RESULT:      -4.2     11.032     12.158
REMARK  5 active torsions:
REMARK  status: ('A' for Active; 'I' for Inactive)
REMARK    1  A    between atoms: C1_1  and  C6_6 
REMARK    2  A    between atoms: C1_1  and  C9_9 
REMARK    3  A    between atoms: C6_6  and  C10_10 
REMARK    4  A    between atoms: C7_7  and  C8_8 
REMARK    5  A    between atoms: C8_8  and  C10_10 
ROOT
HETATM    1  C6  UNL     1     -32.933  18.109  -0.848  1.00 20.00     0.082 C 
ENDROOT
BRANCH   1   2
HETATM    2  C1  UNL     1     -31.593  18.412  -0.183  1.00 20.00     0.130 C 
HETATM    3  O11 UNL     1     -30.524  18.242  -0.770  1.00 20.00    -0.298 OA
BRANCH   2   4
HETATM    4  C9  UNL     1     -31.653  18.993   1.229  1.00 20.00     0.047 C 
HETATM    5  C3  UNL     1     -32.599  18.187   2.116  1.00 20.00     0.017 C 
HETATM    6  C4  UNL     1     -30.255  19.039   1.836  1.00 20.00     0.017 C 
ENDBRANCH   2   4
ENDBRANCH   1   2
BRANCH   1   7
HETATM    7  C10 UNL     1     -32.798  17.441  -2.227  1.00 20.00    -0.012 C 
HETATM    8  C5  UNL     1     -32.883  18.475  -3.354  1.00 20.00     0.010 C 
BRANCH   7   9
HETATM    9  C8  UNL     1     -33.834  16.311  -2.410  1.00 20.00     0.004 C 
BRANCH   9  10
HETATM   10  C7  UNL     1     -33.648  15.449  -3.662  1.00 20.00    -0.004 C 
HETATM   11  C2  UNL     1     -34.744  14.400  -3.777  1.00 20.00     0.005 C 
ENDBRANCH   9  10
ENDBRANCH   7   9
ENDBRANCH   1   7
TORSDOF 5
ENDMDL
MODEL 9
REMARK VINA RESULT:      -4.0     11.042     12.177
REMARK  5 active torsions:
REMARK  status: ('A' for Active; 'I' for Inactive)
REMARK    1  A    between atoms: C1_1  and  C6_6 
REMARK    2  A    between atoms: C1_1  and  C9_9 
REMARK    3  A    between atoms: C6_6  and  C10_10 
REMARK    4  A    between atoms: C7_7  and  C8_8 
REMARK    5  A    between atoms: C8_8  and  C10_10 
ROOT
HETATM    1  C6  UNL     1     -34.331  14.713  -3.691  1.00 20.00     0.082 C 
ENDROOT
BRANCH   1   2
HETATM    2  C1  UNL     1     -34.619  14.650  -5.188  1.00 20.00     0.130 C 
HETATM    3  O11 UNL     1     -33.714  14.593  -6.022  1.00 20.00    -0.298 OA
BRANCH   2   4
HETATM    4  C9  UNL     1     -36.092  14.603  -5.595  1.00 20.00     0.047 C 
HETATM    5  C3  UNL     1     -36.978  14.227  -4.410  1.00 20.00     0.017 C 
HETATM    6  C4  UNL     1     -36.516  15.945  -6.181  1.00 20.00     0.017 C 
ENDBRANCH   2   4
ENDBRANCH   1   2
BRANCH   1   7
HETATM    7  C10 UNL     1     -34.274  16.147  -3.136  1.00 20.00    -0.012 C 
HETATM    8  C5  UNL     1     -32.827  16.624  -2.982  1.00 20.00     0.010 C 
BRANCH   7   9
HETATM    9  C8  UNL     1     -35.060  16.271  -1.813  1.00 20.00     0.004 C 
BRANCH   9  10
HETATM   10  C7  UNL     1     -36.163  17.333  -1.804  1.00 20.00    -0.004 C 
HETATM   11  C2  UNL     1     -36.234  18.064  -3.137  1.00 20.00     0.005 C 
ENDBRANCH   9  10
ENDBRANCH   7   9
ENDBRANCH   1   7
TORSDOF 5
ENDMDL
