MODEL 1
REMARK VINA RESULT:      -4.6      0.000      0.000
REMARK  3 active torsions:
REMARK  status: ('A' for Active; 'I' for Inactive)
REMARK    1  A    between atoms: C1_1  and  C9_9 
REMARK    2  A    between atoms: C3_3  and  C8_8 
REMARK    3  A    between atoms: C9_9  and  N10_10 
ROOT
HETATM    1  C4  UNL     1     -24.782  19.119   8.757  1.00 20.00     0.028 C 
HETATM    2  C5  UNL     1     -23.274  19.255   8.956  1.00 20.00     0.015 C 
HETATM    3  C6  UNL     1     -25.512  18.960  10.080  1.00 20.00     0.235 C 
HETATM    4  C7  UNL     1     -23.477  17.905  11.104  1.00 20.00     0.246 C 
HETATM    5  C8  UNL     1     -22.693  18.141   9.822  1.00 20.00     0.073 C 
HETATM    6  N10 UNL     1     -24.954  17.767  10.815  1.00 20.00    -0.067 N 
HETATM    7  H27 UNL     1     -25.076  16.948  10.202  1.00 20.00     0.280 HD
ENDROOT
BRANCH   6   8
HETATM    8  C9  UNL     1     -25.737  17.471  12.065  1.00 20.00     0.263 C 
BRANCH   8   9
HETATM    9  C1  UNL     1     -27.022  18.230  12.138  1.00 20.00     0.012 C 
HETATM   10  C2  UNL     1     -28.217  17.641  12.242  1.00 20.00     0.082 C 
HETATM   11 CL12 UNL     1     -29.685  18.518  12.332  1.00 20.00    -0.097 Cl
ENDBRANCH   8   9
ENDBRANCH   6   8
BRANCH   5  12
HETATM   12  C3  UNL     1     -22.607  16.877   8.979  1.00 20.00     0.237 C 
HETATM   13  O11 UNL     1     -22.186  16.861   7.827  1.00 20.00    -0.306 OA
ENDBRANCH   5  12
TORSDOF 3
ENDMDL
MODEL 2
REMARK VINA RESULT:      -4.5     16.164     17.158
REMARK  3 active torsions:
REMARK  status: ('A' for Active; 'I' for Inactive)
REMARK    1  A    between atoms: C1_1  and  C9_9 
REMARK    2  A    between atoms: C3_3  and  C8_8 
REMARK    3  A    between atoms: C9_9  and  N10_10 
ROOT
HETATM    1  C4  UNL     1     -34.541  16.256  -5.888  1.00 20.00     0.028 C 
HETATM    2  C5  UNL     1     -33.893  14.916  -5.550  1.00 20.00     0.015 C 
HETATM    3  C6  UNL     1     -34.283  17.294  -4.809  1.00 20.00     0.235 C 
HETATM    4  C7  UNL     1     -34.101  15.484  -3.078  1.00 20.00     0.246 C 
HETATM    5  C8  UNL     1     -34.260  14.421  -4.154  1.00 20.00     0.073 C 
HETATM    6  N10 UNL     1     -34.783  16.770  -3.486  1.00 20.00    -0.067 N 
HETATM    7  H27 UNL     1     -35.786  16.568  -3.599  1.00 20.00     0.280 HD
ENDROOT
BRANCH   6   8
HETATM    8  C9  UNL     1     -34.688  17.813  -2.406  1.00 20.00     0.263 C 
BRANCH   8   9
HETATM    9  C1  UNL     1     -33.502  17.621  -1.518  1.00 20.00     0.012 C 
HETATM   10  C2  UNL     1     -32.446  18.440  -1.517  1.00 20.00     0.082 C 
HETATM   11 CL12 UNL     1     -31.092  18.216  -0.491  1.00 20.00    -0.097 Cl
ENDBRANCH   8   9
ENDBRANCH   6   8
BRANCH   5  12
HETATM   12  C3  UNL     1     -35.682  13.880  -4.199  1.00 20.00     0.237 C 
HETATM   13  O11 UNL     1     -35.959  12.739  -4.554  1.00 20.00    -0.306 OA
ENDBRANCH   5  12
TORSDOF 3
ENDMDL
MODEL 3
REMARK VINA RESULT:      -4.5     23.557     24.862
REMARK  3 active torsions:
REMARK  status: ('A' for Active; 'I' for Inactive)
REMARK    1  A    between atoms: C1_1  and  C9_9 
REMARK    2  A    between atoms: C3_3  and  C8_8 
REMARK    3  A    between atoms: C9_9  and  N10_10 
ROOT
HETATM    1  C4  UNL     1     -43.025   6.645   1.134  1.00 20.00     0.028 C 
HETATM    2  C5  UNL     1     -41.587   7.076   0.855  1.00 20.00     0.015 C 
HETATM    3  C6  UNL     1     -43.309   5.252   0.596  1.00 20.00     0.235 C 
HETATM    4  C7  UNL     1     -41.573   5.564  -1.191  1.00 20.00     0.246 C 
HETATM    5  C8  UNL     1     -41.201   6.920  -0.612  1.00 20.00     0.073 C 
HETATM    6  N10 UNL     1     -43.013   5.222  -0.883  1.00 20.00    -0.067 N 
HETATM    7  H27 UNL     1     -43.604   5.938  -1.326  1.00 20.00     0.280 HD
ENDROOT
BRANCH   6   8
HETATM    8  C9  UNL     1     -43.414   3.910  -1.501  1.00 20.00     0.263 C 
BRANCH   8   9
HETATM    9  C1  UNL     1     -42.511   3.494  -2.615  1.00 20.00     0.012 C 
HETATM   10  C2  UNL     1     -42.578   2.298  -3.207  1.00 20.00     0.082 C 
HETATM   11 CL12 UNL     1     -41.542   1.831  -4.489  1.00 20.00    -0.097 Cl
ENDBRANCH   8   9
ENDBRANCH   6   8
BRANCH   5  12
HETATM   12  C3  UNL     1     -41.841   8.056  -1.398  1.00 20.00     0.237 C 
HETATM   13  O11 UNL     1     -42.911   7.950  -1.987  1.00 20.00    -0.306 OA
ENDBRANCH   5  12
TORSDOF 3
ENDMDL
MODEL 4
REMARK VINA RESULT:      -4.4     17.196     18.140
REMARK  3 active torsions:
REMARK  status: ('A' for Active; 'I' for Inactive)
REMARK    1  A    between atoms: C1_1  and  C9_9 
REMARK    2  A    between atoms: C3_3  and  C8_8 
REMARK    3  A    between atoms: C9_9  and  N10_10 
ROOT
HETATM    1  C4  UNL     1     -35.513  16.014  -6.249  1.00 20.00     0.028 C 
HETATM    2  C5  UNL     1     -35.870  14.530  -6.253  1.00 20.00     0.015 C 
HETATM    3  C6  UNL     1     -34.291  16.297  -5.391  1.00 20.00     0.235 C 
HETATM    4  C7  UNL     1     -34.818  14.313  -3.946  1.00 20.00     0.246 C 
HETATM    5  C8  UNL     1     -35.989  13.951  -4.846  1.00 20.00     0.073 C 
HETATM    6  N10 UNL     1     -34.542  15.798  -3.990  1.00 20.00    -0.067 N 
HETATM    7  H27 UNL     1     -35.382  16.281  -3.642  1.00 20.00     0.280 HD
ENDROOT
BRANCH   6   8
HETATM    8  C9  UNL     1     -33.425  16.181  -3.058  1.00 20.00     0.263 C 
BRANCH   8   9
HETATM    9  C1  UNL     1     -33.907  16.909  -1.845  1.00 20.00     0.012 C 
HETATM   10  C2  UNL     1     -35.098  16.687  -1.281  1.00 20.00     0.082 C 
HETATM   11 CL12 UNL     1     -35.639  17.522   0.114  1.00 20.00    -0.097 Cl
ENDBRANCH   8   9
ENDBRANCH   6   8
BRANCH   5  12
HETATM   12  C3  UNL     1     -37.313  14.411  -4.252  1.00 20.00     0.237 C 
HETATM   13  O11 UNL     1     -38.379  13.840  -4.456  1.00 20.00    -0.306 OA
ENDBRANCH   5  12
TORSDOF 3
ENDMDL
MODEL 5
REMARK VINA RESULT:      -4.2     16.025     17.093
REMARK  3 active torsions:
REMARK  status: ('A' for Active; 'I' for Inactive)
REMARK    1  A    between atoms: C1_1  and  C9_9 
REMARK    2  A    between atoms: C3_3  and  C8_8 
REMARK    3  A    between atoms: C9_9  and  N10_10 
ROOT
HETATM    1  C4  UNL     1     -33.403  14.672  -4.370  1.00 20.00     0.028 C 
HETATM    2  C5  UNL     1     -34.658  13.905  -3.959  1.00 20.00     0.015 C 
HETATM    3  C6  UNL     1     -33.123  15.836  -3.434  1.00 20.00     0.235 C 
HETATM    4  C7  UNL     1     -35.572  16.039  -2.917  1.00 20.00     0.246 C 
HETATM    5  C8  UNL     1     -35.868  14.815  -3.770  1.00 20.00     0.073 C 
HETATM    6  N10 UNL     1     -34.326  16.746  -3.400  1.00 20.00    -0.067 N 
HETATM    7  H27 UNL     1     -34.500  17.056  -4.366  1.00 20.00     0.280 HD
ENDROOT
BRANCH   6   8
HETATM    8  C9  UNL     1     -34.054  17.993  -2.604  1.00 20.00     0.263 C 
BRANCH   8   9
HETATM    9  C1  UNL     1     -33.053  17.780  -1.516  1.00 20.00     0.012 C 
HETATM   10  C2  UNL     1     -32.026  18.605  -1.293  1.00 20.00     0.082 C 
HETATM   11 CL12 UNL     1     -30.885  18.357  -0.038  1.00 20.00    -0.097 Cl
ENDBRANCH   8   9
ENDBRANCH   6   8
BRANCH   5  12
HETATM   12  C3  UNL     1     -36.389  15.207  -5.145  1.00 20.00     0.237 C 
HETATM   13  O11 UNL     1     -36.527  14.410  -6.067  1.00 20.00    -0.306 OA
ENDBRANCH   5  12
TORSDOF 3
ENDMDL
MODEL 6
REMARK VINA RESULT:      -4.2     14.629     15.747
REMARK  3 active torsions:
REMARK  status: ('A' for Active; 'I' for Inactive)
REMARK    1  A    between atoms: C1_1  and  C9_9 
REMARK    2  A    between atoms: C3_3  and  C8_8 
REMARK    3  A    between atoms: C9_9  and  N10_10 
ROOT
HETATM    1  C4  UNL     1     -34.997  15.989  -1.935  1.00 20.00     0.028 C 
HETATM    2  C5  UNL     1     -35.339  15.784  -3.409  1.00 20.00     0.015 C 
HETATM    3  C6  UNL     1     -34.346  17.340  -1.691  1.00 20.00     0.235 C 
HETATM    4  C7  UNL     1     -33.427  17.345  -4.028  1.00 20.00     0.246 C 
HETATM    5  C8  UNL     1     -34.149  16.041  -4.329  1.00 20.00     0.073 C 
HETATM    6  N10 UNL     1     -33.115  17.461  -2.553  1.00 20.00    -0.067 N 
HETATM    7  H27 UNL     1     -32.493  16.679  -2.305  1.00 20.00     0.280 HD
ENDROOT
BRANCH   6   8
HETATM    8  C9  UNL     1     -32.346  18.717  -2.247  1.00 20.00     0.263 C 
BRANCH   8   9
HETATM    9  C1  UNL     1     -32.015  18.856  -0.797  1.00 20.00     0.012 C 
HETATM   10  C2  UNL     1     -30.937  18.303  -0.234  1.00 20.00     0.082 C 
HETATM   11 CL12 UNL     1     -30.561  18.472   1.429  1.00 20.00    -0.097 Cl
ENDBRANCH   8   9
ENDBRANCH   6   8
BRANCH   5  12
HETATM   12  C3  UNL     1     -33.209  14.849  -4.238  1.00 20.00     0.237 C 
HETATM   13  O11 UNL     1     -33.553  13.697  -4.481  1.00 20.00    -0.306 OA
ENDBRANCH   5  12
TORSDOF 3
ENDMDL
MODEL 7
REMARK VINA RESULT:      -4.1     16.749     17.843
REMARK  3 active torsions:
REMARK  status: ('A' for Active; 'I' for Inactive)
REMARK    1  A    between atoms: C1_1  and  C9_9 
REMARK    2  A    between atoms: C3_3  and  C8_8 
REMARK    3  A    between atoms: C9_9  and  N10_10 
ROOT
HETATM    1  C4  UNL     1     -34.834  13.974  -3.817  1.00 20.00     0.028 C 
HETATM    2  C5  UNL     1     -36.172  14.086  -4.543  1.00 20.00     0.015 C 
HETATM    3  C6  UNL     1     -34.422  15.294  -3.188  1.00 20.00     0.235 C 
HETATM    4  C7  UNL     1     -35.702  16.555  -4.942  1.00 20.00     0.246 C 
HETATM    5  C8  UNL     1     -36.208  15.248  -5.532  1.00 20.00     0.073 C 
HETATM    6  N10 UNL     1     -34.369  16.358  -4.256  1.00 20.00    -0.067 N 
HETATM    7  H27 UNL     1     -33.697  16.040  -4.968  1.00 20.00     0.280 HD
ENDROOT
BRANCH   6   8
HETATM    8  C9  UNL     1     -33.825  17.654  -3.720  1.00 20.00     0.263 C 
BRANCH   8   9
HETATM    9  C1  UNL     1     -32.985  17.469  -2.499  1.00 20.00     0.012 C 
HETATM   10  C2  UNL     1     -32.243  18.444  -1.964  1.00 20.00     0.082 C 
HETATM   11 CL12 UNL     1     -31.287  18.226  -0.559  1.00 20.00    -0.097 Cl
ENDBRANCH   8   9
ENDBRANCH   6   8
BRANCH   5  12
HETATM   12  C3  UNL     1     -35.413  14.848  -6.766  1.00 20.00     0.237 C 
HETATM   13  O11 UNL     1     -34.286  15.267  -7.008  1.00 20.00    -0.306 OA
ENDBRANCH   5  12
TORSDOF 3
ENDMDL
MODEL 8
REMARK VINA RESULT:      -4.1     16.785     17.831
REMARK  3 active torsions:
REMARK  status: ('A' for Active; 'I' for Inactive)
REMARK    1  A    between atoms: C1_1  and  C9_9 
REMARK    2  A    between atoms: C3_3  and  C8_8 
REMARK    3  A    between atoms: C9_9  and  N10_10 
ROOT
HETATM    1  C4  UNL     1     -36.588  16.815  -4.738  1.00 20.00     0.028 C 
HETATM    2  C5  UNL     1     -36.516  15.844  -5.915  1.00 20.00     0.015 C 
HETATM    3  C6  UNL     1     -35.206  17.263  -4.293  1.00 20.00     0.235 C 
HETATM    4  C7  UNL     1     -34.218  15.104  -5.110  1.00 20.00     0.246 C 
HETATM    5  C8  UNL     1     -35.572  14.674  -5.653  1.00 20.00     0.073 C 
HETATM    6  N10 UNL     1     -34.381  16.050  -3.942  1.00 20.00    -0.067 N 
HETATM    7  H27 UNL     1     -34.884  15.544  -3.200  1.00 20.00     0.280 HD
ENDROOT
BRANCH   6   8
HETATM    8  C9  UNL     1     -33.051  16.437  -3.354  1.00 20.00     0.263 C 
BRANCH   8   9
HETATM    9  C1  UNL     1     -33.182  17.268  -2.120  1.00 20.00     0.012 C 
HETATM   10  C2  UNL     1     -32.388  18.308  -1.848  1.00 20.00     0.082 C 
HETATM   11 CL12 UNL     1     -32.549  19.261  -0.433  1.00 20.00    -0.097 Cl
ENDBRANCH   8   9
ENDBRANCH   6   8
BRANCH   5  12
HETATM   12  C3  UNL     1     -36.267  13.701  -4.712  1.00 20.00     0.237 C 
HETATM   13  O11 UNL     1     -35.861  12.564  -4.495  1.00 20.00    -0.306 OA
ENDBRANCH   5  12
TORSDOF 3
ENDMDL
MODEL 9
REMARK VINA RESULT:      -4.0     23.521     24.829
REMARK  3 active torsions:
REMARK  status: ('A' for Active; 'I' for Inactive)
REMARK    1  A    between atoms: C1_1  and  C9_9 
REMARK    2  A    between atoms: C3_3  and  C8_8 
REMARK    3  A    between atoms: C9_9  and  N10_10 
ROOT
HETATM    1  C4  UNL     1     -40.731   6.616  -0.335  1.00 20.00     0.028 C 
HETATM    2  C5  UNL     1     -41.311   7.937  -0.835  1.00 20.00     0.015 C 
HETATM    3  C6  UNL     1     -41.297   5.429  -1.097  1.00 20.00     0.235 C 
HETATM    4  C7  UNL     1     -43.417   6.698  -1.542  1.00 20.00     0.246 C 
HETATM    5  C8  UNL     1     -42.836   7.932  -0.871  1.00 20.00     0.073 C 
HETATM    6  N10 UNL     1     -42.801   5.437  -0.980  1.00 20.00    -0.067 N 
HETATM    7  H27 UNL     1     -43.028   5.400   0.023  1.00 20.00     0.280 HD
ENDROOT
BRANCH   6   8
HETATM    8  C9  UNL     1     -43.410   4.204  -1.591  1.00 20.00     0.263 C 
BRANCH   8   9
HETATM    9  C1  UNL     1     -42.840   3.880  -2.934  1.00 20.00     0.012 C 
HETATM   10  C2  UNL     1     -42.281   2.703  -3.229  1.00 20.00     0.082 C 
HETATM   11 CL12 UNL     1     -41.636   2.338  -4.773  1.00 20.00    -0.097 Cl
ENDBRANCH   8   9
ENDBRANCH   6   8
BRANCH   5  12
HETATM   12  C3  UNL     1     -43.348   8.086   0.554  1.00 20.00     0.237 C 
HETATM   13  O11 UNL     1     -43.417   7.156   1.350  1.00 20.00    -0.306 OA
ENDBRANCH   5  12
TORSDOF 3
ENDMDL
