MODEL 1
REMARK VINA RESULT:      -4.6      0.000      0.000
REMARK  2 active torsions:
REMARK  status: ('A' for Active; 'I' for Inactive)
REMARK    1  A    between atoms: C1_1  and  C2_2 
REMARK    2  A    between atoms: C9_9  and  N10_10 
ROOT
HETATM    1  C1  UNL     1     -35.511  14.892  -4.093  1.00 20.00     0.150 C 
HETATM    2  C3  UNL     1     -34.217  15.327  -4.724  1.00 20.00     0.068 C 
HETATM    3  C4  UNL     1     -33.179  15.640  -3.651  1.00 20.00     0.008 C 
HETATM    4  C5  UNL     1     -33.755  16.555  -2.573  1.00 20.00     0.029 C 
HETATM    5  C6  UNL     1     -35.037  15.982  -1.977  1.00 20.00     0.242 C 
HETATM    6  N10 UNL     1     -36.078  15.690  -3.033  1.00 20.00    -0.038 N 
HETATM    7  H28 UNL     1     -36.816  15.152  -2.555  1.00 20.00     0.286 HD
ENDROOT
BRANCH   6   8
HETATM    8  C9  UNL     1     -36.757  16.910  -3.591  1.00 20.00     0.186 C 
HETATM    9  C7  UNL     1     -36.979  17.898  -2.457  1.00 20.00     0.040 C 
HETATM   10  C8  UNL     1     -38.059  16.480  -4.245  1.00 20.00     0.040 C 
ENDBRANCH   6   8
BRANCH   1  11
HETATM   11  C2  UNL     1     -36.157  13.771  -4.448  1.00 20.00     0.291 C 
HETATM   12  O11 UNL     1     -35.803  12.563  -4.470  1.00 20.00    -0.300 OA
ENDBRANCH   1  11
TORSDOF 2
ENDMDL
MODEL 2
REMARK VINA RESULT:      -4.5     16.118     17.638
REMARK  2 active torsions:
REMARK  status: ('A' for Active; 'I' for Inactive)
REMARK    1  A    between atoms: C1_1  and  C2_2 
REMARK    2  A    between atoms: C9_9  and  N10_10 
ROOT
HETATM    1  C1  UNL     1     -24.453  18.732   8.817  1.00 20.00     0.150 C 
HETATM    2  C3  UNL     1     -23.052  19.259   8.965  1.00 20.00     0.068 C 
HETATM    3  C4  UNL     1     -22.112  18.151   9.428  1.00 20.00     0.008 C 
HETATM    4  C5  UNL     1     -22.688  17.398  10.624  1.00 20.00     0.029 C 
HETATM    5  C6  UNL     1     -24.091  16.872  10.334  1.00 20.00     0.242 C 
HETATM    6  N10 UNL     1     -25.033  17.969   9.896  1.00 20.00    -0.038 N 
HETATM    7  H28 UNL     1     -25.881  17.488   9.559  1.00 20.00     0.286 HD
ENDROOT
BRANCH   6   8
HETATM    8  C9  UNL     1     -25.489  18.877  11.004  1.00 20.00     0.186 C 
HETATM    9  C7  UNL     1     -25.312  18.148  12.327  1.00 20.00     0.040 C 
HETATM   10  C8  UNL     1     -26.936  19.263  10.748  1.00 20.00     0.040 C 
ENDBRANCH   6   8
BRANCH   1  11
HETATM   11  C2  UNL     1     -25.189  18.910   7.710  1.00 20.00     0.291 C 
HETATM   12  O11 UNL     1     -24.909  18.818   6.486  1.00 20.00    -0.300 OA
ENDBRANCH   1  11
TORSDOF 2
ENDMDL
MODEL 3
REMARK VINA RESULT:      -4.2      1.901      2.695
REMARK  2 active torsions:
REMARK  status: ('A' for Active; 'I' for Inactive)
REMARK    1  A    between atoms: C1_1  and  C2_2 
REMARK    2  A    between atoms: C9_9  and  N10_10 
ROOT
HETATM    1  C1  UNL     1     -35.064  14.833  -4.594  1.00 20.00     0.150 C 
HETATM    2  C3  UNL     1     -33.707  14.764  -3.950  1.00 20.00     0.068 C 
HETATM    3  C4  UNL     1     -33.434  16.029  -3.145  1.00 20.00     0.008 C 
HETATM    4  C5  UNL     1     -33.739  17.283  -3.961  1.00 20.00     0.029 C 
HETATM    5  C6  UNL     1     -35.159  17.257  -4.519  1.00 20.00     0.242 C 
HETATM    6  N10 UNL     1     -35.429  16.015  -5.337  1.00 20.00    -0.038 N 
HETATM    7  H28 UNL     1     -36.445  16.013  -5.510  1.00 20.00     0.286 HD
ENDROOT
BRANCH   6   8
HETATM    8  C9  UNL     1     -34.782  16.012  -6.694  1.00 20.00     0.186 C 
HETATM    9  C7  UNL     1     -34.692  17.447  -7.188  1.00 20.00     0.040 C 
HETATM   10  C8  UNL     1     -35.608  15.134  -7.619  1.00 20.00     0.040 C 
ENDBRANCH   6   8
BRANCH   1  11
HETATM   11  C2  UNL     1     -35.975  13.854  -4.488  1.00 20.00     0.291 C 
HETATM   12  O11 UNL     1     -35.872  12.599  -4.497  1.00 20.00    -0.300 OA
ENDBRANCH   1  11
TORSDOF 2
ENDMDL
MODEL 4
REMARK VINA RESULT:      -4.1      1.870      3.275
REMARK  2 active torsions:
REMARK  status: ('A' for Active; 'I' for Inactive)
REMARK    1  A    between atoms: C1_1  and  C2_2 
REMARK    2  A    between atoms: C9_9  and  N10_10 
ROOT
HETATM    1  C1  UNL     1     -36.215  14.960  -5.006  1.00 20.00     0.150 C 
HETATM    2  C3  UNL     1     -36.718  15.959  -6.012  1.00 20.00     0.068 C 
HETATM    3  C4  UNL     1     -35.840  15.947  -7.259  1.00 20.00     0.008 C 
HETATM    4  C5  UNL     1     -34.360  16.029  -6.896  1.00 20.00     0.029 C 
HETATM    5  C6  UNL     1     -33.962  14.936  -5.908  1.00 20.00     0.242 C 
HETATM    6  N10 UNL     1     -34.814  14.957  -4.660  1.00 20.00    -0.038 N 
HETATM    7  H28 UNL     1     -34.587  14.087  -4.155  1.00 20.00     0.286 HD
ENDROOT
BRANCH   6   8
HETATM    8  C9  UNL     1     -34.498  16.078  -3.710  1.00 20.00     0.186 C 
HETATM    9  C7  UNL     1     -32.992  16.127  -3.507  1.00 20.00     0.040 C 
HETATM   10  C8  UNL     1     -35.247  15.835  -2.410  1.00 20.00     0.040 C 
ENDBRANCH   6   8
BRANCH   1  11
HETATM   11  C2  UNL     1     -37.005  14.043  -4.428  1.00 20.00     0.291 C 
HETATM   12  O11 UNL     1     -38.257  13.918  -4.375  1.00 20.00    -0.300 OA
ENDBRANCH   1  11
TORSDOF 2
ENDMDL
MODEL 5
REMARK VINA RESULT:      -4.1      1.571      2.081
REMARK  2 active torsions:
REMARK  status: ('A' for Active; 'I' for Inactive)
REMARK    1  A    between atoms: C1_1  and  C2_2 
REMARK    2  A    between atoms: C9_9  and  N10_10 
ROOT
HETATM    1  C1  UNL     1     -35.810  14.913  -4.154  1.00 20.00     0.150 C 
HETATM    2  C3  UNL     1     -34.565  15.099  -3.331  1.00 20.00     0.068 C 
HETATM    3  C4  UNL     1     -34.852  15.989  -2.126  1.00 20.00     0.008 C 
HETATM    4  C5  UNL     1     -35.595  17.257  -2.537  1.00 20.00     0.029 C 
HETATM    5  C6  UNL     1     -36.863  16.935  -3.323  1.00 20.00     0.242 C 
HETATM    6  N10 UNL     1     -36.582  16.071  -4.531  1.00 20.00    -0.038 N 
HETATM    7  H28 UNL     1     -37.506  15.771  -4.877  1.00 20.00     0.286 HD
ENDROOT
BRANCH   6   8
HETATM    8  C9  UNL     1     -35.931  16.796  -5.676  1.00 20.00     0.186 C 
HETATM    9  C7  UNL     1     -36.548  18.182  -5.782  1.00 20.00     0.040 C 
HETATM   10  C8  UNL     1     -36.129  15.978  -6.940  1.00 20.00     0.040 C 
ENDBRANCH   6   8
BRANCH   1  11
HETATM   11  C2  UNL     1     -36.260  13.708  -4.536  1.00 20.00     0.291 C 
HETATM   12  O11 UNL     1     -35.765  12.554  -4.448  1.00 20.00    -0.300 OA
ENDBRANCH   1  11
TORSDOF 2
ENDMDL
MODEL 6
REMARK VINA RESULT:      -3.9      1.534      2.450
REMARK  2 active torsions:
REMARK  status: ('A' for Active; 'I' for Inactive)
REMARK    1  A    between atoms: C1_1  and  C2_2 
REMARK    2  A    between atoms: C9_9  and  N10_10 
ROOT
HETATM    1  C1  UNL     1     -36.483  15.331  -4.706  1.00 20.00     0.150 C 
HETATM    2  C3  UNL     1     -35.971  15.698  -6.071  1.00 20.00     0.068 C 
HETATM    3  C4  UNL     1     -34.737  14.871  -6.417  1.00 20.00     0.008 C 
HETATM    4  C5  UNL     1     -33.720  14.890  -5.279  1.00 20.00     0.029 C 
HETATM    5  C6  UNL     1     -34.347  14.452  -3.959  1.00 20.00     0.242 C 
HETATM    6  N10 UNL     1     -35.558  15.282  -3.599  1.00 20.00    -0.038 N 
HETATM    7  H28 UNL     1     -36.000  14.798  -2.803  1.00 20.00     0.286 HD
ENDROOT
BRANCH   6   8
HETATM    8  C9  UNL     1     -35.240  16.668  -3.111  1.00 20.00     0.186 C 
HETATM    9  C7  UNL     1     -34.109  16.573  -2.099  1.00 20.00     0.040 C 
HETATM   10  C8  UNL     1     -36.500  17.270  -2.512  1.00 20.00     0.040 C 
ENDBRANCH   6   8
BRANCH   1  11
HETATM   11  C2  UNL     1     -37.764  15.014  -4.466  1.00 20.00     0.291 C 
HETATM   12  O11 UNL     1     -38.354  13.907  -4.355  1.00 20.00    -0.300 OA
ENDBRANCH   1  11
TORSDOF 2
ENDMDL
MODEL 7
REMARK VINA RESULT:      -3.8      1.678      2.746
REMARK  2 active torsions:
REMARK  status: ('A' for Active; 'I' for Inactive)
REMARK    1  A    between atoms: C1_1  and  C2_2 
REMARK    2  A    between atoms: C9_9  and  N10_10 
ROOT
HETATM    1  C1  UNL     1     -33.627  15.536  -3.963  1.00 20.00     0.150 C 
HETATM    2  C3  UNL     1     -33.194  16.578  -2.968  1.00 20.00     0.068 C 
HETATM    3  C4  UNL     1     -34.212  16.689  -1.837  1.00 20.00     0.008 C 
HETATM    4  C5  UNL     1     -35.633  16.812  -2.380  1.00 20.00     0.029 C 
HETATM    5  C6  UNL     1     -35.968  15.673  -3.338  1.00 20.00     0.242 C 
HETATM    6  N10 UNL     1     -34.975  15.571  -4.474  1.00 20.00    -0.038 N 
HETATM    7  H28 UNL     1     -35.187  14.680  -4.947  1.00 20.00     0.286 HD
ENDROOT
BRANCH   6   8
HETATM    8  C9  UNL     1     -35.120  16.638  -5.523  1.00 20.00     0.186 C 
HETATM    9  C7  UNL     1     -36.599  16.944  -5.699  1.00 20.00     0.040 C 
HETATM   10  C8  UNL     1     -34.478  16.141  -6.808  1.00 20.00     0.040 C 
ENDBRANCH   6   8
BRANCH   1  11
HETATM   11  C2  UNL     1     -32.823  14.548  -4.382  1.00 20.00     0.291 C 
HETATM   12  O11 UNL     1     -32.934  13.294  -4.340  1.00 20.00    -0.300 OA
ENDBRANCH   1  11
TORSDOF 2
ENDMDL
MODEL 8
REMARK VINA RESULT:      -3.8      1.838      3.396
REMARK  2 active torsions:
REMARK  status: ('A' for Active; 'I' for Inactive)
REMARK    1  A    between atoms: C1_1  and  C2_2 
REMARK    2  A    between atoms: C9_9  and  N10_10 
ROOT
HETATM    1  C1  UNL     1     -35.685  16.572  -2.836  1.00 20.00     0.150 C 
HETATM    2  C3  UNL     1     -35.293  16.732  -1.393  1.00 20.00     0.068 C 
HETATM    3  C4  UNL     1     -34.056  17.615  -1.271  1.00 20.00     0.008 C 
HETATM    4  C5  UNL     1     -32.958  17.167  -2.232  1.00 20.00     0.029 C 
HETATM    5  C6  UNL     1     -33.466  17.091  -3.669  1.00 20.00     0.242 C 
HETATM    6  N10 UNL     1     -34.679  16.199  -3.799  1.00 20.00    -0.038 N 
HETATM    7  H28 UNL     1     -35.039  16.359  -4.752  1.00 20.00     0.286 HD
ENDROOT
BRANCH   6   8
HETATM    8  C9  UNL     1     -34.381  14.728  -3.715  1.00 20.00     0.186 C 
HETATM    9  C7  UNL     1     -33.091  14.453  -4.472  1.00 20.00     0.040 C 
HETATM   10  C8  UNL     1     -35.561  13.963  -4.290  1.00 20.00     0.040 C 
ENDBRANCH   6   8
BRANCH   1  11
HETATM   11  C2  UNL     1     -36.931  16.791  -3.283  1.00 20.00     0.291 C 
HETATM   12  O11 UNL     1     -37.389  17.002  -4.437  1.00 20.00    -0.300 OA
ENDBRANCH   1  11
TORSDOF 2
ENDMDL
MODEL 9
REMARK VINA RESULT:      -3.7      2.041      3.274
REMARK  2 active torsions:
REMARK  status: ('A' for Active; 'I' for Inactive)
REMARK    1  A    between atoms: C1_1  and  C2_2 
REMARK    2  A    between atoms: C9_9  and  N10_10 
ROOT
HETATM    1  C1  UNL     1     -35.995  16.732  -2.980  1.00 20.00     0.150 C 
HETATM    2  C3  UNL     1     -34.957  16.353  -1.960  1.00 20.00     0.068 C 
HETATM    3  C4  UNL     1     -33.586  16.226  -2.616  1.00 20.00     0.008 C 
HETATM    4  C5  UNL     1     -33.652  15.366  -3.875  1.00 20.00     0.029 C 
HETATM    5  C6  UNL     1     -34.706  15.880  -4.852  1.00 20.00     0.242 C 
HETATM    6  N10 UNL     1     -36.071  15.987  -4.213  1.00 20.00    -0.038 N 
HETATM    7  H28 UNL     1     -36.654  16.502  -4.890  1.00 20.00     0.286 HD
ENDROOT
BRANCH   6   8
HETATM    8  C9  UNL     1     -36.762  14.669  -3.996  1.00 20.00     0.186 C 
HETATM    9  C7  UNL     1     -36.150  13.645  -4.939  1.00 20.00     0.040 C 
HETATM   10  C8  UNL     1     -38.250  14.859  -4.237  1.00 20.00     0.040 C 
ENDBRANCH   6   8
BRANCH   1  11
HETATM   11  C2  UNL     1     -36.843  17.758  -2.813  1.00 20.00     0.291 C 
HETATM   12  O11 UNL     1     -37.969  17.841  -2.257  1.00 20.00    -0.300 OA
ENDBRANCH   1  11
TORSDOF 2
ENDMDL
