MODEL 1
REMARK VINA RESULT:      -4.7      0.000      0.000
REMARK  4 active torsions:
REMARK  status: ('A' for Active; 'I' for Inactive)
REMARK    1  A    between atoms: C3_3  and  C8_8 
REMARK    2  A    between atoms: C3_3  and  O9_9 
REMARK    3  A    between atoms: C6_6  and  C7_7 
REMARK    4  A    between atoms: C7_7  and  C8_8 
ROOT
HETATM    1  C1  UNL     1     -35.567   5.587   4.448  1.00 20.00     0.041 A 
HETATM    2  C2  UNL     1     -34.483   4.611   4.810  1.00 20.00     0.041 A 
HETATM    3  C3  UNL     1     -34.124   5.945   4.213  1.00 20.00     0.061 A 
ENDROOT
BRANCH   3   4
HETATM    4  C8  UNL     1     -33.578   6.027   2.784  1.00 20.00     0.016 C 
HETATM    5  C5  UNL     1     -32.976   4.680   2.385  1.00 20.00     0.013 C 
BRANCH   4   6
HETATM    6  C7  UNL     1     -32.563   7.180   2.680  1.00 20.00     0.007 C 
BRANCH   6   7
HETATM    7  C6  UNL     1     -32.269   7.604   1.240  1.00 20.00    -0.004 C 
HETATM    8  C4  UNL     1     -32.971   8.908   0.891  1.00 20.00     0.005 C 
ENDBRANCH   6   7
ENDBRANCH   4   6
ENDBRANCH   3   4
BRANCH   3   9
HETATM    9  O9  UNL     1     -33.561   6.914   5.112  1.00 20.00    -0.389 OA
HETATM   10  H25 UNL     1     -33.425   6.449   5.949  1.00 20.00     0.210 HD
ENDBRANCH   3   9
TORSDOF 4
ENDMDL
MODEL 2
REMARK VINA RESULT:      -4.4     15.981     17.040
REMARK  4 active torsions:
REMARK  status: ('A' for Active; 'I' for Inactive)
REMARK    1  A    between atoms: C3_3  and  C8_8 
REMARK    2  A    between atoms: C3_3  and  O9_9 
REMARK    3  A    between atoms: C6_6  and  C7_7 
REMARK    4  A    between atoms: C7_7  and  C8_8 
ROOT
HETATM    1  C1  UNL     1     -23.604  18.330   8.709  1.00 20.00     0.041 A 
HETATM    2  C2  UNL     1     -22.194  18.542   9.185  1.00 20.00     0.041 A 
HETATM    3  C3  UNL     1     -23.027  17.437   9.775  1.00 20.00     0.061 A 
ENDROOT
BRANCH   3   4
HETATM    4  C8  UNL     1     -23.533  17.540  11.217  1.00 20.00     0.016 C 
HETATM    5  C5  UNL     1     -22.346  17.671  12.171  1.00 20.00     0.013 C 
BRANCH   4   6
HETATM    6  C7  UNL     1     -24.422  16.326  11.546  1.00 20.00     0.007 C 
BRANCH   6   7
HETATM    7  C6  UNL     1     -25.728  16.700  12.250  1.00 20.00    -0.004 C 
HETATM    8  C4  UNL     1     -26.011  18.190  12.140  1.00 20.00     0.005 C 
ENDBRANCH   6   7
ENDBRANCH   4   6
ENDBRANCH   3   4
BRANCH   3   9
HETATM    9  O9  UNL     1     -22.694  16.101   9.365  1.00 20.00    -0.389 OA
HETATM   10  H25 UNL     1     -23.528  15.691   9.098  1.00 20.00     0.210 HD
ENDBRANCH   3   9
TORSDOF 4
ENDMDL
MODEL 3
REMARK VINA RESULT:      -4.2      1.333      1.506
REMARK  4 active torsions:
REMARK  status: ('A' for Active; 'I' for Inactive)
REMARK    1  A    between atoms: C3_3  and  C8_8 
REMARK    2  A    between atoms: C3_3  and  O9_9 
REMARK    3  A    between atoms: C6_6  and  C7_7 
REMARK    4  A    between atoms: C7_7  and  C8_8 
ROOT
HETATM    1  C1  UNL     1     -34.262   4.645   5.455  1.00 20.00     0.041 A 
HETATM    2  C2  UNL     1     -34.427   6.127   5.641  1.00 20.00     0.041 A 
HETATM    3  C3  UNL     1     -34.801   5.489   4.332  1.00 20.00     0.061 A 
ENDROOT
BRANCH   3   4
HETATM    4  C8  UNL     1     -33.949   5.737   3.083  1.00 20.00     0.016 C 
HETATM    5  C5  UNL     1     -33.220   4.450   2.694  1.00 20.00     0.013 C 
BRANCH   4   6
HETATM    6  C7  UNL     1     -32.982   6.908   3.334  1.00 20.00     0.007 C 
BRANCH   6   7
HETATM    7  C6  UNL     1     -32.132   7.269   2.115  1.00 20.00    -0.004 C 
HETATM    8  C4  UNL     1     -32.845   8.268   1.217  1.00 20.00     0.005 C 
ENDBRANCH   6   7
ENDBRANCH   4   6
ENDBRANCH   3   4
BRANCH   3   9
HETATM    9  O9  UNL     1     -36.207   5.361   4.065  1.00 20.00    -0.389 OA
HETATM   10  H25 UNL     1     -36.325   5.615   3.140  1.00 20.00     0.210 HD
ENDBRANCH   3   9
TORSDOF 4
ENDMDL
MODEL 4
REMARK VINA RESULT:      -3.9     11.482     12.203
REMARK  4 active torsions:
REMARK  status: ('A' for Active; 'I' for Inactive)
REMARK    1  A    between atoms: C3_3  and  C8_8 
REMARK    2  A    between atoms: C3_3  and  O9_9 
REMARK    3  A    between atoms: C6_6  and  C7_7 
REMARK    4  A    between atoms: C7_7  and  C8_8 
ROOT
HETATM    1  C1  UNL     1     -33.165  14.442  -4.417  1.00 20.00     0.041 A 
HETATM    2  C2  UNL     1     -34.659  14.592  -4.354  1.00 20.00     0.041 A 
HETATM    3  C3  UNL     1     -33.773  15.748  -3.980  1.00 20.00     0.061 A 
ENDROOT
BRANCH   3   4
HETATM    4  C8  UNL     1     -33.662  16.193  -2.519  1.00 20.00     0.016 C 
HETATM    5  C5  UNL     1     -35.058  16.275  -1.899  1.00 20.00     0.013 C 
BRANCH   4   6
HETATM    6  C7  UNL     1     -32.902  17.530  -2.437  1.00 20.00     0.007 C 
BRANCH   6   7
HETATM    7  C6  UNL     1     -32.833  18.105  -1.021  1.00 20.00    -0.004 C 
HETATM    8  C4  UNL     1     -31.394  18.349  -0.591  1.00 20.00     0.005 C 
ENDBRANCH   6   7
ENDBRANCH   4   6
ENDBRANCH   3   4
BRANCH   3   9
HETATM    9  O9  UNL     1     -33.700  16.826  -4.928  1.00 20.00    -0.389 OA
HETATM   10  H25 UNL     1     -33.404  17.598  -4.427  1.00 20.00     0.210 HD
ENDBRANCH   3   9
TORSDOF 4
ENDMDL
MODEL 5
REMARK VINA RESULT:      -3.8     11.128     12.400
REMARK  4 active torsions:
REMARK  status: ('A' for Active; 'I' for Inactive)
REMARK    1  A    between atoms: C3_3  and  C8_8 
REMARK    2  A    between atoms: C3_3  and  O9_9 
REMARK    3  A    between atoms: C6_6  and  C7_7 
REMARK    4  A    between atoms: C7_7  and  C8_8 
ROOT
HETATM    1  C1  UNL     1     -34.822  16.160  -6.723  1.00 20.00     0.041 A 
HETATM    2  C2  UNL     1     -33.807  15.122  -7.114  1.00 20.00     0.041 A 
HETATM    3  C3  UNL     1     -34.584  14.967  -5.836  1.00 20.00     0.061 A 
ENDROOT
BRANCH   3   4
HETATM    4  C8  UNL     1     -33.888  15.145  -4.483  1.00 20.00     0.016 C 
HETATM    5  C5  UNL     1     -32.619  14.293  -4.442  1.00 20.00     0.013 C 
BRANCH   4   6
HETATM    6  C7  UNL     1     -34.865  14.801  -3.344  1.00 20.00     0.007 C 
BRANCH   6   7
HETATM    7  C6  UNL     1     -35.061  15.941  -2.344  1.00 20.00    -0.004 C 
HETATM    8  C4  UNL     1     -33.799  16.779  -2.203  1.00 20.00     0.005 C 
ENDBRANCH   6   7
ENDBRANCH   4   6
ENDBRANCH   3   4
BRANCH   3   9
HETATM    9  O9  UNL     1     -35.616  13.967  -5.836  1.00 20.00    -0.389 OA
HETATM   10  H25 UNL     1     -36.150  14.139  -6.624  1.00 20.00     0.210 HD
ENDBRANCH   3   9
TORSDOF 4
ENDMDL
MODEL 6
REMARK VINA RESULT:      -3.8     11.232     12.200
REMARK  4 active torsions:
REMARK  status: ('A' for Active; 'I' for Inactive)
REMARK    1  A    between atoms: C3_3  and  C8_8 
REMARK    2  A    between atoms: C3_3  and  O9_9 
REMARK    3  A    between atoms: C6_6  and  C7_7 
REMARK    4  A    between atoms: C7_7  and  C8_8 
ROOT
HETATM    1  C1  UNL     1     -35.831  13.832  -4.538  1.00 20.00     0.041 A 
HETATM    2  C2  UNL     1     -35.801  14.409  -5.926  1.00 20.00     0.041 A 
HETATM    3  C3  UNL     1     -34.692  14.721  -4.959  1.00 20.00     0.061 A 
ENDROOT
BRANCH   3   4
HETATM    4  C8  UNL     1     -34.558  16.127  -4.368  1.00 20.00     0.016 C 
HETATM    5  C5  UNL     1     -34.469  17.155  -5.497  1.00 20.00     0.013 C 
BRANCH   4   6
HETATM    6  C7  UNL     1     -33.343  16.183  -3.424  1.00 20.00     0.007 C 
BRANCH   6   7
HETATM    7  C6  UNL     1     -33.650  16.836  -2.074  1.00 20.00    -0.004 C 
HETATM    8  C4  UNL     1     -35.043  16.472  -1.585  1.00 20.00     0.005 C 
ENDBRANCH   6   7
ENDBRANCH   4   6
ENDBRANCH   3   4
BRANCH   3   9
HETATM    9  O9  UNL     1     -33.436  14.065  -5.199  1.00 20.00    -0.389 OA
HETATM   10  H25 UNL     1     -32.782  14.548  -4.676  1.00 20.00     0.210 HD
ENDBRANCH   3   9
TORSDOF 4
ENDMDL
MODEL 7
REMARK VINA RESULT:      -3.8     11.306     12.580
REMARK  4 active torsions:
REMARK  status: ('A' for Active; 'I' for Inactive)
REMARK    1  A    between atoms: C3_3  and  C8_8 
REMARK    2  A    between atoms: C3_3  and  O9_9 
REMARK    3  A    between atoms: C6_6  and  C7_7 
REMARK    4  A    between atoms: C7_7  and  C8_8 
ROOT
HETATM    1  C1  UNL     1     -33.821  15.029  -7.152  1.00 20.00     0.041 A 
HETATM    2  C2  UNL     1     -35.274  15.115  -6.774  1.00 20.00     0.041 A 
HETATM    3  C3  UNL     1     -34.218  15.577  -5.808  1.00 20.00     0.061 A 
ENDROOT
BRANCH   3   4
HETATM    4  C8  UNL     1     -33.930  14.772  -4.537  1.00 20.00     0.016 C 
HETATM    5  C5  UNL     1     -35.203  14.056  -4.083  1.00 20.00     0.013 C 
BRANCH   4   6
HETATM    6  C7  UNL     1     -33.357  15.700  -3.451  1.00 20.00     0.007 C 
BRANCH   6   7
HETATM    7  C6  UNL     1     -34.354  16.020  -2.335  1.00 20.00    -0.004 C 
HETATM    8  C4  UNL     1     -33.989  17.311  -1.618  1.00 20.00     0.005 C 
ENDBRANCH   6   7
ENDBRANCH   4   6
ENDBRANCH   3   4
BRANCH   3   9
HETATM    9  O9  UNL     1     -34.086  16.999  -5.643  1.00 20.00    -0.389 OA
HETATM   10  H25 UNL     1     -34.405  17.192  -4.752  1.00 20.00     0.210 HD
ENDBRANCH   3   9
TORSDOF 4
ENDMDL
MODEL 8
REMARK VINA RESULT:      -3.7      1.253      3.775
REMARK  4 active torsions:
REMARK  status: ('A' for Active; 'I' for Inactive)
REMARK    1  A    between atoms: C3_3  and  C8_8 
REMARK    2  A    between atoms: C3_3  and  O9_9 
REMARK    3  A    between atoms: C6_6  and  C7_7 
REMARK    4  A    between atoms: C7_7  and  C8_8 
ROOT
HETATM    1  C1  UNL     1     -31.858   7.461   3.392  1.00 20.00     0.041 A 
HETATM    2  C2  UNL     1     -32.297   7.220   1.974  1.00 20.00     0.041 A 
HETATM    3  C3  UNL     1     -33.195   6.827   3.115  1.00 20.00     0.061 A 
ENDROOT
BRANCH   3   4
HETATM    4  C8  UNL     1     -33.424   5.349   3.443  1.00 20.00     0.016 C 
HETATM    5  C5  UNL     1     -33.262   4.509   2.175  1.00 20.00     0.013 C 
BRANCH   4   6
HETATM    6  C7  UNL     1     -34.806   5.167   4.096  1.00 20.00     0.007 C 
BRANCH   6   7
HETATM    7  C6  UNL     1     -34.741   4.955   5.610  1.00 20.00    -0.004 C 
HETATM    8  C4  UNL     1     -34.368   6.239   6.335  1.00 20.00     0.005 C 
ENDBRANCH   6   7
ENDBRANCH   4   6
ENDBRANCH   3   4
BRANCH   3   9
HETATM    9  O9  UNL     1     -34.345   7.660   3.335  1.00 20.00    -0.389 OA
HETATM   10  H25 UNL     1     -34.257   8.400   2.718  1.00 20.00     0.210 HD
ENDBRANCH   3   9
TORSDOF 4
ENDMDL
MODEL 9
REMARK VINA RESULT:      -3.7     11.189     12.319
REMARK  4 active torsions:
REMARK  status: ('A' for Active; 'I' for Inactive)
REMARK    1  A    between atoms: C3_3  and  C8_8 
REMARK    2  A    between atoms: C3_3  and  O9_9 
REMARK    3  A    between atoms: C6_6  and  C7_7 
REMARK    4  A    between atoms: C7_7  and  C8_8 
ROOT
HETATM    1  C1  UNL     1     -38.140  16.334  -3.978  1.00 20.00     0.041 A 
HETATM    2  C2  UNL     1     -38.427  16.089  -5.433  1.00 20.00     0.041 A 
HETATM    3  C3  UNL     1     -37.476  15.189  -4.694  1.00 20.00     0.061 A 
ENDROOT
BRANCH   3   4
HETATM    4  C8  UNL     1     -35.975  15.240  -4.994  1.00 20.00     0.016 C 
HETATM    5  C5  UNL     1     -35.707  14.648  -6.379  1.00 20.00     0.013 C 
BRANCH   4   6
HETATM    6  C7  UNL     1     -35.195  14.515  -3.883  1.00 20.00     0.007 C 
BRANCH   6   7
HETATM    7  C6  UNL     1     -34.261  15.434  -3.094  1.00 20.00    -0.004 C 
HETATM    8  C4  UNL     1     -34.993  16.119  -1.950  1.00 20.00     0.005 C 
ENDBRANCH   6   7
ENDBRANCH   4   6
ENDBRANCH   3   4
BRANCH   3   9
HETATM    9  O9  UNL     1     -37.963  13.876  -4.370  1.00 20.00    -0.389 OA
HETATM   10  H25 UNL     1     -37.533  13.632  -3.540  1.00 20.00     0.210 HD
ENDBRANCH   3   9
TORSDOF 4
ENDMDL
