MODEL 1
REMARK VINA RESULT:      -4.2      0.000      0.000
REMARK  2 active torsions:
REMARK  status: ('A' for Active; 'I' for Inactive)
REMARK    1  A    between atoms: C2_2  and  C7_7 
REMARK       I    between atoms: C2_2  and  N8_8 
REMARK    2  A    between atoms: C6_6  and  C7_7 
ROOT
HETATM    1  C1  UNL     1     -22.197  17.975   8.910  1.00 20.00     0.166 C 
HETATM    2  C2  UNL     1     -24.002  18.272  10.125  1.00 20.00     0.252 C 
HETATM    3  N8  UNL     1     -22.676  18.532   9.825  1.00 20.00    -0.199 NA
HETATM    4  O9  UNL     1     -24.959  18.471   9.375  1.00 20.00    -0.270 OA
HETATM    5  S10 UNL     1     -21.511  17.239   7.675  1.00 20.00    -0.055 SA
ENDROOT
BRANCH   2   6
HETATM    6  C7  UNL     1     -24.205  17.691  11.543  1.00 20.00     0.035 C 
HETATM    7  C4  UNL     1     -22.878  17.728  12.322  1.00 20.00     0.025 C 
HETATM    8  C5  UNL     1     -24.635  16.218  11.403  1.00 20.00     0.025 C 
BRANCH   6   9
HETATM    9  C6  UNL     1     -25.308  18.469  12.305  1.00 20.00     0.014 C 
HETATM   10  C3  UNL     1     -26.673  17.790  12.330  1.00 20.00     0.006 C 
ENDBRANCH   6   9
ENDBRANCH   2   6
TORSDOF 2
ENDMDL
MODEL 2
REMARK VINA RESULT:      -4.2      2.183      2.653
REMARK  2 active torsions:
REMARK  status: ('A' for Active; 'I' for Inactive)
REMARK    1  A    between atoms: C2_2  and  C7_7 
REMARK       I    between atoms: C2_2  and  N8_8 
REMARK    2  A    between atoms: C6_6  and  C7_7 
ROOT
HETATM    1  C1  UNL     1     -24.522  19.223   7.560  1.00 20.00     0.166 C 
HETATM    2  C2  UNL     1     -24.218  18.648   9.658  1.00 20.00     0.252 C 
HETATM    3  N8  UNL     1     -23.786  19.220   8.474  1.00 20.00    -0.199 NA
HETATM    4  O9  UNL     1     -25.192  19.014  10.317  1.00 20.00    -0.270 OA
HETATM    5  S10 UNL     1     -25.494  19.246   6.298  1.00 20.00    -0.055 SA
ENDROOT
BRANCH   2   6
HETATM    6  C7  UNL     1     -23.340  17.462  10.120  1.00 20.00     0.035 C 
HETATM    7  C4  UNL     1     -22.581  17.838  11.405  1.00 20.00     0.025 C 
HETATM    8  C5  UNL     1     -22.300  17.176   9.019  1.00 20.00     0.025 C 
BRANCH   6   9
HETATM    9  C6  UNL     1     -24.201  16.193  10.344  1.00 20.00     0.014 C 
HETATM   10  C3  UNL     1     -24.521  15.882  11.802  1.00 20.00     0.006 C 
ENDBRANCH   6   9
ENDBRANCH   2   6
TORSDOF 2
ENDMDL
MODEL 3
REMARK VINA RESULT:      -4.1     19.052     19.615
REMARK  2 active torsions:
REMARK  status: ('A' for Active; 'I' for Inactive)
REMARK    1  A    between atoms: C2_2  and  C7_7 
REMARK       I    between atoms: C2_2  and  N8_8 
REMARK    2  A    between atoms: C6_6  and  C7_7 
ROOT
HETATM    1  C1  UNL     1     -38.076  14.717  -4.246  1.00 20.00     0.166 C 
HETATM    2  C2  UNL     1     -35.994  14.386  -4.861  1.00 20.00     0.252 C 
HETATM    3  N8  UNL     1     -37.021  14.306  -3.937  1.00 20.00    -0.199 NA
HETATM    4  O9  UNL     1     -35.987  13.854  -5.972  1.00 20.00    -0.270 OA
HETATM    5  S10 UNL     1     -39.523  15.264  -4.628  1.00 20.00    -0.055 SA
ENDROOT
BRANCH   2   6
HETATM    6  C7  UNL     1     -34.794  15.228  -4.369  1.00 20.00     0.035 C 
HETATM    7  C4  UNL     1     -34.760  16.578  -5.108  1.00 20.00     0.025 C 
HETATM    8  C5  UNL     1     -33.499  14.465  -4.711  1.00 20.00     0.025 C 
BRANCH   6   9
HETATM    9  C6  UNL     1     -34.863  15.444  -2.836  1.00 20.00     0.014 C 
HETATM   10  C3  UNL     1     -33.924  16.516  -2.295  1.00 20.00     0.006 C 
ENDBRANCH   6   9
ENDBRANCH   2   6
TORSDOF 2
ENDMDL
MODEL 4
REMARK VINA RESULT:      -4.0      2.217      2.879
REMARK  2 active torsions:
REMARK  status: ('A' for Active; 'I' for Inactive)
REMARK    1  A    between atoms: C2_2  and  C7_7 
REMARK       I    between atoms: C2_2  and  N8_8 
REMARK    2  A    between atoms: C6_6  and  C7_7 
ROOT
HETATM    1  C1  UNL     1     -25.289  19.237   8.539  1.00 20.00     0.166 C 
HETATM    2  C2  UNL     1     -25.074  18.596  10.629  1.00 20.00     0.252 C 
HETATM    3  N8  UNL     1     -24.614  19.251   9.500  1.00 20.00    -0.199 NA
HETATM    4  O9  UNL     1     -26.115  18.856  11.234  1.00 20.00    -0.270 OA
HETATM    5  S10 UNL     1     -26.176  19.241   7.216  1.00 20.00    -0.055 SA
ENDROOT
BRANCH   2   6
HETATM    6  C7  UNL     1     -24.136  17.463  11.102  1.00 20.00     0.035 C 
HETATM    7  C4  UNL     1     -23.211  17.029   9.951  1.00 20.00     0.025 C 
HETATM    8  C5  UNL     1     -25.004  16.252  11.498  1.00 20.00     0.025 C 
BRANCH   6   9
HETATM    9  C6  UNL     1     -23.305  17.911  12.332  1.00 20.00     0.014 C 
HETATM   10  C3  UNL     1     -21.794  17.794  12.165  1.00 20.00     0.006 C 
ENDBRANCH   6   9
ENDBRANCH   2   6
TORSDOF 2
ENDMDL
MODEL 5
REMARK VINA RESULT:      -3.9     23.978     24.806
REMARK  2 active torsions:
REMARK  status: ('A' for Active; 'I' for Inactive)
REMARK    1  A    between atoms: C2_2  and  C7_7 
REMARK       I    between atoms: C2_2  and  N8_8 
REMARK    2  A    between atoms: C6_6  and  C7_7 
ROOT
HETATM    1  C1  UNL     1     -43.069   4.192  -1.972  1.00 20.00     0.166 C 
HETATM    2  C2  UNL     1     -41.834   5.619  -0.849  1.00 20.00     0.252 C 
HETATM    3  N8  UNL     1     -42.834   4.665  -0.924  1.00 20.00    -0.199 NA
HETATM    4  O9  UNL     1     -40.651   5.442  -1.146  1.00 20.00    -0.270 OA
HETATM    5  S10 UNL     1     -43.417   3.526  -3.377  1.00 20.00    -0.055 SA
ENDROOT
BRANCH   2   6
HETATM    6  C7  UNL     1     -42.332   6.987  -0.332  1.00 20.00     0.035 C 
HETATM    7  C4  UNL     1     -42.977   6.823   1.056  1.00 20.00     0.025 C 
HETATM    8  C5  UNL     1     -43.413   7.503  -1.301  1.00 20.00     0.025 C 
BRANCH   6   9
HETATM    9  C6  UNL     1     -41.171   8.013  -0.279  1.00 20.00     0.014 C 
HETATM   10  C3  UNL     1     -41.538   9.369   0.315  1.00 20.00     0.006 C 
ENDBRANCH   6   9
ENDBRANCH   2   6
TORSDOF 2
ENDMDL
MODEL 6
REMARK VINA RESULT:      -3.9     19.279     19.807
REMARK  2 active torsions:
REMARK  status: ('A' for Active; 'I' for Inactive)
REMARK    1  A    between atoms: C2_2  and  C7_7 
REMARK       I    between atoms: C2_2  and  N8_8 
REMARK    2  A    between atoms: C6_6  and  C7_7 
ROOT
HETATM    1  C1  UNL     1     -38.379  16.406  -4.833  1.00 20.00     0.166 C 
HETATM    2  C2  UNL     1     -37.037  14.797  -4.174  1.00 20.00     0.252 C 
HETATM    3  N8  UNL     1     -37.737  15.970  -3.952  1.00 20.00    -0.199 NA
HETATM    4  O9  UNL     1     -37.535  13.713  -4.480  1.00 20.00    -0.270 OA
HETATM    5  S10 UNL     1     -39.262  17.028  -6.004  1.00 20.00    -0.055 SA
ENDROOT
BRANCH   2   6
HETATM    6  C7  UNL     1     -35.510  14.953  -3.992  1.00 20.00     0.035 C 
HETATM    7  C4  UNL     1     -34.910  15.699  -5.198  1.00 20.00     0.025 C 
HETATM    8  C5  UNL     1     -34.885  13.546  -3.943  1.00 20.00     0.025 C 
BRANCH   6   9
HETATM    9  C6  UNL     1     -35.185  15.697  -2.672  1.00 20.00     0.014 C 
HETATM   10  C3  UNL     1     -33.781  16.287  -2.596  1.00 20.00     0.006 C 
ENDBRANCH   6   9
ENDBRANCH   2   6
TORSDOF 2
ENDMDL
MODEL 7
REMARK VINA RESULT:      -3.8     17.246     17.805
REMARK  2 active torsions:
REMARK  status: ('A' for Active; 'I' for Inactive)
REMARK    1  A    between atoms: C2_2  and  C7_7 
REMARK       I    between atoms: C2_2  and  N8_8 
REMARK    2  A    between atoms: C6_6  and  C7_7 
ROOT
HETATM    1  C1  UNL     1     -32.929  17.673  -2.590  1.00 20.00     0.166 C 
HETATM    2  C2  UNL     1     -34.155  15.862  -2.793  1.00 20.00     0.252 C 
HETATM    3  N8  UNL     1     -32.935  16.501  -2.651  1.00 20.00    -0.199 NA
HETATM    4  O9  UNL     1     -35.094  15.926  -1.999  1.00 20.00    -0.270 OA
HETATM    5  S10 UNL     1     -32.879  19.263  -2.503  1.00 20.00    -0.055 SA
ENDROOT
BRANCH   2   6
HETATM    6  C7  UNL     1     -34.254  15.015  -4.083  1.00 20.00     0.035 C 
HETATM    7  C4  UNL     1     -32.864  14.476  -4.466  1.00 20.00     0.025 C 
HETATM    8  C5  UNL     1     -34.742  15.929  -5.223  1.00 20.00     0.025 C 
BRANCH   6   9
HETATM    9  C6  UNL     1     -35.261  13.851  -3.902  1.00 20.00     0.014 C 
HETATM   10  C3  UNL     1     -36.586  14.028  -4.636  1.00 20.00     0.006 C 
ENDBRANCH   6   9
ENDBRANCH   2   6
TORSDOF 2
ENDMDL
MODEL 8
REMARK VINA RESULT:      -3.7     19.228     19.789
REMARK  2 active torsions:
REMARK  status: ('A' for Active; 'I' for Inactive)
REMARK    1  A    between atoms: C2_2  and  C7_7 
REMARK       I    between atoms: C2_2  and  N8_8 
REMARK    2  A    between atoms: C6_6  and  C7_7 
ROOT
HETATM    1  C1  UNL     1     -38.025  14.744  -4.223  1.00 20.00     0.166 C 
HETATM    2  C2  UNL     1     -35.948  14.393  -4.845  1.00 20.00     0.252 C 
HETATM    3  N8  UNL     1     -36.971  14.328  -3.916  1.00 20.00    -0.199 NA
HETATM    4  O9  UNL     1     -35.950  13.852  -5.951  1.00 20.00    -0.270 OA
HETATM    5  S10 UNL     1     -39.469  15.299  -4.604  1.00 20.00    -0.055 SA
ENDROOT
BRANCH   2   6
HETATM    6  C7  UNL     1     -34.740  15.230  -4.366  1.00 20.00     0.035 C 
HETATM    7  C4  UNL     1     -33.431  14.464  -4.631  1.00 20.00     0.025 C 
HETATM    8  C5  UNL     1     -34.870  15.437  -2.845  1.00 20.00     0.025 C 
BRANCH   6   9
HETATM    9  C6  UNL     1     -34.715  16.614  -5.064  1.00 20.00     0.014 C 
HETATM   10  C3  UNL     1     -35.449  17.723  -4.318  1.00 20.00     0.006 C 
ENDBRANCH   6   9
ENDBRANCH   2   6
TORSDOF 2
ENDMDL
MODEL 9
REMARK VINA RESULT:      -3.7      2.931      4.070
REMARK  2 active torsions:
REMARK  status: ('A' for Active; 'I' for Inactive)
REMARK    1  A    between atoms: C2_2  and  C7_7 
REMARK       I    between atoms: C2_2  and  N8_8 
REMARK    2  A    between atoms: C6_6  and  C7_7 
ROOT
HETATM    1  C1  UNL     1     -25.631  18.008  11.776  1.00 20.00     0.166 C 
HETATM    2  C2  UNL     1     -23.486  18.073  11.308  1.00 20.00     0.252 C 
HETATM    3  N8  UNL     1     -24.742  18.653  11.363  1.00 20.00    -0.199 NA
HETATM    4  O9  UNL     1     -22.855  17.639  12.272  1.00 20.00    -0.270 OA
HETATM    5  S10 UNL     1     -26.863  17.165  12.332  1.00 20.00    -0.055 SA
ENDROOT
BRANCH   2   6
HETATM    6  C7  UNL     1     -22.903  18.013   9.878  1.00 20.00     0.035 C 
HETATM    7  C4  UNL     1     -23.237  16.659   9.228  1.00 20.00     0.025 C 
HETATM    8  C5  UNL     1     -21.369  18.128   9.978  1.00 20.00     0.025 C 
BRANCH   6   9
HETATM    9  C6  UNL     1     -23.440  19.183   9.013  1.00 20.00     0.014 C 
HETATM   10  C3  UNL     1     -24.301  18.762   7.827  1.00 20.00     0.006 C 
ENDBRANCH   6   9
ENDBRANCH   2   6
TORSDOF 2
ENDMDL
