MODEL 1
REMARK VINA RESULT:      -4.9      0.000      0.000
REMARK  2 active torsions:
REMARK  status: ('A' for Active; 'I' for Inactive)
REMARK    1  A    between atoms: C7_7  and  C11_11 
REMARK    2  A    between atoms: C8_8  and  C12_12 
ROOT
HETATM    1  C1  UNL     1     -39.333  16.987  -4.478  1.00 20.00     0.012 C 
HETATM    2  C2  UNL     1     -38.678  15.985  -4.396  1.00 20.00    -0.117 C 
HETATM    3  C11 UNL     1     -37.887  14.754  -4.296  1.00 20.00     0.105 C 
ENDROOT
BRANCH   3   4
HETATM    4  C7  UNL     1     -36.394  15.053  -4.391  1.00 20.00     0.067 C 
HETATM    5  C3  UNL     1     -35.575  13.765  -4.353  1.00 20.00     0.132 C 
HETATM    6  C4  UNL     1     -34.174  13.861  -3.781  1.00 20.00     0.079 C 
HETATM    7  O13 UNL     1     -36.015  12.691  -4.760  1.00 20.00    -0.298 OA
HETATM    8  C5  UNL     1     -33.607  15.256  -4.007  1.00 20.00     0.012 C 
HETATM    9  C8  UNL     1     -34.464  16.355  -3.355  1.00 20.00    -0.010 C 
HETATM   10  C6  UNL     1     -35.948  15.958  -3.238  1.00 20.00     0.018 C 
BRANCH   9  11
HETATM   11  C12 UNL     1     -33.915  16.748  -1.981  1.00 20.00    -0.019 C 
HETATM   12  C9  UNL     1     -33.021  17.980  -2.093  1.00 20.00     0.010 C 
HETATM   13  C10 UNL     1     -35.058  17.000  -1.000  1.00 20.00     0.010 C 
ENDBRANCH   9  11
ENDBRANCH   3   4
TORSDOF 2
ENDMDL
MODEL 2
REMARK VINA RESULT:      -4.8      1.362      1.822
REMARK  2 active torsions:
REMARK  status: ('A' for Active; 'I' for Inactive)
REMARK    1  A    between atoms: C7_7  and  C11_11 
REMARK    2  A    between atoms: C8_8  and  C12_12 
ROOT
HETATM    1  C1  UNL     1     -38.820  14.773  -4.197  1.00 20.00     0.012 C 
HETATM    2  C2  UNL     1     -37.658  14.488  -4.287  1.00 20.00    -0.117 C 
HETATM    3  C11 UNL     1     -36.241  14.128  -4.400  1.00 20.00     0.105 C 
ENDROOT
BRANCH   3   4
HETATM    4  C7  UNL     1     -35.346  15.330  -4.111  1.00 20.00     0.067 C 
HETATM    5  C3  UNL     1     -33.876  14.984  -4.337  1.00 20.00     0.132 C 
HETATM    6  C4  UNL     1     -32.858  15.747  -3.512  1.00 20.00     0.079 C 
HETATM    7  O13 UNL     1     -33.517  14.128  -5.143  1.00 20.00    -0.298 OA
HETATM    8  C5  UNL     1     -33.391  17.130  -3.165  1.00 20.00     0.012 C 
HETATM    9  C8  UNL     1     -34.706  17.074  -2.367  1.00 20.00    -0.010 C 
HETATM   10  C6  UNL     1     -35.527  15.805  -2.666  1.00 20.00     0.018 C 
BRANCH   9  11
HETATM   11  C12 UNL     1     -34.450  17.192  -0.862  1.00 20.00    -0.019 C 
HETATM   12  C9  UNL     1     -33.297  18.154  -0.589  1.00 20.00     0.010 C 
HETATM   13  C10 UNL     1     -35.715  17.648  -0.138  1.00 20.00     0.010 C 
ENDBRANCH   9  11
ENDBRANCH   3   4
TORSDOF 2
ENDMDL
MODEL 3
REMARK VINA RESULT:      -4.7      1.102      1.213
REMARK  2 active torsions:
REMARK  status: ('A' for Active; 'I' for Inactive)
REMARK    1  A    between atoms: C7_7  and  C11_11 
REMARK    2  A    between atoms: C8_8  and  C12_12 
ROOT
HETATM    1  C1  UNL     1     -38.565  16.647  -3.837  1.00 20.00     0.012 C 
HETATM    2  C2  UNL     1     -37.806  16.553  -4.762  1.00 20.00    -0.117 C 
HETATM    3  C11 UNL     1     -36.887  16.442  -5.899  1.00 20.00     0.105 C 
ENDROOT
BRANCH   3   4
HETATM    4  C7  UNL     1     -35.491  16.035  -5.438  1.00 20.00     0.067 C 
HETATM    5  C3  UNL     1     -35.420  14.534  -5.169  1.00 20.00     0.132 C 
HETATM    6  C4  UNL     1     -34.420  14.070  -4.128  1.00 20.00     0.079 C 
HETATM    7  O13 UNL     1     -36.134  13.724  -5.759  1.00 20.00    -0.298 OA
HETATM    8  C5  UNL     1     -33.239  15.029  -4.069  1.00 20.00     0.012 C 
HETATM    9  C8  UNL     1     -33.663  16.466  -3.715  1.00 20.00    -0.010 C 
HETATM   10  C6  UNL     1     -35.103  16.785  -4.159  1.00 20.00     0.018 C 
BRANCH   9  11
HETATM   11  C12 UNL     1     -33.500  16.744  -2.219  1.00 20.00    -0.019 C 
HETATM   12  C9  UNL     1     -32.764  18.062  -1.995  1.00 20.00     0.010 C 
HETATM   13  C10 UNL     1     -34.860  16.761  -1.526  1.00 20.00     0.010 C 
ENDBRANCH   9  11
ENDBRANCH   3   4
TORSDOF 2
ENDMDL
MODEL 4
REMARK VINA RESULT:      -4.7      1.960      3.347
REMARK  2 active torsions:
REMARK  status: ('A' for Active; 'I' for Inactive)
REMARK    1  A    between atoms: C7_7  and  C11_11 
REMARK    2  A    between atoms: C8_8  and  C12_12 
ROOT
HETATM    1  C1  UNL     1     -34.353  16.048  -6.706  1.00 20.00     0.012 C 
HETATM    2  C2  UNL     1     -34.200  15.319  -5.765  1.00 20.00    -0.117 C 
HETATM    3  C11 UNL     1     -34.011  14.419  -4.623  1.00 20.00     0.105 C 
ENDROOT
BRANCH   3   4
HETATM    4  C7  UNL     1     -34.239  15.153  -3.305  1.00 20.00     0.067 C 
HETATM    5  C3  UNL     1     -35.685  15.627  -3.186  1.00 20.00     0.132 C 
HETATM    6  C4  UNL     1     -35.933  16.870  -2.353  1.00 20.00     0.079 C 
HETATM    7  O13 UNL     1     -36.618  15.043  -3.736  1.00 20.00    -0.298 OA
HETATM    8  C5  UNL     1     -34.877  16.993  -1.264  1.00 20.00     0.012 C 
HETATM    9  C8  UNL     1     -33.448  17.077  -1.832  1.00 20.00    -0.010 C 
HETATM   10  C6  UNL     1     -33.309  16.365  -3.192  1.00 20.00     0.018 C 
BRANCH   9  11
HETATM   11  C12 UNL     1     -32.979  18.529  -1.948  1.00 20.00    -0.019 C 
HETATM   12  C9  UNL     1     -31.761  18.771  -1.060  1.00 20.00     0.010 C 
HETATM   13  C10 UNL     1     -32.664  18.876  -3.401  1.00 20.00     0.010 C 
ENDBRANCH   9  11
ENDBRANCH   3   4
TORSDOF 2
ENDMDL
MODEL 5
REMARK VINA RESULT:      -4.7      1.355      4.335
REMARK  2 active torsions:
REMARK  status: ('A' for Active; 'I' for Inactive)
REMARK    1  A    between atoms: C7_7  and  C11_11 
REMARK    2  A    between atoms: C8_8  and  C12_12 
ROOT
HETATM    1  C1  UNL     1     -32.927  17.824  -1.645  1.00 20.00     0.012 C 
HETATM    2  C2  UNL     1     -33.128  16.889  -2.371  1.00 20.00    -0.117 C 
HETATM    3  C11 UNL     1     -33.362  15.746  -3.259  1.00 20.00     0.105 C 
ENDROOT
BRANCH   3   4
HETATM    4  C7  UNL     1     -34.847  15.400  -3.325  1.00 20.00     0.067 C 
HETATM    5  C3  UNL     1     -35.067  14.075  -4.052  1.00 20.00     0.132 C 
HETATM    6  C4  UNL     1     -36.386  13.903  -4.780  1.00 20.00     0.079 C 
HETATM    7  O13 UNL     1     -34.224  13.179  -4.059  1.00 20.00    -0.298 OA
HETATM    8  C5  UNL     1     -37.474  14.723  -4.099  1.00 20.00     0.012 C 
HETATM    9  C8  UNL     1     -37.144  16.226  -4.059  1.00 20.00    -0.010 C 
HETATM   10  C6  UNL     1     -35.627  16.499  -4.053  1.00 20.00     0.018 C 
BRANCH   9  11
HETATM   11  C12 UNL     1     -37.809  16.974  -5.216  1.00 20.00    -0.019 C 
HETATM   12  C9  UNL     1     -36.879  17.025  -6.426  1.00 20.00     0.010 C 
HETATM   13  C10 UNL     1     -39.138  16.318  -5.585  1.00 20.00     0.010 C 
ENDBRANCH   9  11
ENDBRANCH   3   4
TORSDOF 2
ENDMDL
MODEL 6
REMARK VINA RESULT:      -4.7      2.154      3.243
REMARK  2 active torsions:
REMARK  status: ('A' for Active; 'I' for Inactive)
REMARK    1  A    between atoms: C7_7  and  C11_11 
REMARK    2  A    between atoms: C8_8  and  C12_12 
ROOT
HETATM    1  C1  UNL     1     -34.432  17.633  -7.796  1.00 20.00     0.012 C 
HETATM    2  C2  UNL     1     -34.140  16.508  -7.497  1.00 20.00    -0.117 C 
HETATM    3  C11 UNL     1     -33.778  15.132  -7.143  1.00 20.00     0.105 C 
ENDROOT
BRANCH   3   4
HETATM    4  C7  UNL     1     -34.190  14.809  -5.711  1.00 20.00     0.067 C 
HETATM    5  C3  UNL     1     -35.698  14.585  -5.613  1.00 20.00     0.132 C 
HETATM    6  C4  UNL     1     -36.355  14.913  -4.287  1.00 20.00     0.079 C 
HETATM    7  O13 UNL     1     -36.364  14.162  -6.557  1.00 20.00    -0.298 OA
HETATM    8  C5  UNL     1     -35.364  14.723  -3.147  1.00 20.00     0.012 C 
HETATM    9  C8  UNL     1     -34.116  15.613  -3.293  1.00 20.00    -0.010 C 
HETATM   10  C6  UNL     1     -33.796  15.946  -4.764  1.00 20.00     0.018 C 
BRANCH   9  11
HETATM   11  C12 UNL     1     -34.252  16.902  -2.479  1.00 20.00    -0.019 C 
HETATM   12  C9  UNL     1     -35.110  16.665  -1.239  1.00 20.00     0.010 C 
HETATM   13  C10 UNL     1     -32.875  17.436  -2.089  1.00 20.00     0.010 C 
ENDBRANCH   9  11
ENDBRANCH   3   4
TORSDOF 2
ENDMDL
MODEL 7
REMARK VINA RESULT:      -4.6      1.797      3.615
REMARK  2 active torsions:
REMARK  status: ('A' for Active; 'I' for Inactive)
REMARK    1  A    between atoms: C7_7  and  C11_11 
REMARK    2  A    between atoms: C8_8  and  C12_12 
ROOT
HETATM    1  C1  UNL     1     -32.593  14.541  -4.461  1.00 20.00     0.012 C 
HETATM    2  C2  UNL     1     -33.758  14.356  -4.239  1.00 20.00    -0.117 C 
HETATM    3  C11 UNL     1     -35.180  14.119  -3.973  1.00 20.00     0.105 C 
ENDROOT
BRANCH   3   4
HETATM    4  C7  UNL     1     -35.810  15.312  -3.260  1.00 20.00     0.067 C 
HETATM    5  C3  UNL     1     -36.233  16.386  -4.259  1.00 20.00     0.132 C 
HETATM    6  C4  UNL     1     -36.238  17.819  -3.764  1.00 20.00     0.079 C 
HETATM    7  O13 UNL     1     -36.555  16.120  -5.416  1.00 20.00    -0.298 OA
HETATM    8  C5  UNL     1     -36.509  17.858  -2.266  1.00 20.00     0.012 C 
HETATM    9  C8  UNL     1     -35.459  17.078  -1.455  1.00 20.00    -0.010 C 
HETATM   10  C6  UNL     1     -34.825  15.927  -2.260  1.00 20.00     0.018 C 
BRANCH   9  11
HETATM   11  C12 UNL     1     -34.368  18.006  -0.916  1.00 20.00    -0.019 C 
HETATM   12  C9  UNL     1     -34.295  17.919   0.607  1.00 20.00     0.010 C 
HETATM   13  C10 UNL     1     -33.017  17.665  -1.541  1.00 20.00     0.010 C 
ENDBRANCH   9  11
ENDBRANCH   3   4
TORSDOF 2
ENDMDL
MODEL 8
REMARK VINA RESULT:      -4.5      1.516      4.297
REMARK  2 active torsions:
REMARK  status: ('A' for Active; 'I' for Inactive)
REMARK    1  A    between atoms: C7_7  and  C11_11 
REMARK    2  A    between atoms: C8_8  and  C12_12 
ROOT
HETATM    1  C1  UNL     1     -35.565  17.440   0.163  1.00 20.00     0.012 C 
HETATM    2  C2  UNL     1     -34.921  17.119  -0.798  1.00 20.00    -0.117 C 
HETATM    3  C11 UNL     1     -34.126  16.735  -1.968  1.00 20.00     0.105 C 
ENDROOT
BRANCH   3   4
HETATM    4  C7  UNL     1     -34.778  15.578  -2.719  1.00 20.00     0.067 C 
HETATM    5  C3  UNL     1     -33.926  15.148  -3.910  1.00 20.00     0.132 C 
HETATM    6  C4  UNL     1     -34.656  14.542  -5.092  1.00 20.00     0.079 C 
HETATM    7  O13 UNL     1     -32.703  15.283  -3.929  1.00 20.00    -0.298 OA
HETATM    8  C5  UNL     1     -35.926  13.845  -4.625  1.00 20.00     0.012 C 
HETATM    9  C8  UNL     1     -36.895  14.801  -3.907  1.00 20.00    -0.010 C 
HETATM   10  C6  UNL     1     -36.169  15.976  -3.223  1.00 20.00     0.018 C 
BRANCH   9  11
HETATM   11  C12 UNL     1     -37.968  15.329  -4.862  1.00 20.00    -0.019 C 
HETATM   12  C9  UNL     1     -39.362  15.099  -4.283  1.00 20.00     0.010 C 
HETATM   13  C10 UNL     1     -37.743  16.812  -5.153  1.00 20.00     0.010 C 
ENDBRANCH   9  11
ENDBRANCH   3   4
TORSDOF 2
ENDMDL
MODEL 9
REMARK VINA RESULT:      -4.5      2.467      4.259
REMARK  2 active torsions:
REMARK  status: ('A' for Active; 'I' for Inactive)
REMARK    1  A    between atoms: C7_7  and  C11_11 
REMARK    2  A    between atoms: C8_8  and  C12_12 
ROOT
HETATM    1  C1  UNL     1     -32.993  14.821  -4.230  1.00 20.00     0.012 C 
HETATM    2  C2  UNL     1     -34.052  15.052  -3.715  1.00 20.00    -0.117 C 
HETATM    3  C11 UNL     1     -35.350  15.327  -3.092  1.00 20.00     0.105 C 
ENDROOT
BRANCH   3   4
HETATM    4  C7  UNL     1     -35.209  16.327  -1.949  1.00 20.00     0.067 C 
HETATM    5  C3  UNL     1     -36.218  17.464  -2.089  1.00 20.00     0.132 C 
HETATM    6  C4  UNL     1     -35.823  18.807  -1.506  1.00 20.00     0.079 C 
HETATM    7  O13 UNL     1     -37.304  17.317  -2.648  1.00 20.00    -0.298 OA
HETATM    8  C5  UNL     1     -34.878  18.612  -0.328  1.00 20.00     0.012 C 
HETATM    9  C8  UNL     1     -33.590  17.866  -0.721  1.00 20.00    -0.010 C 
HETATM   10  C6  UNL     1     -33.796  16.920  -1.920  1.00 20.00     0.018 C 
BRANCH   9  11
HETATM   11  C12 UNL     1     -32.447  18.841  -1.011  1.00 20.00    -0.019 C 
HETATM   12  C9  UNL     1     -31.137  18.322  -0.425  1.00 20.00     0.010 C 
HETATM   13  C10 UNL     1     -32.310  19.074  -2.515  1.00 20.00     0.010 C 
ENDBRANCH   9  11
ENDBRANCH   3   4
TORSDOF 2
ENDMDL
