MODEL 1
REMARK VINA RESULT:      -5.1      0.000      0.000
REMARK  1 active torsions:
REMARK  status: ('A' for Active; 'I' for Inactive)
REMARK    1  A    between atoms: C1_1  and  C6_6 
ROOT
HETATM    1  C2  UNL     1     -34.297   6.525   6.194  1.00 20.00     0.027 C 
HETATM    2  C3  UNL     1     -33.427   6.838   4.984  1.00 20.00     0.017 C 
HETATM    3  C4  UNL     1     -34.696   5.051   6.219  1.00 20.00     0.167 C 
HETATM    4  C5  UNL     1     -35.166   5.329   3.903  1.00 20.00     0.181 C 
HETATM    5  C6  UNL     1     -34.144   6.447   3.689  1.00 20.00     0.096 C 
HETATM    6  O8  UNL     1     -34.720   4.442   4.927  1.00 20.00    -0.390 OA
ENDROOT
BRANCH   5   7
HETATM    7  C1  UNL     1     -33.122   6.015   2.680  1.00 20.00     0.225 C 
HETATM    8  O7  UNL     1     -32.921   4.830   2.432  1.00 20.00    -0.279 OA
HETATM    9 CL9  UNL     1     -32.308   7.367   1.952  1.00 20.00    -0.043 Cl
ENDBRANCH   5   7
TORSDOF 1
ENDMDL
MODEL 2
REMARK VINA RESULT:      -4.5     11.781     12.770
REMARK  1 active torsions:
REMARK  status: ('A' for Active; 'I' for Inactive)
REMARK    1  A    between atoms: C1_1  and  C6_6 
ROOT
HETATM    1  C2  UNL     1     -33.785  16.598  -2.783  1.00 20.00     0.027 C 
HETATM    2  C3  UNL     1     -34.797  15.464  -2.700  1.00 20.00     0.017 C 
HETATM    3  C4  UNL     1     -33.795  17.246  -4.167  1.00 20.00     0.167 C 
HETATM    4  C5  UNL     1     -33.817  15.020  -5.006  1.00 20.00     0.181 C 
HETATM    5  C6  UNL     1     -34.528  14.422  -3.790  1.00 20.00     0.096 C 
HETATM    6  O8  UNL     1     -34.232  16.369  -5.206  1.00 20.00    -0.390 OA
ENDROOT
BRANCH   5   7
HETATM    7  C1  UNL     1     -35.833  13.814  -4.213  1.00 20.00     0.225 C 
HETATM    8  O7  UNL     1     -35.917  12.635  -4.543  1.00 20.00    -0.279 OA
HETATM    9 CL9  UNL     1     -37.135  14.963  -4.170  1.00 20.00    -0.043 Cl
ENDBRANCH   5   7
TORSDOF 1
ENDMDL
MODEL 3
REMARK VINA RESULT:      -4.4     11.987     12.450
REMARK  1 active torsions:
REMARK  status: ('A' for Active; 'I' for Inactive)
REMARK    1  A    between atoms: C1_1  and  C6_6 
ROOT
HETATM    1  C2  UNL     1     -33.273  15.756  -3.415  1.00 20.00     0.027 C 
HETATM    2  C3  UNL     1     -33.992  14.588  -4.075  1.00 20.00     0.017 C 
HETATM    3  C4  UNL     1     -34.102  16.341  -2.274  1.00 20.00     0.167 C 
HETATM    4  C5  UNL     1     -35.938  16.200  -3.781  1.00 20.00     0.181 C 
HETATM    5  C6  UNL     1     -35.375  15.018  -4.573  1.00 20.00     0.096 C 
HETATM    6  O8  UNL     1     -35.507  16.133  -2.423  1.00 20.00    -0.390 OA
ENDROOT
BRANCH   5   7
HETATM    7  C1  UNL     1     -36.310  13.850  -4.477  1.00 20.00     0.225 C 
HETATM    8  O7  UNL     1     -35.906  12.693  -4.542  1.00 20.00    -0.279 OA
HETATM    9 CL9  UNL     1     -37.962  14.349  -4.272  1.00 20.00    -0.043 Cl
ENDBRANCH   5   7
TORSDOF 1
ENDMDL
MODEL 4
REMARK VINA RESULT:      -4.3      2.366      3.465
REMARK  1 active torsions:
REMARK  status: ('A' for Active; 'I' for Inactive)
REMARK    1  A    between atoms: C1_1  and  C6_6 
ROOT
HETATM    1  C2  UNL     1     -32.526   6.899   2.222  1.00 20.00     0.027 C 
HETATM    2  C3  UNL     1     -33.247   5.607   2.584  1.00 20.00     0.017 C 
HETATM    3  C4  UNL     1     -31.925   7.560   3.462  1.00 20.00     0.167 C 
HETATM    4  C5  UNL     1     -34.016   7.097   4.497  1.00 20.00     0.181 C 
HETATM    5  C6  UNL     1     -34.326   5.869   3.638  1.00 20.00     0.096 C 
HETATM    6  O8  UNL     1     -32.607   7.233   4.673  1.00 20.00    -0.390 OA
ENDROOT
BRANCH   5   7
HETATM    7  C1  UNL     1     -34.455   4.657   4.512  1.00 20.00     0.225 C 
HETATM    8  O7  UNL     1     -34.283   3.524   4.072  1.00 20.00    -0.279 OA
HETATM    9 CL9  UNL     1     -34.864   5.070   6.150  1.00 20.00    -0.043 Cl
ENDBRANCH   5   7
TORSDOF 1
ENDMDL
MODEL 5
REMARK VINA RESULT:      -4.1     16.672     17.133
REMARK  1 active torsions:
REMARK  status: ('A' for Active; 'I' for Inactive)
REMARK    1  A    between atoms: C1_1  and  C6_6 
ROOT
HETATM    1  C2  UNL     1     -24.330  17.748  12.270  1.00 20.00     0.027 C 
HETATM    2  C3  UNL     1     -24.896  18.422  11.028  1.00 20.00     0.017 C 
HETATM    3  C4  UNL     1     -22.802  17.781  12.267  1.00 20.00     0.167 C 
HETATM    4  C5  UNL     1     -22.976  17.114   9.989  1.00 20.00     0.181 C 
HETATM    5  C6  UNL     1     -24.341  17.767   9.759  1.00 20.00     0.096 C 
HETATM    6  O8  UNL     1     -22.234  17.852  10.958  1.00 20.00    -0.390 OA
ENDROOT
BRANCH   5   7
HETATM    7  C1  UNL     1     -24.232  18.807   8.684  1.00 20.00     0.225 C 
HETATM    8  O7  UNL     1     -23.146  19.254   8.327  1.00 20.00    -0.279 OA
HETATM    9 CL9  UNL     1     -25.786  19.263   8.054  1.00 20.00    -0.043 Cl
ENDBRANCH   5   7
TORSDOF 1
ENDMDL
MODEL 6
REMARK VINA RESULT:      -4.1     16.673     17.327
REMARK  1 active torsions:
REMARK  status: ('A' for Active; 'I' for Inactive)
REMARK    1  A    between atoms: C1_1  and  C6_6 
ROOT
HETATM    1  C2  UNL     1     -22.411  16.796   9.087  1.00 20.00     0.027 C 
HETATM    2  C3  UNL     1     -23.547  16.892  10.095  1.00 20.00     0.017 C 
HETATM    3  C4  UNL     1     -21.757  18.158   8.860  1.00 20.00     0.167 C 
HETATM    4  C5  UNL     1     -23.980  18.997   8.733  1.00 20.00     0.181 C 
HETATM    5  C6  UNL     1     -24.584  17.924   9.641  1.00 20.00     0.096 C 
HETATM    6  O8  UNL     1     -22.630  19.260   9.111  1.00 20.00    -0.390 OA
ENDROOT
BRANCH   5   7
HETATM    7  C1  UNL     1     -25.192  18.566  10.853  1.00 20.00     0.225 C 
HETATM    8  O7  UNL     1     -26.200  19.262  10.776  1.00 20.00    -0.279 OA
HETATM    9 CL9  UNL     1     -24.306  18.201  12.302  1.00 20.00    -0.043 Cl
ENDBRANCH   5   7
TORSDOF 1
ENDMDL
MODEL 7
REMARK VINA RESULT:      -4.0     11.780     12.317
REMARK  1 active torsions:
REMARK  status: ('A' for Active; 'I' for Inactive)
REMARK    1  A    between atoms: C1_1  and  C6_6 
ROOT
HETATM    1  C2  UNL     1     -33.164  17.092  -2.544  1.00 20.00     0.027 C 
HETATM    2  C3  UNL     1     -33.155  15.845  -3.416  1.00 20.00     0.017 C 
HETATM    3  C4  UNL     1     -34.222  16.992  -1.447  1.00 20.00     0.167 C 
HETATM    4  C5  UNL     1     -35.663  16.196  -3.166  1.00 20.00     0.181 C 
HETATM    5  C6  UNL     1     -34.541  15.599  -4.019  1.00 20.00     0.096 C 
HETATM    6  O8  UNL     1     -35.315  16.137  -1.784  1.00 20.00    -0.390 OA
ENDROOT
BRANCH   5   7
HETATM    7  C1  UNL     1     -34.750  14.121  -4.170  1.00 20.00     0.225 C 
HETATM    8  O7  UNL     1     -33.811  13.331  -4.141  1.00 20.00    -0.279 OA
HETATM    9 CL9  UNL     1     -36.426  13.715  -4.383  1.00 20.00    -0.043 Cl
ENDBRANCH   5   7
TORSDOF 1
ENDMDL
MODEL 8
REMARK VINA RESULT:      -4.0     12.480     12.781
REMARK  1 active torsions:
REMARK  status: ('A' for Active; 'I' for Inactive)
REMARK    1  A    between atoms: C1_1  and  C6_6 
ROOT
HETATM    1  C2  UNL     1     -34.483  16.079  -2.193  1.00 20.00     0.027 C 
HETATM    2  C3  UNL     1     -35.665  15.692  -3.071  1.00 20.00     0.017 C 
HETATM    3  C4  UNL     1     -33.240  16.364  -3.034  1.00 20.00     0.167 C 
HETATM    4  C5  UNL     1     -33.810  14.378  -4.215  1.00 20.00     0.181 C 
HETATM    5  C6  UNL     1     -35.313  14.485  -3.947  1.00 20.00     0.096 C 
HETATM    6  O8  UNL     1     -33.228  15.678  -4.287  1.00 20.00    -0.390 OA
ENDROOT
BRANCH   5   7
HETATM    7  C1  UNL     1     -36.054  14.596  -5.246  1.00 20.00     0.225 C 
HETATM    8  O7  UNL     1     -35.967  13.732  -6.114  1.00 20.00    -0.279 OA
HETATM    9 CL9  UNL     1     -37.002  16.049  -5.338  1.00 20.00    -0.043 Cl
ENDBRANCH   5   7
TORSDOF 1
ENDMDL
MODEL 9
REMARK VINA RESULT:      -3.9     11.994     12.664
REMARK  1 active torsions:
REMARK  status: ('A' for Active; 'I' for Inactive)
REMARK    1  A    between atoms: C1_1  and  C6_6 
ROOT
HETATM    1  C2  UNL     1     -37.814  16.143  -4.382  1.00 20.00     0.027 C 
HETATM    2  C3  UNL     1     -36.356  16.201  -3.950  1.00 20.00     0.017 C 
HETATM    3  C4  UNL     1     -38.359  14.718  -4.293  1.00 20.00     0.167 C 
HETATM    4  C5  UNL     1     -36.324  14.072  -5.343  1.00 20.00     0.181 C 
HETATM    5  C6  UNL     1     -35.507  15.241  -4.789  1.00 20.00     0.096 C 
HETATM    6  O8  UNL     1     -37.354  13.712  -4.424  1.00 20.00    -0.390 OA
ENDROOT
BRANCH   5   7
HETATM    7  C1  UNL     1     -34.383  14.721  -3.943  1.00 20.00     0.225 C 
HETATM    8  O7  UNL     1     -33.810  13.669  -4.209  1.00 20.00    -0.279 OA
HETATM    9 CL9  UNL     1     -34.032  15.770  -2.603  1.00 20.00    -0.043 Cl
ENDBRANCH   5   7
TORSDOF 1
ENDMDL
