MODEL 1
REMARK VINA RESULT:      -5.0      0.000      0.000
REMARK  0 active torsions:
REMARK  status: ('A' for Active; 'I' for Inactive)
ROOT
HETATM    1  C1  UNL     1     -25.751  19.263   7.818  1.00 20.00    -0.006 C 
HETATM    2  C2  UNL     1     -24.853  19.094   6.841  1.00 20.00     0.112 C 
HETATM    3  C3  UNL     1     -23.247  18.163   8.169  1.00 20.00     0.023 C 
HETATM    4  C4  UNL     1     -23.575  18.045  10.700  1.00 20.00     0.136 C 
HETATM    5  C5  UNL     1     -25.407  18.940   9.231  1.00 20.00     0.046 C 
HETATM    6  C6  UNL     1     -21.841  17.634   8.346  1.00 20.00     0.056 C 
HETATM    7  C7  UNL     1     -22.158  17.531  10.827  1.00 20.00     0.079 C 
HETATM    8  C8  UNL     1     -21.293  18.066   9.696  1.00 20.00     0.013 C 
HETATM    9  C9  UNL     1     -24.228  17.965   9.323  1.00 20.00     0.106 C 
HETATM   10  N10 UNL     1     -23.568  18.659   7.012  1.00 20.00    -0.269 NA
HETATM   11  O11 UNL     1     -24.201  18.399  11.700  1.00 20.00    -0.297 OA
ENDROOT
TORSDOF 0
ENDMDL
MODEL 2
REMARK VINA RESULT:      -4.7     16.519     18.338
REMARK  0 active torsions:
REMARK  status: ('A' for Active; 'I' for Inactive)
ROOT
HETATM    1  C1  UNL     1     -33.115  15.829  -3.542  1.00 20.00    -0.006 C 
HETATM    2  C2  UNL     1     -33.617  17.065  -3.448  1.00 20.00     0.112 C 
HETATM    3  C3  UNL     1     -35.799  16.442  -3.700  1.00 20.00     0.023 C 
HETATM    4  C4  UNL     1     -36.392  14.021  -4.259  1.00 20.00     0.136 C 
HETATM    5  C5  UNL     1     -34.001  14.670  -3.843  1.00 20.00     0.046 C 
HETATM    6  C6  UNL     1     -37.256  16.815  -3.858  1.00 20.00     0.056 C 
HETATM    7  C7  UNL     1     -37.835  14.446  -4.419  1.00 20.00     0.079 C 
HETATM    8  C8  UNL     1     -37.917  15.896  -4.871  1.00 20.00     0.013 C 
HETATM    9  C9  UNL     1     -35.465  14.965  -3.499  1.00 20.00     0.106 C 
HETATM   10  N10 UNL     1     -34.929  17.404  -3.639  1.00 20.00    -0.269 NA
HETATM   11  O11 UNL     1     -36.028  12.904  -4.628  1.00 20.00    -0.297 OA
ENDROOT
TORSDOF 0
ENDMDL
MODEL 3
REMARK VINA RESULT:      -4.6     11.839     13.624
REMARK  0 active torsions:
REMARK  status: ('A' for Active; 'I' for Inactive)
ROOT
HETATM    1  C1  UNL     1     -34.140  16.743  -2.392  1.00 20.00    -0.006 C 
HETATM    2  C2  UNL     1     -35.169  16.679  -1.541  1.00 20.00     0.112 C 
HETATM    3  C3  UNL     1     -34.140  17.823   0.145  1.00 20.00     0.023 C 
HETATM    4  C4  UNL     1     -31.679  18.477  -0.055  1.00 20.00     0.136 C 
HETATM    5  C5  UNL     1     -32.843  17.345  -1.972  1.00 20.00     0.046 C 
HETATM    6  C6  UNL     1     -34.142  18.340   1.567  1.00 20.00     0.056 C 
HETATM    7  C7  UNL     1     -31.727  18.967   1.375  1.00 20.00     0.079 C 
HETATM    8  C8  UNL     1     -32.757  18.184   2.174  1.00 20.00     0.013 C 
HETATM    9  C9  UNL     1     -33.011  18.286  -0.774  1.00 20.00     0.106 C 
HETATM   10  N10 UNL     1     -35.151  17.105  -0.241  1.00 20.00    -0.269 NA
HETATM   11  O11 UNL     1     -30.600  18.357  -0.637  1.00 20.00    -0.297 OA
ENDROOT
TORSDOF 0
ENDMDL
MODEL 4
REMARK VINA RESULT:      -4.6     12.037     14.076
REMARK  0 active torsions:
REMARK  status: ('A' for Active; 'I' for Inactive)
ROOT
HETATM    1  C1  UNL     1     -31.842  18.937   1.133  1.00 20.00    -0.006 C 
HETATM    2  C2  UNL     1     -31.039  18.845   0.067  1.00 20.00     0.112 C 
HETATM    3  C3  UNL     1     -32.611  17.948  -1.323  1.00 20.00     0.023 C 
HETATM    4  C4  UNL     1     -34.906  17.285  -0.418  1.00 20.00     0.136 C 
HETATM    5  C5  UNL     1     -33.232  18.403   1.085  1.00 20.00     0.046 C 
HETATM    6  C6  UNL     1     -32.984  17.341  -2.658  1.00 20.00     0.056 C 
HETATM    7  C7  UNL     1     -35.227  16.679  -1.766  1.00 20.00     0.079 C 
HETATM    8  C8  UNL     1     -33.958  16.193  -2.449  1.00 20.00     0.013 C 
HETATM    9  C9  UNL     1     -33.745  18.273  -0.353  1.00 20.00     0.106 C 
HETATM   10  N10 UNL     1     -31.365  18.254  -1.122  1.00 20.00    -0.269 NA
HETATM   11  O11 UNL     1     -35.636  17.070   0.551  1.00 20.00    -0.297 OA
ENDROOT
TORSDOF 0
ENDMDL
MODEL 5
REMARK VINA RESULT:      -4.6     15.694     17.595
REMARK  0 active torsions:
REMARK  status: ('A' for Active; 'I' for Inactive)
ROOT
HETATM    1  C1  UNL     1     -33.176  17.302  -2.639  1.00 20.00    -0.006 C 
HETATM    2  C2  UNL     1     -34.256  18.087  -2.707  1.00 20.00     0.112 C 
HETATM    3  C3  UNL     1     -35.683  16.448  -3.406  1.00 20.00     0.023 C 
HETATM    4  C4  UNL     1     -34.793  14.125  -3.985  1.00 20.00     0.136 C 
HETATM    5  C5  UNL     1     -33.241  15.881  -3.080  1.00 20.00     0.046 C 
HETATM    6  C6  UNL     1     -37.051  16.025  -3.895  1.00 20.00     0.056 C 
HETATM    7  C7  UNL     1     -36.175  13.753  -4.475  1.00 20.00     0.079 C 
HETATM    8  C8  UNL     1     -36.907  14.983  -4.991  1.00 20.00     0.013 C 
HETATM    9  C9  UNL     1     -34.678  15.346  -3.078  1.00 20.00     0.106 C 
HETATM   10  N10 UNL     1     -35.479  17.713  -3.193  1.00 20.00    -0.269 NA
HETATM   11  O11 UNL     1     -33.832  13.392  -4.220  1.00 20.00    -0.297 OA
ENDROOT
TORSDOF 0
ENDMDL
MODEL 6
REMARK VINA RESULT:      -4.5     16.962     18.694
REMARK  0 active torsions:
REMARK  status: ('A' for Active; 'I' for Inactive)
ROOT
HETATM    1  C1  UNL     1     -39.179  15.585  -4.047  1.00 20.00    -0.006 C 
HETATM    2  C2  UNL     1     -38.771  16.769  -3.578  1.00 20.00     0.112 C 
HETATM    3  C3  UNL     1     -36.540  16.301  -3.694  1.00 20.00     0.023 C 
HETATM    4  C4  UNL     1     -35.745  13.955  -4.319  1.00 20.00     0.136 C 
HETATM    5  C5  UNL     1     -38.197  14.501  -4.332  1.00 20.00     0.046 C 
HETATM    6  C6  UNL     1     -35.105  16.693  -3.419  1.00 20.00     0.056 C 
HETATM    7  C7  UNL     1     -34.328  14.391  -4.018  1.00 20.00     0.079 C 
HETATM    8  C8  UNL     1     -34.318  15.479  -2.955  1.00 20.00     0.013 C 
HETATM    9  C9  UNL     1     -36.782  15.052  -4.539  1.00 20.00     0.106 C 
HETATM   10  N10 UNL     1     -37.477  17.103  -3.287  1.00 20.00    -0.269 NA
HETATM   11  O11 UNL     1     -36.006  12.764  -4.492  1.00 20.00    -0.297 OA
ENDROOT
TORSDOF 0
ENDMDL
MODEL 7
REMARK VINA RESULT:      -4.5      2.004      3.624
REMARK  0 active torsions:
REMARK  status: ('A' for Active; 'I' for Inactive)
ROOT
HETATM    1  C1  UNL     1     -21.890  18.090   8.523  1.00 20.00    -0.006 C 
HETATM    2  C2  UNL     1     -21.304  17.797   9.689  1.00 20.00     0.112 C 
HETATM    3  C3  UNL     1     -23.209  17.924  10.939  1.00 20.00     0.023 C 
HETATM    4  C4  UNL     1     -25.393  18.725   9.883  1.00 20.00     0.136 C 
HETATM    5  C5  UNL     1     -23.335  18.451   8.469  1.00 20.00     0.046 C 
HETATM    6  C6  UNL     1     -23.893  17.901  12.288  1.00 20.00     0.056 C 
HETATM    7  C7  UNL     1     -26.029  18.699  11.256  1.00 20.00     0.079 C 
HETATM    8  C8  UNL     1     -24.985  18.956  12.332  1.00 20.00     0.013 C 
HETATM    9  C9  UNL     1     -24.098  17.941   9.697  1.00 20.00     0.106 C 
HETATM   10  N10 UNL     1     -21.915  17.822  10.912  1.00 20.00    -0.269 NA
HETATM   11  O11 UNL     1     -25.974  19.263   8.939  1.00 20.00    -0.297 OA
ENDROOT
TORSDOF 0
ENDMDL
MODEL 8
REMARK VINA RESULT:      -4.4     13.137     14.604
REMARK  0 active torsions:
REMARK  status: ('A' for Active; 'I' for Inactive)
ROOT
HETATM    1  C1  UNL     1     -33.694  15.898  -3.218  1.00 20.00    -0.006 C 
HETATM    2  C2  UNL     1     -34.863  15.685  -2.604  1.00 20.00     0.112 C 
HETATM    3  C3  UNL     1     -34.568  17.280  -0.998  1.00 20.00     0.023 C 
HETATM    4  C4  UNL     1     -32.343  18.520  -0.806  1.00 20.00     0.136 C 
HETATM    5  C5  UNL     1     -32.710  16.870  -2.664  1.00 20.00     0.046 C 
HETATM    6  C6  UNL     1     -35.039  17.969   0.264  1.00 20.00     0.056 C 
HETATM    7  C7  UNL     1     -32.854  19.174   0.459  1.00 20.00     0.079 C 
HETATM    8  C8  UNL     1     -33.851  18.267   1.164  1.00 20.00     0.013 C 
HETATM    9  C9  UNL     1     -33.377  17.890  -1.734  1.00 20.00     0.106 C 
HETATM   10  N10 UNL     1     -35.265  16.276  -1.438  1.00 20.00    -0.269 NA
HETATM   11  O11 UNL     1     -31.154  18.609  -1.115  1.00 20.00    -0.297 OA
ENDROOT
TORSDOF 0
ENDMDL
MODEL 9
REMARK VINA RESULT:      -4.4      1.375      3.023
REMARK  0 active torsions:
REMARK  status: ('A' for Active; 'I' for Inactive)
ROOT
HETATM    1  C1  UNL     1     -22.260  17.659   8.183  1.00 20.00    -0.006 C 
HETATM    2  C2  UNL     1     -23.262  18.296   7.569  1.00 20.00     0.112 C 
HETATM    3  C3  UNL     1     -24.450  18.731   9.469  1.00 20.00     0.023 C 
HETATM    4  C4  UNL     1     -23.699  17.761  11.709  1.00 20.00     0.136 C 
HETATM    5  C5  UNL     1     -22.310  17.397   9.648  1.00 20.00     0.046 C 
HETATM    6  C6  UNL     1     -25.699  19.262  10.139  1.00 20.00     0.056 C 
HETATM    7  C7  UNL     1     -24.969  18.299  12.331  1.00 20.00     0.079 C 
HETATM    8  C8  UNL     1     -26.085  18.360  11.299  1.00 20.00     0.013 C 
HETATM    9  C9  UNL     1     -23.276  18.347  10.366  1.00 20.00     0.106 C 
HETATM   10  N10 UNL     1     -24.410  18.732   8.171  1.00 20.00    -0.269 NA
HETATM   11  O11 UNL     1     -22.989  16.971  12.332  1.00 20.00    -0.297 OA
ENDROOT
TORSDOF 0
ENDMDL
