MODEL 1
REMARK VINA RESULT:      -4.0      0.000      0.000
REMARK  1 active torsions:
REMARK  status: ('A' for Active; 'I' for Inactive)
REMARK    1  A    between atoms: C4_4  and  C5_5 
ROOT
HETATM    1  C1  UNL     1     -34.879   5.429   4.955  1.00 20.00     0.007 A 
HETATM    2  C2  UNL     1     -34.064   6.414   5.747  1.00 20.00     0.007 A 
HETATM    3  C4  UNL     1     -34.173   6.555   4.254  1.00 20.00     0.017 A 
ENDROOT
BRANCH   3   4
HETATM    4  C5  UNL     1     -32.993   6.330   3.320  1.00 20.00     0.149 A 
HETATM    5  C3  UNL     1     -32.688   7.209   2.145  1.00 20.00     0.200 A 
HETATM    6  O6  UNL     1     -31.970   7.326   3.384  1.00 20.00    -0.381 OA
ENDBRANCH   3   4
TORSDOF 1
ENDMDL
MODEL 2
REMARK VINA RESULT:      -3.7      1.097      1.386
REMARK  1 active torsions:
REMARK  status: ('A' for Active; 'I' for Inactive)
REMARK    1  A    between atoms: C4_4  and  C5_5 
ROOT
HETATM    1  C1  UNL     1     -34.304   6.644   6.085  1.00 20.00     0.007 A 
HETATM    2  C2  UNL     1     -34.891   5.359   5.568  1.00 20.00     0.007 A 
HETATM    3  C4  UNL     1     -33.671   5.947   4.913  1.00 20.00     0.017 A 
ENDROOT
BRANCH   3   4
HETATM    4  C5  UNL     1     -33.694   6.523   3.505  1.00 20.00     0.149 A 
HETATM    5  C3  UNL     1     -32.469   7.009   2.790  1.00 20.00     0.200 A 
HETATM    6  O6  UNL     1     -33.048   5.724   2.512  1.00 20.00    -0.381 OA
ENDBRANCH   3   4
TORSDOF 1
ENDMDL
MODEL 3
REMARK VINA RESULT:      -3.6      1.628      3.152
REMARK  1 active torsions:
REMARK  status: ('A' for Active; 'I' for Inactive)
REMARK    1  A    between atoms: C4_4  and  C5_5 
ROOT
HETATM    1  C1  UNL     1     -33.282   5.311   2.396  1.00 20.00     0.007 A 
HETATM    2  C2  UNL     1     -32.870   6.747   2.562  1.00 20.00     0.007 A 
HETATM    3  C4  UNL     1     -33.209   5.917   3.769  1.00 20.00     0.017 A 
ENDROOT
BRANCH   3   4
HETATM    4  C5  UNL     1     -34.442   6.173   4.621  1.00 20.00     0.149 A 
HETATM    5  C3  UNL     1     -34.818   5.337   5.807  1.00 20.00     0.200 A 
HETATM    6  O6  UNL     1     -34.179   6.616   5.954  1.00 20.00    -0.381 OA
ENDBRANCH   3   4
TORSDOF 1
ENDMDL
MODEL 4
REMARK VINA RESULT:      -3.3      2.208      2.378
REMARK  1 active torsions:
REMARK  status: ('A' for Active; 'I' for Inactive)
REMARK    1  A    between atoms: C4_4  and  C5_5 
ROOT
HETATM    1  C1  UNL     1     -34.445   5.308   6.325  1.00 20.00     0.007 A 
HETATM    2  C2  UNL     1     -33.978   6.594   5.702  1.00 20.00     0.007 A 
HETATM    3  C4  UNL     1     -35.070   5.794   5.048  1.00 20.00     0.017 A 
ENDROOT
BRANCH   3   4
HETATM    4  C5  UNL     1     -34.881   5.082   3.718  1.00 20.00     0.149 A 
HETATM    5  C3  UNL     1     -33.543   4.871   3.074  1.00 20.00     0.200 A 
HETATM    6  O6  UNL     1     -34.210   3.822   3.793  1.00 20.00    -0.381 OA
ENDBRANCH   3   4
TORSDOF 1
ENDMDL
MODEL 5
REMARK VINA RESULT:      -3.3     11.281     11.743
REMARK  1 active torsions:
REMARK  status: ('A' for Active; 'I' for Inactive)
REMARK    1  A    between atoms: C4_4  and  C5_5 
ROOT
HETATM    1  C1  UNL     1     -34.151  16.146  -3.670  1.00 20.00     0.007 A 
HETATM    2  C2  UNL     1     -34.801  15.838  -2.350  1.00 20.00     0.007 A 
HETATM    3  C4  UNL     1     -34.753  14.790  -3.428  1.00 20.00     0.017 A 
ENDROOT
BRANCH   3   4
HETATM    4  C5  UNL     1     -35.997  14.303  -4.154  1.00 20.00     0.149 A 
HETATM    5  C3  UNL     1     -36.016  13.931  -5.606  1.00 20.00     0.200 A 
HETATM    6  O6  UNL     1     -35.961  12.937  -4.571  1.00 20.00    -0.381 OA
ENDBRANCH   3   4
TORSDOF 1
ENDMDL
MODEL 6
REMARK VINA RESULT:      -3.3     16.609     16.982
REMARK  1 active torsions:
REMARK  status: ('A' for Active; 'I' for Inactive)
REMARK    1  A    between atoms: C4_4  and  C5_5 
ROOT
HETATM    1  C1  UNL     1     -23.506  16.732  11.614  1.00 20.00     0.007 A 
HETATM    2  C2  UNL     1     -22.787  17.840  12.332  1.00 20.00     0.007 A 
HETATM    3  C4  UNL     1     -23.018  17.929  10.848  1.00 20.00     0.017 A 
ENDROOT
BRANCH   3   4
HETATM    4  C5  UNL     1     -21.886  17.851   9.836  1.00 20.00     0.149 A 
HETATM    5  C3  UNL     1     -22.104  17.718   8.359  1.00 20.00     0.200 A 
HETATM    6  O6  UNL     1     -21.772  18.977   8.964  1.00 20.00    -0.381 OA
ENDBRANCH   3   4
TORSDOF 1
ENDMDL
MODEL 7
REMARK VINA RESULT:      -3.2     11.642     12.217
REMARK  1 active torsions:
REMARK  status: ('A' for Active; 'I' for Inactive)
REMARK    1  A    between atoms: C4_4  and  C5_5 
ROOT
HETATM    1  C1  UNL     1     -33.452  16.190  -2.884  1.00 20.00     0.007 A 
HETATM    2  C2  UNL     1     -34.830  15.856  -2.383  1.00 20.00     0.007 A 
HETATM    3  C4  UNL     1     -34.274  15.144  -3.585  1.00 20.00     0.017 A 
ENDROOT
BRANCH   3   4
HETATM    4  C5  UNL     1     -34.832  15.342  -4.986  1.00 20.00     0.149 A 
HETATM    5  C3  UNL     1     -34.078  14.994  -6.234  1.00 20.00     0.200 A 
HETATM    6  O6  UNL     1     -35.105  14.139  -5.706  1.00 20.00    -0.381 OA
ENDBRANCH   3   4
TORSDOF 1
ENDMDL
MODEL 8
REMARK VINA RESULT:      -3.2      9.238      9.635
REMARK  1 active torsions:
REMARK  status: ('A' for Active; 'I' for Inactive)
REMARK    1  A    between atoms: C4_4  and  C5_5 
ROOT
HETATM    1  C1  UNL     1     -42.820   8.801  -0.106  1.00 20.00     0.007 A 
HETATM    2  C2  UNL     1     -41.405   9.189   0.221  1.00 20.00     0.007 A 
HETATM    3  C4  UNL     1     -41.675   8.006  -0.666  1.00 20.00     0.017 A 
ENDROOT
BRANCH   3   4
HETATM    4  C5  UNL     1     -41.382   6.576  -0.238  1.00 20.00     0.149 A 
HETATM    5  C3  UNL     1     -42.028   5.376  -0.862  1.00 20.00     0.200 A 
HETATM    6  O6  UNL     1     -40.694   5.781  -1.206  1.00 20.00    -0.381 OA
ENDBRANCH   3   4
TORSDOF 1
ENDMDL
MODEL 9
REMARK VINA RESULT:      -3.1      2.154      3.978
REMARK  1 active torsions:
REMARK  status: ('A' for Active; 'I' for Inactive)
REMARK    1  A    between atoms: C4_4  and  C5_5 
ROOT
HETATM    1  C1  UNL     1     -33.285   8.381  -0.211  1.00 20.00     0.007 A 
HETATM    2  C2  UNL     1     -32.878   9.545   0.649  1.00 20.00     0.007 A 
HETATM    3  C4  UNL     1     -32.490   8.146   1.042  1.00 20.00     0.017 A 
ENDROOT
BRANCH   3   4
HETATM    4  C5  UNL     1     -33.067   7.447   2.262  1.00 20.00     0.149 A 
HETATM    5  C3  UNL     1     -32.818   6.004   2.585  1.00 20.00     0.200 A 
HETATM    6  O6  UNL     1     -32.111   7.062   3.251  1.00 20.00    -0.381 OA
ENDBRANCH   3   4
TORSDOF 1
ENDMDL
