MODEL 1
REMARK VINA RESULT:      -4.2      0.000      0.000
REMARK  3 active torsions:
REMARK  status: ('A' for Active; 'I' for Inactive)
REMARK    1  A    between atoms: C2_2  and  C6_6 
REMARK    2  A    between atoms: C6_6  and  C7_7 
REMARK    3  A    between atoms: C7_7  and  C8_8 
ROOT
HETATM    1  C6  UNL     1     -35.019  14.196  -3.754  1.00 20.00     0.040 C 
ENDROOT
BRANCH   1   2
HETATM    2  C2  UNL     1     -36.150  14.359  -4.758  1.00 20.00     0.079 A 
HETATM    3  C1  UNL     1     -37.504  14.830  -4.284  1.00 20.00     0.206 A 
HETATM    4  O9  UNL     1     -37.239  13.446  -4.557  1.00 20.00    -0.375 OA
HETATM    5  C3  UNL     1     -35.771  14.537  -6.193  1.00 20.00     0.048 C 
ENDBRANCH   1   2
BRANCH   1   6
HETATM    6  C7  UNL     1     -33.966  15.294  -3.918  1.00 20.00     0.007 C 
BRANCH   6   7
HETATM    7  C8  UNL     1     -33.700  16.086  -2.625  1.00 20.00    -0.023 C 
HETATM    8  C4  UNL     1     -35.011  16.298  -1.866  1.00 20.00     0.009 C 
HETATM    9  C5  UNL     1     -33.036  17.438  -2.893  1.00 20.00     0.009 C 
ENDBRANCH   6   7
ENDBRANCH   1   6
TORSDOF 3
ENDMDL
MODEL 2
REMARK VINA RESULT:      -4.2      0.781      1.398
REMARK  3 active torsions:
REMARK  status: ('A' for Active; 'I' for Inactive)
REMARK    1  A    between atoms: C2_2  and  C6_6 
REMARK    2  A    between atoms: C6_6  and  C7_7 
REMARK    3  A    between atoms: C7_7  and  C8_8 
ROOT
HETATM    1  C6  UNL     1     -34.418  14.391  -3.674  1.00 20.00     0.040 C 
ENDROOT
BRANCH   1   2
HETATM    2  C2  UNL     1     -35.451  14.245  -4.781  1.00 20.00     0.079 A 
HETATM    3  C1  UNL     1     -36.910  14.091  -4.421  1.00 20.00     0.206 A 
HETATM    4  O9  UNL     1     -36.102  12.966  -4.800  1.00 20.00    -0.375 OA
HETATM    5  C3  UNL     1     -35.077  14.750  -6.137  1.00 20.00     0.048 C 
ENDBRANCH   1   2
BRANCH   1   6
HETATM    6  C7  UNL     1     -33.633  15.698  -3.814  1.00 20.00     0.007 C 
BRANCH   6   7
HETATM    7  C8  UNL     1     -34.068  16.784  -2.814  1.00 20.00    -0.023 C 
HETATM    8  C4  UNL     1     -32.835  17.400  -2.148  1.00 20.00     0.009 C 
HETATM    9  C5  UNL     1     -35.017  16.246  -1.742  1.00 20.00     0.009 C 
ENDBRANCH   6   7
ENDBRANCH   1   6
TORSDOF 3
ENDMDL
MODEL 3
REMARK VINA RESULT:      -4.0      1.382      2.018
REMARK  3 active torsions:
REMARK  status: ('A' for Active; 'I' for Inactive)
REMARK    1  A    between atoms: C2_2  and  C6_6 
REMARK    2  A    between atoms: C6_6  and  C7_7 
REMARK    3  A    between atoms: C7_7  and  C8_8 
ROOT
HETATM    1  C6  UNL     1     -34.837  15.241  -2.937  1.00 20.00     0.040 C 
ENDROOT
BRANCH   1   2
HETATM    2  C2  UNL     1     -34.898  14.474  -4.249  1.00 20.00     0.079 A 
HETATM    3  C1  UNL     1     -36.166  13.746  -4.627  1.00 20.00     0.206 A 
HETATM    4  O9  UNL     1     -35.030  13.055  -4.085  1.00 20.00    -0.375 OA
HETATM    5  C3  UNL     1     -33.930  14.869  -5.317  1.00 20.00     0.048 C 
ENDBRANCH   1   2
BRANCH   1   6
HETATM    6  C7  UNL     1     -33.600  16.141  -2.874  1.00 20.00     0.007 C 
BRANCH   6   7
HETATM    7  C8  UNL     1     -33.815  17.421  -2.047  1.00 20.00    -0.023 C 
HETATM    8  C4  UNL     1     -32.474  17.916  -1.499  1.00 20.00     0.009 C 
HETATM    9  C5  UNL     1     -34.797  17.214  -0.893  1.00 20.00     0.009 C 
ENDBRANCH   6   7
ENDBRANCH   1   6
TORSDOF 3
ENDMDL
MODEL 4
REMARK VINA RESULT:      -4.0     17.695     18.874
REMARK  3 active torsions:
REMARK  status: ('A' for Active; 'I' for Inactive)
REMARK    1  A    between atoms: C2_2  and  C6_6 
REMARK    2  A    between atoms: C6_6  and  C7_7 
REMARK    3  A    between atoms: C7_7  and  C8_8 
ROOT
HETATM    1  C6  UNL     1     -23.043  17.275  10.381  1.00 20.00     0.040 C 
ENDROOT
BRANCH   1   2
HETATM    2  C2  UNL     1     -22.953  18.155   9.143  1.00 20.00     0.079 A 
HETATM    3  C1  UNL     1     -21.981  17.797   8.044  1.00 20.00     0.206 A 
HETATM    4  O9  UNL     1     -21.694  18.828   9.001  1.00 20.00    -0.375 OA
HETATM    5  C3  UNL     1     -24.135  19.015   8.829  1.00 20.00     0.048 C 
ENDBRANCH   1   2
BRANCH   1   6
HETATM    6  C7  UNL     1     -23.388  18.097  11.625  1.00 20.00     0.007 C 
BRANCH   6   7
HETATM    7  C8  UNL     1     -24.673  17.630  12.332  1.00 20.00    -0.023 C 
HETATM    8  C4  UNL     1     -25.063  16.237  11.834  1.00 20.00     0.009 C 
HETATM    9  C5  UNL     1     -25.840  18.597  12.122  1.00 20.00     0.009 C 
ENDBRANCH   6   7
ENDBRANCH   1   6
TORSDOF 3
ENDMDL
MODEL 5
REMARK VINA RESULT:      -3.9     10.947     12.007
REMARK  3 active torsions:
REMARK  status: ('A' for Active; 'I' for Inactive)
REMARK    1  A    between atoms: C2_2  and  C6_6 
REMARK    2  A    between atoms: C6_6  and  C7_7 
REMARK    3  A    between atoms: C7_7  and  C8_8 
ROOT
HETATM    1  C6  UNL     1     -33.487   6.255   2.674  1.00 20.00     0.040 C 
ENDROOT
BRANCH   1   2
HETATM    2  C2  UNL     1     -32.508   7.376   2.362  1.00 20.00     0.079 A 
HETATM    3  C1  UNL     1     -32.850   8.388   1.295  1.00 20.00     0.206 A 
HETATM    4  O9  UNL     1     -31.943   7.303   1.045  1.00 20.00    -0.375 OA
HETATM    5  C3  UNL     1     -31.517   7.732   3.423  1.00 20.00     0.048 C 
ENDBRANCH   1   2
BRANCH   1   6
HETATM    6  C7  UNL     1     -34.197   6.490   4.010  1.00 20.00     0.007 C 
BRANCH   6   7
HETATM    7  C8  UNL     1     -34.851   5.222   4.588  1.00 20.00    -0.023 C 
HETATM    8  C4  UNL     1     -34.748   5.234   6.114  1.00 20.00     0.009 C 
HETATM    9  C5  UNL     1     -34.225   3.939   4.039  1.00 20.00     0.009 C 
ENDBRANCH   6   7
ENDBRANCH   1   6
TORSDOF 3
ENDMDL
MODEL 6
REMARK VINA RESULT:      -3.8     10.314     11.277
REMARK  3 active torsions:
REMARK  status: ('A' for Active; 'I' for Inactive)
REMARK    1  A    between atoms: C2_2  and  C6_6 
REMARK    2  A    between atoms: C6_6  and  C7_7 
REMARK    3  A    between atoms: C7_7  and  C8_8 
ROOT
HETATM    1  C6  UNL     1     -33.239   5.942   2.750  1.00 20.00     0.040 C 
ENDROOT
BRANCH   1   2
HETATM    2  C2  UNL     1     -33.987   5.883   4.074  1.00 20.00     0.079 A 
HETATM    3  C1  UNL     1     -34.595   4.578   4.528  1.00 20.00     0.206 A 
HETATM    4  O9  UNL     1     -35.390   5.617   3.935  1.00 20.00    -0.375 OA
HETATM    5  C3  UNL     1     -33.672   6.939   5.084  1.00 20.00     0.048 C 
ENDBRANCH   1   2
BRANCH   1   6
HETATM    6  C7  UNL     1     -32.557   7.298   2.556  1.00 20.00     0.007 C 
BRANCH   6   7
HETATM    7  C8  UNL     1     -32.896   7.968   1.212  1.00 20.00    -0.023 C 
HETATM    8  C4  UNL     1     -31.773   7.709   0.205  1.00 20.00     0.009 C 
HETATM    9  C5  UNL     1     -33.126   9.473   1.350  1.00 20.00     0.009 C 
ENDBRANCH   6   7
ENDBRANCH   1   6
TORSDOF 3
ENDMDL
MODEL 7
REMARK VINA RESULT:      -3.7     18.080     19.003
REMARK  3 active torsions:
REMARK  status: ('A' for Active; 'I' for Inactive)
REMARK    1  A    between atoms: C2_2  and  C6_6 
REMARK    2  A    between atoms: C6_6  and  C7_7 
REMARK    3  A    between atoms: C7_7  and  C8_8 
ROOT
HETATM    1  C6  UNL     1     -24.320  17.134  10.504  1.00 20.00     0.040 C 
ENDROOT
BRANCH   1   2
HETATM    2  C2  UNL     1     -22.894  17.665  10.509  1.00 20.00     0.079 A 
HETATM    3  C1  UNL     1     -22.412  18.512   9.356  1.00 20.00     0.206 A 
HETATM    4  O9  UNL     1     -22.070  17.122   9.467  1.00 20.00    -0.375 OA
HETATM    5  C3  UNL     1     -22.206  17.763  11.832  1.00 20.00     0.048 C 
ENDBRANCH   1   2
BRANCH   1   6
HETATM    6  C7  UNL     1     -24.949  17.214  11.897  1.00 20.00     0.007 C 
BRANCH   6   7
HETATM    7  C8  UNL     1     -25.977  18.350  12.041  1.00 20.00    -0.023 C 
HETATM    8  C4  UNL     1     -27.361  17.765  12.332  1.00 20.00     0.009 C 
HETATM    9  C5  UNL     1     -26.045  19.238  10.798  1.00 20.00     0.009 C 
ENDBRANCH   6   7
ENDBRANCH   1   6
TORSDOF 3
ENDMDL
MODEL 8
REMARK VINA RESULT:      -3.7      2.814      5.011
REMARK  3 active torsions:
REMARK  status: ('A' for Active; 'I' for Inactive)
REMARK    1  A    between atoms: C2_2  and  C6_6 
REMARK    2  A    between atoms: C6_6  and  C7_7 
REMARK    3  A    between atoms: C7_7  and  C8_8 
ROOT
HETATM    1  C6  UNL     1     -33.193  16.539  -2.821  1.00 20.00     0.040 C 
ENDROOT
BRANCH   1   2
HETATM    2  C2  UNL     1     -33.182  17.675  -1.810  1.00 20.00     0.079 A 
HETATM    3  C1  UNL     1     -32.439  18.950  -2.131  1.00 20.00     0.206 A 
HETATM    4  O9  UNL     1     -31.885  17.950  -1.262  1.00 20.00    -0.375 OA
HETATM    5  C3  UNL     1     -34.281  17.699  -0.797  1.00 20.00     0.048 C 
ENDBRANCH   1   2
BRANCH   1   6
HETATM    6  C7  UNL     1     -34.475  15.710  -2.715  1.00 20.00     0.007 C 
BRANCH   6   7
HETATM    7  C8  UNL     1     -34.485  14.474  -3.633  1.00 20.00    -0.023 C 
HETATM    8  C4  UNL     1     -33.348  14.576  -4.652  1.00 20.00     0.009 C 
HETATM    9  C5  UNL     1     -35.817  14.299  -4.362  1.00 20.00     0.009 C 
ENDBRANCH   6   7
ENDBRANCH   1   6
TORSDOF 3
ENDMDL
MODEL 9
REMARK VINA RESULT:      -3.6      1.849      2.416
REMARK  3 active torsions:
REMARK  status: ('A' for Active; 'I' for Inactive)
REMARK    1  A    between atoms: C2_2  and  C6_6 
REMARK    2  A    between atoms: C6_6  and  C7_7 
REMARK    3  A    between atoms: C7_7  and  C8_8 
ROOT
HETATM    1  C6  UNL     1     -34.573  16.305  -4.440  1.00 20.00     0.040 C 
ENDROOT
BRANCH   1   2
HETATM    2  C2  UNL     1     -33.987  15.115  -5.184  1.00 20.00     0.079 A 
HETATM    3  C1  UNL     1     -34.093  15.051  -6.689  1.00 20.00     0.206 A 
HETATM    4  O9  UNL     1     -34.970  14.298  -5.837  1.00 20.00    -0.375 OA
HETATM    5  C3  UNL     1     -32.921  14.331  -4.488  1.00 20.00     0.048 C 
ENDBRANCH   1   2
BRANCH   1   6
HETATM    6  C7  UNL     1     -35.242  15.872  -3.134  1.00 20.00     0.007 C 
BRANCH   6   7
HETATM    7  C8  UNL     1     -34.461  16.293  -1.876  1.00 20.00    -0.023 C 
HETATM    8  C4  UNL     1     -35.408  16.964  -0.878  1.00 20.00     0.009 C 
HETATM    9  C5  UNL     1     -33.300  17.235  -2.197  1.00 20.00     0.009 C 
ENDBRANCH   6   7
ENDBRANCH   1   6
TORSDOF 3
ENDMDL
