MODEL 1
REMARK VINA RESULT:      -4.3      0.000      0.000
REMARK  3 active torsions:
REMARK  status: ('A' for Active; 'I' for Inactive)
REMARK    1  A    between atoms: C2_2  and  C7_7 
REMARK    2  A    between atoms: C5_5  and  C7_7 
REMARK    3  A    between atoms: C6_6  and  C7_7 
ROOT
HETATM    1  C7  UNL     1     -34.050   6.547   3.922  1.00 20.00     0.016 C 
ENDROOT
BRANCH   1   2
HETATM    2  C2  UNL     1     -32.854   6.409   2.977  1.00 20.00     0.149 A 
HETATM    3  C1  UNL     1     -32.550   7.460   1.945  1.00 20.00     0.200 A 
HETATM    4  O8  UNL     1     -31.819   7.377   3.179  1.00 20.00    -0.381 OA
ENDBRANCH   1   2
BRANCH   1   5
HETATM    5  C5  UNL     1     -33.610   6.985   5.335  1.00 20.00     0.002 C 
HETATM    6  C3  UNL     1     -34.364   6.289   6.459  1.00 20.00     0.005 C 
ENDBRANCH   1   5
BRANCH   1   7
HETATM    7  C6  UNL     1     -34.846   5.230   4.027  1.00 20.00     0.002 C 
HETATM    8  C4  UNL     1     -34.047   3.994   3.637  1.00 20.00     0.005 C 
ENDBRANCH   1   7
TORSDOF 3
ENDMDL
MODEL 2
REMARK VINA RESULT:      -3.6      1.603      3.190
REMARK  3 active torsions:
REMARK  status: ('A' for Active; 'I' for Inactive)
REMARK    1  A    between atoms: C2_2  and  C7_7 
REMARK    2  A    between atoms: C5_5  and  C7_7 
REMARK    3  A    between atoms: C6_6  and  C7_7 
ROOT
HETATM    1  C7  UNL     1     -33.136   6.132   3.664  1.00 20.00     0.016 C 
ENDROOT
BRANCH   1   2
HETATM    2  C2  UNL     1     -34.273   6.524   4.611  1.00 20.00     0.149 A 
HETATM    3  C1  UNL     1     -34.620   5.678   5.804  1.00 20.00     0.200 A 
HETATM    4  O8  UNL     1     -33.851   6.885   5.931  1.00 20.00    -0.381 OA
ENDBRANCH   1   2
BRANCH   1   5
HETATM    5  C5  UNL     1     -32.332   7.365   3.201  1.00 20.00     0.002 C 
HETATM    6  C3  UNL     1     -32.454   7.658   1.713  1.00 20.00     0.005 C 
ENDBRANCH   1   5
BRANCH   1   7
HETATM    7  C6  UNL     1     -33.664   5.380   2.424  1.00 20.00     0.002 C 
HETATM    8  C4  UNL     1     -33.051   4.000   2.233  1.00 20.00     0.005 C 
ENDBRANCH   1   7
TORSDOF 3
ENDMDL
MODEL 3
REMARK VINA RESULT:      -3.6     11.643     12.001
REMARK  3 active torsions:
REMARK  status: ('A' for Active; 'I' for Inactive)
REMARK    1  A    between atoms: C2_2  and  C7_7 
REMARK    2  A    between atoms: C5_5  and  C7_7 
REMARK    3  A    between atoms: C6_6  and  C7_7 
ROOT
HETATM    1  C7  UNL     1     -34.792  15.158  -3.094  1.00 20.00     0.016 C 
ENDROOT
BRANCH   1   2
HETATM    2  C2  UNL     1     -35.862  15.056  -4.185  1.00 20.00     0.149 A 
HETATM    3  C1  UNL     1     -36.313  13.722  -4.713  1.00 20.00     0.200 A 
HETATM    4  O8  UNL     1     -37.092  14.461  -3.759  1.00 20.00    -0.381 OA
ENDBRANCH   1   2
BRANCH   1   5
HETATM    5  C5  UNL     1     -35.199  16.159  -1.993  1.00 20.00     0.002 C 
HETATM    6  C3  UNL     1     -34.109  17.160  -1.637  1.00 20.00     0.005 C 
ENDBRANCH   1   5
BRANCH   1   7
HETATM    7  C6  UNL     1     -33.426  15.577  -3.677  1.00 20.00     0.002 C 
HETATM    8  C4  UNL     1     -32.716  14.468  -4.441  1.00 20.00     0.005 C 
ENDBRANCH   1   7
TORSDOF 3
ENDMDL
MODEL 4
REMARK VINA RESULT:      -3.5     11.491     12.491
REMARK  3 active torsions:
REMARK  status: ('A' for Active; 'I' for Inactive)
REMARK    1  A    between atoms: C2_2  and  C7_7 
REMARK    2  A    between atoms: C5_5  and  C7_7 
REMARK    3  A    between atoms: C6_6  and  C7_7 
ROOT
HETATM    1  C7  UNL     1     -34.677  15.212  -4.290  1.00 20.00     0.016 C 
ENDROOT
BRANCH   1   2
HETATM    2  C2  UNL     1     -35.703  14.155  -3.870  1.00 20.00     0.149 A 
HETATM    3  C1  UNL     1     -37.101  14.165  -4.422  1.00 20.00     0.200 A 
HETATM    4  O8  UNL     1     -36.099  13.262  -4.916  1.00 20.00    -0.381 OA
ENDBRANCH   1   2
BRANCH   1   5
HETATM    5  C5  UNL     1     -33.642  14.636  -5.278  1.00 20.00     0.002 C 
HETATM    6  C3  UNL     1     -33.866  15.060  -6.723  1.00 20.00     0.005 C 
ENDBRANCH   1   5
BRANCH   1   7
HETATM    7  C6  UNL     1     -33.937  15.799  -3.070  1.00 20.00     0.002 C 
HETATM    8  C4  UNL     1     -34.856  16.197  -1.924  1.00 20.00     0.005 C 
ENDBRANCH   1   7
TORSDOF 3
ENDMDL
MODEL 5
REMARK VINA RESULT:      -3.3     11.313     12.351
REMARK  3 active torsions:
REMARK  status: ('A' for Active; 'I' for Inactive)
REMARK    1  A    between atoms: C2_2  and  C7_7 
REMARK    2  A    between atoms: C5_5  and  C7_7 
REMARK    3  A    between atoms: C6_6  and  C7_7 
ROOT
HETATM    1  C7  UNL     1     -34.096  14.687  -4.556  1.00 20.00     0.016 C 
ENDROOT
BRANCH   1   2
HETATM    2  C2  UNL     1     -35.314  14.009  -3.923  1.00 20.00     0.149 A 
HETATM    3  C1  UNL     1     -36.597  13.837  -4.688  1.00 20.00     0.200 A 
HETATM    4  O8  UNL     1     -35.670  12.754  -4.512  1.00 20.00    -0.381 OA
ENDBRANCH   1   2
BRANCH   1   5
HETATM    5  C5  UNL     1     -33.370  15.604  -3.549  1.00 20.00     0.002 C 
HETATM    6  C3  UNL     1     -34.249  16.073  -2.398  1.00 20.00     0.005 C 
ENDBRANCH   1   5
BRANCH   1   7
HETATM    7  C6  UNL     1     -34.489  15.515  -5.797  1.00 20.00     0.002 C 
HETATM    8  C4  UNL     1     -33.840  15.036  -7.089  1.00 20.00     0.005 C 
ENDBRANCH   1   7
TORSDOF 3
ENDMDL
MODEL 6
REMARK VINA RESULT:      -3.3     11.862     12.659
REMARK  3 active torsions:
REMARK  status: ('A' for Active; 'I' for Inactive)
REMARK    1  A    between atoms: C2_2  and  C7_7 
REMARK    2  A    between atoms: C5_5  and  C7_7 
REMARK    3  A    between atoms: C6_6  and  C7_7 
ROOT
HETATM    1  C7  UNL     1     -34.867  14.430  -4.496  1.00 20.00     0.016 C 
ENDROOT
BRANCH   1   2
HETATM    2  C2  UNL     1     -34.799  15.353  -5.716  1.00 20.00     0.149 A 
HETATM    3  C1  UNL     1     -33.860  15.069  -6.856  1.00 20.00     0.200 A 
HETATM    4  O8  UNL     1     -35.262  14.763  -6.935  1.00 20.00    -0.381 OA
ENDBRANCH   1   2
BRANCH   1   5
HETATM    5  C5  UNL     1     -36.203  13.660  -4.442  1.00 20.00     0.002 C 
HETATM    6  C3  UNL     1     -37.424  14.553  -4.276  1.00 20.00     0.005 C 
ENDBRANCH   1   5
BRANCH   1   7
HETATM    7  C6  UNL     1     -34.685  15.215  -3.180  1.00 20.00     0.002 C 
HETATM    8  C4  UNL     1     -33.418  16.059  -3.136  1.00 20.00     0.005 C 
ENDBRANCH   1   7
TORSDOF 3
ENDMDL
MODEL 7
REMARK VINA RESULT:      -3.3     11.699     12.170
REMARK  3 active torsions:
REMARK  status: ('A' for Active; 'I' for Inactive)
REMARK    1  A    between atoms: C2_2  and  C7_7 
REMARK    2  A    between atoms: C5_5  and  C7_7 
REMARK    3  A    between atoms: C6_6  and  C7_7 
ROOT
HETATM    1  C7  UNL     1     -34.930  15.186  -3.242  1.00 20.00     0.016 C 
ENDROOT
BRANCH   1   2
HETATM    2  C2  UNL     1     -33.764  15.401  -4.212  1.00 20.00     0.149 A 
HETATM    3  C1  UNL     1     -32.734  14.331  -4.442  1.00 20.00     0.200 A 
HETATM    4  O8  UNL     1     -33.798  14.570  -5.377  1.00 20.00    -0.381 OA
ENDBRANCH   1   2
BRANCH   1   5
HETATM    5  C5  UNL     1     -36.291  15.398  -3.936  1.00 20.00     0.002 C 
HETATM    6  C3  UNL     1     -36.954  14.108  -4.400  1.00 20.00     0.005 C 
ENDBRANCH   1   5
BRANCH   1   7
HETATM    7  C6  UNL     1     -34.834  16.126  -2.023  1.00 20.00     0.002 C 
HETATM    8  C4  UNL     1     -33.620  17.046  -2.047  1.00 20.00     0.005 C 
ENDBRANCH   1   7
TORSDOF 3
ENDMDL
MODEL 8
REMARK VINA RESULT:      -3.3     11.613     12.333
REMARK  3 active torsions:
REMARK  status: ('A' for Active; 'I' for Inactive)
REMARK    1  A    between atoms: C2_2  and  C7_7 
REMARK    2  A    between atoms: C5_5  and  C7_7 
REMARK    3  A    between atoms: C6_6  and  C7_7 
ROOT
HETATM    1  C7  UNL     1     -33.776  15.968  -2.660  1.00 20.00     0.016 C 
ENDROOT
BRANCH   1   2
HETATM    2  C2  UNL     1     -33.815  15.411  -4.086  1.00 20.00     0.149 A 
HETATM    3  C1  UNL     1     -32.851  14.348  -4.535  1.00 20.00     0.200 A 
HETATM    4  O8  UNL     1     -34.207  14.037  -4.178  1.00 20.00    -0.381 OA
ENDBRANCH   1   2
BRANCH   1   5
HETATM    5  C5  UNL     1     -35.193  16.107  -2.066  1.00 20.00     0.002 C 
HETATM    6  C3  UNL     1     -35.250  16.941  -0.795  1.00 20.00     0.005 C 
ENDBRANCH   1   5
BRANCH   1   7
HETATM    7  C6  UNL     1     -33.070  17.338  -2.605  1.00 20.00     0.002 C 
HETATM    8  C4  UNL     1     -33.250  18.176  -3.864  1.00 20.00     0.005 C 
ENDBRANCH   1   7
TORSDOF 3
ENDMDL
MODEL 9
REMARK VINA RESULT:      -3.3     12.059     12.910
REMARK  3 active torsions:
REMARK  status: ('A' for Active; 'I' for Inactive)
REMARK    1  A    between atoms: C2_2  and  C7_7 
REMARK    2  A    between atoms: C5_5  and  C7_7 
REMARK    3  A    between atoms: C6_6  and  C7_7 
ROOT
HETATM    1  C7  UNL     1     -32.902  17.891  -0.886  1.00 20.00     0.016 C 
ENDROOT
BRANCH   1   2
HETATM    2  C2  UNL     1     -31.805  18.814  -0.348  1.00 20.00     0.149 A 
HETATM    3  C1  UNL     1     -30.911  18.387   0.782  1.00 20.00     0.200 A 
HETATM    4  O8  UNL     1     -30.471  18.354  -0.585  1.00 20.00    -0.381 OA
ENDBRANCH   1   2
BRANCH   1   5
HETATM    5  C5  UNL     1     -32.801  17.721  -2.416  1.00 20.00     0.002 C 
HETATM    6  C3  UNL     1     -33.295  16.373  -2.920  1.00 20.00     0.005 C 
ENDBRANCH   1   5
BRANCH   1   7
HETATM    7  C6  UNL     1     -34.309  18.414  -0.529  1.00 20.00     0.002 C 
HETATM    8  C4  UNL     1     -35.195  17.383   0.158  1.00 20.00     0.005 C 
ENDBRANCH   1   7
TORSDOF 3
ENDMDL
