MODEL 1
REMARK VINA RESULT:      -4.5      0.000      0.000
REMARK  3 active torsions:
REMARK  status: ('A' for Active; 'I' for Inactive)
REMARK    1  A    between atoms: C3_3  and  C4_4 
REMARK    2  A    between atoms: C4_4  and  C6_6 
REMARK    3  A    between atoms: C5_5  and  C6_6 
ROOT
HETATM    1  C2  UNL     1     -33.272   4.505   2.592  1.00 20.00     0.011 C 
HETATM    2  C6  UNL     1     -34.181   5.485   3.345  1.00 20.00    -0.005 C 
ENDROOT
BRANCH   2   3
HETATM    3  C4  UNL     1     -33.403   6.777   3.664  1.00 20.00     0.005 C 
BRANCH   3   4
HETATM    4  C3  UNL     1     -32.221   7.030   2.726  1.00 20.00    -0.004 C 
HETATM    5  C1  UNL     1     -32.626   7.909   1.551  1.00 20.00     0.005 C 
ENDBRANCH   3   4
ENDBRANCH   2   3
BRANCH   2   6
HETATM    6  C5  UNL     1     -34.837   4.814   4.562  1.00 20.00     0.119 C 
HETATM    7 CL7  UNL     1     -34.591   5.701   6.085  1.00 20.00    -0.130 Cl
ENDBRANCH   2   6
TORSDOF 3
ENDMDL
MODEL 2
REMARK VINA RESULT:      -4.3      1.970      3.301
REMARK  3 active torsions:
REMARK  status: ('A' for Active; 'I' for Inactive)
REMARK    1  A    between atoms: C3_3  and  C4_4 
REMARK    2  A    between atoms: C4_4  and  C6_6 
REMARK    3  A    between atoms: C5_5  and  C6_6 
ROOT
HETATM    1  C2  UNL     1     -33.261   4.313   2.272  1.00 20.00     0.011 C 
HETATM    2  C6  UNL     1     -33.400   5.449   3.293  1.00 20.00    -0.005 C 
ENDROOT
BRANCH   2   3
HETATM    3  C4  UNL     1     -34.811   5.423   3.914  1.00 20.00     0.005 C 
BRANCH   3   4
HETATM    4  C3  UNL     1     -34.808   5.278   5.437  1.00 20.00    -0.004 C 
HETATM    5  C1  UNL     1     -34.198   6.500   6.108  1.00 20.00     0.005 C 
ENDBRANCH   3   4
ENDBRANCH   2   3
BRANCH   2   6
HETATM    6  C5  UNL     1     -32.993   6.799   2.682  1.00 20.00     0.119 C 
HETATM    7 CL7  UNL     1     -31.689   7.622   3.573  1.00 20.00    -0.130 Cl
ENDBRANCH   2   6
TORSDOF 3
ENDMDL
MODEL 3
REMARK VINA RESULT:      -4.3      2.316      3.767
REMARK  3 active torsions:
REMARK  status: ('A' for Active; 'I' for Inactive)
REMARK    1  A    between atoms: C3_3  and  C4_4 
REMARK    2  A    between atoms: C4_4  and  C6_6 
REMARK    3  A    between atoms: C5_5  and  C6_6 
ROOT
HETATM    1  C2  UNL     1     -33.232   5.102   2.272  1.00 20.00     0.011 C 
HETATM    2  C6  UNL     1     -32.920   6.144   3.352  1.00 20.00    -0.005 C 
ENDROOT
BRANCH   2   3
HETATM    3  C4  UNL     1     -34.221   6.556   4.071  1.00 20.00     0.005 C 
BRANCH   3   4
HETATM    4  C3  UNL     1     -35.026   5.370   4.608  1.00 20.00    -0.004 C 
HETATM    5  C1  UNL     1     -34.768   5.153   6.093  1.00 20.00     0.005 C 
ENDBRANCH   3   4
ENDBRANCH   2   3
BRANCH   2   6
HETATM    6  C5  UNL     1     -32.106   7.315   2.778  1.00 20.00     0.119 C 
HETATM    7 CL7  UNL     1     -32.716   7.909   1.215  1.00 20.00    -0.130 Cl
ENDBRANCH   2   6
TORSDOF 3
ENDMDL
MODEL 4
REMARK VINA RESULT:      -4.2      1.096      1.285
REMARK  3 active torsions:
REMARK  status: ('A' for Active; 'I' for Inactive)
REMARK    1  A    between atoms: C3_3  and  C4_4 
REMARK    2  A    between atoms: C4_4  and  C6_6 
REMARK    3  A    between atoms: C5_5  and  C6_6 
ROOT
HETATM    1  C2  UNL     1     -34.049   3.885   3.899  1.00 20.00     0.011 C 
HETATM    2  C6  UNL     1     -34.826   5.142   4.308  1.00 20.00    -0.005 C 
ENDROOT
BRANCH   2   3
HETATM    3  C4  UNL     1     -34.318   6.355   3.502  1.00 20.00     0.005 C 
BRANCH   3   4
HETATM    4  C3  UNL     1     -33.091   6.048   2.642  1.00 20.00    -0.004 C 
HETATM    5  C1  UNL     1     -32.310   7.314   2.319  1.00 20.00     0.005 C 
ENDBRANCH   3   4
ENDBRANCH   2   3
BRANCH   2   6
HETATM    6  C5  UNL     1     -34.812   5.334   5.833  1.00 20.00     0.119 C 
HETATM    7 CL7  UNL     1     -34.060   6.861   6.353  1.00 20.00    -0.130 Cl
ENDBRANCH   2   6
TORSDOF 3
ENDMDL
MODEL 5
REMARK VINA RESULT:      -3.7      1.000      1.561
REMARK  3 active torsions:
REMARK  status: ('A' for Active; 'I' for Inactive)
REMARK    1  A    between atoms: C3_3  and  C4_4 
REMARK    2  A    between atoms: C4_4  and  C6_6 
REMARK    3  A    between atoms: C5_5  and  C6_6 
ROOT
HETATM    1  C2  UNL     1     -33.271   7.244   4.710  1.00 20.00     0.011 C 
HETATM    2  C6  UNL     1     -33.432   5.958   3.890  1.00 20.00    -0.005 C 
ENDROOT
BRANCH   2   3
HETATM    3  C4  UNL     1     -33.192   6.260   2.396  1.00 20.00     0.005 C 
BRANCH   3   4
HETATM    4  C3  UNL     1     -32.298   7.477   2.153  1.00 20.00    -0.004 C 
HETATM    5  C1  UNL     1     -32.817   8.324   1.000  1.00 20.00     0.005 C 
ENDBRANCH   3   4
ENDBRANCH   2   3
BRANCH   2   6
HETATM    6  C5  UNL     1     -34.769   5.265   4.197  1.00 20.00     0.119 C 
HETATM    7 CL7  UNL     1     -35.071   5.037   5.937  1.00 20.00    -0.130 Cl
ENDBRANCH   2   6
TORSDOF 3
ENDMDL
MODEL 6
REMARK VINA RESULT:      -3.6      1.741      3.160
REMARK  3 active torsions:
REMARK  status: ('A' for Active; 'I' for Inactive)
REMARK    1  A    between atoms: C3_3  and  C4_4 
REMARK    2  A    between atoms: C4_4  and  C6_6 
REMARK    3  A    between atoms: C5_5  and  C6_6 
ROOT
HETATM    1  C2  UNL     1     -32.035   7.205   3.195  1.00 20.00     0.011 C 
HETATM    2  C6  UNL     1     -33.319   6.434   2.866  1.00 20.00    -0.005 C 
ENDROOT
BRANCH   2   3
HETATM    3  C4  UNL     1     -34.375   6.690   3.960  1.00 20.00     0.005 C 
BRANCH   3   4
HETATM    4  C3  UNL     1     -33.791   6.759   5.372  1.00 20.00    -0.004 C 
HETATM    5  C1  UNL     1     -34.513   5.808   6.316  1.00 20.00     0.005 C 
ENDBRANCH   3   4
ENDBRANCH   2   3
BRANCH   2   6
HETATM    6  C5  UNL     1     -33.024   4.951   2.592  1.00 20.00     0.119 C 
HETATM    7 CL7  UNL     1     -34.066   3.836   3.509  1.00 20.00    -0.130 Cl
ENDBRANCH   2   6
TORSDOF 3
ENDMDL
MODEL 7
REMARK VINA RESULT:      -3.6      2.430      3.350
REMARK  3 active torsions:
REMARK  status: ('A' for Active; 'I' for Inactive)
REMARK    1  A    between atoms: C3_3  and  C4_4 
REMARK    2  A    between atoms: C4_4  and  C6_6 
REMARK    3  A    between atoms: C5_5  and  C6_6 
ROOT
HETATM    1  C2  UNL     1     -35.728   5.668   3.768  1.00 20.00     0.011 C 
HETATM    2  C6  UNL     1     -34.643   4.611   4.004  1.00 20.00    -0.005 C 
ENDROOT
BRANCH   2   3
HETATM    3  C4  UNL     1     -34.158   4.680   5.467  1.00 20.00     0.005 C 
BRANCH   3   4
HETATM    4  C3  UNL     1     -34.624   5.935   6.208  1.00 20.00    -0.004 C 
HETATM    5  C1  UNL     1     -33.615   7.066   6.070  1.00 20.00     0.005 C 
ENDBRANCH   3   4
ENDBRANCH   2   3
BRANCH   2   6
HETATM    6  C5  UNL     1     -33.527   4.713   2.953  1.00 20.00     0.119 C 
HETATM    7 CL7  UNL     1     -32.927   6.372   2.708  1.00 20.00    -0.130 Cl
ENDBRANCH   2   6
TORSDOF 3
ENDMDL
MODEL 8
REMARK VINA RESULT:      -3.5      2.377      3.146
REMARK  3 active torsions:
REMARK  status: ('A' for Active; 'I' for Inactive)
REMARK    1  A    between atoms: C3_3  and  C4_4 
REMARK    2  A    between atoms: C4_4  and  C6_6 
REMARK    3  A    between atoms: C5_5  and  C6_6 
ROOT
HETATM    1  C2  UNL     1     -34.737   5.209   6.173  1.00 20.00     0.011 C 
HETATM    2  C6  UNL     1     -34.599   6.292   5.096  1.00 20.00    -0.005 C 
ENDROOT
BRANCH   2   3
HETATM    3  C4  UNL     1     -34.774   5.663   3.699  1.00 20.00     0.005 C 
BRANCH   3   4
HETATM    4  C3  UNL     1     -34.100   4.297   3.553  1.00 20.00    -0.004 C 
HETATM    5  C1  UNL     1     -33.105   4.291   2.402  1.00 20.00     0.005 C 
ENDBRANCH   3   4
ENDBRANCH   2   3
BRANCH   2   6
HETATM    6  C5  UNL     1     -33.303   7.097   5.279  1.00 20.00     0.119 C 
HETATM    7 CL7  UNL     1     -32.441   7.419   3.755  1.00 20.00    -0.130 Cl
ENDBRANCH   2   6
TORSDOF 3
ENDMDL
MODEL 9
REMARK VINA RESULT:      -3.5      1.849      2.283
REMARK  3 active torsions:
REMARK  status: ('A' for Active; 'I' for Inactive)
REMARK    1  A    between atoms: C3_3  and  C4_4 
REMARK    2  A    between atoms: C4_4  and  C6_6 
REMARK    3  A    between atoms: C5_5  and  C6_6 
ROOT
HETATM    1  C2  UNL     1     -34.724   5.734   5.970  1.00 20.00     0.011 C 
HETATM    2  C6  UNL     1     -33.859   5.613   4.709  1.00 20.00    -0.005 C 
ENDROOT
BRANCH   2   3
HETATM    3  C4  UNL     1     -33.711   6.996   4.044  1.00 20.00     0.005 C 
BRANCH   3   4
HETATM    4  C3  UNL     1     -32.354   7.210   3.370  1.00 20.00    -0.004 C 
HETATM    5  C1  UNL     1     -32.516   7.577   1.902  1.00 20.00     0.005 C 
ENDBRANCH   3   4
ENDBRANCH   2   3
BRANCH   2   6
HETATM    6  C5  UNL     1     -34.381   4.506   3.780  1.00 20.00     0.119 C 
HETATM    7 CL7  UNL     1     -33.304   4.162   2.404  1.00 20.00    -0.130 Cl
ENDBRANCH   2   6
TORSDOF 3
ENDMDL
