MODEL 1
REMARK VINA RESULT:      -3.9      0.000      0.000
REMARK  3 active torsions:
REMARK  status: ('A' for Active; 'I' for Inactive)
REMARK    1  A    between atoms: C1_1  and  C4_4 
REMARK    2  A    between atoms: C1_1  and  O6_6 
REMARK    3  A    between atoms: C5_5  and  O6_6 
ROOT
HETATM    1  C1  UNL     1     -33.198   6.307   3.142  1.00 20.00     0.112 C 
HETATM    2  S7  UNL     1     -33.248   4.792   2.440  1.00 20.00    -0.058 SA
ENDROOT
BRANCH   1   3
HETATM    3  C4  UNL     1     -32.217   7.371   2.732  1.00 20.00     0.072 C 
HETATM    4  C2  UNL     1     -32.568   7.964   1.377  1.00 20.00     0.013 C 
ENDBRANCH   1   3
BRANCH   1   5
HETATM    5  O6  UNL     1     -34.122   6.545   4.089  1.00 20.00    -0.344 OA
BRANCH   5   6
HETATM    6  C5  UNL     1     -35.010   5.516   4.559  1.00 20.00     0.172 C 
HETATM    7  C3  UNL     1     -34.735   5.259   6.025  1.00 20.00     0.034 C 
ENDBRANCH   5   6
ENDBRANCH   1   5
TORSDOF 3
ENDMDL
MODEL 2
REMARK VINA RESULT:      -3.7      0.591      3.689
REMARK  3 active torsions:
REMARK  status: ('A' for Active; 'I' for Inactive)
REMARK    1  A    between atoms: C1_1  and  C4_4 
REMARK    2  A    between atoms: C1_1  and  O6_6 
REMARK    3  A    between atoms: C5_5  and  O6_6 
ROOT
HETATM    1  C1  UNL     1     -34.006   5.633   3.589  1.00 20.00     0.112 C 
HETATM    2  S7  UNL     1     -33.340   4.498   2.560  1.00 20.00    -0.058 SA
ENDROOT
BRANCH   1   3
HETATM    3  C4  UNL     1     -35.155   5.330   4.513  1.00 20.00     0.072 C 
HETATM    4  C2  UNL     1     -34.727   5.378   5.971  1.00 20.00     0.013 C 
ENDBRANCH   1   3
BRANCH   1   5
HETATM    5  O6  UNL     1     -33.430   6.847   3.575  1.00 20.00    -0.344 OA
BRANCH   5   6
HETATM    6  C5  UNL     1     -32.239   7.114   2.814  1.00 20.00     0.172 C 
HETATM    7  C3  UNL     1     -32.611   7.909   1.581  1.00 20.00     0.034 C 
ENDBRANCH   5   6
ENDBRANCH   1   5
TORSDOF 3
ENDMDL
MODEL 3
REMARK VINA RESULT:      -3.3      2.022      3.964
REMARK  3 active torsions:
REMARK  status: ('A' for Active; 'I' for Inactive)
REMARK    1  A    between atoms: C1_1  and  C4_4 
REMARK    2  A    between atoms: C1_1  and  O6_6 
REMARK    3  A    between atoms: C5_5  and  O6_6 
ROOT
HETATM    1  C1  UNL     1     -33.087   6.590   3.337  1.00 20.00     0.112 C 
HETATM    2  S7  UNL     1     -33.549   6.968   4.897  1.00 20.00    -0.058 SA
ENDROOT
BRANCH   1   3
HETATM    3  C4  UNL     1     -33.395   5.269   2.686  1.00 20.00     0.072 C 
HETATM    4  C2  UNL     1     -34.175   4.354   3.617  1.00 20.00     0.013 C 
ENDBRANCH   1   3
BRANCH   1   5
HETATM    5  O6  UNL     1     -32.442   7.560   2.665  1.00 20.00    -0.344 OA
BRANCH   5   6
HETATM    6  C5  UNL     1     -32.460   7.628   1.229  1.00 20.00     0.172 C 
HETATM    7  C3  UNL     1     -32.912   9.010   0.807  1.00 20.00     0.034 C 
ENDBRANCH   5   6
ENDBRANCH   1   5
TORSDOF 3
ENDMDL
MODEL 4
REMARK VINA RESULT:      -3.2      1.724      2.502
REMARK  3 active torsions:
REMARK  status: ('A' for Active; 'I' for Inactive)
REMARK    1  A    between atoms: C1_1  and  C4_4 
REMARK    2  A    between atoms: C1_1  and  O6_6 
REMARK    3  A    between atoms: C5_5  and  O6_6 
ROOT
HETATM    1  C1  UNL     1     -33.295   6.287   3.022  1.00 20.00     0.112 C 
HETATM    2  S7  UNL     1     -32.242   7.420   2.392  1.00 20.00    -0.058 SA
ENDROOT
BRANCH   1   3
HETATM    3  C4  UNL     1     -33.322   4.851   2.573  1.00 20.00     0.072 C 
HETATM    4  C2  UNL     1     -34.070   3.970   3.561  1.00 20.00     0.013 C 
ENDBRANCH   1   3
BRANCH   1   5
HETATM    5  O6  UNL     1     -34.112   6.724   3.996  1.00 20.00    -0.344 OA
BRANCH   5   6
HETATM    6  C5  UNL     1     -33.649   6.924   5.342  1.00 20.00     0.172 C 
HETATM    7  C3  UNL     1     -34.474   6.069   6.280  1.00 20.00     0.034 C 
ENDBRANCH   5   6
ENDBRANCH   1   5
TORSDOF 3
ENDMDL
MODEL 5
REMARK VINA RESULT:      -3.1     16.877     17.233
REMARK  3 active torsions:
REMARK  status: ('A' for Active; 'I' for Inactive)
REMARK    1  A    between atoms: C1_1  and  C4_4 
REMARK    2  A    between atoms: C1_1  and  O6_6 
REMARK    3  A    between atoms: C5_5  and  O6_6 
ROOT
HETATM    1  C1  UNL     1     -24.395  17.680  11.852  1.00 20.00     0.112 C 
HETATM    2  S7  UNL     1     -24.623  16.038  11.644  1.00 20.00    -0.058 SA
ENDROOT
BRANCH   1   3
HETATM    3  C4  UNL     1     -25.480  18.607  12.331  1.00 20.00     0.072 C 
HETATM    4  C2  UNL     1     -26.218  19.252  11.168  1.00 20.00     0.013 C 
ENDBRANCH   1   3
BRANCH   1   5
HETATM    5  O6  UNL     1     -23.156  18.136  11.599  1.00 20.00    -0.344 OA
BRANCH   5   6
HETATM    6  C5  UNL     1     -22.466  17.821  10.378  1.00 20.00     0.172 C 
HETATM    7  C3  UNL     1     -22.988  18.713   9.272  1.00 20.00     0.034 C 
ENDBRANCH   5   6
ENDBRANCH   1   5
TORSDOF 3
ENDMDL
MODEL 6
REMARK VINA RESULT:      -3.1     11.748     11.868
REMARK  3 active torsions:
REMARK  status: ('A' for Active; 'I' for Inactive)
REMARK    1  A    between atoms: C1_1  and  C4_4 
REMARK    2  A    between atoms: C1_1  and  O6_6 
REMARK    3  A    between atoms: C5_5  and  O6_6 
ROOT
HETATM    1  C1  UNL     1     -34.102  14.770  -4.711  1.00 20.00     0.112 C 
HETATM    2  S7  UNL     1     -34.137  15.104  -6.347  1.00 20.00    -0.058 SA
ENDROOT
BRANCH   1   3
HETATM    3  C4  UNL     1     -33.258  15.542  -3.732  1.00 20.00     0.072 C 
HETATM    4  C2  UNL     1     -34.074  16.010  -2.537  1.00 20.00     0.013 C 
ENDBRANCH   1   3
BRANCH   1   5
HETATM    5  O6  UNL     1     -34.910  13.778  -4.297  1.00 20.00    -0.344 OA
BRANCH   5   6
HETATM    6  C5  UNL     1     -36.241  13.618  -4.815  1.00 20.00     0.172 C 
HETATM    7  C3  UNL     1     -37.152  14.631  -4.156  1.00 20.00     0.034 C 
ENDBRANCH   5   6
ENDBRANCH   1   5
TORSDOF 3
ENDMDL
MODEL 7
REMARK VINA RESULT:      -3.1     16.149     16.820
REMARK  3 active torsions:
REMARK  status: ('A' for Active; 'I' for Inactive)
REMARK    1  A    between atoms: C1_1  and  C4_4 
REMARK    2  A    between atoms: C1_1  and  O6_6 
REMARK    3  A    between atoms: C5_5  and  O6_6 
ROOT
HETATM    1  C1  UNL     1     -23.262  18.362   9.845  1.00 20.00     0.112 C 
HETATM    2  S7  UNL     1     -24.493  18.948   8.880  1.00 20.00    -0.058 SA
ENDROOT
BRANCH   1   3
HETATM    3  C4  UNL     1     -21.863  18.126   9.341  1.00 20.00     0.072 C 
HETATM    4  C2  UNL     1     -21.865  17.397   8.006  1.00 20.00     0.013 C 
ENDBRANCH   1   3
BRANCH   1   5
HETATM    5  O6  UNL     1     -23.581  18.138  11.131  1.00 20.00    -0.344 OA
BRANCH   5   6
HETATM    6  C5  UNL     1     -23.371  16.860  11.755  1.00 20.00     0.172 C 
HETATM    7  C3  UNL     1     -24.558  15.967  11.460  1.00 20.00     0.034 C 
ENDBRANCH   5   6
ENDBRANCH   1   5
TORSDOF 3
ENDMDL
MODEL 8
REMARK VINA RESULT:      -3.1     11.559     12.621
REMARK  3 active torsions:
REMARK  status: ('A' for Active; 'I' for Inactive)
REMARK    1  A    between atoms: C1_1  and  C4_4 
REMARK    2  A    between atoms: C1_1  and  O6_6 
REMARK    3  A    between atoms: C5_5  and  O6_6 
ROOT
HETATM    1  C1  UNL     1     -34.830  14.623  -4.343  1.00 20.00     0.112 C 
HETATM    2  S7  UNL     1     -36.261  13.809  -4.624  1.00 20.00    -0.058 SA
ENDROOT
BRANCH   1   3
HETATM    3  C4  UNL     1     -34.535  15.349  -3.058  1.00 20.00     0.072 C 
HETATM    4  C2  UNL     1     -33.234  16.130  -3.142  1.00 20.00     0.013 C 
ENDBRANCH   1   3
BRANCH   1   5
HETATM    5  O6  UNL     1     -33.919  14.567  -5.331  1.00 20.00    -0.344 OA
BRANCH   5   6
HETATM    6  C5  UNL     1     -34.218  15.011  -6.665  1.00 20.00     0.172 C 
HETATM    7  C3  UNL     1     -34.478  16.502  -6.641  1.00 20.00     0.034 C 
ENDBRANCH   5   6
ENDBRANCH   1   5
TORSDOF 3
ENDMDL
MODEL 9
REMARK VINA RESULT:      -3.0     16.291     17.194
REMARK  3 active torsions:
REMARK  status: ('A' for Active; 'I' for Inactive)
REMARK    1  A    between atoms: C1_1  and  C4_4 
REMARK    2  A    between atoms: C1_1  and  O6_6 
REMARK    3  A    between atoms: C5_5  and  O6_6 
ROOT
HETATM    1  C1  UNL     1     -23.396  17.757  11.094  1.00 20.00     0.112 C 
HETATM    2  S7  UNL     1     -22.268  17.850  12.323  1.00 20.00    -0.058 SA
ENDROOT
BRANCH   1   3
HETATM    3  C4  UNL     1     -24.762  17.153  11.278  1.00 20.00     0.072 C 
HETATM    4  C2  UNL     1     -24.679  15.699  11.713  1.00 20.00     0.013 C 
ENDBRANCH   1   3
BRANCH   1   5
HETATM    5  O6  UNL     1     -23.027  18.290   9.917  1.00 20.00    -0.344 OA
BRANCH   5   6
HETATM    6  C5  UNL     1     -22.787  17.477   8.756  1.00 20.00     0.172 C 
HETATM    7  C3  UNL     1     -21.294  17.285   8.589  1.00 20.00     0.034 C 
ENDBRANCH   5   6
ENDBRANCH   1   5
TORSDOF 3
ENDMDL
