MODEL 1
REMARK VINA RESULT:      -4.0      0.000      0.000
REMARK  1 active torsions:
REMARK  status: ('A' for Active; 'I' for Inactive)
REMARK    1  A    between atoms: C1_1  and  C2_2 
ROOT
HETATM    1  C1  UNL     1     -34.389   5.647   5.893  1.00 20.00     0.437 C 
HETATM    2  F3  UNL     1     -35.614   5.750   6.455  1.00 20.00    -0.166 F 
HETATM    3  F4  UNL     1     -33.693   6.755   6.238  1.00 20.00    -0.166 F 
HETATM    4  F5  UNL     1     -33.771   4.589   6.467  1.00 20.00    -0.166 F 
ENDROOT
BRANCH   1   5
HETATM    5  C2  UNL     1     -34.477   5.489   4.384  1.00 20.00     0.286 C 
HETATM    6 CL6  UNL     1     -33.388   6.659   3.585  1.00 20.00    -0.074 Cl
HETATM    7 CL7  UNL     1     -33.997   3.834   3.915  1.00 20.00    -0.074 Cl
HETATM    8 CL8  UNL     1     -36.151   5.787   3.837  1.00 20.00    -0.074 Cl
ENDBRANCH   1   5
TORSDOF 1
ENDMDL
MODEL 2
REMARK VINA RESULT:      -4.0      0.017      1.780
REMARK  1 active torsions:
REMARK  status: ('A' for Active; 'I' for Inactive)
REMARK    1  A    between atoms: C1_1  and  C2_2 
ROOT
HETATM    1  C1  UNL     1     -34.389   5.633   5.886  1.00 20.00     0.437 C 
HETATM    2  F3  UNL     1     -35.614   5.747   6.447  1.00 20.00    -0.166 F 
HETATM    3  F4  UNL     1     -33.682   6.732   6.237  1.00 20.00    -0.166 F 
HETATM    4  F5  UNL     1     -33.784   4.565   6.454  1.00 20.00    -0.166 F 
ENDROOT
BRANCH   1   5
HETATM    5  C2  UNL     1     -34.478   5.486   4.376  1.00 20.00     0.286 C 
HETATM    6 CL6  UNL     1     -33.994   3.833   3.897  1.00 20.00    -0.074 Cl
HETATM    7 CL7  UNL     1     -36.154   5.781   3.832  1.00 20.00    -0.074 Cl
HETATM    8 CL8  UNL     1     -33.393   6.662   3.583  1.00 20.00    -0.074 Cl
ENDBRANCH   1   5
TORSDOF 1
ENDMDL
MODEL 3
REMARK VINA RESULT:      -4.0      0.008      1.780
REMARK  1 active torsions:
REMARK  status: ('A' for Active; 'I' for Inactive)
REMARK    1  A    between atoms: C1_1  and  C2_2 
ROOT
HETATM    1  C1  UNL     1     -34.385   5.652   5.892  1.00 20.00     0.437 C 
HETATM    2  F3  UNL     1     -35.611   5.754   6.454  1.00 20.00    -0.166 F 
HETATM    3  F4  UNL     1     -33.693   6.764   6.232  1.00 20.00    -0.166 F 
HETATM    4  F5  UNL     1     -33.764   4.599   6.470  1.00 20.00    -0.166 F 
ENDROOT
BRANCH   1   5
HETATM    5  C2  UNL     1     -34.473   5.489   4.384  1.00 20.00     0.286 C 
HETATM    6 CL6  UNL     1     -36.148   5.787   3.836  1.00 20.00    -0.074 Cl
HETATM    7 CL7  UNL     1     -33.382   6.652   3.580  1.00 20.00    -0.074 Cl
HETATM    8 CL8  UNL     1     -33.997   3.830   3.922  1.00 20.00    -0.074 Cl
ENDBRANCH   1   5
TORSDOF 1
ENDMDL
MODEL 4
REMARK VINA RESULT:      -3.9      8.508      9.460
REMARK  1 active torsions:
REMARK  status: ('A' for Active; 'I' for Inactive)
REMARK    1  A    between atoms: C1_1  and  C2_2 
ROOT
HETATM    1  C1  UNL     1     -41.597   7.802   0.153  1.00 20.00     0.437 C 
HETATM    2  F3  UNL     1     -40.878   8.381  -0.836  1.00 20.00    -0.166 F 
HETATM    3  F4  UNL     1     -40.790   7.707   1.235  1.00 20.00    -0.166 F 
HETATM    4  F5  UNL     1     -42.599   8.653   0.471  1.00 20.00    -0.166 F 
ENDROOT
BRANCH   1   5
HETATM    5  C2  UNL     1     -42.131   6.443  -0.267  1.00 20.00     0.286 C 
HETATM    6 CL6  UNL     1     -43.416   6.646  -1.491  1.00 20.00    -0.074 Cl
HETATM    7 CL7  UNL     1     -40.813   5.459  -0.965  1.00 20.00    -0.074 Cl
HETATM    8 CL8  UNL     1     -42.806   5.590   1.149  1.00 20.00    -0.074 Cl
ENDBRANCH   1   5
TORSDOF 1
ENDMDL
MODEL 5
REMARK VINA RESULT:      -3.9      8.508      9.561
REMARK  1 active torsions:
REMARK  status: ('A' for Active; 'I' for Inactive)
REMARK    1  A    between atoms: C1_1  and  C2_2 
ROOT
HETATM    1  C1  UNL     1     -41.596   7.806   0.151  1.00 20.00     0.437 C 
HETATM    2  F3  UNL     1     -40.888   8.395  -0.840  1.00 20.00    -0.166 F 
HETATM    3  F4  UNL     1     -40.782   7.714   1.227  1.00 20.00    -0.166 F 
HETATM    4  F5  UNL     1     -42.604   8.647   0.478  1.00 20.00    -0.166 F 
ENDROOT
BRANCH   1   5
HETATM    5  C2  UNL     1     -42.121   6.444  -0.271  1.00 20.00     0.286 C 
HETATM    6 CL6  UNL     1     -42.780   5.580   1.148  1.00 20.00    -0.074 Cl
HETATM    7 CL7  UNL     1     -43.416   6.639  -1.486  1.00 20.00    -0.074 Cl
HETATM    8 CL8  UNL     1     -40.800   5.474  -0.980  1.00 20.00    -0.074 Cl
ENDBRANCH   1   5
TORSDOF 1
ENDMDL
MODEL 6
REMARK VINA RESULT:      -3.9      8.509      9.437
REMARK  1 active torsions:
REMARK  status: ('A' for Active; 'I' for Inactive)
REMARK    1  A    between atoms: C1_1  and  C2_2 
ROOT
HETATM    1  C1  UNL     1     -41.600   7.810   0.149  1.00 20.00     0.437 C 
HETATM    2  F3  UNL     1     -40.897   8.399  -0.844  1.00 20.00    -0.166 F 
HETATM    3  F4  UNL     1     -40.784   7.723   1.224  1.00 20.00    -0.166 F 
HETATM    4  F5  UNL     1     -42.610   8.648   0.477  1.00 20.00    -0.166 F 
ENDROOT
BRANCH   1   5
HETATM    5  C2  UNL     1     -42.122   6.446  -0.269  1.00 20.00     0.286 C 
HETATM    6 CL6  UNL     1     -40.797   5.477  -0.974  1.00 20.00    -0.074 Cl
HETATM    7 CL7  UNL     1     -42.781   5.584   1.151  1.00 20.00    -0.074 Cl
HETATM    8 CL8  UNL     1     -43.416   6.634  -1.486  1.00 20.00    -0.074 Cl
ENDBRANCH   1   5
TORSDOF 1
ENDMDL
MODEL 7
REMARK VINA RESULT:      -3.8     16.353     17.255
REMARK  1 active torsions:
REMARK  status: ('A' for Active; 'I' for Inactive)
REMARK    1  A    between atoms: C1_1  and  C2_2 
ROOT
HETATM    1  C1  UNL     1     -23.545  17.658   9.862  1.00 20.00     0.437 C 
HETATM    2  F3  UNL     1     -24.668  17.771   9.116  1.00 20.00    -0.166 F 
HETATM    3  F4  UNL     1     -22.820  16.638   9.348  1.00 20.00    -0.166 F 
HETATM    4  F5  UNL     1     -22.829  18.792   9.684  1.00 20.00    -0.166 F 
ENDROOT
BRANCH   1   5
HETATM    5  C2  UNL     1     -23.871  17.429  11.329  1.00 20.00     0.286 C 
HETATM    6 CL6  UNL     1     -24.375  15.734  11.582  1.00 20.00    -0.074 Cl
HETATM    7 CL7  UNL     1     -22.431  17.764  12.332  1.00 20.00    -0.074 Cl
HETATM    8 CL8  UNL     1     -25.197  18.512  11.836  1.00 20.00    -0.074 Cl
ENDBRANCH   1   5
TORSDOF 1
ENDMDL
MODEL 8
REMARK VINA RESULT:      -3.7     16.384     17.284
REMARK  1 active torsions:
REMARK  status: ('A' for Active; 'I' for Inactive)
REMARK    1  A    between atoms: C1_1  and  C2_2 
ROOT
HETATM    1  C1  UNL     1     -23.536  17.673   9.886  1.00 20.00     0.437 C 
HETATM    2  F3  UNL     1     -22.823  18.808   9.706  1.00 20.00    -0.166 F 
HETATM    3  F4  UNL     1     -24.677  17.797   9.169  1.00 20.00    -0.166 F 
HETATM    4  F5  UNL     1     -22.825  16.660   9.341  1.00 20.00    -0.166 F 
ENDROOT
BRANCH   1   5
HETATM    5  C2  UNL     1     -23.825  17.423  11.357  1.00 20.00     0.286 C 
HETATM    6 CL6  UNL     1     -25.151  18.487  11.907  1.00 20.00    -0.074 Cl
HETATM    7 CL7  UNL     1     -24.307  15.720  11.603  1.00 20.00    -0.074 Cl
HETATM    8 CL8  UNL     1     -22.367  17.760  12.331  1.00 20.00    -0.074 Cl
ENDBRANCH   1   5
TORSDOF 1
ENDMDL
MODEL 9
REMARK VINA RESULT:      -3.7      8.796      9.611
REMARK  1 active torsions:
REMARK  status: ('A' for Active; 'I' for Inactive)
REMARK    1  A    between atoms: C1_1  and  C2_2 
ROOT
HETATM    1  C1  UNL     1     -41.063   6.145  -0.670  1.00 20.00     0.437 C 
HETATM    2  F3  UNL     1     -40.450   6.444   0.497  1.00 20.00    -0.166 F 
HETATM    3  F4  UNL     1     -40.790   7.148  -1.536  1.00 20.00    -0.166 F 
HETATM    4  F5  UNL     1     -40.481   5.025  -1.155  1.00 20.00    -0.166 F 
ENDROOT
BRANCH   1   5
HETATM    5  C2  UNL     1     -42.560   5.960  -0.484  1.00 20.00     0.286 C 
HETATM    6 CL6  UNL     1     -43.417   7.470  -0.907  1.00 20.00    -0.074 Cl
HETATM    7 CL7  UNL     1     -43.147   4.643  -1.538  1.00 20.00    -0.074 Cl
HETATM    8 CL8  UNL     1     -42.916   5.547   1.217  1.00 20.00    -0.074 Cl
ENDBRANCH   1   5
TORSDOF 1
ENDMDL
