MODEL 1
REMARK VINA RESULT:      -4.7      0.000      0.000
REMARK  0 active torsions:
REMARK  status: ('A' for Active; 'I' for Inactive)
ROOT
HETATM    1  C1  UNL     1     -42.497   7.678  -1.543  1.00 20.00     0.013 C 
HETATM    2  C2  UNL     1     -43.417   7.655  -0.306  1.00 20.00     0.013 C 
HETATM    3  C3  UNL     1     -41.172   5.532  -1.157  1.00 20.00     0.280 C 
HETATM    4  C4  UNL     1     -42.631   5.496   0.803  1.00 20.00     0.280 C 
HETATM    5  C5  UNL     1     -41.166   7.070  -1.059  1.00 20.00     0.086 C 
HETATM    6  C6  UNL     1     -42.561   7.036   0.816  1.00 20.00     0.086 C 
HETATM    7  C7  UNL     1     -41.168   7.474   0.404  1.00 20.00     0.254 C 
HETATM    8  N8  UNL     1     -42.332   4.903  -0.509  1.00 20.00     0.084 N 
HETATM    9  F9  UNL     1     -40.194   6.886   1.119  1.00 20.00    -0.205 F 
HETATM   10  F10 UNL     1     -41.021   8.811   0.536  1.00 20.00    -0.205 F 
HETATM   11  H21 UNL     1     -43.146   5.030  -1.112  1.00 20.00     0.315 HD
ENDROOT
TORSDOF 0
ENDMDL
MODEL 2
REMARK VINA RESULT:      -4.7     22.946     23.826
REMARK  0 active torsions:
REMARK  status: ('A' for Active; 'I' for Inactive)
ROOT
HETATM    1  C1  UNL     1     -22.908  18.140  12.331  1.00 20.00     0.013 C 
HETATM    2  C2  UNL     1     -24.439  18.327  12.332  1.00 20.00     0.013 C 
HETATM    3  C3  UNL     1     -22.444  18.241   9.824  1.00 20.00     0.280 C 
HETATM    4  C4  UNL     1     -24.869  18.537   9.826  1.00 20.00     0.280 C 
HETATM    5  C5  UNL     1     -22.608  17.328  11.056  1.00 20.00     0.086 C 
HETATM    6  C6  UNL     1     -24.928  17.612  11.057  1.00 20.00     0.086 C 
HETATM    7  C7  UNL     1     -23.884  16.520  10.908  1.00 20.00     0.254 C 
HETATM    8  N8  UNL     1     -23.560  19.178   9.630  1.00 20.00     0.084 N 
HETATM    9  F9  UNL     1     -23.965  15.864   9.739  1.00 20.00    -0.205 F 
HETATM   10  F10 UNL     1     -23.994  15.606  11.898  1.00 20.00    -0.205 F 
HETATM   11  H21 UNL     1     -23.468  19.934  10.309  1.00 20.00     0.315 HD
ENDROOT
TORSDOF 0
ENDMDL
MODEL 3
REMARK VINA RESULT:      -4.7     22.936     23.817
REMARK  0 active torsions:
REMARK  status: ('A' for Active; 'I' for Inactive)
ROOT
HETATM    1  C1  UNL     1     -22.007  17.648   9.918  1.00 20.00     0.013 C 
HETATM    2  C2  UNL     1     -23.030  16.730   9.218  1.00 20.00     0.013 C 
HETATM    3  C3  UNL     1     -22.813  17.462  12.332  1.00 20.00     0.280 C 
HETATM    4  C4  UNL     1     -24.433  16.008  11.223  1.00 20.00     0.280 C 
HETATM    5  C5  UNL     1     -22.795  18.327  11.055  1.00 20.00     0.086 C 
HETATM    6  C6  UNL     1     -24.345  16.935   9.995  1.00 20.00     0.086 C 
HETATM    7  C7  UNL     1     -24.193  18.370  10.466  1.00 20.00     0.254 C 
HETATM    8  N8  UNL     1     -23.257  16.080  12.103  1.00 20.00     0.084 N 
HETATM    9  F9  UNL     1     -25.132  18.739  11.352  1.00 20.00    -0.205 F 
HETATM   10  F10 UNL     1     -24.252  19.230   9.425  1.00 20.00    -0.205 F 
HETATM   11  H21 UNL     1     -22.494  15.565  11.663  1.00 20.00     0.315 HD
ENDROOT
TORSDOF 0
ENDMDL
MODEL 4
REMARK VINA RESULT:      -4.4      1.885      2.908
REMARK  0 active torsions:
REMARK  status: ('A' for Active; 'I' for Inactive)
ROOT
HETATM    1  C1  UNL     1     -42.380   5.574   0.989  1.00 20.00     0.013 C 
HETATM    2  C2  UNL     1     -43.282   5.279  -0.228  1.00 20.00     0.013 C 
HETATM    3  C3  UNL     1     -41.986   8.073   0.661  1.00 20.00     0.280 C 
HETATM    4  C4  UNL     1     -43.413   7.605  -1.266  1.00 20.00     0.280 C 
HETATM    5  C5  UNL     1     -41.398   6.657   0.502  1.00 20.00     0.086 C 
HETATM    6  C6  UNL     1     -42.764   6.210  -1.341  1.00 20.00     0.086 C 
HETATM    7  C7  UNL     1     -41.295   6.324  -0.976  1.00 20.00     0.254 C 
HETATM    8  N8  UNL     1     -43.319   8.230   0.062  1.00 20.00     0.084 N 
HETATM    9  F9  UNL     1     -40.644   7.260  -1.686  1.00 20.00    -0.205 F 
HETATM   10  F10 UNL     1     -40.656   5.148  -1.163  1.00 20.00    -0.205 F 
HETATM   11  H21 UNL     1     -44.002   7.786   0.675  1.00 20.00     0.315 HD
ENDROOT
TORSDOF 0
ENDMDL
MODEL 5
REMARK VINA RESULT:      -4.4     11.365     12.158
REMARK  0 active torsions:
REMARK  status: ('A' for Active; 'I' for Inactive)
ROOT
HETATM    1  C1  UNL     1     -36.422  15.906  -4.162  1.00 20.00     0.013 C 
HETATM    2  C2  UNL     1     -35.938  14.444  -4.078  1.00 20.00     0.013 C 
HETATM    3  C3  UNL     1     -34.289  17.038  -4.988  1.00 20.00     0.280 C 
HETATM    4  C4  UNL     1     -33.524  14.722  -4.853  1.00 20.00     0.280 C 
HETATM    5  C5  UNL     1     -35.195  16.754  -3.773  1.00 20.00     0.086 C 
HETATM    6  C6  UNL     1     -34.462  14.538  -3.645  1.00 20.00     0.086 C 
HETATM    7  C7  UNL     1     -34.472  15.815  -2.824  1.00 20.00     0.254 C 
HETATM    8  N8  UNL     1     -33.910  15.832  -5.737  1.00 20.00     0.084 N 
HETATM    9  F9  UNL     1     -33.243  16.241  -2.490  1.00 20.00    -0.205 F 
HETATM   10  F10 UNL     1     -35.173  15.651  -1.680  1.00 20.00    -0.205 F 
HETATM   11  H21 UNL     1     -34.710  15.535  -6.296  1.00 20.00     0.315 HD
ENDROOT
TORSDOF 0
ENDMDL
MODEL 6
REMARK VINA RESULT:      -4.4      1.076      2.173
REMARK  0 active torsions:
REMARK  status: ('A' for Active; 'I' for Inactive)
ROOT
HETATM    1  C1  UNL     1     -43.414   6.600   1.209  1.00 20.00     0.013 C 
HETATM    2  C2  UNL     1     -42.308   5.527   1.291  1.00 20.00     0.013 C 
HETATM    3  C3  UNL     1     -43.414   7.056  -1.301  1.00 20.00     0.280 C 
HETATM    4  C4  UNL     1     -41.663   5.357  -1.172  1.00 20.00     0.280 C 
HETATM    5  C5  UNL     1     -42.961   7.553   0.086  1.00 20.00     0.086 C 
HETATM    6  C6  UNL     1     -41.286   5.927   0.209  1.00 20.00     0.086 C 
HETATM    7  C7  UNL     1     -41.451   7.436   0.186  1.00 20.00     0.254 C 
HETATM    8  N8  UNL     1     -43.043   5.661  -1.580  1.00 20.00     0.084 N 
HETATM    9  F9  UNL     1     -40.804   8.024  -0.834  1.00 20.00    -0.205 F 
HETATM   10  F10 UNL     1     -40.998   7.991   1.332  1.00 20.00    -0.205 F 
HETATM   11  H21 UNL     1     -43.673   5.050  -1.060  1.00 20.00     0.315 HD
ENDROOT
TORSDOF 0
ENDMDL
MODEL 7
REMARK VINA RESULT:      -4.4     11.114     11.939
REMARK  0 active torsions:
REMARK  status: ('A' for Active; 'I' for Inactive)
ROOT
HETATM    1  C1  UNL     1     -33.283  15.516  -3.728  1.00 20.00     0.013 C 
HETATM    2  C2  UNL     1     -34.401  15.708  -2.683  1.00 20.00     0.013 C 
HETATM    3  C3  UNL     1     -34.563  16.073  -5.864  1.00 20.00     0.280 C 
HETATM    4  C4  UNL     1     -36.334  16.377  -4.209  1.00 20.00     0.280 C 
HETATM    5  C5  UNL     1     -33.995  14.951  -4.973  1.00 20.00     0.086 C 
HETATM    6  C6  UNL     1     -35.689  15.242  -3.389  1.00 20.00     0.086 C 
HETATM    7  C7  UNL     1     -35.146  14.190  -4.339  1.00 20.00     0.254 C 
HETATM    8  N8  UNL     1     -35.404  17.036  -5.139  1.00 20.00     0.084 N 
HETATM    9  F9  UNL     1     -36.054  13.761  -5.231  1.00 20.00    -0.205 F 
HETATM   10  F10 UNL     1     -34.696  13.111  -3.661  1.00 20.00    -0.205 F 
HETATM   11  H21 UNL     1     -34.796  17.654  -4.601  1.00 20.00     0.315 HD
ENDROOT
TORSDOF 0
ENDMDL
MODEL 8
REMARK VINA RESULT:      -4.3     22.821     23.659
REMARK  0 active torsions:
REMARK  status: ('A' for Active; 'I' for Inactive)
ROOT
HETATM    1  C1  UNL     1     -24.701  18.871  11.607  1.00 20.00     0.013 C 
HETATM    2  C2  UNL     1     -24.913  18.415  10.149  1.00 20.00     0.013 C 
HETATM    3  C3  UNL     1     -22.512  17.673  12.140  1.00 20.00     0.280 C 
HETATM    4  C4  UNL     1     -22.848  16.950   9.830  1.00 20.00     0.280 C 
HETATM    5  C5  UNL     1     -24.045  17.666  12.309  1.00 20.00     0.086 C 
HETATM    6  C6  UNL     1     -24.366  16.976  10.099  1.00 20.00     0.086 C 
HETATM    7  C7  UNL     1     -24.626  16.508  11.520  1.00 20.00     0.254 C 
HETATM    8  N8  UNL     1     -22.072  17.803  10.743  1.00 20.00     0.084 N 
HETATM    9  F9  UNL     1     -24.049  15.329  11.804  1.00 20.00    -0.205 F 
HETATM   10  F10 UNL     1     -25.952  16.382  11.753  1.00 20.00    -0.205 F 
HETATM   11  H21 UNL     1     -22.193  18.775  10.457  1.00 20.00     0.315 HD
ENDROOT
TORSDOF 0
ENDMDL
MODEL 9
REMARK VINA RESULT:      -4.3     23.148     23.797
REMARK  0 active torsions:
REMARK  status: ('A' for Active; 'I' for Inactive)
ROOT
HETATM    1  C1  UNL     1     -24.680  15.892  11.443  1.00 20.00     0.013 C 
HETATM    2  C2  UNL     1     -23.944  16.258  10.138  1.00 20.00     0.013 C 
HETATM    3  C3  UNL     1     -25.698  18.157  12.034  1.00 20.00     0.280 C 
HETATM    4  C4  UNL     1     -24.531  18.734   9.966  1.00 20.00     0.280 C 
HETATM    5  C5  UNL     1     -24.568  17.150  12.328  1.00 20.00     0.086 C 
HETATM    6  C6  UNL     1     -23.452  17.703  10.349  1.00 20.00     0.086 C 
HETATM    7  C7  UNL     1     -23.248  17.732  11.853  1.00 20.00     0.254 C 
HETATM    8  N8  UNL     1     -25.832  18.496  10.610  1.00 20.00     0.084 N 
HETATM    9  F9  UNL     1     -23.009  18.964  12.332  1.00 20.00    -0.205 F 
HETATM   10  F10 UNL     1     -22.213  16.943  12.217  1.00 20.00    -0.205 F 
HETATM   11  H21 UNL     1     -26.287  17.716  10.135  1.00 20.00     0.315 HD
ENDROOT
TORSDOF 0
ENDMDL
