MODEL 1
REMARK VINA RESULT:      -4.5      0.000      0.000
REMARK  3 active torsions:
REMARK  status: ('A' for Active; 'I' for Inactive)
REMARK    1  A    between atoms: C3_3  and  C4_4 
REMARK    2  A    between atoms: C3_3  and  C5_5 
REMARK    3  A    between atoms: C4_4  and  O6_6 
ROOT
HETATM    1  C1  UNL     1     -35.653   5.321   4.045  1.00 20.00     0.022 A 
HETATM    2  C2  UNL     1     -34.460   4.413   3.963  1.00 20.00     0.022 A 
HETATM    3  C3  UNL     1     -34.314   5.791   4.565  1.00 20.00     0.079 A 
ENDROOT
BRANCH   3   4
HETATM    4  C4  UNL     1     -33.576   6.833   3.771  1.00 20.00     0.182 C 
BRANCH   4   5
HETATM    5  O6  UNL     1     -32.760   6.193   2.795  1.00 20.00    -0.400 OA
HETATM    6  H16 UNL     1     -32.847   5.238   2.944  1.00 20.00     0.209 HD
ENDBRANCH   4   5
ENDBRANCH   3   4
BRANCH   3   7
HETATM    7  C5  UNL     1     -34.132   5.894   6.054  1.00 20.00     0.397 C 
HETATM    8  F7  UNL     1     -33.149   6.767   6.361  1.00 20.00    -0.170 F 
HETATM    9  F8  UNL     1     -35.267   6.318   6.651  1.00 20.00    -0.170 F 
HETATM   10  F9  UNL     1     -33.806   4.697   6.585  1.00 20.00    -0.170 F 
ENDBRANCH   3   7
TORSDOF 3
ENDMDL
MODEL 2
REMARK VINA RESULT:      -4.2     15.806     16.689
REMARK  3 active torsions:
REMARK  status: ('A' for Active; 'I' for Inactive)
REMARK    1  A    between atoms: C3_3  and  C4_4 
REMARK    2  A    between atoms: C3_3  and  C5_5 
REMARK    3  A    between atoms: C4_4  and  O6_6 
ROOT
HETATM    1  C1  UNL     1     -25.528  18.372  11.707  1.00 20.00     0.022 A 
HETATM    2  C2  UNL     1     -24.163  18.361  12.331  1.00 20.00     0.022 A 
HETATM    3  C3  UNL     1     -24.473  17.425  11.187  1.00 20.00     0.079 A 
ENDROOT
BRANCH   3   4
HETATM    4  C4  UNL     1     -24.626  15.961  11.494  1.00 20.00     0.182 C 
BRANCH   4   5
HETATM    5  O6  UNL     1     -23.519  15.524  12.276  1.00 20.00    -0.400 OA
HETATM    6  H16 UNL     1     -23.628  15.917  13.156  1.00 20.00     0.209 HD
ENDBRANCH   4   5
ENDBRANCH   3   4
BRANCH   3   7
HETATM    7  C5  UNL     1     -23.857  17.721   9.847  1.00 20.00     0.397 C 
HETATM    8  F7  UNL     1     -24.803  18.051   8.943  1.00 20.00    -0.170 F 
HETATM    9  F8  UNL     1     -22.987  18.750   9.932  1.00 20.00    -0.170 F 
HETATM   10  F9  UNL     1     -23.188  16.648   9.375  1.00 20.00    -0.170 F 
ENDBRANCH   3   7
TORSDOF 3
ENDMDL
MODEL 3
REMARK VINA RESULT:      -4.1     12.330     13.032
REMARK  3 active torsions:
REMARK  status: ('A' for Active; 'I' for Inactive)
REMARK    1  A    between atoms: C3_3  and  C4_4 
REMARK    2  A    between atoms: C3_3  and  C5_5 
REMARK    3  A    between atoms: C4_4  and  O6_6 
ROOT
HETATM    1  C1  UNL     1     -34.174  15.847  -2.667  1.00 20.00     0.022 A 
HETATM    2  C2  UNL     1     -34.391  16.515  -3.995  1.00 20.00     0.022 A 
HETATM    3  C3  UNL     1     -34.217  15.016  -3.929  1.00 20.00     0.079 A 
ENDROOT
BRANCH   3   4
HETATM    4  C4  UNL     1     -32.925  14.433  -4.433  1.00 20.00     0.182 C 
BRANCH   4   5
HETATM    5  O6  UNL     1     -32.896  14.508  -5.854  1.00 20.00    -0.400 OA
HETATM    6  H16 UNL     1     -33.785  14.271  -6.163  1.00 20.00     0.209 HD
ENDBRANCH   4   5
ENDBRANCH   3   4
BRANCH   3   7
HETATM    7  C5  UNL     1     -35.426  14.155  -4.165  1.00 20.00     0.397 C 
HETATM    8  F7  UNL     1     -35.792  14.181  -5.465  1.00 20.00    -0.170 F 
HETATM    9  F8  UNL     1     -35.179  12.871  -3.829  1.00 20.00    -0.170 F 
HETATM   10  F9  UNL     1     -36.475  14.583  -3.430  1.00 20.00    -0.170 F 
ENDBRANCH   3   7
TORSDOF 3
ENDMDL
MODEL 4
REMARK VINA RESULT:      -4.1     12.162     13.118
REMARK  3 active torsions:
REMARK  status: ('A' for Active; 'I' for Inactive)
REMARK    1  A    between atoms: C3_3  and  C4_4 
REMARK    2  A    between atoms: C3_3  and  C5_5 
REMARK    3  A    between atoms: C4_4  and  O6_6 
ROOT
HETATM    1  C1  UNL     1     -36.138  14.443  -4.199  1.00 20.00     0.022 A 
HETATM    2  C2  UNL     1     -34.973  13.527  -3.957  1.00 20.00     0.022 A 
HETATM    3  C3  UNL     1     -34.728  14.979  -4.293  1.00 20.00     0.079 A 
ENDROOT
BRANCH   3   4
HETATM    4  C4  UNL     1     -34.188  15.307  -5.658  1.00 20.00     0.182 C 
BRANCH   4   5
HETATM    5  O6  UNL     1     -33.062  14.481  -5.930  1.00 20.00    -0.400 OA
HETATM    6  H16 UNL     1     -32.841  14.029  -5.100  1.00 20.00     0.209 HD
ENDBRANCH   4   5
ENDBRANCH   3   4
BRANCH   3   7
HETATM    7  C5  UNL     1     -34.243  15.885  -3.195  1.00 20.00     0.397 C 
HETATM    8  F7  UNL     1     -34.792  15.545  -2.010  1.00 20.00    -0.170 F 
HETATM    9  F8  UNL     1     -32.901  15.814  -3.068  1.00 20.00    -0.170 F 
HETATM   10  F9  UNL     1     -34.569  17.170  -3.451  1.00 20.00    -0.170 F 
ENDBRANCH   3   7
TORSDOF 3
ENDMDL
MODEL 5
REMARK VINA RESULT:      -4.0     16.164     17.016
REMARK  3 active torsions:
REMARK  status: ('A' for Active; 'I' for Inactive)
REMARK    1  A    between atoms: C3_3  and  C4_4 
REMARK    2  A    between atoms: C3_3  and  C5_5 
REMARK    3  A    between atoms: C4_4  and  O6_6 
ROOT
HETATM    1  C1  UNL     1     -24.357  15.915  11.672  1.00 20.00     0.022 A 
HETATM    2  C2  UNL     1     -25.191  17.155  11.826  1.00 20.00     0.022 A 
HETATM    3  C3  UNL     1     -23.756  17.268  11.366  1.00 20.00     0.079 A 
ENDROOT
BRANCH   3   4
HETATM    4  C4  UNL     1     -22.747  17.826  12.332  1.00 20.00     0.182 C 
BRANCH   4   5
HETATM    5  O6  UNL     1     -21.445  17.388  11.960  1.00 20.00    -0.400 OA
HETATM    6  H16 UNL     1     -21.180  16.719  12.611  1.00 20.00     0.209 HD
ENDBRANCH   4   5
ENDBRANCH   3   4
BRANCH   3   7
HETATM    7  C5  UNL     1     -23.503  17.619   9.926  1.00 20.00     0.397 C 
HETATM    8  F7  UNL     1     -22.818  18.777   9.823  1.00 20.00    -0.170 F 
HETATM    9  F8  UNL     1     -22.784  16.655   9.313  1.00 20.00    -0.170 F 
HETATM   10  F9  UNL     1     -24.665  17.762   9.253  1.00 20.00    -0.170 F 
ENDBRANCH   3   7
TORSDOF 3
ENDMDL
MODEL 6
REMARK VINA RESULT:      -4.0     13.447     13.995
REMARK  3 active torsions:
REMARK  status: ('A' for Active; 'I' for Inactive)
REMARK    1  A    between atoms: C3_3  and  C4_4 
REMARK    2  A    between atoms: C3_3  and  C5_5 
REMARK    3  A    between atoms: C4_4  and  O6_6 
ROOT
HETATM    1  C1  UNL     1     -33.916  15.557  -3.892  1.00 20.00     0.022 A 
HETATM    2  C2  UNL     1     -33.336  14.221  -4.257  1.00 20.00     0.022 A 
HETATM    3  C3  UNL     1     -34.653  14.656  -4.856  1.00 20.00     0.079 A 
ENDROOT
BRANCH   3   4
HETATM    4  C4  UNL     1     -35.906  13.980  -4.371  1.00 20.00     0.182 C 
BRANCH   4   5
HETATM    5  O6  UNL     1     -35.742  12.568  -4.452  1.00 20.00    -0.400 OA
HETATM    6  H16 UNL     1     -34.995  12.342  -3.876  1.00 20.00     0.209 HD
ENDBRANCH   4   5
ENDBRANCH   3   4
BRANCH   3   7
HETATM    7  C5  UNL     1     -34.673  15.043  -6.308  1.00 20.00     0.397 C 
HETATM    8  F7  UNL     1     -33.502  14.739  -6.906  1.00 20.00    -0.170 F 
HETATM    9  F8  UNL     1     -35.657  14.395  -6.968  1.00 20.00    -0.170 F 
HETATM   10  F9  UNL     1     -34.881  16.370  -6.452  1.00 20.00    -0.170 F 
ENDBRANCH   3   7
TORSDOF 3
ENDMDL
MODEL 7
REMARK VINA RESULT:      -4.0      2.902      3.295
REMARK  3 active torsions:
REMARK  status: ('A' for Active; 'I' for Inactive)
REMARK    1  A    between atoms: C3_3  and  C4_4 
REMARK    2  A    between atoms: C3_3  and  C5_5 
REMARK    3  A    between atoms: C4_4  and  O6_6 
ROOT
HETATM    1  C1  UNL     1     -34.541   4.504   4.720  1.00 20.00     0.022 A 
HETATM    2  C2  UNL     1     -35.493   5.490   4.107  1.00 20.00     0.022 A 
HETATM    3  C3  UNL     1     -34.006   5.753   4.059  1.00 20.00     0.079 A 
ENDROOT
BRANCH   3   4
HETATM    4  C4  UNL     1     -33.452   6.836   4.943  1.00 20.00     0.182 C 
BRANCH   4   5
HETATM    5  O6  UNL     1     -34.208   6.894   6.148  1.00 20.00    -0.400 OA
HETATM    6  H16 UNL     1     -35.114   6.631   5.921  1.00 20.00     0.209 HD
ENDBRANCH   4   5
ENDBRANCH   3   4
BRANCH   3   7
HETATM    7  C5  UNL     1     -33.307   5.607   2.736  1.00 20.00     0.397 C 
HETATM    8  F7  UNL     1     -34.196   5.562   1.721  1.00 20.00    -0.170 F 
HETATM    9  F8  UNL     1     -32.475   6.646   2.512  1.00 20.00    -0.170 F 
HETATM   10  F9  UNL     1     -32.575   4.473   2.698  1.00 20.00    -0.170 F 
ENDBRANCH   3   7
TORSDOF 3
ENDMDL
MODEL 8
REMARK VINA RESULT:      -4.0      8.985      9.874
REMARK  3 active torsions:
REMARK  status: ('A' for Active; 'I' for Inactive)
REMARK    1  A    between atoms: C3_3  and  C4_4 
REMARK    2  A    between atoms: C3_3  and  C5_5 
REMARK    3  A    between atoms: C4_4  and  O6_6 
ROOT
HETATM    1  C1  UNL     1     -43.307   6.621   0.865  1.00 20.00     0.022 A 
HETATM    2  C2  UNL     1     -42.827   5.260   1.279  1.00 20.00     0.022 A 
HETATM    3  C3  UNL     1     -42.566   5.753  -0.125  1.00 20.00     0.079 A 
ENDROOT
BRANCH   3   4
HETATM    4  C4  UNL     1     -43.353   5.135  -1.248  1.00 20.00     0.182 C 
BRANCH   4   5
HETATM    5  O6  UNL     1     -43.290   3.716  -1.143  1.00 20.00    -0.400 OA
HETATM    6  H16 UNL     1     -44.191   3.387  -1.292  1.00 20.00     0.209 HD
ENDBRANCH   4   5
ENDBRANCH   3   4
BRANCH   3   7
HETATM    7  C5  UNL     1     -41.158   6.138  -0.487  1.00 20.00     0.397 C 
HETATM    8  F7  UNL     1     -41.148   7.151  -1.379  1.00 20.00    -0.170 F 
HETATM    9  F8  UNL     1     -40.471   6.538   0.605  1.00 20.00    -0.170 F 
HETATM   10  F9  UNL     1     -40.497   5.095  -1.034  1.00 20.00    -0.170 F 
ENDBRANCH   3   7
TORSDOF 3
ENDMDL
MODEL 9
REMARK VINA RESULT:      -4.0      2.538      3.259
REMARK  3 active torsions:
REMARK  status: ('A' for Active; 'I' for Inactive)
REMARK    1  A    between atoms: C3_3  and  C4_4 
REMARK    2  A    between atoms: C3_3  and  C5_5 
REMARK    3  A    between atoms: C4_4  and  O6_6 
ROOT
HETATM    1  C1  UNL     1     -34.320   7.343   5.558  1.00 20.00     0.022 A 
HETATM    2  C2  UNL     1     -33.444   6.173   5.903  1.00 20.00     0.022 A 
HETATM    3  C3  UNL     1     -33.987   6.316   4.500  1.00 20.00     0.079 A 
ENDROOT
BRANCH   3   4
HETATM    4  C4  UNL     1     -35.076   5.373   4.066  1.00 20.00     0.182 C 
BRANCH   4   5
HETATM    5  O6  UNL     1     -34.655   4.032   4.289  1.00 20.00    -0.400 OA
HETATM    6  H16 UNL     1     -35.461   3.494   4.348  1.00 20.00     0.209 HD
ENDBRANCH   4   5
ENDBRANCH   3   4
BRANCH   3   7
HETATM    7  C5  UNL     1     -33.030   6.711   3.410  1.00 20.00     0.397 C 
HETATM    8  F7  UNL     1     -31.947   7.335   3.920  1.00 20.00    -0.170 F 
HETATM    9  F8  UNL     1     -32.602   5.627   2.727  1.00 20.00    -0.170 F 
HETATM   10  F9  UNL     1     -33.618   7.550   2.531  1.00 20.00    -0.170 F 
ENDBRANCH   3   7
TORSDOF 3
ENDMDL
