MODEL 1
REMARK VINA RESULT:      -5.2      0.000      0.000
REMARK  1 active torsions:
REMARK  status: ('A' for Active; 'I' for Inactive)
REMARK    1  A    between atoms: C7_7  and  C8_8 
ROOT
HETATM    1  C1  UNL     1     -33.335   4.736   2.568  1.00 20.00     0.132 C 
HETATM    2  C2  UNL     1     -34.023   4.521   3.895  1.00 20.00     0.079 C 
HETATM    3  C3  UNL     1     -34.736   5.787   4.351  1.00 20.00     0.008 C 
HETATM    4  C4  UNL     1     -33.760   6.946   4.539  1.00 20.00     0.006 C 
HETATM    5  C5  UNL     1     -32.602   6.017   2.406  1.00 20.00     0.073 A 
HETATM    6  C6  UNL     1     -32.849   7.152   3.368  1.00 20.00     0.011 A 
HETATM    7  C7  UNL     1     -33.367   7.241   1.954  1.00 20.00     0.110 A 
HETATM    8  O9  UNL     1     -33.310   3.892   1.681  1.00 20.00    -0.298 OA
ENDROOT
BRANCH   7   9
HETATM    9  C8  UNL     1     -32.745   8.192   0.991  1.00 20.00     0.392 C 
HETATM   10  F10 UNL     1     -32.629   9.432   1.523  1.00 20.00    -0.171 F 
HETATM   11  F11 UNL     1     -31.504   7.790   0.625  1.00 20.00    -0.171 F 
HETATM   12  F12 UNL     1     -33.483   8.306  -0.141  1.00 20.00    -0.171 F 
ENDBRANCH   7   9
TORSDOF 1
ENDMDL
MODEL 2
REMARK VINA RESULT:      -5.0     10.330     11.183
REMARK  1 active torsions:
REMARK  status: ('A' for Active; 'I' for Inactive)
REMARK    1  A    between atoms: C7_7  and  C8_8 
ROOT
HETATM    1  C1  UNL     1     -36.314  13.947  -4.233  1.00 20.00     0.132 C 
HETATM    2  C2  UNL     1     -37.703  14.464  -4.519  1.00 20.00     0.079 C 
HETATM    3  C3  UNL     1     -37.680  15.963  -4.794  1.00 20.00     0.008 C 
HETATM    4  C4  UNL     1     -37.151  16.747  -3.595  1.00 20.00     0.006 C 
HETATM    5  C5  UNL     1     -35.470  14.782  -3.342  1.00 20.00     0.073 A 
HETATM    6  C6  UNL     1     -35.861  16.211  -3.056  1.00 20.00     0.011 A 
HETATM    7  C7  UNL     1     -34.678  15.920  -3.947  1.00 20.00     0.110 A 
HETATM    8  O9  UNL     1     -35.902  12.869  -4.644  1.00 20.00    -0.298 OA
ENDROOT
BRANCH   7   9
HETATM    9  C8  UNL     1     -33.296  16.202  -3.466  1.00 20.00     0.392 C 
HETATM   10  F10 UNL     1     -33.252  16.305  -2.116  1.00 20.00    -0.171 F 
HETATM   11  F11 UNL     1     -32.434  15.221  -3.826  1.00 20.00    -0.171 F 
HETATM   12  F12 UNL     1     -32.821  17.365  -3.975  1.00 20.00    -0.171 F 
ENDBRANCH   7   9
TORSDOF 1
ENDMDL
MODEL 3
REMARK VINA RESULT:      -4.8     11.102     11.910
REMARK  1 active torsions:
REMARK  status: ('A' for Active; 'I' for Inactive)
REMARK    1  A    between atoms: C7_7  and  C8_8 
ROOT
HETATM    1  C1  UNL     1     -31.821  18.390  -0.740  1.00 20.00     0.132 C 
HETATM    2  C2  UNL     1     -32.470  19.060   0.446  1.00 20.00     0.079 C 
HETATM    3  C3  UNL     1     -33.824  18.433   0.752  1.00 20.00     0.008 C 
HETATM    4  C4  UNL     1     -34.789  18.578  -0.423  1.00 20.00     0.006 C 
HETATM    5  C5  UNL     1     -32.704  18.099  -1.898  1.00 20.00     0.073 A 
HETATM    6  C6  UNL     1     -34.203  18.144  -1.731  1.00 20.00     0.011 A 
HETATM    7  C7  UNL     1     -33.506  16.815  -1.897  1.00 20.00     0.110 A 
HETATM    8  O9  UNL     1     -30.621  18.148  -0.801  1.00 20.00    -0.298 OA
ENDROOT
BRANCH   7   9
HETATM    9  C8  UNL     1     -33.669  16.041  -3.158  1.00 20.00     0.392 C 
HETATM   10  F10 UNL     1     -32.479  15.593  -3.624  1.00 20.00    -0.171 F 
HETATM   11  F11 UNL     1     -34.466  14.959  -2.978  1.00 20.00    -0.171 F 
HETATM   12  F12 UNL     1     -34.228  16.795  -4.136  1.00 20.00    -0.171 F 
ENDBRANCH   7   9
TORSDOF 1
ENDMDL
MODEL 4
REMARK VINA RESULT:      -4.8     10.730     11.778
REMARK  1 active torsions:
REMARK  status: ('A' for Active; 'I' for Inactive)
REMARK    1  A    between atoms: C7_7  and  C8_8 
ROOT
HETATM    1  C1  UNL     1     -34.384  17.274  -4.778  1.00 20.00     0.132 C 
HETATM    2  C2  UNL     1     -33.583  17.886  -3.654  1.00 20.00     0.079 C 
HETATM    3  C3  UNL     1     -33.244  16.843  -2.596  1.00 20.00     0.008 C 
HETATM    4  C4  UNL     1     -34.504  16.248  -1.971  1.00 20.00     0.006 C 
HETATM    5  C5  UNL     1     -35.468  16.341  -4.382  1.00 20.00     0.073 A 
HETATM    6  C6  UNL     1     -35.506  15.781  -2.981  1.00 20.00     0.011 A 
HETATM    7  C7  UNL     1     -35.125  14.888  -4.136  1.00 20.00     0.110 A 
HETATM    8  O9  UNL     1     -34.216  17.563  -5.956  1.00 20.00    -0.298 OA
ENDROOT
BRANCH   7   9
HETATM    9  C8  UNL     1     -36.057  13.817  -4.589  1.00 20.00     0.392 C 
HETATM   10  F10 UNL     1     -36.097  13.733  -5.940  1.00 20.00    -0.171 F 
HETATM   11  F11 UNL     1     -35.684  12.602  -4.119  1.00 20.00    -0.171 F 
HETATM   12  F12 UNL     1     -37.322  14.046  -4.160  1.00 20.00    -0.171 F 
ENDBRANCH   7   9
TORSDOF 1
ENDMDL
MODEL 5
REMARK VINA RESULT:      -4.8     10.483     11.424
REMARK  1 active torsions:
REMARK  status: ('A' for Active; 'I' for Inactive)
REMARK    1  A    between atoms: C7_7  and  C8_8 
ROOT
HETATM    1  C1  UNL     1     -35.419  16.838  -2.292  1.00 20.00     0.132 C 
HETATM    2  C2  UNL     1     -34.095  17.561  -2.234  1.00 20.00     0.079 C 
HETATM    3  C3  UNL     1     -33.255  17.259  -3.469  1.00 20.00     0.008 C 
HETATM    4  C4  UNL     1     -32.943  15.769  -3.586  1.00 20.00     0.006 C 
HETATM    5  C5  UNL     1     -35.380  15.427  -2.751  1.00 20.00     0.073 A 
HETATM    6  C6  UNL     1     -34.152  14.895  -3.448  1.00 20.00     0.011 A 
HETATM    7  C7  UNL     1     -35.415  15.142  -4.237  1.00 20.00     0.110 A 
HETATM    8  O9  UNL     1     -36.474  17.340  -1.925  1.00 20.00    -0.298 OA
ENDROOT
BRANCH   7   9
HETATM    9  C8  UNL     1     -36.207  13.992  -4.755  1.00 20.00     0.392 C 
HETATM   10  F10 UNL     1     -36.068  13.858  -6.095  1.00 20.00    -0.171 F 
HETATM   11  F11 UNL     1     -35.817  12.824  -4.188  1.00 20.00    -0.171 F 
HETATM   12  F12 UNL     1     -37.529  14.144  -4.498  1.00 20.00    -0.171 F 
ENDBRANCH   7   9
TORSDOF 1
ENDMDL
MODEL 6
REMARK VINA RESULT:      -4.8     10.535     11.435
REMARK  1 active torsions:
REMARK  status: ('A' for Active; 'I' for Inactive)
REMARK    1  A    between atoms: C7_7  and  C8_8 
ROOT
HETATM    1  C1  UNL     1     -35.011  16.792  -1.605  1.00 20.00     0.132 C 
HETATM    2  C2  UNL     1     -33.643  17.426  -1.666  1.00 20.00     0.079 C 
HETATM    3  C3  UNL     1     -33.084  17.381  -3.082  1.00 20.00     0.008 C 
HETATM    4  C4  UNL     1     -32.930  15.946  -3.581  1.00 20.00     0.006 C 
HETATM    5  C5  UNL     1     -35.183  15.523  -2.357  1.00 20.00     0.073 A 
HETATM    6  C6  UNL     1     -34.162  15.115  -3.390  1.00 20.00     0.011 A 
HETATM    7  C7  UNL     1     -35.526  15.589  -3.829  1.00 20.00     0.110 A 
HETATM    8  O9  UNL     1     -35.929  17.240  -0.929  1.00 20.00    -0.298 OA
ENDROOT
BRANCH   7   9
HETATM    9  C8  UNL     1     -36.499  14.623  -4.409  1.00 20.00     0.392 C 
HETATM   10  F10 UNL     1     -36.097  13.342  -4.226  1.00 20.00    -0.171 F 
HETATM   11  F11 UNL     1     -37.723  14.748  -3.842  1.00 20.00    -0.171 F 
HETATM   12  F12 UNL     1     -36.651  14.811  -5.743  1.00 20.00    -0.171 F 
ENDBRANCH   7   9
TORSDOF 1
ENDMDL
MODEL 7
REMARK VINA RESULT:      -4.8     10.738     11.485
REMARK  1 active torsions:
REMARK  status: ('A' for Active; 'I' for Inactive)
REMARK    1  A    between atoms: C7_7  and  C8_8 
ROOT
HETATM    1  C1  UNL     1     -32.955  17.871  -1.363  1.00 20.00     0.132 C 
HETATM    2  C2  UNL     1     -33.969  18.337  -0.346  1.00 20.00     0.079 C 
HETATM    3  C3  UNL     1     -35.130  17.356  -0.245  1.00 20.00     0.008 C 
HETATM    4  C4  UNL     1     -35.867  17.218  -1.575  1.00 20.00     0.006 C 
HETATM    5  C5  UNL     1     -33.498  17.337  -2.637  1.00 20.00     0.073 A 
HETATM    6  C6  UNL     1     -34.955  16.960  -2.736  1.00 20.00     0.011 A 
HETATM    7  C7  UNL     1     -33.902  15.880  -2.704  1.00 20.00     0.110 A 
HETATM    8  O9  UNL     1     -31.746  17.975  -1.201  1.00 20.00    -0.298 OA
ENDROOT
BRANCH   7   9
HETATM    9  C8  UNL     1     -33.613  15.084  -3.929  1.00 20.00     0.392 C 
HETATM   10  F10 UNL     1     -34.218  13.873  -3.888  1.00 20.00    -0.171 F 
HETATM   11  F11 UNL     1     -34.047  15.716  -5.046  1.00 20.00    -0.171 F 
HETATM   12  F12 UNL     1     -32.283  14.867  -4.079  1.00 20.00    -0.171 F 
ENDBRANCH   7   9
TORSDOF 1
ENDMDL
MODEL 8
REMARK VINA RESULT:      -4.7     16.255     16.867
REMARK  1 active torsions:
REMARK  status: ('A' for Active; 'I' for Inactive)
REMARK    1  A    between atoms: C7_7  and  C8_8 
ROOT
HETATM    1  C1  UNL     1     -23.832  18.494   8.030  1.00 20.00     0.132 C 
HETATM    2  C2  UNL     1     -22.461  17.896   7.819  1.00 20.00     0.079 C 
HETATM    3  C3  UNL     1     -22.110  16.929   8.943  1.00 20.00     0.008 C 
HETATM    4  C4  UNL     1     -22.085  17.630  10.299  1.00 20.00     0.006 C 
HETATM    5  C5  UNL     1     -24.157  18.923   9.414  1.00 20.00     0.073 A 
HETATM    6  C6  UNL     1     -23.309  18.450  10.568  1.00 20.00     0.011 A 
HETATM    7  C7  UNL     1     -24.701  17.898  10.385  1.00 20.00     0.110 A 
HETATM    8  O9  UNL     1     -24.627  18.687   7.119  1.00 20.00    -0.298 OA
ENDROOT
BRANCH   7   9
HETATM    9  C8  UNL     1     -25.784  18.276  11.336  1.00 20.00     0.392 C 
HETATM   10  F10 UNL     1     -26.777  18.955  10.712  1.00 20.00    -0.171 F 
HETATM   11  F11 UNL     1     -26.341  17.185  11.915  1.00 20.00    -0.171 F 
HETATM   12  F12 UNL     1     -25.316  19.068  12.331  1.00 20.00    -0.171 F 
ENDBRANCH   7   9
TORSDOF 1
ENDMDL
MODEL 9
REMARK VINA RESULT:      -4.6      9.591     10.388
REMARK  1 active torsions:
REMARK  status: ('A' for Active; 'I' for Inactive)
REMARK    1  A    between atoms: C7_7  and  C8_8 
ROOT
HETATM    1  C1  UNL     1     -42.630   6.237   0.980  1.00 20.00     0.132 C 
HETATM    2  C2  UNL     1     -42.209   7.686   1.014  1.00 20.00     0.079 C 
HETATM    3  C3  UNL     1     -42.170   8.275  -0.391  1.00 20.00     0.008 C 
HETATM    4  C4  UNL     1     -41.168   7.542  -1.280  1.00 20.00     0.006 C 
HETATM    5  C5  UNL     1     -42.023   5.399  -0.084  1.00 20.00     0.073 A 
HETATM    6  C6  UNL     1     -41.326   6.052  -1.252  1.00 20.00     0.011 A 
HETATM    7  C7  UNL     1     -42.664   5.384  -1.454  1.00 20.00     0.110 A 
HETATM    8  O9  UNL     1     -43.378   5.736   1.811  1.00 20.00    -0.298 OA
ENDROOT
BRANCH   7   9
HETATM    9  C8  UNL     1     -42.752   4.109  -2.220  1.00 20.00     0.392 C 
HETATM   10  F10 UNL     1     -41.523   3.620  -2.512  1.00 20.00    -0.171 F 
HETATM   11  F11 UNL     1     -43.412   3.154  -1.522  1.00 20.00    -0.171 F 
HETATM   12  F12 UNL     1     -43.409   4.278  -3.393  1.00 20.00    -0.171 F 
ENDBRANCH   7   9
TORSDOF 1
ENDMDL
