MODEL 1
REMARK VINA RESULT:      -4.9      0.000      0.000
REMARK  0 active torsions:
REMARK  status: ('A' for Active; 'I' for Inactive)
ROOT
HETATM    1  C1  UNL     1     -34.123  17.784  -4.163  1.00 20.00     0.027 C 
HETATM    2  C2  UNL     1     -34.817  17.492  -5.492  1.00 20.00     0.027 C 
HETATM    3  C3  UNL     1     -34.785  13.904  -3.842  1.00 20.00     0.009 C 
HETATM    4  C4  UNL     1     -32.930  15.576  -3.706  1.00 20.00     0.030 C 
HETATM    5  C5  UNL     1     -35.203  16.053  -2.631  1.00 20.00     0.030 C 
HETATM    6  C6  UNL     1     -34.086  15.088  -5.933  1.00 20.00     0.030 C 
HETATM    7  C7  UNL     1     -36.360  15.562  -4.857  1.00 20.00     0.030 C 
HETATM    8  C8  UNL     1     -33.606  14.525  -4.592  1.00 20.00    -0.010 C 
HETATM    9  C9  UNL     1     -35.821  14.988  -3.543  1.00 20.00    -0.010 C 
HETATM   10  C10 UNL     1     -33.886  16.650  -3.158  1.00 20.00     0.038 C 
HETATM   11  C11 UNL     1     -35.271  16.064  -5.821  1.00 20.00     0.038 C 
HETATM   12 CL12 UNL     1     -33.049  17.434  -1.739  1.00 20.00    -0.119 Cl
HETATM   13 CL13 UNL     1     -36.032  16.170  -7.476  1.00 20.00    -0.119 Cl
ENDROOT
TORSDOF 0
ENDMDL
MODEL 2
REMARK VINA RESULT:      -4.9      0.062      3.669
REMARK  0 active torsions:
REMARK  status: ('A' for Active; 'I' for Inactive)
ROOT
HETATM    1  C1  UNL     1     -34.893  17.490  -5.481  1.00 20.00     0.027 C 
HETATM    2  C2  UNL     1     -34.214  17.783  -4.145  1.00 20.00     0.027 C 
HETATM    3  C3  UNL     1     -34.780  13.884  -3.874  1.00 20.00     0.009 C 
HETATM    4  C4  UNL     1     -36.391  15.514  -4.878  1.00 20.00     0.030 C 
HETATM    5  C5  UNL     1     -34.100  15.110  -5.946  1.00 20.00     0.030 C 
HETATM    6  C6  UNL     1     -35.259  16.008  -2.640  1.00 20.00     0.030 C 
HETATM    7  C7  UNL     1     -32.968  15.600  -3.707  1.00 20.00     0.030 C 
HETATM    8  C8  UNL     1     -35.845  14.938  -3.568  1.00 20.00    -0.010 C 
HETATM    9  C9  UNL     1     -33.613  14.543  -4.609  1.00 20.00    -0.010 C 
HETATM   10  C10 UNL     1     -35.309  16.055  -5.830  1.00 20.00     0.038 C 
HETATM   11  C11 UNL     1     -33.954  16.643  -3.152  1.00 20.00     0.038 C 
HETATM   12 CL12 UNL     1     -36.064  16.163  -7.488  1.00 20.00    -0.119 Cl
HETATM   13 CL13 UNL     1     -33.146  17.430  -1.718  1.00 20.00    -0.119 Cl
ENDROOT
TORSDOF 0
ENDMDL
MODEL 3
REMARK VINA RESULT:      -4.8      1.543      3.392
REMARK  0 active torsions:
REMARK  status: ('A' for Active; 'I' for Inactive)
ROOT
HETATM    1  C1  UNL     1     -34.652  16.909  -5.901  1.00 20.00     0.027 C 
HETATM    2  C2  UNL     1     -35.287  17.410  -4.606  1.00 20.00     0.027 C 
HETATM    3  C3  UNL     1     -35.468  13.500  -4.083  1.00 20.00     0.009 C 
HETATM    4  C4  UNL     1     -35.863  14.690  -6.247  1.00 20.00     0.030 C 
HETATM    5  C5  UNL     1     -33.561  14.736  -5.129  1.00 20.00     0.030 C 
HETATM    6  C6  UNL     1     -36.931  15.530  -4.082  1.00 20.00     0.030 C 
HETATM    7  C7  UNL     1     -34.629  15.573  -2.963  1.00 20.00     0.030 C 
HETATM    8  C8  UNL     1     -36.476  14.314  -4.895  1.00 20.00    -0.010 C 
HETATM    9  C9  UNL     1     -34.233  14.356  -3.806  1.00 20.00    -0.010 C 
HETATM   10  C10 UNL     1     -34.502  15.403  -6.148  1.00 20.00     0.038 C 
HETATM   11  C11 UNL     1     -35.779  16.405  -3.556  1.00 20.00     0.038 C 
HETATM   12 CL12 UNL     1     -33.706  15.261  -7.783  1.00 20.00    -0.119 Cl
HETATM   13 CL13 UNL     1     -36.457  17.420  -2.200  1.00 20.00    -0.119 Cl
ENDROOT
TORSDOF 0
ENDMDL
MODEL 4
REMARK VINA RESULT:      -4.7      1.512      1.758
REMARK  0 active torsions:
REMARK  status: ('A' for Active; 'I' for Inactive)
ROOT
HETATM    1  C1  UNL     1     -35.175  17.441  -4.524  1.00 20.00     0.027 C 
HETATM    2  C2  UNL     1     -34.578  16.951  -5.842  1.00 20.00     0.027 C 
HETATM    3  C3  UNL     1     -35.574  13.531  -4.136  1.00 20.00     0.009 C 
HETATM    4  C4  UNL     1     -34.610  15.513  -2.951  1.00 20.00     0.030 C 
HETATM    5  C5  UNL     1     -36.918  15.639  -4.051  1.00 20.00     0.030 C 
HETATM    6  C6  UNL     1     -33.606  14.694  -5.155  1.00 20.00     0.030 C 
HETATM    7  C7  UNL     1     -35.915  14.817  -6.254  1.00 20.00     0.030 C 
HETATM    8  C8  UNL     1     -34.289  14.307  -3.839  1.00 20.00    -0.010 C 
HETATM    9  C9  UNL     1     -36.539  14.429  -4.910  1.00 20.00    -0.010 C 
HETATM   10  C10 UNL     1     -35.715  16.429  -3.505  1.00 20.00     0.038 C 
HETATM   11  C11 UNL     1     -34.516  15.448  -6.142  1.00 20.00     0.038 C 
HETATM   12 CL12 UNL     1     -36.325  17.433  -2.109  1.00 20.00    -0.119 Cl
HETATM   13 CL13 UNL     1     -33.739  15.318  -7.787  1.00 20.00    -0.119 Cl
ENDROOT
TORSDOF 0
ENDMDL
MODEL 5
REMARK VINA RESULT:      -4.5      1.706      2.485
REMARK  0 active torsions:
REMARK  status: ('A' for Active; 'I' for Inactive)
ROOT
HETATM    1  C1  UNL     1     -34.429  17.164  -5.643  1.00 20.00     0.027 C 
HETATM    2  C2  UNL     1     -35.325  15.928  -5.628  1.00 20.00     0.027 C 
HETATM    3  C3  UNL     1     -35.050  16.721  -1.769  1.00 20.00     0.009 C 
HETATM    4  C4  UNL     1     -33.188  16.932  -3.426  1.00 20.00     0.030 C 
HETATM    5  C5  UNL     1     -35.261  18.425  -3.588  1.00 20.00     0.030 C 
HETATM    6  C6  UNL     1     -34.684  14.859  -3.401  1.00 20.00     0.030 C 
HETATM    7  C7  UNL     1     -36.757  16.353  -3.559  1.00 20.00     0.030 C 
HETATM    8  C8  UNL     1     -34.000  15.953  -2.574  1.00 20.00    -0.010 C 
HETATM    9  C9  UNL     1     -36.020  17.408  -2.729  1.00 20.00    -0.010 C 
HETATM   10  C10 UNL     1     -34.041  17.845  -4.325  1.00 20.00     0.038 C 
HETATM   11  C11 UNL     1     -35.832  15.366  -4.293  1.00 20.00     0.038 C 
HETATM   12 CL12 UNL     1     -32.987  19.255  -4.805  1.00 20.00    -0.119 Cl
HETATM   13 CL13 UNL     1     -36.844  13.914  -4.735  1.00 20.00    -0.119 Cl
ENDROOT
TORSDOF 0
ENDMDL
MODEL 6
REMARK VINA RESULT:      -4.5      1.395      3.451
REMARK  0 active torsions:
REMARK  status: ('A' for Active; 'I' for Inactive)
ROOT
HETATM    1  C1  UNL     1     -36.313  16.238  -3.083  1.00 20.00     0.027 C 
HETATM    2  C2  UNL     1     -35.099  17.120  -2.801  1.00 20.00     0.027 C 
HETATM    3  C3  UNL     1     -33.850  15.086  -5.948  1.00 20.00     0.009 C 
HETATM    4  C4  UNL     1     -35.221  14.156  -4.074  1.00 20.00     0.030 C 
HETATM    5  C5  UNL     1     -36.169  15.965  -5.616  1.00 20.00     0.030 C 
HETATM    6  C6  UNL     1     -33.187  15.629  -3.597  1.00 20.00     0.030 C 
HETATM    7  C7  UNL     1     -34.134  17.437  -5.142  1.00 20.00     0.030 C 
HETATM    8  C8  UNL     1     -33.812  14.569  -4.509  1.00 20.00    -0.010 C 
HETATM    9  C9  UNL     1     -34.736  16.331  -6.014  1.00 20.00    -0.010 C 
HETATM   10  C10 UNL     1     -36.286  15.251  -4.257  1.00 20.00     0.038 C 
HETATM   11  C11 UNL     1     -33.852  17.014  -3.690  1.00 20.00     0.038 C 
HETATM   12 CL12 UNL     1     -37.912  14.424  -4.227  1.00 20.00    -0.119 Cl
HETATM   13 CL13 UNL     1     -32.668  18.220  -3.003  1.00 20.00    -0.119 Cl
ENDROOT
TORSDOF 0
ENDMDL
MODEL 7
REMARK VINA RESULT:      -4.4      1.564      3.823
REMARK  0 active torsions:
REMARK  status: ('A' for Active; 'I' for Inactive)
ROOT
HETATM    1  C1  UNL     1     -36.910  15.924  -4.599  1.00 20.00     0.027 C 
HETATM    2  C2  UNL     1     -37.127  16.871  -3.420  1.00 20.00     0.027 C 
HETATM    3  C3  UNL     1     -33.192  16.534  -3.416  1.00 20.00     0.009 C 
HETATM    4  C4  UNL     1     -34.803  14.678  -3.881  1.00 20.00     0.030 C 
HETATM    5  C5  UNL     1     -34.632  16.688  -5.456  1.00 20.00     0.030 C 
HETATM    6  C6  UNL     1     -35.168  16.258  -1.905  1.00 20.00     0.030 C 
HETATM    7  C7  UNL     1     -34.994  18.269  -3.479  1.00 20.00     0.030 C 
HETATM    8  C8  UNL     1     -34.150  15.524  -2.783  1.00 20.00    -0.010 C 
HETATM    9  C9  UNL     1     -33.981  17.482  -4.318  1.00 20.00    -0.010 C 
HETATM   10  C10 UNL     1     -35.489  15.499  -4.987  1.00 20.00     0.038 C 
HETATM   11  C11 UNL     1     -35.923  17.391  -2.624  1.00 20.00     0.038 C 
HETATM   12 CL12 UNL     1     -35.694  14.391  -6.423  1.00 20.00    -0.119 Cl
HETATM   13 CL13 UNL     1     -36.630  18.465  -1.330  1.00 20.00    -0.119 Cl
ENDROOT
TORSDOF 0
ENDMDL
MODEL 8
REMARK VINA RESULT:      -4.4      1.571      2.568
REMARK  0 active torsions:
REMARK  status: ('A' for Active; 'I' for Inactive)
ROOT
HETATM    1  C1  UNL     1     -37.138  16.832  -3.417  1.00 20.00     0.027 C 
HETATM    2  C2  UNL     1     -36.902  15.891  -4.596  1.00 20.00     0.027 C 
HETATM    3  C3  UNL     1     -33.197  16.584  -3.416  1.00 20.00     0.009 C 
HETATM    4  C4  UNL     1     -35.037  18.277  -3.477  1.00 20.00     0.030 C 
HETATM    5  C5  UNL     1     -35.164  16.262  -1.904  1.00 20.00     0.030 C 
HETATM    6  C6  UNL     1     -34.642  16.707  -5.456  1.00 20.00     0.030 C 
HETATM    7  C7  UNL     1     -34.766  14.692  -3.882  1.00 20.00     0.030 C 
HETATM    8  C8  UNL     1     -34.008  17.515  -4.318  1.00 20.00    -0.010 C 
HETATM    9  C9  UNL     1     -34.130  15.552  -2.784  1.00 20.00    -0.010 C 
HETATM   10  C10 UNL     1     -35.945  17.377  -2.621  1.00 20.00     0.038 C 
HETATM   11  C11 UNL     1     -35.471  15.498  -4.987  1.00 20.00     0.038 C 
HETATM   12 CL12 UNL     1     -36.675  18.435  -1.326  1.00 20.00    -0.119 Cl
HETATM   13 CL13 UNL     1     -35.653  14.388  -6.423  1.00 20.00    -0.119 Cl
ENDROOT
TORSDOF 0
ENDMDL
MODEL 9
REMARK VINA RESULT:      -4.4      1.466      2.399
REMARK  0 active torsions:
REMARK  status: ('A' for Active; 'I' for Inactive)
ROOT
HETATM    1  C1  UNL     1     -35.212  17.346  -3.061  1.00 20.00     0.027 C 
HETATM    2  C2  UNL     1     -36.411  16.424  -3.271  1.00 20.00     0.027 C 
HETATM    3  C3  UNL     1     -33.839  14.938  -5.873  1.00 20.00     0.009 C 
HETATM    4  C4  UNL     1     -34.163  17.370  -5.386  1.00 20.00     0.030 C 
HETATM    5  C5  UNL     1     -33.266  15.783  -3.589  1.00 20.00     0.030 C 
HETATM    6  C6  UNL     1     -36.173  15.831  -5.741  1.00 20.00     0.030 C 
HETATM    7  C7  UNL     1     -35.274  14.242  -3.946  1.00 20.00     0.030 C 
HETATM    8  C8  UNL     1     -34.727  16.156  -6.130  1.00 20.00    -0.010 C 
HETATM    9  C9  UNL     1     -33.852  14.609  -4.381  1.00 20.00    -0.010 C 
HETATM   10  C10 UNL     1     -33.933  17.139  -3.882  1.00 20.00     0.038 C 
HETATM   11  C11 UNL     1     -36.336  15.295  -4.307  1.00 20.00     0.038 C 
HETATM   12 CL12 UNL     1     -32.782  18.434  -3.314  1.00 20.00    -0.119 Cl
HETATM   13 CL13 UNL     1     -37.959  14.464  -4.231  1.00 20.00    -0.119 Cl
ENDROOT
TORSDOF 0
ENDMDL
