MODEL 1
REMARK VINA RESULT:      -4.4      0.000      0.000
REMARK  3 active torsions:
REMARK  status: ('A' for Active; 'I' for Inactive)
REMARK    1  A    between atoms: C1_1  and  C4_4 
REMARK       I    between atoms: C1_1  and  N10_10 
REMARK    2  A    between atoms: C8_8  and  C9_9 
REMARK    3  A    between atoms: C9_9  and  N10_10 
ROOT
HETATM    1  C1  UNL     1     -24.465  18.551   8.312  1.00 20.00     0.222 C 
HETATM    2  N10 UNL     1     -24.897  18.418   9.613  1.00 20.00    -0.352 N 
HETATM    3  O11 UNL     1     -23.404  18.151   7.848  1.00 20.00    -0.273 OA
HETATM    4  H28 UNL     1     -25.802  18.796   9.864  1.00 20.00     0.163 HD
ENDROOT
BRANCH   2   5
HETATM    5  C9  UNL     1     -24.112  17.756  10.641  1.00 20.00     0.025 C 
HETATM    6  C6  UNL     1     -24.246  16.237  10.447  1.00 20.00     0.038 C 
HETATM    7  C7  UNL     1     -22.637  18.150  10.484  1.00 20.00     0.038 C 
BRANCH   5   8
HETATM    8  C8  UNL     1     -24.653  18.128  12.043  1.00 20.00     0.026 C 
HETATM    9  C5  UNL     1     -26.061  18.714  12.055  1.00 20.00     0.007 C 
ENDBRANCH   5   8
ENDBRANCH   2   5
BRANCH   1  10
HETATM   10  C4  UNL     1     -25.434  19.263   7.427  1.00 20.00     0.078 A 
HETATM   11  C2  UNL     1     -25.307  19.092   5.950  1.00 20.00     0.015 A 
HETATM   12  C3  UNL     1     -26.447  18.454   6.686  1.00 20.00     0.015 A 
ENDBRANCH   1  10
TORSDOF 3
ENDMDL
MODEL 2
REMARK VINA RESULT:      -4.3      0.580      1.673
REMARK  3 active torsions:
REMARK  status: ('A' for Active; 'I' for Inactive)
REMARK    1  A    between atoms: C1_1  and  C4_4 
REMARK       I    between atoms: C1_1  and  N10_10 
REMARK    2  A    between atoms: C8_8  and  C9_9 
REMARK    3  A    between atoms: C9_9  and  N10_10 
ROOT
HETATM    1  C1  UNL     1     -24.756  18.528   8.408  1.00 20.00     0.222 C 
HETATM    2  N10 UNL     1     -25.111  18.479   9.737  1.00 20.00    -0.352 N 
HETATM    3  O11 UNL     1     -23.749  18.049   7.901  1.00 20.00    -0.273 OA
HETATM    4  H28 UNL     1     -25.977  18.918  10.024  1.00 20.00     0.163 HD
ENDROOT
BRANCH   2   5
HETATM    5  C9  UNL     1     -24.299  17.821  10.748  1.00 20.00     0.025 C 
HETATM    6  C6  UNL     1     -22.826  18.178  10.490  1.00 20.00     0.038 C 
HETATM    7  C7  UNL     1     -24.701  18.339  12.135  1.00 20.00     0.038 C 
BRANCH   5   8
HETATM    8  C8  UNL     1     -24.465  16.286  10.645  1.00 20.00     0.026 C 
HETATM    9  C5  UNL     1     -24.617  15.564  11.979  1.00 20.00     0.007 C 
ENDBRANCH   5   8
ENDBRANCH   2   5
BRANCH   1  10
HETATM   10  C4  UNL     1     -25.739  19.252   7.549  1.00 20.00     0.078 A 
HETATM   11  C2  UNL     1     -25.540  19.237   6.070  1.00 20.00     0.015 A 
HETATM   12  C3  UNL     1     -26.657  18.449   6.687  1.00 20.00     0.015 A 
ENDBRANCH   1  10
TORSDOF 3
ENDMDL
MODEL 3
REMARK VINA RESULT:      -4.2     11.302     14.147
REMARK  3 active torsions:
REMARK  status: ('A' for Active; 'I' for Inactive)
REMARK    1  A    between atoms: C1_1  and  C4_4 
REMARK       I    between atoms: C1_1  and  N10_10 
REMARK    2  A    between atoms: C8_8  and  C9_9 
REMARK    3  A    between atoms: C9_9  and  N10_10 
ROOT
HETATM    1  C1  UNL     1     -32.211  18.648  -1.253  1.00 20.00     0.222 C 
HETATM    2  N10 UNL     1     -33.251  17.764  -1.072  1.00 20.00    -0.352 N 
HETATM    3  O11 UNL     1     -31.793  19.077  -2.322  1.00 20.00    -0.273 OA
HETATM    4  H28 UNL     1     -33.495  17.491  -0.129  1.00 20.00     0.163 HD
ENDROOT
BRANCH   2   5
HETATM    5  C9  UNL     1     -34.015  17.207  -2.176  1.00 20.00     0.025 C 
HETATM    6  C6  UNL     1     -35.155  16.357  -1.593  1.00 20.00     0.038 C 
HETATM    7  C7  UNL     1     -34.619  18.352  -3.001  1.00 20.00     0.038 C 
BRANCH   5   8
HETATM    8  C8  UNL     1     -33.110  16.299  -3.043  1.00 20.00     0.026 C 
HETATM    9  C5  UNL     1     -33.835  15.168  -3.765  1.00 20.00     0.007 C 
ENDBRANCH   5   8
ENDBRANCH   2   5
BRANCH   1  10
HETATM   10  C4  UNL     1     -31.570  19.092   0.020  1.00 20.00     0.078 A 
HETATM   11  C2  UNL     1     -32.016  18.464   1.298  1.00 20.00     0.015 A 
HETATM   12  C3  UNL     1     -30.667  18.138   0.731  1.00 20.00     0.015 A 
ENDBRANCH   1  10
TORSDOF 3
ENDMDL
MODEL 4
REMARK VINA RESULT:      -4.1     15.070     16.177
REMARK  3 active torsions:
REMARK  status: ('A' for Active; 'I' for Inactive)
REMARK    1  A    between atoms: C1_1  and  C4_4 
REMARK       I    between atoms: C1_1  and  N10_10 
REMARK    2  A    between atoms: C8_8  and  C9_9 
REMARK    3  A    between atoms: C9_9  and  N10_10 
ROOT
HETATM    1  C1  UNL     1     -33.015   6.235   2.605  1.00 20.00     0.222 C 
HETATM    2  N10 UNL     1     -33.743   6.490   3.746  1.00 20.00    -0.352 N 
HETATM    3  O11 UNL     1     -32.954   5.172   1.998  1.00 20.00    -0.273 OA
HETATM    4  H28 UNL     1     -33.705   7.418   4.147  1.00 20.00     0.163 HD
ENDROOT
BRANCH   2   5
HETATM    5  C9  UNL     1     -34.566   5.486   4.398  1.00 20.00     0.025 C 
HETATM    6  C6  UNL     1     -36.000   5.613   3.861  1.00 20.00     0.038 C 
HETATM    7  C7  UNL     1     -34.028   4.090   4.055  1.00 20.00     0.038 C 
BRANCH   5   8
HETATM    8  C8  UNL     1     -34.584   5.726   5.927  1.00 20.00     0.026 C 
HETATM    9  C5  UNL     1     -33.881   6.999   6.387  1.00 20.00     0.007 C 
ENDBRANCH   5   8
ENDBRANCH   2   5
BRANCH   1  10
HETATM   10  C4  UNL     1     -32.245   7.412   2.107  1.00 20.00     0.078 A 
HETATM   11  C2  UNL     1     -32.150   7.631   0.634  1.00 20.00     0.015 A 
HETATM   12  C3  UNL     1     -32.996   8.538   1.477  1.00 20.00     0.015 A 
ENDBRANCH   1  10
TORSDOF 3
ENDMDL
MODEL 5
REMARK VINA RESULT:      -4.1      1.102      2.298
REMARK  3 active torsions:
REMARK  status: ('A' for Active; 'I' for Inactive)
REMARK    1  A    between atoms: C1_1  and  C4_4 
REMARK       I    between atoms: C1_1  and  N10_10 
REMARK    2  A    between atoms: C8_8  and  C9_9 
REMARK    3  A    between atoms: C9_9  and  N10_10 
ROOT
HETATM    1  C1  UNL     1     -24.780  18.847   7.589  1.00 20.00     0.222 C 
HETATM    2  N10 UNL     1     -24.951  18.459   8.900  1.00 20.00    -0.352 N 
HETATM    3  O11 UNL     1     -23.726  18.875   6.966  1.00 20.00    -0.273 OA
HETATM    4  H28 UNL     1     -25.882  18.482   9.294  1.00 20.00     0.163 HD
ENDROOT
BRANCH   2   5
HETATM    5  C9  UNL     1     -23.852  18.014   9.741  1.00 20.00     0.025 C 
HETATM    6  C6  UNL     1     -24.194  18.349  11.201  1.00 20.00     0.038 C 
HETATM    7  C7  UNL     1     -23.693  16.493   9.603  1.00 20.00     0.038 C 
BRANCH   5   8
HETATM    8  C8  UNL     1     -22.551  18.757   9.351  1.00 20.00     0.026 C 
HETATM    9  C5  UNL     1     -21.294  17.894   9.342  1.00 20.00     0.007 C 
ENDBRANCH   5   8
ENDBRANCH   2   5
BRANCH   1  10
HETATM   10  C4  UNL     1     -26.046  19.263   6.916  1.00 20.00     0.078 A 
HETATM   11  C2  UNL     1     -26.133  19.150   5.431  1.00 20.00     0.015 A 
HETATM   12  C3  UNL     1     -26.905  18.207   6.304  1.00 20.00     0.015 A 
ENDBRANCH   1  10
TORSDOF 3
ENDMDL
MODEL 6
REMARK VINA RESULT:      -4.1      1.681      4.072
REMARK  3 active torsions:
REMARK  status: ('A' for Active; 'I' for Inactive)
REMARK    1  A    between atoms: C1_1  and  C4_4 
REMARK       I    between atoms: C1_1  and  N10_10 
REMARK    2  A    between atoms: C8_8  and  C9_9 
REMARK    3  A    between atoms: C9_9  and  N10_10 
ROOT
HETATM    1  C1  UNL     1     -23.832  18.059  11.369  1.00 20.00     0.222 C 
HETATM    2  N10 UNL     1     -24.155  18.316  10.055  1.00 20.00    -0.352 N 
HETATM    3  O11 UNL     1     -22.773  17.609  11.788  1.00 20.00    -0.273 OA
HETATM    4  H28 UNL     1     -25.071  18.691   9.846  1.00 20.00     0.163 HD
ENDROOT
BRANCH   2   5
HETATM    5  C9  UNL     1     -23.236  18.076   8.955  1.00 20.00     0.025 C 
HETATM    6  C6  UNL     1     -21.918  18.808   9.259  1.00 20.00     0.038 C 
HETATM    7  C7  UNL     1     -22.956  16.571   8.849  1.00 20.00     0.038 C 
BRANCH   5   8
HETATM    8  C8  UNL     1     -23.826  18.638   7.639  1.00 20.00     0.026 C 
HETATM    9  C5  UNL     1     -25.325  18.918   7.674  1.00 20.00     0.007 C 
ENDBRANCH   5   8
ENDBRANCH   2   5
BRANCH   1  10
HETATM   10  C4  UNL     1     -24.926  18.382  12.332  1.00 20.00     0.078 A 
HETATM   11  C2  UNL     1     -26.209  18.925  11.795  1.00 20.00     0.015 A 
HETATM   12  C3  UNL     1     -26.149  17.526  12.331  1.00 20.00     0.015 A 
ENDBRANCH   1  10
TORSDOF 3
ENDMDL
MODEL 7
REMARK VINA RESULT:      -4.1     15.400     17.780
REMARK  3 active torsions:
REMARK  status: ('A' for Active; 'I' for Inactive)
REMARK    1  A    between atoms: C1_1  and  C4_4 
REMARK       I    between atoms: C1_1  and  N10_10 
REMARK    2  A    between atoms: C8_8  and  C9_9 
REMARK    3  A    between atoms: C9_9  and  N10_10 
ROOT
HETATM    1  C1  UNL     1     -33.614  15.293  -4.296  1.00 20.00     0.222 C 
HETATM    2  N10 UNL     1     -34.628  15.963  -4.945  1.00 20.00    -0.352 N 
HETATM    3  O11 UNL     1     -33.161  14.193  -4.587  1.00 20.00    -0.273 OA
HETATM    4  H28 UNL     1     -34.907  16.872  -4.599  1.00 20.00     0.163 HD
ENDROOT
BRANCH   2   5
HETATM    5  C9  UNL     1     -35.314  15.423  -6.107  1.00 20.00     0.025 C 
HETATM    6  C6  UNL     1     -36.332  16.465  -6.595  1.00 20.00     0.038 C 
HETATM    7  C7  UNL     1     -34.292  15.166  -7.223  1.00 20.00     0.038 C 
BRANCH   5   8
HETATM    8  C8  UNL     1     -36.071  14.129  -5.722  1.00 20.00     0.026 C 
HETATM    9  C5  UNL     1     -36.962  14.247  -4.489  1.00 20.00     0.007 C 
ENDBRANCH   5   8
ENDBRANCH   2   5
BRANCH   1  10
HETATM   10  C4  UNL     1     -33.053  16.037  -3.130  1.00 20.00     0.078 A 
HETATM   11  C2  UNL     1     -33.205  17.521  -3.091  1.00 20.00     0.015 A 
HETATM   12  C3  UNL     1     -34.003  16.659  -2.160  1.00 20.00     0.015 A 
ENDBRANCH   1  10
TORSDOF 3
ENDMDL
MODEL 8
REMARK VINA RESULT:      -4.1     15.823     18.388
REMARK  3 active torsions:
REMARK  status: ('A' for Active; 'I' for Inactive)
REMARK    1  A    between atoms: C1_1  and  C4_4 
REMARK       I    between atoms: C1_1  and  N10_10 
REMARK    2  A    between atoms: C8_8  and  C9_9 
REMARK    3  A    between atoms: C9_9  and  N10_10 
ROOT
HETATM    1  C1  UNL     1     -34.334  15.059  -4.928  1.00 20.00     0.222 C 
HETATM    2  N10 UNL     1     -34.099  16.202  -5.660  1.00 20.00    -0.352 N 
HETATM    3  O11 UNL     1     -34.931  14.058  -5.305  1.00 20.00    -0.273 OA
HETATM    4  H28 UNL     1     -33.588  16.959  -5.225  1.00 20.00     0.163 HD
ENDROOT
BRANCH   2   5
HETATM    5  C9  UNL     1     -34.550  16.366  -7.032  1.00 20.00     0.025 C 
HETATM    6  C6  UNL     1     -34.134  17.766  -7.512  1.00 20.00     0.038 C 
HETATM    7  C7  UNL     1     -33.869  15.314  -7.918  1.00 20.00     0.038 C 
BRANCH   5   8
HETATM    8  C8  UNL     1     -36.092  16.254  -7.101  1.00 20.00     0.026 C 
HETATM    9  C5  UNL     1     -36.850  17.286  -6.272  1.00 20.00     0.007 C 
ENDBRANCH   5   8
ENDBRANCH   2   5
BRANCH   1  10
HETATM   10  C4  UNL     1     -33.779  15.108  -3.543  1.00 20.00     0.078 A 
HETATM   11  C2  UNL     1     -33.268  16.412  -3.026  1.00 20.00     0.015 A 
HETATM   12  C3  UNL     1     -34.549  15.842  -2.495  1.00 20.00     0.015 A 
ENDBRANCH   1  10
TORSDOF 3
ENDMDL
MODEL 9
REMARK VINA RESULT:      -4.0     15.273     17.738
REMARK  3 active torsions:
REMARK  status: ('A' for Active; 'I' for Inactive)
REMARK    1  A    between atoms: C1_1  and  C4_4 
REMARK       I    between atoms: C1_1  and  N10_10 
REMARK    2  A    between atoms: C8_8  and  C9_9 
REMARK    3  A    between atoms: C9_9  and  N10_10 
ROOT
HETATM    1  C1  UNL     1     -33.894  15.113  -4.144  1.00 20.00     0.222 C 
HETATM    2  N10 UNL     1     -35.114  15.672  -4.455  1.00 20.00    -0.352 N 
HETATM    3  O11 UNL     1     -33.485  14.010  -4.488  1.00 20.00    -0.273 OA
HETATM    4  H28 UNL     1     -35.326  16.597  -4.105  1.00 20.00     0.163 HD
ENDROOT
BRANCH   2   5
HETATM    5  C9  UNL     1     -36.109  14.993  -5.268  1.00 20.00     0.025 C 
HETATM    6  C6  UNL     1     -35.515  14.764  -6.667  1.00 20.00     0.038 C 
HETATM    7  C7  UNL     1     -36.434  13.632  -4.637  1.00 20.00     0.038 C 
BRANCH   5   8
HETATM    8  C8  UNL     1     -37.375  15.873  -5.402  1.00 20.00     0.026 C 
HETATM    9  C5  UNL     1     -37.188  17.334  -5.003  1.00 20.00     0.007 C 
ENDBRANCH   5   8
ENDBRANCH   2   5
BRANCH   1  10
HETATM   10  C4  UNL     1     -33.029  15.989  -3.300  1.00 20.00     0.078 A 
HETATM   11  C2  UNL     1     -33.156  17.468  -3.446  1.00 20.00     0.015 A 
HETATM   12  C3  UNL     1     -33.671  16.787  -2.214  1.00 20.00     0.015 A 
ENDBRANCH   1  10
TORSDOF 3
ENDMDL
