MODEL 1
REMARK VINA RESULT:      -4.2      0.000      0.000
REMARK  1 active torsions:
REMARK  status: ('A' for Active; 'I' for Inactive)
REMARK    1  A    between atoms: C7_7  and  C8_8 
ROOT
HETATM    1  C1  UNL     1     -42.727   9.190   0.012  1.00 20.00     0.005 C 
HETATM    2  C2  UNL     1     -41.295   8.860   0.459  1.00 20.00     0.005 C 
HETATM    3  C3  UNL     1     -42.693   7.018   0.986  1.00 20.00     0.010 C 
HETATM    4  C4  UNL     1     -42.800   7.110  -1.390  1.00 20.00     0.010 C 
HETATM    5  C5  UNL     1     -43.371   7.801  -0.137  1.00 20.00    -0.014 C 
HETATM    6  C6  UNL     1     -41.283   7.321   0.473  1.00 20.00    -0.009 C 
HETATM    7  C7  UNL     1     -41.337   6.822  -0.992  1.00 20.00     0.004 C 
ENDROOT
BRANCH   7   8
HETATM    8  C8  UNL     1     -40.981   5.345  -1.127  1.00 20.00     0.119 C 
HETATM    9 CL9  UNL     1     -42.351   4.446  -1.809  1.00 20.00    -0.130 Cl
ENDBRANCH   7   8
TORSDOF 1
ENDMDL
MODEL 2
REMARK VINA RESULT:      -4.2      1.196      2.214
REMARK  1 active torsions:
REMARK  status: ('A' for Active; 'I' for Inactive)
REMARK    1  A    between atoms: C7_7  and  C8_8 
ROOT
HETATM    1  C1  UNL     1     -41.378   7.581   0.630  1.00 20.00     0.005 C 
HETATM    2  C2  UNL     1     -42.835   7.177   0.898  1.00 20.00     0.005 C 
HETATM    3  C3  UNL     1     -42.577   7.575  -1.426  1.00 20.00     0.010 C 
HETATM    4  C4  UNL     1     -41.138   5.720  -1.037  1.00 20.00     0.010 C 
HETATM    5  C5  UNL     1     -41.196   7.249  -0.861  1.00 20.00    -0.014 C 
HETATM    6  C6  UNL     1     -43.297   6.628  -0.464  1.00 20.00    -0.009 C 
HETATM    7  C7  UNL     1     -42.581   5.278  -0.711  1.00 20.00     0.004 C 
ENDROOT
BRANCH   7   8
HETATM    8  C8  UNL     1     -43.208   4.473  -1.845  1.00 20.00     0.119 C 
HETATM    9 CL9  UNL     1     -41.961   3.547  -2.701  1.00 20.00    -0.130 Cl
ENDBRANCH   7   8
TORSDOF 1
ENDMDL
MODEL 3
REMARK VINA RESULT:      -4.2     23.195     23.812
REMARK  1 active torsions:
REMARK  status: ('A' for Active; 'I' for Inactive)
REMARK    1  A    between atoms: C7_7  and  C8_8 
ROOT
HETATM    1  C1  UNL     1     -25.292  16.216  12.233  1.00 20.00     0.005 C 
HETATM    2  C2  UNL     1     -25.868  17.632  12.084  1.00 20.00     0.005 C 
HETATM    3  C3  UNL     1     -23.507  17.791  12.229  1.00 20.00     0.010 C 
HETATM    4  C4  UNL     1     -23.839  16.565  10.217  1.00 20.00     0.010 C 
HETATM    5  C5  UNL     1     -23.842  16.381  11.746  1.00 20.00    -0.014 C 
HETATM    6  C6  UNL     1     -24.689  18.425  11.493  1.00 20.00    -0.009 C 
HETATM    7  C7  UNL     1     -24.475  17.959  10.032  1.00 20.00     0.004 C 
ENDROOT
BRANCH   7   8
HETATM    8  C8  UNL     1     -23.578  18.902   9.236  1.00 20.00     0.119 C 
HETATM    9 CL9  UNL     1     -22.014  18.131   8.913  1.00 20.00    -0.130 Cl
ENDBRANCH   7   8
TORSDOF 1
ENDMDL
MODEL 4
REMARK VINA RESULT:      -4.1     10.481     11.634
REMARK  1 active torsions:
REMARK  status: ('A' for Active; 'I' for Inactive)
REMARK    1  A    between atoms: C7_7  and  C8_8 
ROOT
HETATM    1  C1  UNL     1     -33.402  16.599  -2.477  1.00 20.00     0.005 C 
HETATM    2  C2  UNL     1     -34.780  16.283  -1.876  1.00 20.00     0.005 C 
HETATM    3  C3  UNL     1     -35.056  16.765  -4.181  1.00 20.00     0.010 C 
HETATM    4  C4  UNL     1     -33.711  14.802  -4.201  1.00 20.00     0.010 C 
HETATM    5  C5  UNL     1     -33.608  16.322  -3.976  1.00 20.00    -0.014 C 
HETATM    6  C6  UNL     1     -35.595  15.827  -3.099  1.00 20.00    -0.009 C 
HETATM    7  C7  UNL     1     -35.063  14.444  -3.547  1.00 20.00     0.004 C 
ENDROOT
BRANCH   7   8
HETATM    8  C8  UNL     1     -36.003  13.734  -4.516  1.00 20.00     0.119 C 
HETATM    9 CL9  UNL     1     -37.653  14.362  -4.338  1.00 20.00    -0.130 Cl
ENDBRANCH   7   8
TORSDOF 1
ENDMDL
MODEL 5
REMARK VINA RESULT:      -4.1     11.745     12.983
REMARK  1 active torsions:
REMARK  status: ('A' for Active; 'I' for Inactive)
REMARK    1  A    between atoms: C7_7  and  C8_8 
ROOT
HETATM    1  C1  UNL     1     -34.715  14.276  -3.806  1.00 20.00     0.005 C 
HETATM    2  C2  UNL     1     -33.341  14.840  -4.197  1.00 20.00     0.005 C 
HETATM    3  C3  UNL     1     -34.940  16.585  -4.338  1.00 20.00     0.010 C 
HETATM    4  C4  UNL     1     -34.959  16.026  -2.025  1.00 20.00     0.010 C 
HETATM    5  C5  UNL     1     -35.495  15.531  -3.381  1.00 20.00    -0.014 C 
HETATM    6  C6  UNL     1     -33.490  16.345  -3.910  1.00 20.00    -0.009 C 
HETATM    7  C7  UNL     1     -33.547  16.543  -2.376  1.00 20.00     0.004 C 
ENDROOT
BRANCH   7   8
HETATM    8  C8  UNL     1     -33.344  17.996  -1.959  1.00 20.00     0.119 C 
HETATM    9 CL9  UNL     1     -31.791  18.180  -1.121  1.00 20.00    -0.130 Cl
ENDBRANCH   7   8
TORSDOF 1
ENDMDL
MODEL 6
REMARK VINA RESULT:      -4.1      2.149      3.552
REMARK  1 active torsions:
REMARK  status: ('A' for Active; 'I' for Inactive)
REMARK    1  A    between atoms: C7_7  and  C8_8 
ROOT
HETATM    1  C1  UNL     1     -41.600   4.812  -1.559  1.00 20.00     0.005 C 
HETATM    2  C2  UNL     1     -43.102   5.054  -1.351  1.00 20.00     0.005 C 
HETATM    3  C3  UNL     1     -41.938   5.860   0.552  1.00 20.00     0.010 C 
HETATM    4  C4  UNL     1     -41.128   7.250  -1.201  1.00 20.00     0.010 C 
HETATM    5  C5  UNL     1     -40.951   5.838  -0.614  1.00 20.00    -0.014 C 
HETATM    6  C6  UNL     1     -43.129   6.216  -0.342  1.00 20.00    -0.009 C 
HETATM    7  C7  UNL     1     -42.646   7.497  -1.064  1.00 20.00     0.004 C 
ENDROOT
BRANCH   7   8
HETATM    8  C8  UNL     1     -42.956   8.769  -0.283  1.00 20.00     0.119 C 
HETATM    9 CL9  UNL     1     -41.453   9.513   0.296  1.00 20.00    -0.130 Cl
ENDBRANCH   7   8
TORSDOF 1
ENDMDL
MODEL 7
REMARK VINA RESULT:      -4.0     11.020     12.004
REMARK  1 active torsions:
REMARK  status: ('A' for Active; 'I' for Inactive)
REMARK    1  A    between atoms: C7_7  and  C8_8 
ROOT
HETATM    1  C1  UNL     1     -34.836  16.004  -2.475  1.00 20.00     0.005 C 
HETATM    2  C2  UNL     1     -33.400  15.993  -3.020  1.00 20.00     0.005 C 
HETATM    3  C3  UNL     1     -34.532  14.075  -3.836  1.00 20.00     0.010 C 
HETATM    4  C4  UNL     1     -35.753  15.872  -4.806  1.00 20.00     0.010 C 
HETATM    5  C5  UNL     1     -35.592  15.114  -3.475  1.00 20.00    -0.014 C 
HETATM    6  C6  UNL     1     -33.519  15.129  -4.289  1.00 20.00    -0.009 C 
HETATM    7  C7  UNL     1     -34.310  15.933  -5.350  1.00 20.00     0.004 C 
ENDROOT
BRANCH   7   8
HETATM    8  C8  UNL     1     -34.194  15.338  -6.749  1.00 20.00     0.119 C 
HETATM    9 CL9  UNL     1     -35.789  14.817  -7.326  1.00 20.00    -0.130 Cl
ENDBRANCH   7   8
TORSDOF 1
ENDMDL
MODEL 8
REMARK VINA RESULT:      -4.0     23.049     23.963
REMARK  1 active torsions:
REMARK  status: ('A' for Active; 'I' for Inactive)
REMARK    1  A    between atoms: C7_7  and  C8_8 
ROOT
HETATM    1  C1  UNL     1     -22.354  18.639   9.369  1.00 20.00     0.005 C 
HETATM    2  C2  UNL     1     -23.840  18.926   9.105  1.00 20.00     0.005 C 
HETATM    3  C3  UNL     1     -23.606  16.642   9.700  1.00 20.00     0.010 C 
HETATM    4  C4  UNL     1     -22.896  17.783  11.664  1.00 20.00     0.010 C 
HETATM    5  C5  UNL     1     -22.397  17.388  10.262  1.00 20.00    -0.014 C 
HETATM    6  C6  UNL     1     -24.553  17.826   9.913  1.00 20.00    -0.009 C 
HETATM    7  C7  UNL     1     -24.378  18.139  11.419  1.00 20.00     0.004 C 
ENDROOT
BRANCH   7   8
HETATM    8  C8  UNL     1     -25.321  17.331  12.304  1.00 20.00     0.119 C 
HETATM    9 CL9  UNL     1     -26.928  18.080  12.331  1.00 20.00    -0.130 Cl
ENDBRANCH   7   8
TORSDOF 1
ENDMDL
MODEL 9
REMARK VINA RESULT:      -3.9     11.350     12.404
REMARK  1 active torsions:
REMARK  status: ('A' for Active; 'I' for Inactive)
REMARK    1  A    between atoms: C7_7  and  C8_8 
ROOT
HETATM    1  C1  UNL     1     -33.754  17.389  -1.454  1.00 20.00     0.005 C 
HETATM    2  C2  UNL     1     -35.093  16.657  -1.286  1.00 20.00     0.005 C 
HETATM    3  C3  UNL     1     -34.963  17.493  -3.502  1.00 20.00     0.010 C 
HETATM    4  C4  UNL     1     -33.170  15.932  -3.412  1.00 20.00     0.010 C 
HETATM    5  C5  UNL     1     -33.535  17.363  -2.977  1.00 20.00    -0.014 C 
HETATM    6  C6  UNL     1     -35.458  16.268  -2.730  1.00 20.00    -0.009 C 
HETATM    7  C7  UNL     1     -34.486  15.155  -3.193  1.00 20.00     0.004 C 
ENDROOT
BRANCH   7   8
HETATM    8  C8  UNL     1     -34.956  14.447  -4.459  1.00 20.00     0.119 C 
HETATM    9 CL9  UNL     1     -33.926  14.899  -5.831  1.00 20.00    -0.130 Cl
ENDBRANCH   7   8
TORSDOF 1
ENDMDL
