MODEL 1
REMARK VINA RESULT:      -3.8      0.000      0.000
REMARK  1 active torsions:
REMARK  status: ('A' for Active; 'I' for Inactive)
REMARK    1  A    between atoms: C1_1  and  C5_5 
ROOT
HETATM    1  C2  UNL     1     -33.684  15.862  -3.044  1.00 20.00     0.002 C 
HETATM    2  C3  UNL     1     -35.172  15.566  -2.791  1.00 20.00     0.016 C 
HETATM    3  C4  UNL     1     -33.720  14.826  -4.180  1.00 20.00     0.016 C 
HETATM    4  C5  UNL     1     -35.270  15.005  -4.245  1.00 20.00     0.009 C 
HETATM    5  C6  UNL     1     -35.722  16.048  -5.271  1.00 20.00     0.023 C 
ENDROOT
BRANCH   4   6
HETATM    6  C1  UNL     1     -36.084  13.690  -4.394  1.00 20.00     0.240 C 
HETATM    7  O7  UNL     1     -37.306  13.660  -4.508  1.00 20.00    -0.306 OA
ENDBRANCH   4   6
TORSDOF 1
ENDMDL
MODEL 2
REMARK VINA RESULT:      -3.8      9.337     10.663
REMARK  1 active torsions:
REMARK  status: ('A' for Active; 'I' for Inactive)
REMARK    1  A    between atoms: C1_1  and  C5_5 
ROOT
HETATM    1  C2  UNL     1     -41.460   6.023  -0.833  1.00 20.00     0.002 C 
HETATM    2  C3  UNL     1     -41.545   7.440  -1.424  1.00 20.00     0.016 C 
HETATM    3  C4  UNL     1     -41.158   6.661   0.533  1.00 20.00     0.016 C 
HETATM    4  C5  UNL     1     -41.807   7.985   0.016  1.00 20.00     0.009 C 
HETATM    5  C6  UNL     1     -43.293   8.111   0.359  1.00 20.00     0.023 C 
ENDROOT
BRANCH   4   6
HETATM    6  C1  UNL     1     -41.039   9.286   0.382  1.00 20.00     0.240 C 
HETATM    7  O7  UNL     1     -41.543  10.404   0.336  1.00 20.00    -0.306 OA
ENDBRANCH   4   6
TORSDOF 1
ENDMDL
MODEL 3
REMARK VINA RESULT:      -3.8     12.327     12.883
REMARK  1 active torsions:
REMARK  status: ('A' for Active; 'I' for Inactive)
REMARK    1  A    between atoms: C1_1  and  C5_5 
ROOT
HETATM    1  C2  UNL     1     -34.227   6.626   6.196  1.00 20.00     0.002 C 
HETATM    2  C3  UNL     1     -34.550   5.140   5.965  1.00 20.00     0.016 C 
HETATM    3  C4  UNL     1     -33.714   6.691   4.747  1.00 20.00     0.016 C 
HETATM    4  C5  UNL     1     -34.563   5.419   4.428  1.00 20.00     0.009 C 
HETATM    5  C6  UNL     1     -35.955   5.737   3.878  1.00 20.00     0.023 C 
ENDROOT
BRANCH   4   6
HETATM    6  C1  UNL     1     -33.851   4.349   3.555  1.00 20.00     0.240 C 
HETATM    7  O7  UNL     1     -33.391   4.583   2.441  1.00 20.00    -0.306 OA
ENDBRANCH   4   6
TORSDOF 1
ENDMDL
MODEL 4
REMARK VINA RESULT:      -3.7      1.009      1.813
REMARK  1 active torsions:
REMARK  status: ('A' for Active; 'I' for Inactive)
REMARK    1  A    between atoms: C1_1  and  C5_5 
ROOT
HETATM    1  C2  UNL     1     -34.505  16.880  -3.282  1.00 20.00     0.002 C 
HETATM    2  C3  UNL     1     -34.992  16.309  -4.624  1.00 20.00     0.016 C 
HETATM    3  C4  UNL     1     -34.866  15.534  -2.632  1.00 20.00     0.016 C 
HETATM    4  C5  UNL     1     -34.789  14.873  -4.045  1.00 20.00     0.009 C 
HETATM    5  C6  UNL     1     -33.417  14.275  -4.366  1.00 20.00     0.023 C 
ENDROOT
BRANCH   4   6
HETATM    6  C1  UNL     1     -35.925  13.862  -4.366  1.00 20.00     0.240 C 
HETATM    7  O7  UNL     1     -35.744  12.654  -4.475  1.00 20.00    -0.306 OA
ENDBRANCH   4   6
TORSDOF 1
ENDMDL
MODEL 5
REMARK VINA RESULT:      -3.6     17.829     18.597
REMARK  1 active torsions:
REMARK  status: ('A' for Active; 'I' for Inactive)
REMARK    1  A    between atoms: C1_1  and  C5_5 
ROOT
HETATM    1  C2  UNL     1     -23.608  17.002  11.701  1.00 20.00     0.002 C 
HETATM    2  C3  UNL     1     -23.997  16.424  10.329  1.00 20.00     0.016 C 
HETATM    3  C4  UNL     1     -22.512  17.818  10.994  1.00 20.00     0.016 C 
HETATM    4  C5  UNL     1     -23.302  17.651   9.657  1.00 20.00     0.009 C 
HETATM    5  C6  UNL     1     -24.259  18.809   9.364  1.00 20.00     0.023 C 
ENDROOT
BRANCH   4   6
HETATM    6  C1  UNL     1     -22.434  17.319   8.411  1.00 20.00     0.240 C 
HETATM    7  O7  UNL     1     -22.504  17.938   7.354  1.00 20.00    -0.306 OA
ENDBRANCH   4   6
TORSDOF 1
ENDMDL
MODEL 6
REMARK VINA RESULT:      -3.6      2.039      2.292
REMARK  1 active torsions:
REMARK  status: ('A' for Active; 'I' for Inactive)
REMARK    1  A    between atoms: C1_1  and  C5_5 
ROOT
HETATM    1  C2  UNL     1     -34.305  16.753  -1.823  1.00 20.00     0.002 C 
HETATM    2  C3  UNL     1     -34.963  15.610  -2.615  1.00 20.00     0.016 C 
HETATM    3  C4  UNL     1     -33.084  16.631  -2.751  1.00 20.00     0.016 C 
HETATM    4  C5  UNL     1     -34.002  15.931  -3.804  1.00 20.00     0.009 C 
HETATM    5  C6  UNL     1     -34.601  16.897  -4.829  1.00 20.00     0.023 C 
ENDROOT
BRANCH   4   6
HETATM    6  C1  UNL     1     -33.379  14.692  -4.505  1.00 20.00     0.240 C 
HETATM    7  O7  UNL     1     -33.652  14.357  -5.654  1.00 20.00    -0.306 OA
ENDBRANCH   4   6
TORSDOF 1
ENDMDL
MODEL 7
REMARK VINA RESULT:      -3.5     18.521     19.174
REMARK  1 active torsions:
REMARK  status: ('A' for Active; 'I' for Inactive)
REMARK    1  A    between atoms: C1_1  and  C5_5 
ROOT
HETATM    1  C2  UNL     1     -25.130  16.692  11.781  1.00 20.00     0.002 C 
HETATM    2  C3  UNL     1     -24.884  18.194  11.559  1.00 20.00     0.016 C 
HETATM    3  C4  UNL     1     -24.238  16.414  10.559  1.00 20.00     0.016 C 
HETATM    4  C5  UNL     1     -23.600  17.827  10.749  1.00 20.00     0.009 C 
HETATM    5  C6  UNL     1     -22.326  17.812  11.598  1.00 20.00     0.023 C 
ENDROOT
BRANCH   4   6
HETATM    6  C1  UNL     1     -23.387  18.639   9.441  1.00 20.00     0.240 C 
HETATM    7  O7  UNL     1     -22.288  19.026   9.057  1.00 20.00    -0.306 OA
ENDBRANCH   4   6
TORSDOF 1
ENDMDL
MODEL 8
REMARK VINA RESULT:      -3.5     18.548     19.073
REMARK  1 active torsions:
REMARK  status: ('A' for Active; 'I' for Inactive)
REMARK    1  A    between atoms: C1_1  and  C5_5 
ROOT
HETATM    1  C2  UNL     1     -22.792  16.978   9.423  1.00 20.00     0.002 C 
HETATM    2  C3  UNL     1     -23.983  16.516  10.279  1.00 20.00     0.016 C 
HETATM    3  C4  UNL     1     -23.212  18.431   9.708  1.00 20.00     0.016 C 
HETATM    4  C5  UNL     1     -23.990  17.921  10.962  1.00 20.00     0.009 C 
HETATM    5  C6  UNL     1     -23.169  17.975  12.253  1.00 20.00     0.023 C 
ENDROOT
BRANCH   4   6
HETATM    6  C1  UNL     1     -25.396  18.550  11.170  1.00 20.00     0.240 C 
HETATM    7  O7  UNL     1     -25.762  19.053  12.228  1.00 20.00    -0.306 OA
ENDBRANCH   4   6
TORSDOF 1
ENDMDL
MODEL 9
REMARK VINA RESULT:      -3.5     12.238     12.899
REMARK  1 active torsions:
REMARK  status: ('A' for Active; 'I' for Inactive)
REMARK    1  A    between atoms: C1_1  and  C5_5 
ROOT
HETATM    1  C2  UNL     1     -33.382   4.937   2.581  1.00 20.00     0.002 C 
HETATM    2  C3  UNL     1     -33.489   6.188   3.469  1.00 20.00     0.016 C 
HETATM    3  C4  UNL     1     -33.965   4.118   3.746  1.00 20.00     0.016 C 
HETATM    4  C5  UNL     1     -34.557   5.440   4.330  1.00 20.00     0.009 C 
HETATM    5  C6  UNL     1     -35.997   5.713   3.887  1.00 20.00     0.023 C 
ENDROOT
BRANCH   4   6
HETATM    6  C1  UNL     1     -34.405   5.611   5.867  1.00 20.00     0.240 C 
HETATM    7  O7  UNL     1     -34.395   6.703   6.428  1.00 20.00    -0.306 OA
ENDBRANCH   4   6
TORSDOF 1
ENDMDL
