MODEL 1
REMARK VINA RESULT:      -4.1      0.000      0.000
REMARK  2 active torsions:
REMARK  status: ('A' for Active; 'I' for Inactive)
REMARK    1  A    between atoms: C1_1  and  C9_9 
REMARK    2  A    between atoms: C2_2  and  C8_8 
ROOT
HETATM    1  C1  UNL     1     -35.176  15.531  -2.852  1.00 20.00    -0.016 C 
HETATM    2  C2  UNL     1     -34.498  16.456  -2.141  1.00 20.00    -0.087 C 
HETATM    3  C3  UNL     1     -35.042  16.910  -0.806  1.00 20.00     0.043 C 
ENDROOT
BRANCH   1   4
HETATM    4  C9  UNL     1     -34.888  14.887  -4.206  1.00 20.00    -0.033 C 
HETATM    5  C5  UNL     1     -35.903  13.737  -4.411  1.00 20.00     0.018 C 
HETATM    6  C6  UNL     1     -35.063  15.856  -5.389  1.00 20.00     0.018 C 
HETATM    7  C7  UNL     1     -33.478  14.275  -4.220  1.00 20.00     0.018 C 
ENDBRANCH   1   4
BRANCH   2   8
HETATM    8  C8  UNL     1     -33.176  17.082  -2.517  1.00 20.00     0.029 C 
HETATM    9  C4  UNL     1     -32.583  17.924  -1.396  1.00 20.00     0.010 C 
ENDBRANCH   2   8
TORSDOF 2
ENDMDL
MODEL 2
REMARK VINA RESULT:      -4.0     15.090     17.356
REMARK  2 active torsions:
REMARK  status: ('A' for Active; 'I' for Inactive)
REMARK    1  A    between atoms: C1_1  and  C9_9 
REMARK    2  A    between atoms: C2_2  and  C8_8 
ROOT
HETATM    1  C1  UNL     1     -23.184  17.040   9.956  1.00 20.00    -0.016 C 
HETATM    2  C2  UNL     1     -22.950  17.862   8.912  1.00 20.00    -0.087 C 
HETATM    3  C3  UNL     1     -22.056  17.396   7.787  1.00 20.00     0.043 C 
ENDROOT
BRANCH   1   4
HETATM    4  C9  UNL     1     -24.023  17.224  11.218  1.00 20.00    -0.033 C 
HETATM    5  C5  UNL     1     -23.093  17.765  12.332  1.00 20.00     0.018 C 
HETATM    6  C6  UNL     1     -25.160  18.245  11.048  1.00 20.00     0.018 C 
HETATM    7  C7  UNL     1     -24.582  15.872  11.692  1.00 20.00     0.018 C 
ENDBRANCH   1   4
BRANCH   2   8
HETATM    8  C8  UNL     1     -23.544  19.235   8.703  1.00 20.00     0.029 C 
HETATM    9  C4  UNL     1     -24.589  19.263   7.597  1.00 20.00     0.010 C 
ENDBRANCH   2   8
TORSDOF 2
ENDMDL
MODEL 3
REMARK VINA RESULT:      -3.9      0.965      4.237
REMARK  2 active torsions:
REMARK  status: ('A' for Active; 'I' for Inactive)
REMARK    1  A    between atoms: C1_1  and  C9_9 
REMARK    2  A    between atoms: C2_2  and  C8_8 
ROOT
HETATM    1  C1  UNL     1     -33.375  16.343  -2.836  1.00 20.00    -0.016 C 
HETATM    2  C2  UNL     1     -33.994  15.367  -3.532  1.00 20.00    -0.087 C 
HETATM    3  C3  UNL     1     -33.173  14.436  -4.395  1.00 20.00     0.043 C 
ENDROOT
BRANCH   1   4
HETATM    4  C9  UNL     1     -33.922  17.418  -1.899  1.00 20.00    -0.033 C 
HETATM    5  C5  UNL     1     -34.561  18.526  -2.770  1.00 20.00     0.018 C 
HETATM    6  C6  UNL     1     -35.022  16.900  -0.956  1.00 20.00     0.018 C 
HETATM    7  C7  UNL     1     -32.780  18.057  -1.092  1.00 20.00     0.018 C 
ENDBRANCH   1   4
BRANCH   2   8
HETATM    8  C8  UNL     1     -35.471  15.050  -3.510  1.00 20.00     0.029 C 
HETATM    9  C4  UNL     1     -35.826  13.839  -4.361  1.00 20.00     0.010 C 
ENDBRANCH   2   8
TORSDOF 2
ENDMDL
MODEL 4
REMARK VINA RESULT:      -3.9      1.358      2.647
REMARK  2 active torsions:
REMARK  status: ('A' for Active; 'I' for Inactive)
REMARK    1  A    between atoms: C1_1  and  C9_9 
REMARK    2  A    between atoms: C2_2  and  C8_8 
ROOT
HETATM    1  C1  UNL     1     -32.891  16.803  -2.638  1.00 20.00    -0.016 C 
HETATM    2  C2  UNL     1     -33.004  17.724  -1.658  1.00 20.00    -0.087 C 
HETATM    3  C3  UNL     1     -31.755  18.267  -1.003  1.00 20.00     0.043 C 
ENDROOT
BRANCH   1   4
HETATM    4  C9  UNL     1     -33.946  16.080  -3.471  1.00 20.00    -0.033 C 
HETATM    5  C5  UNL     1     -33.253  14.898  -4.193  1.00 20.00     0.018 C 
HETATM    6  C6  UNL     1     -35.083  15.482  -2.625  1.00 20.00     0.018 C 
HETATM    7  C7  UNL     1     -34.514  17.018  -4.548  1.00 20.00     0.018 C 
ENDBRANCH   1   4
BRANCH   2   8
HETATM    8  C8  UNL     1     -34.287  18.339  -1.152  1.00 20.00     0.029 C 
HETATM    9  C4  UNL     1     -34.657  17.863   0.246  1.00 20.00     0.010 C 
ENDBRANCH   2   8
TORSDOF 2
ENDMDL
MODEL 5
REMARK VINA RESULT:      -3.8      1.049      2.279
REMARK  2 active torsions:
REMARK  status: ('A' for Active; 'I' for Inactive)
REMARK    1  A    between atoms: C1_1  and  C9_9 
REMARK    2  A    between atoms: C2_2  and  C8_8 
ROOT
HETATM    1  C1  UNL     1     -33.728  16.116  -3.796  1.00 20.00    -0.016 C 
HETATM    2  C2  UNL     1     -33.877  16.576  -2.536  1.00 20.00    -0.087 C 
HETATM    3  C3  UNL     1     -32.813  17.470  -1.943  1.00 20.00     0.043 C 
ENDROOT
BRANCH   1   4
HETATM    4  C9  UNL     1     -34.612  15.211  -4.651  1.00 20.00    -0.033 C 
HETATM    5  C5  UNL     1     -33.868  14.942  -5.982  1.00 20.00     0.018 C 
HETATM    6  C6  UNL     1     -34.884  13.841  -4.006  1.00 20.00     0.018 C 
HETATM    7  C7  UNL     1     -35.934  15.918  -4.989  1.00 20.00     0.018 C 
ENDBRANCH   1   4
BRANCH   2   8
HETATM    8  C8  UNL     1     -35.058  16.331  -1.627  1.00 20.00     0.029 C 
HETATM    9  C4  UNL     1     -35.084  17.270  -0.429  1.00 20.00     0.010 C 
ENDBRANCH   2   8
TORSDOF 2
ENDMDL
MODEL 6
REMARK VINA RESULT:      -3.8      0.938      3.892
REMARK  2 active torsions:
REMARK  status: ('A' for Active; 'I' for Inactive)
REMARK    1  A    between atoms: C1_1  and  C9_9 
REMARK    2  A    between atoms: C2_2  and  C8_8 
ROOT
HETATM    1  C1  UNL     1     -35.116  15.364  -2.948  1.00 20.00    -0.016 C 
HETATM    2  C2  UNL     1     -34.734  14.559  -3.961  1.00 20.00    -0.087 C 
HETATM    3  C3  UNL     1     -35.451  13.246  -4.176  1.00 20.00     0.043 C 
ENDROOT
BRANCH   1   4
HETATM    4  C9  UNL     1     -34.594  16.722  -2.486  1.00 20.00    -0.033 C 
HETATM    5  C5  UNL     1     -35.090  16.954  -1.038  1.00 20.00     0.018 C 
HETATM    6  C6  UNL     1     -33.058  16.803  -2.451  1.00 20.00     0.018 C 
HETATM    7  C7  UNL     1     -35.170  17.845  -3.363  1.00 20.00     0.018 C 
ENDBRANCH   1   4
BRANCH   2   8
HETATM    8  C8  UNL     1     -33.658  14.851  -4.981  1.00 20.00     0.029 C 
HETATM    9  C4  UNL     1     -34.224  15.230  -6.342  1.00 20.00     0.010 C 
ENDBRANCH   2   8
TORSDOF 2
ENDMDL
MODEL 7
REMARK VINA RESULT:      -3.8      1.058      1.833
REMARK  2 active torsions:
REMARK  status: ('A' for Active; 'I' for Inactive)
REMARK    1  A    between atoms: C1_1  and  C9_9 
REMARK    2  A    between atoms: C2_2  and  C8_8 
ROOT
HETATM    1  C1  UNL     1     -33.706  16.139  -3.859  1.00 20.00    -0.016 C 
HETATM    2  C2  UNL     1     -33.852  16.563  -2.586  1.00 20.00    -0.087 C 
HETATM    3  C3  UNL     1     -32.788  17.440  -1.969  1.00 20.00     0.043 C 
ENDROOT
BRANCH   1   4
HETATM    4  C9  UNL     1     -34.590  15.259  -4.738  1.00 20.00    -0.033 C 
HETATM    5  C5  UNL     1     -34.806  13.915  -4.001  1.00 20.00     0.018 C 
HETATM    6  C6  UNL     1     -35.984  15.859  -4.992  1.00 20.00     0.018 C 
HETATM    7  C7  UNL     1     -33.887  14.954  -6.071  1.00 20.00     0.018 C 
ENDBRANCH   1   4
BRANCH   2   8
HETATM    8  C8  UNL     1     -35.032  16.291  -1.682  1.00 20.00     0.029 C 
HETATM    9  C4  UNL     1     -35.100  17.247  -0.500  1.00 20.00     0.010 C 
ENDBRANCH   2   8
TORSDOF 2
ENDMDL
MODEL 8
REMARK VINA RESULT:      -3.7     11.388     12.148
REMARK  2 active torsions:
REMARK  status: ('A' for Active; 'I' for Inactive)
REMARK    1  A    between atoms: C1_1  and  C9_9 
REMARK    2  A    between atoms: C2_2  and  C8_8 
ROOT
HETATM    1  C1  UNL     1     -33.502   6.444   4.581  1.00 20.00    -0.016 C 
HETATM    2  C2  UNL     1     -32.798   6.999   3.573  1.00 20.00    -0.087 C 
HETATM    3  C3  UNL     1     -31.763   8.055   3.884  1.00 20.00     0.043 C 
ENDROOT
BRANCH   1   4
HETATM    4  C9  UNL     1     -34.594   5.378   4.583  1.00 20.00    -0.033 C 
HETATM    5  C5  UNL     1     -34.954   5.069   6.057  1.00 20.00     0.018 C 
HETATM    6  C6  UNL     1     -35.890   5.834   3.892  1.00 20.00     0.018 C 
HETATM    7  C7  UNL     1     -34.076   4.078   3.946  1.00 20.00     0.018 C 
ENDBRANCH   1   4
BRANCH   2   8
HETATM    8  C8  UNL     1     -32.894   6.638   2.109  1.00 20.00     0.029 C 
HETATM    9  C4  UNL     1     -32.518   7.793   1.191  1.00 20.00     0.010 C 
ENDBRANCH   2   8
TORSDOF 2
ENDMDL
MODEL 9
REMARK VINA RESULT:      -3.6     11.425     12.211
REMARK  2 active torsions:
REMARK  status: ('A' for Active; 'I' for Inactive)
REMARK    1  A    between atoms: C1_1  and  C9_9 
REMARK    2  A    between atoms: C2_2  and  C8_8 
ROOT
HETATM    1  C1  UNL     1     -33.479   6.437   4.646  1.00 20.00    -0.016 C 
HETATM    2  C2  UNL     1     -32.800   7.002   3.626  1.00 20.00    -0.087 C 
HETATM    3  C3  UNL     1     -31.786   8.083   3.919  1.00 20.00     0.043 C 
ENDROOT
BRANCH   1   4
HETATM    4  C9  UNL     1     -34.547   5.346   4.667  1.00 20.00    -0.033 C 
HETATM    5  C5  UNL     1     -35.797   5.890   3.934  1.00 20.00     0.018 C 
HETATM    6  C6  UNL     1     -34.120   4.064   3.932  1.00 20.00     0.018 C 
HETATM    7  C7  UNL     1     -34.956   5.024   6.114  1.00 20.00     0.018 C 
ENDBRANCH   1   4
BRANCH   2   8
HETATM    8  C8  UNL     1     -32.904   6.629   2.166  1.00 20.00     0.029 C 
HETATM    9  C4  UNL     1     -32.510   7.769   1.238  1.00 20.00     0.010 C 
ENDBRANCH   2   8
TORSDOF 2
ENDMDL
