MODEL 1
REMARK VINA RESULT:      -5.5      0.000      0.000
REMARK  2 active torsions:
REMARK  status: ('A' for Active; 'I' for Inactive)
REMARK    1  A    between atoms: C8_8  and  C11_11 
REMARK    2  A    between atoms: C10_10  and  C11_11 
ROOT
HETATM    1  C11 UNL     1     -32.587   6.837   3.348  1.00 20.00     0.046 C 
ENDROOT
BRANCH   1   2
HETATM    2  C8  UNL     1     -32.644   7.615   2.087  1.00 20.00    -0.076 A 
HETATM    3  C4  UNL     1     -32.253   7.238   0.860  1.00 20.00     0.003 A 
HETATM    4  C3  UNL     1     -32.491   8.310  -0.071  1.00 20.00    -0.003 A 
HETATM    5  C5  UNL     1     -33.028   9.355   0.575  1.00 20.00    -0.022 A 
HETATM    6  C9  UNL     1     -33.184   9.019   2.030  1.00 20.00     0.061 A 
ENDBRANCH   1   2
BRANCH   1   7
HETATM    7  C10 UNL     1     -33.966   6.717   3.971  1.00 20.00     0.034 A 
HETATM    8  C6  UNL     1     -33.927   6.838   5.473  1.00 20.00    -0.018 A 
HETATM    9  C1  UNL     1     -34.414   5.718   6.027  1.00 20.00    -0.004 A 
HETATM   10  C2  UNL     1     -34.802   4.798   4.991  1.00 20.00    -0.004 A 
HETATM   11  C7  UNL     1     -34.556   5.341   3.791  1.00 20.00    -0.018 A 
ENDBRANCH   1   7
TORSDOF 2
ENDMDL
MODEL 2
REMARK VINA RESULT:      -5.1      0.654      4.902
REMARK  2 active torsions:
REMARK  status: ('A' for Active; 'I' for Inactive)
REMARK    1  A    between atoms: C8_8  and  C11_11 
REMARK    2  A    between atoms: C10_10  and  C11_11 
ROOT
HETATM    1  C11 UNL     1     -33.282   6.203   2.364  1.00 20.00     0.046 C 
ENDROOT
BRANCH   1   2
HETATM    2  C8  UNL     1     -33.740   6.148   3.774  1.00 20.00    -0.076 A 
HETATM    3  C4  UNL     1     -33.406   6.960   4.788  1.00 20.00     0.003 A 
HETATM    4  C3  UNL     1     -34.086   6.539   5.985  1.00 20.00    -0.003 A 
HETATM    5  C5  UNL     1     -34.843   5.465   5.717  1.00 20.00    -0.022 A 
HETATM    6  C9  UNL     1     -34.701   5.100   4.268  1.00 20.00     0.061 A 
ENDBRANCH   1   2
BRANCH   1   7
HETATM    7  C10 UNL     1     -32.538   7.497   2.088  1.00 20.00     0.034 A 
HETATM    8  C6  UNL     1     -33.471   8.673   1.949  1.00 20.00    -0.018 A 
HETATM    9  C1  UNL     1     -33.326   9.220   0.734  1.00 20.00    -0.004 A 
HETATM   10  C2  UNL     1     -32.331   8.492  -0.007  1.00 20.00    -0.004 A 
HETATM   11  C7  UNL     1     -31.856   7.488   0.745  1.00 20.00    -0.018 A 
ENDBRANCH   1   7
TORSDOF 2
ENDMDL
MODEL 3
REMARK VINA RESULT:      -4.8     10.742     11.705
REMARK  2 active torsions:
REMARK  status: ('A' for Active; 'I' for Inactive)
REMARK    1  A    between atoms: C8_8  and  C11_11 
REMARK    2  A    between atoms: C10_10  and  C11_11 
ROOT
HETATM    1  C11 UNL     1     -33.473  17.820  -2.167  1.00 20.00     0.046 C 
ENDROOT
BRANCH   1   2
HETATM    2  C8  UNL     1     -32.719  18.168  -0.939  1.00 20.00    -0.076 A 
HETATM    3  C4  UNL     1     -31.394  18.322  -0.793  1.00 20.00     0.003 A 
HETATM    4  C3  UNL     1     -31.097  18.659   0.575  1.00 20.00    -0.003 A 
HETATM    5  C5  UNL     1     -32.235  18.714   1.281  1.00 20.00    -0.022 A 
HETATM    6  C9  UNL     1     -33.398  18.404   0.383  1.00 20.00     0.061 A 
ENDBRANCH   1   2
BRANCH   1   7
HETATM    7  C10 UNL     1     -33.660  16.317  -2.279  1.00 20.00     0.034 A 
HETATM    8  C6  UNL     1     -33.197  15.781  -3.610  1.00 20.00    -0.018 A 
HETATM    9  C1  UNL     1     -34.224  15.190  -4.237  1.00 20.00    -0.004 A 
HETATM   10  C2  UNL     1     -35.404  15.275  -3.417  1.00 20.00    -0.004 A 
HETATM   11  C7  UNL     1     -35.115  15.921  -2.279  1.00 20.00    -0.018 A 
ENDBRANCH   1   7
TORSDOF 2
ENDMDL
MODEL 4
REMARK VINA RESULT:      -4.7     10.609     11.629
REMARK  2 active torsions:
REMARK  status: ('A' for Active; 'I' for Inactive)
REMARK    1  A    between atoms: C8_8  and  C11_11 
REMARK    2  A    between atoms: C10_10  and  C11_11 
ROOT
HETATM    1  C11 UNL     1     -34.235  17.341  -2.493  1.00 20.00     0.046 C 
ENDROOT
BRANCH   1   2
HETATM    2  C8  UNL     1     -33.472  17.844  -1.325  1.00 20.00    -0.076 A 
HETATM    3  C4  UNL     1     -33.923  18.109  -0.089  1.00 20.00     0.003 A 
HETATM    4  C3  UNL     1     -32.835  18.579   0.729  1.00 20.00    -0.003 A 
HETATM    5  C5  UNL     1     -31.708  18.607   0.004  1.00 20.00    -0.022 A 
HETATM    6  C9  UNL     1     -31.997  18.138  -1.393  1.00 20.00     0.061 A 
ENDBRANCH   1   2
BRANCH   1   7
HETATM    7  C10 UNL     1     -34.043  15.845  -2.660  1.00 20.00     0.034 A 
HETATM    8  C6  UNL     1     -33.105  15.513  -3.793  1.00 20.00    -0.018 A 
HETATM    9  C1  UNL     1     -33.745  14.763  -4.701  1.00 20.00    -0.004 A 
HETATM   10  C2  UNL     1     -35.101  14.539  -4.272  1.00 20.00    -0.004 A 
HETATM   11  C7  UNL     1     -35.307  15.151  -3.098  1.00 20.00    -0.018 A 
ENDBRANCH   1   7
TORSDOF 2
ENDMDL
MODEL 5
REMARK VINA RESULT:      -4.6     14.977     16.413
REMARK  2 active torsions:
REMARK  status: ('A' for Active; 'I' for Inactive)
REMARK    1  A    between atoms: C8_8  and  C11_11 
REMARK    2  A    between atoms: C10_10  and  C11_11 
ROOT
HETATM    1  C11 UNL     1     -23.129  17.878   8.555  1.00 20.00     0.046 C 
ENDROOT
BRANCH   1   2
HETATM    2  C8  UNL     1     -23.259  17.525   9.989  1.00 20.00    -0.076 A 
HETATM    3  C4  UNL     1     -22.608  18.052  11.037  1.00 20.00     0.003 A 
HETATM    4  C3  UNL     1     -23.046  17.409  12.248  1.00 20.00    -0.003 A 
HETATM    5  C5  UNL     1     -23.969  16.482  11.956  1.00 20.00    -0.022 A 
HETATM    6  C9  UNL     1     -24.204  16.458  10.473  1.00 20.00     0.061 A 
ENDBRANCH   1   2
BRANCH   1   7
HETATM    7  C10 UNL     1     -23.909  19.140   8.236  1.00 20.00     0.034 A 
HETATM    8  C6  UNL     1     -25.230  19.193   8.961  1.00 20.00    -0.018 A 
HETATM    9  C1  UNL     1     -26.229  19.262   8.070  1.00 20.00    -0.004 A 
HETATM   10  C2  UNL     1     -25.688  19.262   6.737  1.00 20.00    -0.004 A 
HETATM   11  C7  UNL     1     -24.350  19.191   6.795  1.00 20.00    -0.018 A 
ENDBRANCH   1   7
TORSDOF 2
ENDMDL
MODEL 6
REMARK VINA RESULT:      -4.5     10.692     12.482
REMARK  2 active torsions:
REMARK  status: ('A' for Active; 'I' for Inactive)
REMARK    1  A    between atoms: C8_8  and  C11_11 
REMARK    2  A    between atoms: C10_10  and  C11_11 
ROOT
HETATM    1  C11 UNL     1     -33.420  15.514  -3.949  1.00 20.00     0.046 C 
ENDROOT
BRANCH   1   2
HETATM    2  C8  UNL     1     -33.895  16.229  -2.739  1.00 20.00    -0.076 A 
HETATM    3  C4  UNL     1     -35.017  16.017  -2.035  1.00 20.00     0.003 A 
HETATM    4  C3  UNL     1     -35.078  16.944  -0.935  1.00 20.00    -0.003 A 
HETATM    5  C5  UNL     1     -33.995  17.734  -0.954  1.00 20.00    -0.022 A 
HETATM    6  C9  UNL     1     -33.119  17.359  -2.116  1.00 20.00     0.061 A 
ENDBRANCH   1   2
BRANCH   1   7
HETATM    7  C10 UNL     1     -34.478  15.534  -5.038  1.00 20.00     0.034 A 
HETATM    8  C6  UNL     1     -34.015  14.845  -6.296  1.00 20.00    -0.018 A 
HETATM    9  C1  UNL     1     -34.037  15.714  -7.317  1.00 20.00    -0.004 A 
HETATM   10  C2  UNL     1     -34.495  16.996  -6.851  1.00 20.00    -0.004 A 
HETATM   11  C7  UNL     1     -34.758  16.928  -5.538  1.00 20.00    -0.018 A 
ENDBRANCH   1   7
TORSDOF 2
ENDMDL
MODEL 7
REMARK VINA RESULT:      -4.5     10.208     11.513
REMARK  2 active torsions:
REMARK  status: ('A' for Active; 'I' for Inactive)
REMARK    1  A    between atoms: C8_8  and  C11_11 
REMARK    2  A    between atoms: C10_10  and  C11_11 
ROOT
HETATM    1  C11 UNL     1     -35.127  15.845  -2.295  1.00 20.00     0.046 C 
ENDROOT
BRANCH   1   2
HETATM    2  C8  UNL     1     -34.107  16.831  -1.863  1.00 20.00    -0.076 A 
HETATM    3  C4  UNL     1     -32.941  17.132  -2.453  1.00 20.00     0.003 A 
HETATM    4  C3  UNL     1     -32.264  18.148  -1.689  1.00 20.00    -0.003 A 
HETATM    5  C5  UNL     1     -33.007  18.479  -0.624  1.00 20.00    -0.022 A 
HETATM    6  C9  UNL     1     -34.271  17.667  -0.622  1.00 20.00     0.061 A 
ENDBRANCH   1   2
BRANCH   1   7
HETATM    7  C10 UNL     1     -34.864  15.385  -3.717  1.00 20.00     0.034 A 
HETATM    8  C6  UNL     1     -35.810  16.017  -4.707  1.00 20.00    -0.018 A 
HETATM    9  C1  UNL     1     -36.508  15.061  -5.335  1.00 20.00    -0.004 A 
HETATM   10  C2  UNL     1     -36.107  13.769  -4.844  1.00 20.00    -0.004 A 
HETATM   11  C7  UNL     1     -35.159  13.919  -3.907  1.00 20.00    -0.018 A 
ENDBRANCH   1   7
TORSDOF 2
ENDMDL
MODEL 8
REMARK VINA RESULT:      -4.5     10.334     11.987
REMARK  2 active torsions:
REMARK  status: ('A' for Active; 'I' for Inactive)
REMARK    1  A    between atoms: C8_8  and  C11_11 
REMARK    2  A    between atoms: C10_10  and  C11_11 
ROOT
HETATM    1  C11 UNL     1     -35.141  13.947  -4.072  1.00 20.00     0.046 C 
ENDROOT
BRANCH   1   2
HETATM    2  C8  UNL     1     -34.479  15.100  -3.414  1.00 20.00    -0.076 A 
HETATM    3  C4  UNL     1     -33.284  15.643  -3.695  1.00 20.00     0.003 A 
HETATM    4  C3  UNL     1     -33.037  16.747  -2.805  1.00 20.00    -0.003 A 
HETATM    5  C5  UNL     1     -34.076  16.892  -1.970  1.00 20.00    -0.022 A 
HETATM    6  C9  UNL     1     -35.113  15.848  -2.273  1.00 20.00     0.061 A 
ENDBRANCH   1   2
BRANCH   1   7
HETATM    7  C10 UNL     1     -35.969  14.405  -5.259  1.00 20.00     0.034 A 
HETATM    8  C6  UNL     1     -35.111  14.834  -6.422  1.00 20.00    -0.018 A 
HETATM    9  C1  UNL     1     -35.366  16.116  -6.719  1.00 20.00    -0.004 A 
HETATM   10  C2  UNL     1     -36.368  16.629  -5.824  1.00 20.00    -0.004 A 
HETATM   11  C7  UNL     1     -36.739  15.667  -4.966  1.00 20.00    -0.018 A 
ENDBRANCH   1   7
TORSDOF 2
ENDMDL
MODEL 9
REMARK VINA RESULT:      -4.5     10.102     11.384
REMARK  2 active torsions:
REMARK  status: ('A' for Active; 'I' for Inactive)
REMARK    1  A    between atoms: C8_8  and  C11_11 
REMARK    2  A    between atoms: C10_10  and  C11_11 
ROOT
HETATM    1  C11 UNL     1     -33.337  15.794  -3.295  1.00 20.00     0.046 C 
ENDROOT
BRANCH   1   2
HETATM    2  C8  UNL     1     -34.446  15.129  -4.020  1.00 20.00    -0.076 A 
HETATM    3  C4  UNL     1     -34.987  13.923  -3.786  1.00 20.00     0.003 A 
HETATM    4  C3  UNL     1     -36.042  13.677  -4.734  1.00 20.00    -0.003 A 
HETATM    5  C5  UNL     1     -36.157  14.726  -5.560  1.00 20.00    -0.022 A 
HETATM    6  C9  UNL     1     -35.144  15.771  -5.189  1.00 20.00     0.061 A 
ENDBRANCH   1   2
BRANCH   1   7
HETATM    7  C10 UNL     1     -33.783  17.136  -2.742  1.00 20.00     0.034 A 
HETATM    8  C6  UNL     1     -32.685  17.831  -1.975  1.00 20.00    -0.018 A 
HETATM    9  C1  UNL     1     -33.082  18.036  -0.712  1.00 20.00    -0.004 A 
HETATM   10  C2  UNL     1     -34.414  17.522  -0.534  1.00 20.00    -0.004 A 
HETATM   11  C7  UNL     1     -34.850  16.994  -1.687  1.00 20.00    -0.018 A 
ENDBRANCH   1   7
TORSDOF 2
ENDMDL
