MODEL 1
REMARK VINA RESULT:      -4.4      0.000      0.000
REMARK  3 active torsions:
REMARK  status: ('A' for Active; 'I' for Inactive)
REMARK    1  A    between atoms: C4_4  and  C7_7 
REMARK    2  A    between atoms: C6_6  and  C7_7 
REMARK    3  A    between atoms: C7_7  and  O9_9 
ROOT
HETATM    1  C1  UNL     1     -35.277   5.454   4.334  1.00 20.00     0.035 C 
HETATM    2  C2  UNL     1     -34.795   4.745   5.583  1.00 20.00     0.168 C 
HETATM    3  C3  UNL     1     -33.930   6.909   5.591  1.00 20.00     0.174 C 
HETATM    4  C4  UNL     1     -34.249   6.552   4.147  1.00 20.00     0.040 C 
HETATM    5  O8  UNL     1     -34.070   5.707   6.361  1.00 20.00    -0.391 OA
ENDROOT
BRANCH   4   6
HETATM    6  C7  UNL     1     -33.013   6.057   3.399  1.00 20.00     0.124 C 
BRANCH   6   7
HETATM    7  C6  UNL     1     -32.157   7.225   2.897  1.00 20.00     0.027 C 
HETATM    8  C5  UNL     1     -32.596   7.721   1.525  1.00 20.00     0.007 C 
ENDBRANCH   6   7
BRANCH   6   9
HETATM    9  O9  UNL     1     -33.427   5.274   2.281  1.00 20.00    -0.395 OA
HETATM   10  H23 UNL     1     -34.104   4.663   2.608  1.00 20.00     0.210 HD
ENDBRANCH   6   9
ENDBRANCH   4   6
TORSDOF 3
ENDMDL
MODEL 2
REMARK VINA RESULT:      -4.1     16.251     17.266
REMARK  3 active torsions:
REMARK  status: ('A' for Active; 'I' for Inactive)
REMARK    1  A    between atoms: C4_4  and  C7_7 
REMARK    2  A    between atoms: C6_6  and  C7_7 
REMARK    3  A    between atoms: C7_7  and  O9_9 
ROOT
HETATM    1  C1  UNL     1     -21.350  18.029   9.281  1.00 20.00     0.035 C 
HETATM    2  C2  UNL     1     -21.759  17.446   7.943  1.00 20.00     0.168 C 
HETATM    3  C3  UNL     1     -23.496  18.795   8.717  1.00 20.00     0.174 C 
HETATM    4  C4  UNL     1     -22.679  18.368   9.926  1.00 20.00     0.040 C 
HETATM    5  O8  UNL     1     -23.024  18.027   7.600  1.00 20.00    -0.391 OA
ENDROOT
BRANCH   4   6
HETATM    6  C7  UNL     1     -23.297  17.163  10.632  1.00 20.00     0.124 C 
BRANCH   6   7
HETATM    7  C6  UNL     1     -24.745  17.440  11.050  1.00 20.00     0.027 C 
HETATM    8  C5  UNL     1     -24.834  18.268  12.326  1.00 20.00     0.007 C 
ENDBRANCH   6   7
BRANCH   6   9
HETATM    9  O9  UNL     1     -22.530  16.861  11.796  1.00 20.00    -0.395 OA
HETATM   10  H23 UNL     1     -21.965  16.107  11.566  1.00 20.00     0.210 HD
ENDBRANCH   6   9
ENDBRANCH   4   6
TORSDOF 3
ENDMDL
MODEL 3
REMARK VINA RESULT:      -4.1     15.987     16.955
REMARK  3 active torsions:
REMARK  status: ('A' for Active; 'I' for Inactive)
REMARK    1  A    between atoms: C4_4  and  C7_7 
REMARK    2  A    between atoms: C6_6  and  C7_7 
REMARK    3  A    between atoms: C7_7  and  O9_9 
ROOT
HETATM    1  C1  UNL     1     -22.559  17.704  11.811  1.00 20.00     0.035 C 
HETATM    2  C2  UNL     1     -23.965  17.952  12.318  1.00 20.00     0.168 C 
HETATM    3  C3  UNL     1     -24.099  16.639  10.396  1.00 20.00     0.174 C 
HETATM    4  C4  UNL     1     -22.774  17.385  10.346  1.00 20.00     0.040 C 
HETATM    5  O8  UNL     1     -24.853  17.195  11.483  1.00 20.00    -0.391 OA
ENDROOT
BRANCH   4   6
HETATM    6  C7  UNL     1     -22.867  18.649   9.493  1.00 20.00     0.124 C 
BRANCH   6   7
HETATM    7  C6  UNL     1     -23.689  18.408   8.222  1.00 20.00     0.027 C 
HETATM    8  C5  UNL     1     -24.949  19.263   8.172  1.00 20.00     0.007 C 
ENDBRANCH   6   7
BRANCH   6   9
HETATM    9  O9  UNL     1     -21.552  19.058   9.121  1.00 20.00    -0.395 OA
HETATM   10  H23 UNL     1     -21.320  18.550   8.329  1.00 20.00     0.210 HD
ENDBRANCH   6   9
ENDBRANCH   4   6
TORSDOF 3
ENDMDL
MODEL 4
REMARK VINA RESULT:      -3.9     15.624     16.431
REMARK  3 active torsions:
REMARK  status: ('A' for Active; 'I' for Inactive)
REMARK    1  A    between atoms: C4_4  and  C7_7 
REMARK    2  A    between atoms: C6_6  and  C7_7 
REMARK    3  A    between atoms: C7_7  and  O9_9 
ROOT
HETATM    1  C1  UNL     1     -23.070  18.736   8.941  1.00 20.00     0.035 C 
HETATM    2  C2  UNL     1     -24.125  18.773   7.854  1.00 20.00     0.168 C 
HETATM    3  C3  UNL     1     -25.195  18.923   9.920  1.00 20.00     0.174 C 
HETATM    4  C4  UNL     1     -23.844  18.263  10.154  1.00 20.00     0.040 C 
HETATM    5  O8  UNL     1     -25.386  18.994   8.500  1.00 20.00    -0.391 OA
ENDROOT
BRANCH   4   6
HETATM    6  C7  UNL     1     -23.958  16.740  10.202  1.00 20.00     0.124 C 
BRANCH   6   7
HETATM    7  C6  UNL     1     -23.947  16.223  11.645  1.00 20.00     0.027 C 
HETATM    8  C5  UNL     1     -25.337  16.207  12.268  1.00 20.00     0.007 C 
ENDBRANCH   6   7
BRANCH   6   9
HETATM    9  O9  UNL     1     -22.858  16.168   9.498  1.00 20.00    -0.395 OA
HETATM   10  H23 UNL     1     -22.208  16.878   9.379  1.00 20.00     0.210 HD
ENDBRANCH   6   9
ENDBRANCH   4   6
TORSDOF 3
ENDMDL
MODEL 5
REMARK VINA RESULT:      -3.9     15.832     16.890
REMARK  3 active torsions:
REMARK  status: ('A' for Active; 'I' for Inactive)
REMARK    1  A    between atoms: C4_4  and  C7_7 
REMARK    2  A    between atoms: C6_6  and  C7_7 
REMARK    3  A    between atoms: C7_7  and  O9_9 
ROOT
HETATM    1  C1  UNL     1     -23.364  17.000   9.696  1.00 20.00     0.035 C 
HETATM    2  C2  UNL     1     -22.097  17.766  10.020  1.00 20.00     0.168 C 
HETATM    3  C3  UNL     1     -23.172  17.248  12.022  1.00 20.00     0.174 C 
HETATM    4  C4  UNL     1     -24.223  17.226  10.923  1.00 20.00     0.040 C 
HETATM    5  O8  UNL     1     -21.977  17.795  11.448  1.00 20.00    -0.391 OA
ENDROOT
BRANCH   4   6
HETATM    6  C7  UNL     1     -24.992  18.544  10.848  1.00 20.00     0.124 C 
BRANCH   6   7
HETATM    7  C6  UNL     1     -25.838  18.773  12.106  1.00 20.00     0.027 C 
HETATM    8  C5  UNL     1     -26.856  17.662  12.332  1.00 20.00     0.007 C 
ENDBRANCH   6   7
BRANCH   6   9
HETATM    9  O9  UNL     1     -25.854  18.517   9.711  1.00 20.00    -0.395 OA
HETATM   10  H23 UNL     1     -26.686  18.117  10.007  1.00 20.00     0.210 HD
ENDBRANCH   6   9
ENDBRANCH   4   6
TORSDOF 3
ENDMDL
MODEL 6
REMARK VINA RESULT:      -3.9     11.526     12.464
REMARK  3 active torsions:
REMARK  status: ('A' for Active; 'I' for Inactive)
REMARK    1  A    between atoms: C4_4  and  C7_7 
REMARK    2  A    between atoms: C6_6  and  C7_7 
REMARK    3  A    between atoms: C7_7  and  O9_9 
ROOT
HETATM    1  C1  UNL     1     -35.749  14.156  -4.573  1.00 20.00     0.035 C 
HETATM    2  C2  UNL     1     -35.251  14.694  -5.900  1.00 20.00     0.168 C 
HETATM    3  C3  UNL     1     -33.404  14.267  -4.543  1.00 20.00     0.174 C 
HETATM    4  C4  UNL     1     -34.604  14.464  -3.629  1.00 20.00     0.040 C 
HETATM    5  O8  UNL     1     -33.819  14.640  -5.865  1.00 20.00    -0.391 OA
ENDROOT
BRANCH   4   6
HETATM    6  C7  UNL     1     -34.676  15.890  -3.087  1.00 20.00     0.124 C 
BRANCH   6   7
HETATM    7  C6  UNL     1     -33.278  16.476  -2.862  1.00 20.00     0.027 C 
HETATM    8  C5  UNL     1     -33.257  17.526  -1.758  1.00 20.00     0.007 C 
ENDBRANCH   6   7
BRANCH   6   9
HETATM    9  O9  UNL     1     -35.378  15.882  -1.846  1.00 20.00    -0.395 OA
HETATM   10  H23 UNL     1     -34.979  16.577  -1.300  1.00 20.00     0.210 HD
ENDBRANCH   6   9
ENDBRANCH   4   6
TORSDOF 3
ENDMDL
MODEL 7
REMARK VINA RESULT:      -3.8     11.746     12.623
REMARK  3 active torsions:
REMARK  status: ('A' for Active; 'I' for Inactive)
REMARK    1  A    between atoms: C4_4  and  C7_7 
REMARK    2  A    between atoms: C6_6  and  C7_7 
REMARK    3  A    between atoms: C7_7  and  O9_9 
ROOT
HETATM    1  C1  UNL     1     -35.653  15.870  -5.239  1.00 20.00     0.035 C 
HETATM    2  C2  UNL     1     -35.564  14.977  -6.460  1.00 20.00     0.168 C 
HETATM    3  C3  UNL     1     -36.154  13.659  -4.630  1.00 20.00     0.174 C 
HETATM    4  C4  UNL     1     -35.458  14.900  -4.091  1.00 20.00     0.040 C 
HETATM    5  O8  UNL     1     -35.981  13.666  -6.054  1.00 20.00    -0.391 OA
ENDROOT
BRANCH   4   6
HETATM    6  C7  UNL     1     -33.981  14.642  -3.804  1.00 20.00     0.124 C 
BRANCH   6   7
HETATM    7  C6  UNL     1     -33.217  15.951  -3.574  1.00 20.00     0.027 C 
HETATM    8  C5  UNL     1     -33.648  16.659  -2.296  1.00 20.00     0.007 C 
ENDBRANCH   6   7
BRANCH   6   9
HETATM    9  O9  UNL     1     -33.402  13.960  -4.916  1.00 20.00    -0.395 OA
HETATM   10  H23 UNL     1     -34.124  13.791  -5.541  1.00 20.00     0.210 HD
ENDBRANCH   6   9
ENDBRANCH   4   6
TORSDOF 3
ENDMDL
MODEL 8
REMARK VINA RESULT:      -3.7     11.566     12.862
REMARK  3 active torsions:
REMARK  status: ('A' for Active; 'I' for Inactive)
REMARK    1  A    between atoms: C4_4  and  C7_7 
REMARK    2  A    between atoms: C6_6  and  C7_7 
REMARK    3  A    between atoms: C7_7  and  O9_9 
ROOT
HETATM    1  C1  UNL     1     -33.023  15.492  -3.696  1.00 20.00     0.035 C 
HETATM    2  C2  UNL     1     -34.143  16.312  -3.087  1.00 20.00     0.168 C 
HETATM    3  C3  UNL     1     -35.013  14.248  -3.733  1.00 20.00     0.174 C 
HETATM    4  C4  UNL     1     -33.763  14.495  -4.564  1.00 20.00     0.040 C 
HETATM    5  O8  UNL     1     -35.302  15.470  -3.038  1.00 20.00    -0.391 OA
ENDROOT
BRANCH   4   6
HETATM    6  C7  UNL     1     -34.099  15.070  -5.938  1.00 20.00     0.124 C 
BRANCH   6   7
HETATM    7  C6  UNL     1     -35.523  14.700  -6.368  1.00 20.00     0.027 C 
HETATM    8  C5  UNL     1     -36.349  15.919  -6.759  1.00 20.00     0.007 C 
ENDBRANCH   6   7
BRANCH   6   9
HETATM    9  O9  UNL     1     -33.179  14.554  -6.898  1.00 20.00    -0.395 OA
HETATM   10  H23 UNL     1     -32.336  14.434  -6.433  1.00 20.00     0.210 HD
ENDBRANCH   6   9
ENDBRANCH   4   6
TORSDOF 3
ENDMDL
MODEL 9
REMARK VINA RESULT:      -3.7     11.574     12.620
REMARK  3 active torsions:
REMARK  status: ('A' for Active; 'I' for Inactive)
REMARK    1  A    between atoms: C4_4  and  C7_7 
REMARK    2  A    between atoms: C6_6  and  C7_7 
REMARK    3  A    between atoms: C7_7  and  O9_9 
ROOT
HETATM    1  C1  UNL     1     -33.268  17.437  -3.487  1.00 20.00     0.035 C 
HETATM    2  C2  UNL     1     -34.687  17.965  -3.546  1.00 20.00     0.168 C 
HETATM    3  C3  UNL     1     -34.657  16.098  -2.151  1.00 20.00     0.174 C 
HETATM    4  C4  UNL     1     -33.458  15.990  -3.080  1.00 20.00     0.040 C 
HETATM    5  O8  UNL     1     -35.466  17.180  -2.634  1.00 20.00    -0.391 OA
ENDROOT
BRANCH   4   6
HETATM    6  C7  UNL     1     -33.751  15.092  -4.281  1.00 20.00     0.124 C 
BRANCH   6   7
HETATM    7  C6  UNL     1     -34.716  13.960  -3.912  1.00 20.00     0.027 C 
HETATM    8  C5  UNL     1     -35.985  13.980  -4.756  1.00 20.00     0.007 C 
ENDBRANCH   6   7
BRANCH   6   9
HETATM    9  O9  UNL     1     -32.529  14.522  -4.746  1.00 20.00    -0.395 OA
HETATM   10  H23 UNL     1     -31.814  15.043  -4.348  1.00 20.00     0.210 HD
ENDBRANCH   6   9
ENDBRANCH   4   6
TORSDOF 3
ENDMDL
