MODEL 1
REMARK VINA RESULT:      -4.4      0.000      0.000
REMARK  3 active torsions:
REMARK  status: ('A' for Active; 'I' for Inactive)
REMARK    1  A    between atoms: C4_4  and  C7_7 
REMARK    2  A    between atoms: C6_6  and  C7_7 
REMARK    3  A    between atoms: C7_7  and  O9_9 
ROOT
HETATM    1  C1  UNL     1     -34.046   6.333   5.660  1.00 20.00     0.035 C 
HETATM    2  C2  UNL     1     -34.869   5.075   5.845  1.00 20.00     0.168 C 
HETATM    3  C3  UNL     1     -34.106   5.135   3.644  1.00 20.00     0.174 C 
HETATM    4  C4  UNL     1     -34.163   6.560   4.168  1.00 20.00     0.040 C 
HETATM    5  O8  UNL     1     -34.735   4.311   4.637  1.00 20.00    -0.391 OA
ENDROOT
BRANCH   4   6
HETATM    6  C7  UNL     1     -33.094   7.467   3.591  1.00 20.00     0.124 C 
BRANCH   6   7
HETATM    7  C6  UNL     1     -32.529   6.905   2.283  1.00 20.00     0.027 C 
HETATM    8  C5  UNL     1     -32.502   7.942   1.167  1.00 20.00     0.007 C 
ENDBRANCH   6   7
BRANCH   6   9
HETATM    9  O9  UNL     1     -32.031   7.596   4.535  1.00 20.00    -0.395 OA
HETATM   10  H23 UNL     1     -32.183   6.919   5.212  1.00 20.00     0.210 HD
ENDBRANCH   6   9
ENDBRANCH   4   6
TORSDOF 3
ENDMDL
MODEL 2
REMARK VINA RESULT:      -4.1      1.531      1.552
REMARK  3 active torsions:
REMARK  status: ('A' for Active; 'I' for Inactive)
REMARK    1  A    between atoms: C4_4  and  C7_7 
REMARK    2  A    between atoms: C6_6  and  C7_7 
REMARK    3  A    between atoms: C7_7  and  O9_9 
ROOT
HETATM    1  C1  UNL     1     -33.482   6.760   5.397  1.00 20.00     0.035 C 
HETATM    2  C2  UNL     1     -34.585   6.297   6.326  1.00 20.00     0.168 C 
HETATM    3  C3  UNL     1     -34.591   4.927   4.442  1.00 20.00     0.174 C 
HETATM    4  C4  UNL     1     -33.982   6.264   4.057  1.00 20.00     0.040 C 
HETATM    5  O8  UNL     1     -35.116   5.086   5.769  1.00 20.00    -0.391 OA
ENDROOT
BRANCH   4   6
HETATM    6  C7  UNL     1     -32.907   6.162   2.992  1.00 20.00     0.124 C 
BRANCH   6   7
HETATM    7  C6  UNL     1     -32.381   7.545   2.594  1.00 20.00     0.027 C 
HETATM    8  C5  UNL     1     -32.572   7.836   1.111  1.00 20.00     0.007 C 
ENDBRANCH   6   7
BRANCH   6   9
HETATM    9  O9  UNL     1     -33.453   5.526   1.837  1.00 20.00    -0.395 OA
HETATM   10  H23 UNL     1     -34.413   5.500   1.967  1.00 20.00     0.210 HD
ENDBRANCH   6   9
ENDBRANCH   4   6
TORSDOF 3
ENDMDL
MODEL 3
REMARK VINA RESULT:      -4.1     11.228     12.165
REMARK  3 active torsions:
REMARK  status: ('A' for Active; 'I' for Inactive)
REMARK    1  A    between atoms: C4_4  and  C7_7 
REMARK    2  A    between atoms: C6_6  and  C7_7 
REMARK    3  A    between atoms: C7_7  and  O9_9 
ROOT
HETATM    1  C1  UNL     1     -35.127  15.596  -2.762  1.00 20.00     0.035 C 
HETATM    2  C2  UNL     1     -33.791  16.238  -2.448  1.00 20.00     0.168 C 
HETATM    3  C3  UNL     1     -33.603  15.111  -4.479  1.00 20.00     0.174 C 
HETATM    4  C4  UNL     1     -34.714  14.460  -3.673  1.00 20.00     0.040 C 
HETATM    5  O8  UNL     1     -32.957  16.045  -3.600  1.00 20.00    -0.391 OA
ENDROOT
BRANCH   4   6
HETATM    6  C7  UNL     1     -35.841  13.903  -4.522  1.00 20.00     0.124 C 
BRANCH   6   7
HETATM    7  C6  UNL     1     -37.170  14.599  -4.214  1.00 20.00     0.027 C 
HETATM    8  C5  UNL     1     -37.546  15.630  -5.270  1.00 20.00     0.007 C 
ENDBRANCH   6   7
BRANCH   6   9
HETATM    9  O9  UNL     1     -35.978  12.507  -4.258  1.00 20.00    -0.395 OA
HETATM   10  H23 UNL     1     -36.338  12.432  -3.361  1.00 20.00     0.210 HD
ENDBRANCH   6   9
ENDBRANCH   4   6
TORSDOF 3
ENDMDL
MODEL 4
REMARK VINA RESULT:      -4.1     11.634     12.126
REMARK  3 active torsions:
REMARK  status: ('A' for Active; 'I' for Inactive)
REMARK    1  A    between atoms: C4_4  and  C7_7 
REMARK    2  A    between atoms: C6_6  and  C7_7 
REMARK    3  A    between atoms: C7_7  and  O9_9 
ROOT
HETATM    1  C1  UNL     1     -36.612  15.670  -3.717  1.00 20.00     0.035 C 
HETATM    2  C2  UNL     1     -37.870  15.009  -4.242  1.00 20.00     0.168 C 
HETATM    3  C3  UNL     1     -36.105  13.503  -4.460  1.00 20.00     0.174 C 
HETATM    4  C4  UNL     1     -35.534  14.911  -4.460  1.00 20.00     0.040 C 
HETATM    5  O8  UNL     1     -37.533  13.643  -4.528  1.00 20.00    -0.391 OA
ENDROOT
BRANCH   4   6
HETATM    6  C7  UNL     1     -34.157  15.013  -3.832  1.00 20.00     0.124 C 
BRANCH   6   7
HETATM    7  C6  UNL     1     -34.179  15.887  -2.574  1.00 20.00     0.027 C 
HETATM    8  C5  UNL     1     -33.083  16.945  -2.581  1.00 20.00     0.007 C 
ENDBRANCH   6   7
BRANCH   6   9
HETATM    9  O9  UNL     1     -33.255  15.586  -4.778  1.00 20.00    -0.395 OA
HETATM   10  H23 UNL     1     -33.545  15.283  -5.651  1.00 20.00     0.210 HD
ENDBRANCH   6   9
ENDBRANCH   4   6
TORSDOF 3
ENDMDL
MODEL 5
REMARK VINA RESULT:      -3.9     11.286     12.293
REMARK  3 active torsions:
REMARK  status: ('A' for Active; 'I' for Inactive)
REMARK    1  A    between atoms: C4_4  and  C7_7 
REMARK    2  A    between atoms: C6_6  and  C7_7 
REMARK    3  A    between atoms: C7_7  and  O9_9 
ROOT
HETATM    1  C1  UNL     1     -34.757  15.948  -2.233  1.00 20.00     0.035 C 
HETATM    2  C2  UNL     1     -34.332  17.248  -1.582  1.00 20.00     0.168 C 
HETATM    3  C3  UNL     1     -33.375  17.144  -3.703  1.00 20.00     0.174 C 
HETATM    4  C4  UNL     1     -33.640  15.725  -3.229  1.00 20.00     0.040 C 
HETATM    5  O8  UNL     1     -33.629  18.002  -2.580  1.00 20.00    -0.391 OA
ENDROOT
BRANCH   4   6
HETATM    6  C7  UNL     1     -33.988  14.762  -4.348  1.00 20.00     0.124 C 
BRANCH   6   7
HETATM    7  C6  UNL     1     -35.120  13.814  -3.938  1.00 20.00     0.027 C 
HETATM    8  C5  UNL     1     -36.295  13.856  -4.907  1.00 20.00     0.007 C 
ENDBRANCH   6   7
BRANCH   6   9
HETATM    9  O9  UNL     1     -32.834  13.990  -4.674  1.00 20.00    -0.395 OA
HETATM   10  H23 UNL     1     -33.075  13.062  -4.530  1.00 20.00     0.210 HD
ENDBRANCH   6   9
ENDBRANCH   4   6
TORSDOF 3
ENDMDL
MODEL 6
REMARK VINA RESULT:      -3.9     11.309     13.358
REMARK  3 active torsions:
REMARK  status: ('A' for Active; 'I' for Inactive)
REMARK    1  A    between atoms: C4_4  and  C7_7 
REMARK    2  A    between atoms: C6_6  and  C7_7 
REMARK    3  A    between atoms: C7_7  and  O9_9 
ROOT
HETATM    1  C1  UNL     1     -34.369  14.954  -6.399  1.00 20.00     0.035 C 
HETATM    2  C2  UNL     1     -34.704  15.806  -7.605  1.00 20.00     0.168 C 
HETATM    3  C3  UNL     1     -36.550  15.790  -6.185  1.00 20.00     0.174 C 
HETATM    4  C4  UNL     1     -35.745  14.527  -5.934  1.00 20.00     0.040 C 
HETATM    5  O8  UNL     1     -35.977  16.416  -7.343  1.00 20.00    -0.391 OA
ENDROOT
BRANCH   4   6
HETATM    6  C7  UNL     1     -35.793  14.045  -4.497  1.00 20.00     0.124 C 
BRANCH   6   7
HETATM    7  C6  UNL     1     -34.562  14.505  -3.710  1.00 20.00     0.027 C 
HETATM    8  C5  UNL     1     -34.888  15.599  -2.702  1.00 20.00     0.007 C 
ENDBRANCH   6   7
BRANCH   6   9
HETATM    9  O9  UNL     1     -35.844  12.620  -4.484  1.00 20.00    -0.395 OA
HETATM   10  H23 UNL     1     -36.328  12.370  -3.683  1.00 20.00     0.210 HD
ENDBRANCH   6   9
ENDBRANCH   4   6
TORSDOF 3
ENDMDL
MODEL 7
REMARK VINA RESULT:      -3.9     11.755     13.065
REMARK  3 active torsions:
REMARK  status: ('A' for Active; 'I' for Inactive)
REMARK    1  A    between atoms: C4_4  and  C7_7 
REMARK    2  A    between atoms: C6_6  and  C7_7 
REMARK    3  A    between atoms: C7_7  and  O9_9 
ROOT
HETATM    1  C1  UNL     1     -34.517  16.218  -6.068  1.00 20.00     0.035 C 
HETATM    2  C2  UNL     1     -35.710  16.039  -6.983  1.00 20.00     0.168 C 
HETATM    3  C3  UNL     1     -35.725  14.316  -5.416  1.00 20.00     0.174 C 
HETATM    4  C4  UNL     1     -34.296  14.805  -5.574  1.00 20.00     0.040 C 
HETATM    5  O8  UNL     1     -36.493  14.966  -6.441  1.00 20.00    -0.391 OA
ENDROOT
BRANCH   4   6
HETATM    6  C7  UNL     1     -33.473  14.712  -4.303  1.00 20.00     0.124 C 
BRANCH   6   7
HETATM    7  C6  UNL     1     -33.536  16.014  -3.499  1.00 20.00     0.027 C 
HETATM    8  C5  UNL     1     -34.533  15.942  -2.349  1.00 20.00     0.007 C 
ENDBRANCH   6   7
BRANCH   6   9
HETATM    9  O9  UNL     1     -32.114  14.445  -4.645  1.00 20.00    -0.395 OA
HETATM   10  H23 UNL     1     -31.601  14.551  -3.830  1.00 20.00     0.210 HD
ENDBRANCH   6   9
ENDBRANCH   4   6
TORSDOF 3
ENDMDL
MODEL 8
REMARK VINA RESULT:      -3.8     11.537     12.505
REMARK  3 active torsions:
REMARK  status: ('A' for Active; 'I' for Inactive)
REMARK    1  A    between atoms: C4_4  and  C7_7 
REMARK    2  A    between atoms: C6_6  and  C7_7 
REMARK    3  A    between atoms: C7_7  and  O9_9 
ROOT
HETATM    1  C1  UNL     1     -34.683  15.646  -5.650  1.00 20.00     0.035 C 
HETATM    2  C2  UNL     1     -35.540  14.576  -6.293  1.00 20.00     0.168 C 
HETATM    3  C3  UNL     1     -35.065  13.920  -4.108  1.00 20.00     0.174 C 
HETATM    4  C4  UNL     1     -33.966  14.860  -4.575  1.00 20.00     0.040 C 
HETATM    5  O8  UNL     1     -35.872  13.635  -5.261  1.00 20.00    -0.391 OA
ENDROOT
BRANCH   4   6
HETATM    6  C7  UNL     1     -33.380  15.714  -3.466  1.00 20.00     0.124 C 
BRANCH   6   7
HETATM    7  C6  UNL     1     -34.419  16.014  -2.382  1.00 20.00     0.027 C 
HETATM    8  C5  UNL     1     -34.081  17.265  -1.581  1.00 20.00     0.007 C 
ENDBRANCH   6   7
BRANCH   6   9
HETATM    9  O9  UNL     1     -32.920  16.946  -4.020  1.00 20.00    -0.395 OA
HETATM   10  H23 UNL     1     -33.603  17.605  -3.826  1.00 20.00     0.210 HD
ENDBRANCH   6   9
ENDBRANCH   4   6
TORSDOF 3
ENDMDL
MODEL 9
REMARK VINA RESULT:      -3.8      9.193      9.869
REMARK  3 active torsions:
REMARK  status: ('A' for Active; 'I' for Inactive)
REMARK    1  A    between atoms: C4_4  and  C7_7 
REMARK    2  A    between atoms: C6_6  and  C7_7 
REMARK    3  A    between atoms: C7_7  and  O9_9 
ROOT
HETATM    1  C1  UNL     1     -43.358   5.195  -0.784  1.00 20.00     0.035 C 
HETATM    2  C2  UNL     1     -42.878   4.326  -1.928  1.00 20.00     0.168 C 
HETATM    3  C3  UNL     1     -41.040   5.452  -1.044  1.00 20.00     0.174 C 
HETATM    4  C4  UNL     1     -42.288   6.265  -0.743  1.00 20.00     0.040 C 
HETATM    5  O8  UNL     1     -41.445   4.400  -1.933  1.00 20.00    -0.391 OA
ENDROOT
BRANCH   4   6
HETATM    6  C7  UNL     1     -42.221   7.027   0.567  1.00 20.00     0.124 C 
BRANCH   6   7
HETATM    7  C6  UNL     1     -42.609   8.497   0.379  1.00 20.00     0.027 C 
HETATM    8  C5  UNL     1     -41.395   9.409   0.254  1.00 20.00     0.007 C 
ENDBRANCH   6   7
BRANCH   6   9
HETATM    9  O9  UNL     1     -40.890   6.962   1.076  1.00 20.00    -0.395 OA
HETATM   10  H23 UNL     1     -40.371   7.606   0.570  1.00 20.00     0.210 HD
ENDBRANCH   6   9
ENDBRANCH   4   6
TORSDOF 3
ENDMDL
