MODEL 1
REMARK VINA RESULT:      -5.0      0.000      0.000
REMARK  4 active torsions:
REMARK  status: ('A' for Active; 'I' for Inactive)
REMARK    1  A    between atoms: C2_2  and  C3_3 
REMARK    2  A    between atoms: C3_3  and  C5_5 
REMARK    3  A    between atoms: C5_5  and  C6_6 
REMARK    4  A    between atoms: C6_6  and  C7_7 
ROOT
HETATM    1  C3  UNL     1     -33.414   5.974   3.323  1.00 20.00     0.154 C 
HETATM    2  O8  UNL     1     -33.460   5.036   2.526  1.00 20.00    -0.293 OA
ENDROOT
BRANCH   1   3
HETATM    3  C2  UNL     1     -34.271   5.932   4.559  1.00 20.00    -0.025 C 
HETATM    4  C1  UNL     1     -35.343   5.133   4.644  1.00 20.00     0.022 C 
HETATM    5  C4  UNL     1     -33.860   6.830   5.689  1.00 20.00     0.051 C 
ENDBRANCH   1   3
BRANCH   1   6
HETATM    6  C5  UNL     1     -32.511   7.178   3.086  1.00 20.00     0.084 C 
BRANCH   6   7
HETATM    7  C6  UNL     1     -32.279   7.445   1.596  1.00 20.00     0.023 C 
BRANCH   7   8
HETATM    8  C7  UNL     1     -32.816   8.795   1.134  1.00 20.00     0.115 C 
HETATM    9 CL9  UNL     1     -33.506   8.715  -0.504  1.00 20.00    -0.130 Cl
ENDBRANCH   7   8
ENDBRANCH   6   7
ENDBRANCH   1   6
TORSDOF 4
ENDMDL
MODEL 2
REMARK VINA RESULT:      -4.9      0.096      1.175
REMARK  4 active torsions:
REMARK  status: ('A' for Active; 'I' for Inactive)
REMARK    1  A    between atoms: C2_2  and  C3_3 
REMARK    2  A    between atoms: C3_3  and  C5_5 
REMARK    3  A    between atoms: C5_5  and  C6_6 
REMARK    4  A    between atoms: C6_6  and  C7_7 
ROOT
HETATM    1  C3  UNL     1     -33.378   6.074   3.341  1.00 20.00     0.154 C 
HETATM    2  O8  UNL     1     -33.524   5.155   2.533  1.00 20.00    -0.293 OA
ENDROOT
BRANCH   1   3
HETATM    3  C2  UNL     1     -34.169   6.060   4.620  1.00 20.00    -0.025 C 
HETATM    4  C1  UNL     1     -33.855   6.857   5.650  1.00 20.00     0.022 C 
HETATM    5  C4  UNL     1     -35.328   5.108   4.679  1.00 20.00     0.051 C 
ENDBRANCH   1   3
BRANCH   1   6
HETATM    6  C5  UNL     1     -32.417   7.225   3.074  1.00 20.00     0.084 C 
BRANCH   6   7
HETATM    7  C6  UNL     1     -32.241   7.499   1.577  1.00 20.00     0.023 C 
BRANCH   7   8
HETATM    8  C7  UNL     1     -32.852   8.823   1.130  1.00 20.00     0.115 C 
HETATM    9 CL9  UNL     1     -33.517   8.730  -0.517  1.00 20.00    -0.130 Cl
ENDBRANCH   7   8
ENDBRANCH   6   7
ENDBRANCH   1   6
TORSDOF 4
ENDMDL
MODEL 3
REMARK VINA RESULT:      -4.9      2.504      4.331
REMARK  4 active torsions:
REMARK  status: ('A' for Active; 'I' for Inactive)
REMARK    1  A    between atoms: C2_2  and  C3_3 
REMARK    2  A    between atoms: C3_3  and  C5_5 
REMARK    3  A    between atoms: C5_5  and  C6_6 
REMARK    4  A    between atoms: C6_6  and  C7_7 
ROOT
HETATM    1  C3  UNL     1     -33.326   5.765   2.802  1.00 20.00     0.154 C 
HETATM    2  O8  UNL     1     -32.901   4.712   2.325  1.00 20.00    -0.293 OA
ENDROOT
BRANCH   1   3
HETATM    3  C2  UNL     1     -32.528   7.028   2.623  1.00 20.00    -0.025 C 
HETATM    4  C1  UNL     1     -31.780   7.535   3.612  1.00 20.00     0.022 C 
HETATM    5  C4  UNL     1     -32.614   7.687   1.277  1.00 20.00     0.051 C 
ENDBRANCH   1   3
BRANCH   1   6
HETATM    6  C5  UNL     1     -34.639   5.819   3.573  1.00 20.00     0.084 C 
BRANCH   6   7
HETATM    7  C6  UNL     1     -34.756   4.689   4.599  1.00 20.00     0.023 C 
BRANCH   7   8
HETATM    8  C7  UNL     1     -34.738   5.180   6.043  1.00 20.00     0.115 C 
HETATM    9 CL9  UNL     1     -34.080   6.826   6.181  1.00 20.00    -0.130 Cl
ENDBRANCH   7   8
ENDBRANCH   6   7
ENDBRANCH   1   6
TORSDOF 4
ENDMDL
MODEL 4
REMARK VINA RESULT:      -4.4      1.285      1.286
REMARK  4 active torsions:
REMARK  status: ('A' for Active; 'I' for Inactive)
REMARK    1  A    between atoms: C2_2  and  C3_3 
REMARK    2  A    between atoms: C3_3  and  C5_5 
REMARK    3  A    between atoms: C5_5  and  C6_6 
REMARK    4  A    between atoms: C6_6  and  C7_7 
ROOT
HETATM    1  C3  UNL     1     -33.317   6.665   4.000  1.00 20.00     0.154 C 
HETATM    2  O8  UNL     1     -32.611   7.478   4.599  1.00 20.00    -0.293 OA
ENDROOT
BRANCH   1   3
HETATM    3  C2  UNL     1     -34.366   5.903   4.761  1.00 20.00    -0.025 C 
HETATM    4  C1  UNL     1     -35.186   5.035   4.153  1.00 20.00     0.022 C 
HETATM    5  C4  UNL     1     -34.445   6.165   6.237  1.00 20.00     0.051 C 
ENDBRANCH   1   3
BRANCH   1   6
HETATM    6  C5  UNL     1     -33.150   6.411   2.508  1.00 20.00     0.084 C 
BRANCH   6   7
HETATM    7  C6  UNL     1     -32.224   7.436   1.845  1.00 20.00     0.023 C 
BRANCH   7   8
HETATM    8  C7  UNL     1     -32.962   8.659   1.310  1.00 20.00     0.115 C 
HETATM    9 CL9  UNL     1     -33.375   8.491  -0.411  1.00 20.00    -0.130 Cl
ENDBRANCH   7   8
ENDBRANCH   6   7
ENDBRANCH   1   6
TORSDOF 4
ENDMDL
MODEL 5
REMARK VINA RESULT:      -4.3      0.992      1.070
REMARK  4 active torsions:
REMARK  status: ('A' for Active; 'I' for Inactive)
REMARK    1  A    between atoms: C2_2  and  C3_3 
REMARK    2  A    between atoms: C3_3  and  C5_5 
REMARK    3  A    between atoms: C5_5  and  C6_6 
REMARK    4  A    between atoms: C6_6  and  C7_7 
ROOT
HETATM    1  C3  UNL     1     -33.969   5.825   3.826  1.00 20.00     0.154 C 
HETATM    2  O8  UNL     1     -33.941   4.730   3.260  1.00 20.00    -0.293 OA
ENDROOT
BRANCH   1   3
HETATM    3  C2  UNL     1     -34.277   5.884   5.296  1.00 20.00    -0.025 C 
HETATM    4  C1  UNL     1     -34.957   4.908   5.913  1.00 20.00     0.022 C 
HETATM    5  C4  UNL     1     -33.782   7.093   6.035  1.00 20.00     0.051 C 
ENDBRANCH   1   3
BRANCH   1   6
HETATM    6  C5  UNL     1     -33.701   7.120   3.070  1.00 20.00     0.084 C 
BRANCH   6   7
HETATM    7  C6  UNL     1     -32.295   7.157   2.462  1.00 20.00     0.023 C 
BRANCH   7   8
HETATM    8  C7  UNL     1     -32.270   7.683   1.031  1.00 20.00     0.115 C 
HETATM    9 CL9  UNL     1     -33.032   9.284   0.894  1.00 20.00    -0.130 Cl
ENDBRANCH   7   8
ENDBRANCH   6   7
ENDBRANCH   1   6
TORSDOF 4
ENDMDL
MODEL 6
REMARK VINA RESULT:      -4.1     10.533     11.376
REMARK  4 active torsions:
REMARK  status: ('A' for Active; 'I' for Inactive)
REMARK    1  A    between atoms: C2_2  and  C3_3 
REMARK    2  A    between atoms: C3_3  and  C5_5 
REMARK    3  A    between atoms: C5_5  and  C6_6 
REMARK    4  A    between atoms: C6_6  and  C7_7 
ROOT
HETATM    1  C3  UNL     1     -35.005  14.048  -3.996  1.00 20.00     0.154 C 
HETATM    2  O8  UNL     1     -34.490  12.931  -3.934  1.00 20.00    -0.293 OA
ENDROOT
BRANCH   1   3
HETATM    3  C2  UNL     1     -34.322  15.211  -3.330  1.00 20.00    -0.025 C 
HETATM    4  C1  UNL     1     -33.092  15.603  -3.686  1.00 20.00     0.022 C 
HETATM    5  C4  UNL     1     -35.093  15.907  -2.246  1.00 20.00     0.051 C 
ENDBRANCH   1   3
BRANCH   1   6
HETATM    6  C5  UNL     1     -36.320  14.280  -4.730  1.00 20.00     0.084 C 
BRANCH   6   7
HETATM    7  C6  UNL     1     -36.207  15.382  -5.788  1.00 20.00     0.023 C 
BRANCH   7   8
HETATM    8  C7  UNL     1     -35.640  14.890  -7.115  1.00 20.00     0.115 C 
HETATM    9 CL9  UNL     1     -33.884  15.149  -7.229  1.00 20.00    -0.130 Cl
ENDBRANCH   7   8
ENDBRANCH   6   7
ENDBRANCH   1   6
TORSDOF 4
ENDMDL
MODEL 7
REMARK VINA RESULT:      -4.1     10.752     11.584
REMARK  4 active torsions:
REMARK  status: ('A' for Active; 'I' for Inactive)
REMARK    1  A    between atoms: C2_2  and  C3_3 
REMARK    2  A    between atoms: C3_3  and  C5_5 
REMARK    3  A    between atoms: C5_5  and  C6_6 
REMARK    4  A    between atoms: C6_6  and  C7_7 
ROOT
HETATM    1  C3  UNL     1     -35.723  13.954  -4.407  1.00 20.00     0.154 C 
HETATM    2  O8  UNL     1     -35.734  12.722  -4.424  1.00 20.00    -0.293 OA
ENDROOT
BRANCH   1   3
HETATM    3  C2  UNL     1     -34.572  14.669  -3.755  1.00 20.00    -0.025 C 
HETATM    4  C1  UNL     1     -34.755  15.506  -2.725  1.00 20.00     0.022 C 
HETATM    5  C4  UNL     1     -33.208  14.395  -4.320  1.00 20.00     0.051 C 
ENDBRANCH   1   3
BRANCH   1   6
HETATM    6  C5  UNL     1     -36.850  14.770  -5.027  1.00 20.00     0.084 C 
BRANCH   6   7
HETATM    7  C6  UNL     1     -36.352  15.688  -6.148  1.00 20.00     0.023 C 
BRANCH   7   8
HETATM    8  C7  UNL     1     -35.727  14.932  -7.315  1.00 20.00     0.115 C 
HETATM    9 CL9  UNL     1     -34.056  15.451  -7.630  1.00 20.00    -0.130 Cl
ENDBRANCH   7   8
ENDBRANCH   6   7
ENDBRANCH   1   6
TORSDOF 4
ENDMDL
MODEL 8
REMARK VINA RESULT:      -4.0     15.442     16.058
REMARK  4 active torsions:
REMARK  status: ('A' for Active; 'I' for Inactive)
REMARK    1  A    between atoms: C2_2  and  C3_3 
REMARK    2  A    between atoms: C3_3  and  C5_5 
REMARK    3  A    between atoms: C5_5  and  C6_6 
REMARK    4  A    between atoms: C6_6  and  C7_7 
ROOT
HETATM    1  C3  UNL     1     -23.019  17.334   9.648  1.00 20.00     0.154 C 
HETATM    2  O8  UNL     1     -22.504  16.484   8.919  1.00 20.00    -0.293 OA
ENDROOT
BRANCH   1   3
HETATM    3  C2  UNL     1     -23.451  16.947  11.036  1.00 20.00    -0.025 C 
HETATM    4  C1  UNL     1     -24.463  16.095  11.247  1.00 20.00     0.022 C 
HETATM    5  C4  UNL     1     -22.687  17.566  12.171  1.00 20.00     0.051 C 
ENDBRANCH   1   3
BRANCH   1   6
HETATM    6  C5  UNL     1     -23.232  18.766   9.176  1.00 20.00     0.084 C 
BRANCH   6   7
HETATM    7  C6  UNL     1     -24.671  19.017   8.715  1.00 20.00     0.023 C 
BRANCH   7   8
HETATM    8  C7  UNL     1     -24.812  19.107   7.199  1.00 20.00     0.115 C 
HETATM    9 CL9  UNL     1     -26.445  18.659   6.652  1.00 20.00    -0.130 Cl
ENDBRANCH   7   8
ENDBRANCH   6   7
ENDBRANCH   1   6
TORSDOF 4
ENDMDL
MODEL 9
REMARK VINA RESULT:      -4.0      2.727      4.337
REMARK  4 active torsions:
REMARK  status: ('A' for Active; 'I' for Inactive)
REMARK    1  A    between atoms: C2_2  and  C3_3 
REMARK    2  A    between atoms: C3_3  and  C5_5 
REMARK    3  A    between atoms: C5_5  and  C6_6 
REMARK    4  A    between atoms: C6_6  and  C7_7 
ROOT
HETATM    1  C3  UNL     1     -32.768   7.254   3.774  1.00 20.00     0.154 C 
HETATM    2  O8  UNL     1     -31.740   7.768   4.218  1.00 20.00    -0.293 OA
ENDROOT
BRANCH   1   3
HETATM    3  C2  UNL     1     -32.751   6.647   2.399  1.00 20.00    -0.025 C 
HETATM    4  C1  UNL     1     -33.007   5.347   2.200  1.00 20.00     0.022 C 
HETATM    5  C4  UNL     1     -32.435   7.574   1.262  1.00 20.00     0.051 C 
ENDBRANCH   1   3
BRANCH   1   6
HETATM    6  C5  UNL     1     -34.057   7.222   4.585  1.00 20.00     0.084 C 
BRANCH   6   7
HETATM    7  C6  UNL     1     -33.867   6.554   5.950  1.00 20.00     0.023 C 
BRANCH   7   8
HETATM    8  C7  UNL     1     -34.660   5.260   6.105  1.00 20.00     0.115 C 
HETATM    9 CL9  UNL     1     -35.285   4.670   4.548  1.00 20.00    -0.130 Cl
ENDBRANCH   7   8
ENDBRANCH   6   7
ENDBRANCH   1   6
TORSDOF 4
ENDMDL
