MODEL 1
REMARK VINA RESULT:      -4.3      0.000      0.000
REMARK  3 active torsions:
REMARK  status: ('A' for Active; 'I' for Inactive)
REMARK    1  A    between atoms: C4_4  and  C7_7 
REMARK    2  A    between atoms: C6_6  and  C7_7 
REMARK    3  A    between atoms: C7_7  and  O9_9 
ROOT
HETATM    1  C1  UNL     1     -23.837  17.951  12.285  1.00 20.00     0.035 C 
HETATM    2  C2  UNL     1     -25.351  17.933  12.282  1.00 20.00     0.168 C 
HETATM    3  C3  UNL     1     -24.592  15.778  11.823  1.00 20.00     0.174 C 
HETATM    4  C4  UNL     1     -23.479  16.742  11.445  1.00 20.00     0.040 C 
HETATM    5  O8  UNL     1     -25.756  16.569  12.103  1.00 20.00    -0.391 OA
ENDROOT
BRANCH   4   6
HETATM    6  C7  UNL     1     -23.487  17.060   9.951  1.00 20.00     0.124 C 
BRANCH   6   7
HETATM    7  C6  UNL     1     -22.948  18.467   9.674  1.00 20.00     0.027 C 
HETATM    8  C5  UNL     1     -23.850  19.263   8.738  1.00 20.00     0.007 C 
ENDBRANCH   6   7
BRANCH   6   9
HETATM    9  O9  UNL     1     -22.672  16.110   9.267  1.00 20.00    -0.395 OA
HETATM   10  H23 UNL     1     -22.363  15.481   9.937  1.00 20.00     0.210 HD
ENDBRANCH   6   9
ENDBRANCH   4   6
TORSDOF 3
ENDMDL
MODEL 2
REMARK VINA RESULT:      -4.3      1.603      3.840
REMARK  3 active torsions:
REMARK  status: ('A' for Active; 'I' for Inactive)
REMARK    1  A    between atoms: C4_4  and  C7_7 
REMARK    2  A    between atoms: C6_6  and  C7_7 
REMARK    3  A    between atoms: C7_7  and  O9_9 
ROOT
HETATM    1  C1  UNL     1     -21.328  17.806   9.268  1.00 20.00     0.035 C 
HETATM    2  C2  UNL     1     -21.773  17.387   7.882  1.00 20.00     0.168 C 
HETATM    3  C3  UNL     1     -23.347  18.876   8.738  1.00 20.00     0.174 C 
HETATM    4  C4  UNL     1     -22.619  18.257   9.919  1.00 20.00     0.040 C 
HETATM    5  O8  UNL     1     -22.947  18.148   7.569  1.00 20.00    -0.391 OA
ENDROOT
BRANCH   4   6
HETATM    6  C7  UNL     1     -23.398  17.087  10.517  1.00 20.00     0.124 C 
BRANCH   6   7
HETATM    7  C6  UNL     1     -23.617  17.269  12.021  1.00 20.00     0.027 C 
HETATM    8  C5  UNL     1     -24.800  18.178  12.332  1.00 20.00     0.007 C 
ENDBRANCH   6   7
BRANCH   6   9
HETATM    9  O9  UNL     1     -24.668  16.994   9.872  1.00 20.00    -0.395 OA
HETATM   10  H23 UNL     1     -24.570  17.429   9.011  1.00 20.00     0.210 HD
ENDBRANCH   6   9
ENDBRANCH   4   6
TORSDOF 3
ENDMDL
MODEL 3
REMARK VINA RESULT:      -4.1      1.369      3.548
REMARK  3 active torsions:
REMARK  status: ('A' for Active; 'I' for Inactive)
REMARK    1  A    between atoms: C4_4  and  C7_7 
REMARK    2  A    between atoms: C6_6  and  C7_7 
REMARK    3  A    between atoms: C7_7  and  O9_9 
ROOT
HETATM    1  C1  UNL     1     -22.781  18.828   9.236  1.00 20.00     0.035 C 
HETATM    2  C2  UNL     1     -21.573  17.971   8.920  1.00 20.00     0.168 C 
HETATM    3  C3  UNL     1     -23.401  16.566   9.251  1.00 20.00     0.174 C 
HETATM    4  C4  UNL     1     -23.695  17.871   9.972  1.00 20.00     0.040 C 
HETATM    5  O8  UNL     1     -22.029  16.615   8.836  1.00 20.00    -0.391 OA
ENDROOT
BRANCH   4   6
HETATM    6  C7  UNL     1     -23.357  17.786  11.460  1.00 20.00     0.124 C 
BRANCH   6   7
HETATM    7  C6  UNL     1     -24.574  18.111  12.331  1.00 20.00     0.027 C 
HETATM    8  C5  UNL     1     -25.638  17.022  12.276  1.00 20.00     0.007 C 
ENDBRANCH   6   7
BRANCH   6   9
HETATM    9  O9  UNL     1     -22.912  16.464  11.763  1.00 20.00    -0.395 OA
HETATM   10  H23 UNL     1     -23.034  15.942  10.955  1.00 20.00     0.210 HD
ENDBRANCH   6   9
ENDBRANCH   4   6
TORSDOF 3
ENDMDL
MODEL 4
REMARK VINA RESULT:      -4.0     18.094     19.286
REMARK  3 active torsions:
REMARK  status: ('A' for Active; 'I' for Inactive)
REMARK    1  A    between atoms: C4_4  and  C7_7 
REMARK    2  A    between atoms: C6_6  and  C7_7 
REMARK    3  A    between atoms: C7_7  and  O9_9 
ROOT
HETATM    1  C1  UNL     1     -35.870  16.017  -5.690  1.00 20.00     0.035 C 
HETATM    2  C2  UNL     1     -35.906  14.966  -6.780  1.00 20.00     0.168 C 
HETATM    3  C3  UNL     1     -35.839  13.881  -4.719  1.00 20.00     0.174 C 
HETATM    4  C4  UNL     1     -35.263  15.273  -4.518  1.00 20.00     0.040 C 
HETATM    5  O8  UNL     1     -35.994  13.690  -6.132  1.00 20.00    -0.391 OA
ENDROOT
BRANCH   4   6
HETATM    6  C7  UNL     1     -33.736  15.268  -4.573  1.00 20.00     0.124 C 
BRANCH   6   7
HETATM    7  C6  UNL     1     -33.128  15.899  -3.317  1.00 20.00     0.027 C 
HETATM    8  C5  UNL     1     -34.183  16.276  -2.285  1.00 20.00     0.007 C 
ENDBRANCH   6   7
BRANCH   6   9
HETATM    9  O9  UNL     1     -33.277  13.921  -4.682  1.00 20.00    -0.395 OA
HETATM   10  H23 UNL     1     -33.175  13.591  -3.776  1.00 20.00     0.210 HD
ENDBRANCH   6   9
ENDBRANCH   4   6
TORSDOF 3
ENDMDL
MODEL 5
REMARK VINA RESULT:      -4.0     15.225     16.093
REMARK  3 active torsions:
REMARK  status: ('A' for Active; 'I' for Inactive)
REMARK    1  A    between atoms: C4_4  and  C7_7 
REMARK    2  A    between atoms: C6_6  and  C7_7 
REMARK    3  A    between atoms: C7_7  and  O9_9 
ROOT
HETATM    1  C1  UNL     1     -35.085   5.680   4.079  1.00 20.00     0.035 C 
HETATM    2  C2  UNL     1     -34.760   4.614   5.104  1.00 20.00     0.168 C 
HETATM    3  C3  UNL     1     -34.072   6.675   5.947  1.00 20.00     0.174 C 
HETATM    4  C4  UNL     1     -34.127   6.799   4.433  1.00 20.00     0.040 C 
HETATM    5  O8  UNL     1     -34.245   5.286   6.261  1.00 20.00    -0.391 OA
ENDROOT
BRANCH   4   6
HETATM    6  C7  UNL     1     -32.752   6.598   3.797  1.00 20.00     0.124 C 
BRANCH   6   7
HETATM    7  C6  UNL     1     -32.847   6.522   2.270  1.00 20.00     0.027 C 
HETATM    8  C5  UNL     1     -32.472   7.836   1.597  1.00 20.00     0.007 C 
ENDBRANCH   6   7
BRANCH   6   9
HETATM    9  O9  UNL     1     -31.908   7.691   4.154  1.00 20.00    -0.395 OA
HETATM   10  H23 UNL     1     -31.197   7.715   3.495  1.00 20.00     0.210 HD
ENDBRANCH   6   9
ENDBRANCH   4   6
TORSDOF 3
ENDMDL
MODEL 6
REMARK VINA RESULT:      -4.0     16.973     18.209
REMARK  3 active torsions:
REMARK  status: ('A' for Active; 'I' for Inactive)
REMARK    1  A    between atoms: C4_4  and  C7_7 
REMARK    2  A    between atoms: C6_6  and  C7_7 
REMARK    3  A    between atoms: C7_7  and  O9_9 
ROOT
HETATM    1  C1  UNL     1     -35.583  14.644  -4.082  1.00 20.00     0.035 C 
HETATM    2  C2  UNL     1     -35.293  14.707  -5.567  1.00 20.00     0.168 C 
HETATM    3  C3  UNL     1     -33.269  14.486  -4.434  1.00 20.00     0.174 C 
HETATM    4  C4  UNL     1     -34.273  15.079  -3.459  1.00 20.00     0.040 C 
HETATM    5  O8  UNL     1     -33.884  14.499  -5.730  1.00 20.00    -0.391 OA
ENDROOT
BRANCH   4   6
HETATM    6  C7  UNL     1     -34.154  16.600  -3.378  1.00 20.00     0.124 C 
BRANCH   6   7
HETATM    7  C6  UNL     1     -33.945  17.070  -1.935  1.00 20.00     0.027 C 
HETATM    8  C5  UNL     1     -35.170  16.834  -1.062  1.00 20.00     0.007 C 
ENDBRANCH   6   7
BRANCH   6   9
HETATM    9  O9  UNL     1     -33.045  17.025  -4.169  1.00 20.00    -0.395 OA
HETATM   10  H23 UNL     1     -33.349  17.792  -4.677  1.00 20.00     0.210 HD
ENDBRANCH   6   9
ENDBRANCH   4   6
TORSDOF 3
ENDMDL
MODEL 7
REMARK VINA RESULT:      -3.7     17.284     18.484
REMARK  3 active torsions:
REMARK  status: ('A' for Active; 'I' for Inactive)
REMARK    1  A    between atoms: C4_4  and  C7_7 
REMARK    2  A    between atoms: C6_6  and  C7_7 
REMARK    3  A    between atoms: C7_7  and  O9_9 
ROOT
HETATM    1  C1  UNL     1     -34.786  13.866  -3.872  1.00 20.00     0.035 C 
HETATM    2  C2  UNL     1     -35.875  13.997  -4.916  1.00 20.00     0.168 C 
HETATM    3  C3  UNL     1     -33.879  14.766  -5.840  1.00 20.00     0.174 C 
HETATM    4  C4  UNL     1     -33.752  14.875  -4.329  1.00 20.00     0.040 C 
HETATM    5  O8  UNL     1     -35.248  14.447  -6.124  1.00 20.00    -0.391 OA
ENDROOT
BRANCH   4   6
HETATM    6  C7  UNL     1     -34.069  16.284  -3.832  1.00 20.00     0.124 C 
BRANCH   6   7
HETATM    7  C6  UNL     1     -34.303  16.306  -2.319  1.00 20.00     0.027 C 
HETATM    8  C5  UNL     1     -33.525  17.417  -1.625  1.00 20.00     0.007 C 
ENDBRANCH   6   7
BRANCH   6   9
HETATM    9  O9  UNL     1     -32.974  17.145  -4.143  1.00 20.00    -0.395 OA
HETATM   10  H23 UNL     1     -32.737  16.965  -5.066  1.00 20.00     0.210 HD
ENDBRANCH   6   9
ENDBRANCH   4   6
TORSDOF 3
ENDMDL
MODEL 8
REMARK VINA RESULT:      -3.7     20.116     20.543
REMARK  3 active torsions:
REMARK  status: ('A' for Active; 'I' for Inactive)
REMARK    1  A    between atoms: C4_4  and  C7_7 
REMARK    2  A    between atoms: C6_6  and  C7_7 
REMARK    3  A    between atoms: C7_7  and  O9_9 
ROOT
HETATM    1  C1  UNL     1     -36.842  15.913  -4.350  1.00 20.00     0.035 C 
HETATM    2  C2  UNL     1     -38.066  15.025  -4.432  1.00 20.00     0.168 C 
HETATM    3  C3  UNL     1     -36.172  13.670  -4.508  1.00 20.00     0.174 C 
HETATM    4  C4  UNL     1     -35.756  15.057  -4.970  1.00 20.00     0.040 C 
HETATM    5  O8  UNL     1     -37.603  13.668  -4.419  1.00 20.00    -0.391 OA
ENDROOT
BRANCH   4   6
HETATM    6  C7  UNL     1     -35.742  15.167  -6.494  1.00 20.00     0.124 C 
BRANCH   6   7
HETATM    7  C6  UNL     1     -34.417  15.746  -7.001  1.00 20.00     0.027 C 
HETATM    8  C5  UNL     1     -34.379  17.267  -6.927  1.00 20.00     0.007 C 
ENDBRANCH   6   7
BRANCH   6   9
HETATM    9  O9  UNL     1     -35.926  13.870  -7.057  1.00 20.00    -0.395 OA
HETATM   10  H23 UNL     1     -35.795  13.965  -8.014  1.00 20.00     0.210 HD
ENDBRANCH   6   9
ENDBRANCH   4   6
TORSDOF 3
ENDMDL
MODEL 9
REMARK VINA RESULT:      -3.7     23.314     24.034
REMARK  3 active torsions:
REMARK  status: ('A' for Active; 'I' for Inactive)
REMARK    1  A    between atoms: C4_4  and  C7_7 
REMARK    2  A    between atoms: C6_6  and  C7_7 
REMARK    3  A    between atoms: C7_7  and  O9_9 
ROOT
HETATM    1  C1  UNL     1     -43.151   5.223  -0.224  1.00 20.00     0.035 C 
HETATM    2  C2  UNL     1     -42.950   4.619  -1.598  1.00 20.00     0.168 C 
HETATM    3  C3  UNL     1     -40.899   5.431  -0.847  1.00 20.00     0.174 C 
HETATM    4  C4  UNL     1     -41.987   6.184  -0.099  1.00 20.00     0.040 C 
HETATM    5  O8  UNL     1     -41.546   4.676  -1.881  1.00 20.00    -0.391 OA
ENDROOT
BRANCH   4   6
HETATM    6  C7  UNL     1     -42.289   7.535  -0.744  1.00 20.00     0.124 C 
BRANCH   6   7
HETATM    7  C6  UNL     1     -42.449   8.636   0.309  1.00 20.00     0.027 C 
HETATM    8  C5  UNL     1     -41.267   9.598   0.331  1.00 20.00     0.007 C 
ENDBRANCH   6   7
BRANCH   6   9
HETATM    9  O9  UNL     1     -41.217   7.885  -1.619  1.00 20.00    -0.395 OA
HETATM   10  H23 UNL     1     -41.231   7.238  -2.342  1.00 20.00     0.210 HD
ENDBRANCH   6   9
ENDBRANCH   4   6
TORSDOF 3
ENDMDL
