MODEL 1
REMARK VINA RESULT:      -4.7      0.000      0.000
REMARK  1 active torsions:
REMARK  status: ('A' for Active; 'I' for Inactive)
REMARK    1  A    between atoms: C1_1  and  C4_4 
ROOT
HETATM    1  C1  UNL     1     -33.540   6.469   4.129  1.00 20.00     0.172 C 
HETATM    2  C2  UNL     1     -34.350   6.576   6.232  1.00 20.00     0.160 C 
HETATM    3  C3  UNL     1     -34.770   5.162   5.864  1.00 20.00     0.103 C 
HETATM    4  N5  UNL     1     -33.368   7.084   5.252  1.00 20.00    -0.278 NA
HETATM    5  S9  UNL     1     -34.724   5.192   4.063  1.00 20.00    -0.104 SA
ENDROOT
BRANCH   1   6
HETATM    6  C4  UNL     1     -32.752   6.766   2.899  1.00 20.00     0.440 C 
HETATM    7  F6  UNL     1     -31.525   7.244   3.207  1.00 20.00    -0.164 F 
HETATM    8  F7  UNL     1     -32.581   5.659   2.144  1.00 20.00    -0.164 F 
HETATM    9  F8  UNL     1     -33.367   7.692   2.130  1.00 20.00    -0.164 F 
ENDBRANCH   1   6
TORSDOF 1
ENDMDL
MODEL 2
REMARK VINA RESULT:      -4.5      2.645      3.502
REMARK  1 active torsions:
REMARK  status: ('A' for Active; 'I' for Inactive)
REMARK    1  A    between atoms: C1_1  and  C4_4 
ROOT
HETATM    1  C1  UNL     1     -33.750   6.108   4.092  1.00 20.00     0.172 C 
HETATM    2  C2  UNL     1     -32.110   7.585   3.620  1.00 20.00     0.160 C 
HETATM    3  C3  UNL     1     -32.459   7.126   2.213  1.00 20.00     0.103 C 
HETATM    4  N5  UNL     1     -33.158   7.153   4.567  1.00 20.00    -0.278 NA
HETATM    5  S9  UNL     1     -33.291   5.555   2.503  1.00 20.00    -0.104 SA
ENDROOT
BRANCH   1   6
HETATM    6  C4  UNL     1     -34.831   5.376   4.810  1.00 20.00     0.440 C 
HETATM    7  F6  UNL     1     -36.021   5.522   4.186  1.00 20.00    -0.164 F 
HETATM    8  F7  UNL     1     -34.567   4.052   4.879  1.00 20.00    -0.164 F 
HETATM    9  F8  UNL     1     -34.977   5.828   6.076  1.00 20.00    -0.164 F 
ENDBRANCH   1   6
TORSDOF 1
ENDMDL
MODEL 3
REMARK VINA RESULT:      -4.3      2.857      3.662
REMARK  1 active torsions:
REMARK  status: ('A' for Active; 'I' for Inactive)
REMARK    1  A    between atoms: C1_1  and  C4_4 
ROOT
HETATM    1  C1  UNL     1     -33.825   5.988   3.882  1.00 20.00     0.172 C 
HETATM    2  C2  UNL     1     -32.473   7.070   2.435  1.00 20.00     0.160 C 
HETATM    3  C3  UNL     1     -31.912   7.587   3.751  1.00 20.00     0.103 C 
HETATM    4  N5  UNL     1     -33.354   5.911   2.682  1.00 20.00    -0.278 NA
HETATM    5  S9  UNL     1     -33.263   7.285   4.903  1.00 20.00    -0.104 SA
ENDROOT
BRANCH   1   6
HETATM    6  C4  UNL     1     -34.791   5.007   4.453  1.00 20.00     0.440 C 
HETATM    7  F6  UNL     1     -36.059   5.296   4.083  1.00 20.00    -0.164 F 
HETATM    8  F7  UNL     1     -34.521   3.750   4.036  1.00 20.00    -0.164 F 
HETATM    9  F8  UNL     1     -34.752   5.005   5.804  1.00 20.00    -0.164 F 
ENDBRANCH   1   6
TORSDOF 1
ENDMDL
MODEL 4
REMARK VINA RESULT:      -4.0      1.555      1.747
REMARK  1 active torsions:
REMARK  status: ('A' for Active; 'I' for Inactive)
REMARK    1  A    between atoms: C1_1  and  C4_4 
ROOT
HETATM    1  C1  UNL     1     -33.325   6.223   3.413  1.00 20.00     0.172 C 
HETATM    2  C2  UNL     1     -34.435   4.343   3.985  1.00 20.00     0.160 C 
HETATM    3  C3  UNL     1     -35.061   5.323   4.965  1.00 20.00     0.103 C 
HETATM    4  N5  UNL     1     -33.692   5.078   2.941  1.00 20.00    -0.278 NA
HETATM    5  S9  UNL     1     -33.852   6.658   5.017  1.00 20.00    -0.104 SA
ENDROOT
BRANCH   1   6
HETATM    6  C4  UNL     1     -32.510   7.208   2.646  1.00 20.00     0.440 C 
HETATM    7  F6  UNL     1     -31.521   7.725   3.409  1.00 20.00    -0.164 F 
HETATM    8  F7  UNL     1     -31.934   6.635   1.566  1.00 20.00    -0.164 F 
HETATM    9  F8  UNL     1     -33.266   8.238   2.206  1.00 20.00    -0.164 F 
ENDBRANCH   1   6
TORSDOF 1
ENDMDL
MODEL 5
REMARK VINA RESULT:      -3.9     11.492     12.264
REMARK  1 active torsions:
REMARK  status: ('A' for Active; 'I' for Inactive)
REMARK    1  A    between atoms: C1_1  and  C4_4 
ROOT
HETATM    1  C1  UNL     1     -36.604  14.688  -4.101  1.00 20.00     0.172 C 
HETATM    2  C2  UNL     1     -38.855  14.744  -4.264  1.00 20.00     0.160 C 
HETATM    3  C3  UNL     1     -38.539  16.209  -4.526  1.00 20.00     0.103 C 
HETATM    4  N5  UNL     1     -37.622  13.936  -4.361  1.00 20.00    -0.278 NA
HETATM    5  S9  UNL     1     -36.887  16.388  -3.831  1.00 20.00    -0.104 SA
ENDROOT
BRANCH   1   6
HETATM    6  C4  UNL     1     -35.201  14.190  -4.060  1.00 20.00     0.440 C 
HETATM    7  F6  UNL     1     -35.161  12.853  -3.866  1.00 20.00    -0.164 F 
HETATM    8  F7  UNL     1     -34.550  14.454  -5.215  1.00 20.00    -0.164 F 
HETATM    9  F8  UNL     1     -34.501  14.767  -3.057  1.00 20.00    -0.164 F 
ENDBRANCH   1   6
TORSDOF 1
ENDMDL
MODEL 6
REMARK VINA RESULT:      -3.9     16.544     17.134
REMARK  1 active torsions:
REMARK  status: ('A' for Active; 'I' for Inactive)
REMARK    1  A    between atoms: C1_1  and  C4_4 
ROOT
HETATM    1  C1  UNL     1     -23.007  17.914  10.274  1.00 20.00     0.172 C 
HETATM    2  C2  UNL     1     -23.653  18.411   8.170  1.00 20.00     0.160 C 
HETATM    3  C3  UNL     1     -22.359  17.668   7.876  1.00 20.00     0.103 C 
HETATM    4  N5  UNL     1     -24.057  18.187   9.573  1.00 20.00    -0.278 NA
HETATM    5  S9  UNL     1     -21.480  17.767   9.445  1.00 20.00    -0.104 SA
ENDROOT
BRANCH   1   6
HETATM    6  C4  UNL     1     -23.037  17.679  11.746  1.00 20.00     0.440 C 
HETATM    7  F6  UNL     1     -24.043  18.368  12.331  1.00 20.00    -0.164 F 
HETATM    8  F7  UNL     1     -23.219  16.371  12.032  1.00 20.00    -0.164 F 
HETATM    9  F8  UNL     1     -21.883  18.068  12.332  1.00 20.00    -0.164 F 
ENDBRANCH   1   6
TORSDOF 1
ENDMDL
MODEL 7
REMARK VINA RESULT:      -3.8      3.145      3.934
REMARK  1 active torsions:
REMARK  status: ('A' for Active; 'I' for Inactive)
REMARK    1  A    between atoms: C1_1  and  C4_4 
ROOT
HETATM    1  C1  UNL     1     -34.063   5.611   4.525  1.00 20.00     0.172 C 
HETATM    2  C2  UNL     1     -33.621   5.058   2.382  1.00 20.00     0.160 C 
HETATM    3  C3  UNL     1     -32.684   6.245   2.543  1.00 20.00     0.103 C 
HETATM    4  N5  UNL     1     -34.105   4.613   3.706  1.00 20.00    -0.278 NA
HETATM    5  S9  UNL     1     -33.384   7.113   3.957  1.00 20.00    -0.104 SA
ENDROOT
BRANCH   1   6
HETATM    6  C4  UNL     1     -34.526   5.535   5.940  1.00 20.00     0.440 C 
HETATM    7  F6  UNL     1     -34.583   6.762   6.503  1.00 20.00    -0.164 F 
HETATM    8  F7  UNL     1     -35.759   4.989   6.025  1.00 20.00    -0.164 F 
HETATM    9  F8  UNL     1     -33.694   4.780   6.692  1.00 20.00    -0.164 F 
ENDBRANCH   1   6
TORSDOF 1
ENDMDL
MODEL 8
REMARK VINA RESULT:      -3.8     16.067     16.350
REMARK  1 active torsions:
REMARK  status: ('A' for Active; 'I' for Inactive)
REMARK    1  A    between atoms: C1_1  and  C4_4 
ROOT
HETATM    1  C1  UNL     1     -24.573  17.828  11.098  1.00 20.00     0.172 C 
HETATM    2  C2  UNL     1     -26.094  19.263  10.247  1.00 20.00     0.160 C 
HETATM    3  C3  UNL     1     -26.524  19.263  11.706  1.00 20.00     0.103 C 
HETATM    4  N5  UNL     1     -24.759  18.645  10.114  1.00 20.00    -0.278 NA
HETATM    5  S9  UNL     1     -25.801  17.736  12.332  1.00 20.00    -0.104 SA
ENDROOT
BRANCH   1   6
HETATM    6  C4  UNL     1     -23.349  16.992  11.254  1.00 20.00     0.440 C 
HETATM    7  F6  UNL     1     -22.368  17.673  11.887  1.00 20.00    -0.164 F 
HETATM    8  F7  UNL     1     -23.603  15.878  11.977  1.00 20.00    -0.164 F 
HETATM    9  F8  UNL     1     -22.864  16.598  10.056  1.00 20.00    -0.164 F 
ENDBRANCH   1   6
TORSDOF 1
ENDMDL
MODEL 9
REMARK VINA RESULT:      -3.7     12.038     13.190
REMARK  1 active torsions:
REMARK  status: ('A' for Active; 'I' for Inactive)
REMARK    1  A    between atoms: C1_1  and  C4_4 
ROOT
HETATM    1  C1  UNL     1     -34.103  15.185  -5.388  1.00 20.00     0.172 C 
HETATM    2  C2  UNL     1     -34.388  15.658  -7.577  1.00 20.00     0.160 C 
HETATM    3  C3  UNL     1     -34.543  17.052  -6.987  1.00 20.00     0.103 C 
HETATM    4  N5  UNL     1     -33.815  14.744  -6.568  1.00 20.00    -0.278 NA
HETATM    5  S9  UNL     1     -34.938  16.711  -5.263  1.00 20.00    -0.104 SA
ENDROOT
BRANCH   1   6
HETATM    6  C4  UNL     1     -33.723  14.482  -4.130  1.00 20.00     0.440 C 
HETATM    7  F6  UNL     1     -33.628  15.346  -3.095  1.00 20.00    -0.164 F 
HETATM    8  F7  UNL     1     -34.638  13.545  -3.795  1.00 20.00    -0.164 F 
HETATM    9  F8  UNL     1     -32.529  13.861  -4.253  1.00 20.00    -0.164 F 
ENDBRANCH   1   6
TORSDOF 1
ENDMDL
