MODEL 1
REMARK VINA RESULT:      -5.3      0.000      0.000
REMARK  2 active torsions:
REMARK  status: ('A' for Active; 'I' for Inactive)
REMARK    1  A    between atoms: C2_2  and  C3_3 
REMARK    2  A    between atoms: C2_2  and  C4_4 
ROOT
HETATM    1  C2  UNL     1     -33.803   6.219   4.198  1.00 20.00     0.154 C 
ENDROOT
BRANCH   1   2
HETATM    2  C3  UNL     1     -33.383   6.075   2.738  1.00 20.00     0.174 C 
HETATM    3  C1  UNL     1     -32.514   7.232   2.281  1.00 20.00     0.045 C 
HETATM    4  F5  UNL     1     -32.658   4.929   2.602  1.00 20.00    -0.250 F 
ENDBRANCH   1   2
BRANCH   1   5
HETATM    5  C4  UNL     1     -34.873   5.219   4.582  1.00 20.00     0.390 C 
HETATM    6  F6  UNL     1     -36.054   5.549   4.014  1.00 20.00    -0.171 F 
HETATM    7  F7  UNL     1     -35.058   5.181   5.919  1.00 20.00    -0.171 F 
HETATM    8  F8  UNL     1     -34.553   3.974   4.168  1.00 20.00    -0.171 F 
ENDBRANCH   1   5
TORSDOF 2
ENDMDL
MODEL 2
REMARK VINA RESULT:      -5.3      0.052      1.320
REMARK  2 active torsions:
REMARK  status: ('A' for Active; 'I' for Inactive)
REMARK    1  A    between atoms: C2_2  and  C3_3 
REMARK    2  A    between atoms: C2_2  and  C4_4 
ROOT
HETATM    1  C2  UNL     1     -33.812   6.252   4.202  1.00 20.00     0.154 C 
ENDROOT
BRANCH   1   2
HETATM    2  C3  UNL     1     -33.386   6.089   2.746  1.00 20.00     0.174 C 
HETATM    3  C1  UNL     1     -32.509   7.237   2.280  1.00 20.00     0.045 C 
HETATM    4  F5  UNL     1     -32.666   4.938   2.627  1.00 20.00    -0.250 F 
ENDBRANCH   1   2
BRANCH   1   5
HETATM    5  C4  UNL     1     -34.886   5.259   4.594  1.00 20.00     0.390 C 
HETATM    6  F6  UNL     1     -35.082   5.279   5.931  1.00 20.00    -0.171 F 
HETATM    7  F7  UNL     1     -34.546   4.000   4.248  1.00 20.00    -0.171 F 
HETATM    8  F8  UNL     1     -36.064   5.552   4.004  1.00 20.00    -0.171 F 
ENDBRANCH   1   5
TORSDOF 2
ENDMDL
MODEL 3
REMARK VINA RESULT:      -5.1      1.441      3.569
REMARK  2 active torsions:
REMARK  status: ('A' for Active; 'I' for Inactive)
REMARK    1  A    between atoms: C2_2  and  C3_3 
REMARK    2  A    between atoms: C2_2  and  C4_4 
ROOT
HETATM    1  C2  UNL     1     -33.857   6.804   4.154  1.00 20.00     0.154 C 
ENDROOT
BRANCH   1   2
HETATM    2  C3  UNL     1     -34.582   5.493   4.441  1.00 20.00     0.174 C 
HETATM    3  C1  UNL     1     -34.689   5.218   5.930  1.00 20.00     0.045 C 
HETATM    4  F5  UNL     1     -35.846   5.573   3.938  1.00 20.00    -0.250 F 
ENDBRANCH   1   2
BRANCH   1   5
HETATM    5  C4  UNL     1     -32.872   6.670   3.012  1.00 20.00     0.390 C 
HETATM    6  F6  UNL     1     -31.655   7.125   3.383  1.00 20.00    -0.171 F 
HETATM    7  F7  UNL     1     -33.264   7.382   1.934  1.00 20.00    -0.171 F 
HETATM    8  F8  UNL     1     -32.731   5.382   2.633  1.00 20.00    -0.171 F 
ENDBRANCH   1   5
TORSDOF 2
ENDMDL
MODEL 4
REMARK VINA RESULT:      -5.1      1.443      3.514
REMARK  2 active torsions:
REMARK  status: ('A' for Active; 'I' for Inactive)
REMARK    1  A    between atoms: C2_2  and  C3_3 
REMARK    2  A    between atoms: C2_2  and  C4_4 
ROOT
HETATM    1  C2  UNL     1     -33.853   6.804   4.154  1.00 20.00     0.154 C 
ENDROOT
BRANCH   1   2
HETATM    2  C3  UNL     1     -34.580   5.492   4.436  1.00 20.00     0.174 C 
HETATM    3  C1  UNL     1     -34.687   5.211   5.923  1.00 20.00     0.045 C 
HETATM    4  F5  UNL     1     -35.844   5.576   3.933  1.00 20.00    -0.250 F 
ENDBRANCH   1   2
BRANCH   1   5
HETATM    5  C4  UNL     1     -32.861   6.671   3.018  1.00 20.00     0.390 C 
HETATM    6  F6  UNL     1     -33.271   7.388   1.948  1.00 20.00    -0.171 F 
HETATM    7  F7  UNL     1     -32.729   5.387   2.623  1.00 20.00    -0.171 F 
HETATM    8  F8  UNL     1     -31.641   7.127   3.373  1.00 20.00    -0.171 F 
ENDBRANCH   1   5
TORSDOF 2
ENDMDL
MODEL 5
REMARK VINA RESULT:      -5.1      1.442      3.554
REMARK  2 active torsions:
REMARK  status: ('A' for Active; 'I' for Inactive)
REMARK    1  A    between atoms: C2_2  and  C3_3 
REMARK    2  A    between atoms: C2_2  and  C4_4 
ROOT
HETATM    1  C2  UNL     1     -33.858   6.807   4.152  1.00 20.00     0.154 C 
ENDROOT
BRANCH   1   2
HETATM    2  C3  UNL     1     -34.575   5.490   4.435  1.00 20.00     0.174 C 
HETATM    3  C1  UNL     1     -34.684   5.213   5.923  1.00 20.00     0.045 C 
HETATM    4  F5  UNL     1     -35.838   5.562   3.929  1.00 20.00    -0.250 F 
ENDBRANCH   1   2
BRANCH   1   5
HETATM    5  C4  UNL     1     -32.864   6.680   3.016  1.00 20.00     0.390 C 
HETATM    6  F6  UNL     1     -32.736   5.387   2.644  1.00 20.00    -0.171 F 
HETATM    7  F7  UNL     1     -31.642   7.126   3.376  1.00 20.00    -0.171 F 
HETATM    8  F8  UNL     1     -33.263   7.380   1.933  1.00 20.00    -0.171 F 
ENDBRANCH   1   5
TORSDOF 2
ENDMDL
MODEL 6
REMARK VINA RESULT:      -4.8      1.561      2.156
REMARK  2 active torsions:
REMARK  status: ('A' for Active; 'I' for Inactive)
REMARK    1  A    between atoms: C2_2  and  C3_3 
REMARK    2  A    between atoms: C2_2  and  C4_4 
ROOT
HETATM    1  C2  UNL     1     -34.068   6.189   4.492  1.00 20.00     0.154 C 
ENDROOT
BRANCH   1   2
HETATM    2  C3  UNL     1     -34.303   5.013   3.549  1.00 20.00     0.174 C 
HETATM    3  C1  UNL     1     -33.284   4.976   2.424  1.00 20.00     0.045 C 
HETATM    4  F5  UNL     1     -34.185   3.854   4.258  1.00 20.00    -0.250 F 
ENDBRANCH   1   2
BRANCH   1   5
HETATM    5  C4  UNL     1     -34.440   5.854   5.921  1.00 20.00     0.390 C 
HETATM    6  F6  UNL     1     -34.543   6.982   6.659  1.00 20.00    -0.171 F 
HETATM    7  F7  UNL     1     -33.510   5.068   6.504  1.00 20.00    -0.171 F 
HETATM    8  F8  UNL     1     -35.627   5.214   5.983  1.00 20.00    -0.171 F 
ENDBRANCH   1   5
TORSDOF 2
ENDMDL
MODEL 7
REMARK VINA RESULT:      -4.7      1.775      2.258
REMARK  2 active torsions:
REMARK  status: ('A' for Active; 'I' for Inactive)
REMARK    1  A    between atoms: C2_2  and  C3_3 
REMARK    2  A    between atoms: C2_2  and  C4_4 
ROOT
HETATM    1  C2  UNL     1     -34.740   5.743   4.416  1.00 20.00     0.154 C 
ENDROOT
BRANCH   1   2
HETATM    2  C3  UNL     1     -33.457   5.905   3.606  1.00 20.00     0.174 C 
HETATM    3  C1  UNL     1     -33.366   4.891   2.480  1.00 20.00     0.045 C 
HETATM    4  F5  UNL     1     -33.446   7.149   3.049  1.00 20.00    -0.250 F 
ENDBRANCH   1   2
BRANCH   1   5
HETATM    5  C4  UNL     1     -34.467   5.684   5.905  1.00 20.00     0.390 C 
HETATM    6  F6  UNL     1     -33.626   6.678   6.270  1.00 20.00    -0.171 F 
HETATM    7  F7  UNL     1     -33.895   4.514   6.258  1.00 20.00    -0.171 F 
HETATM    8  F8  UNL     1     -35.603   5.827   6.619  1.00 20.00    -0.171 F 
ENDBRANCH   1   5
TORSDOF 2
ENDMDL
MODEL 8
REMARK VINA RESULT:      -4.5      3.395      4.931
REMARK  2 active torsions:
REMARK  status: ('A' for Active; 'I' for Inactive)
REMARK    1  A    between atoms: C2_2  and  C3_3 
REMARK    2  A    between atoms: C2_2  and  C4_4 
ROOT
HETATM    1  C2  UNL     1     -32.187   7.766   1.152  1.00 20.00     0.154 C 
ENDROOT
BRANCH   1   2
HETATM    2  C3  UNL     1     -32.679   7.312   2.523  1.00 20.00     0.174 C 
HETATM    3  C1  UNL     1     -33.038   5.837   2.536  1.00 20.00     0.045 C 
HETATM    4  F5  UNL     1     -31.684   7.508   3.433  1.00 20.00    -0.250 F 
ENDBRANCH   1   2
BRANCH   1   5
HETATM    5  C4  UNL     1     -33.048   8.871   0.577  1.00 20.00     0.390 C 
HETATM    6  F6  UNL     1     -33.967   9.273   1.483  1.00 20.00    -0.171 F 
HETATM    7  F7  UNL     1     -33.711   8.459  -0.524  1.00 20.00    -0.171 F 
HETATM    8  F8  UNL     1     -32.306   9.947   0.240  1.00 20.00    -0.171 F 
ENDBRANCH   1   5
TORSDOF 2
ENDMDL
MODEL 9
REMARK VINA RESULT:      -4.4      2.003      3.831
REMARK  2 active torsions:
REMARK  status: ('A' for Active; 'I' for Inactive)
REMARK    1  A    between atoms: C2_2  and  C3_3 
REMARK    2  A    between atoms: C2_2  and  C4_4 
ROOT
HETATM    1  C2  UNL     1     -33.195   5.896   3.020  1.00 20.00     0.154 C 
ENDROOT
BRANCH   1   2
HETATM    2  C3  UNL     1     -34.249   6.150   4.093  1.00 20.00     0.174 C 
HETATM    3  C1  UNL     1     -34.855   4.858   4.609  1.00 20.00     0.045 C 
HETATM    4  F5  UNL     1     -33.659   6.785   5.144  1.00 20.00    -0.250 F 
ENDBRANCH   1   2
BRANCH   1   5
HETATM    5  C4  UNL     1     -32.526   7.177   2.567  1.00 20.00     0.390 C 
HETATM    6  F6  UNL     1     -31.917   6.995   1.374  1.00 20.00    -0.171 F 
HETATM    7  F7  UNL     1     -31.588   7.584   3.448  1.00 20.00    -0.171 F 
HETATM    8  F8  UNL     1     -33.423   8.175   2.420  1.00 20.00    -0.171 F 
ENDBRANCH   1   5
TORSDOF 2
ENDMDL
