MODEL 1
REMARK VINA RESULT:      -4.2      0.000      0.000
REMARK  1 active torsions:
REMARK  status: ('A' for Active; 'I' for Inactive)
REMARK    1  A    between atoms: C4_4  and  C6_6 
ROOT
HETATM    1  C1  UNL     1     -24.308  19.002   7.611  1.00 20.00     0.135 A 
HETATM    2  C2  UNL     1     -25.070  19.110   8.753  1.00 20.00     0.136 A 
HETATM    3  C3  UNL     1     -22.846  17.633   8.713  1.00 20.00     0.144 A 
HETATM    4  C4  UNL     1     -23.606  17.742   9.857  1.00 20.00     0.065 A 
HETATM    5  N7  UNL     1     -23.183  18.262   7.570  1.00 20.00    -0.270 NA
HETATM    6  N8  UNL     1     -24.733  18.482   9.897  1.00 20.00    -0.261 NA
ENDROOT
BRANCH   4   7
HETATM    7  C6  UNL     1     -23.203  17.034  11.103  1.00 20.00     0.107 C 
HETATM    8  C5  UNL     1     -22.774  17.955  12.216  1.00 20.00     0.029 C 
HETATM    9 BR9  UNL     1     -24.672  15.890  11.726  1.00 20.00    -0.085 Br
ENDBRANCH   4   7
TORSDOF 1
ENDMDL
MODEL 2
REMARK VINA RESULT:      -3.9      2.512      3.632
REMARK  1 active torsions:
REMARK  status: ('A' for Active; 'I' for Inactive)
REMARK    1  A    between atoms: C4_4  and  C6_6 
ROOT
HETATM    1  C1  UNL     1     -25.494  16.610  12.166  1.00 20.00     0.135 A 
HETATM    2  C2  UNL     1     -25.774  17.927  11.873  1.00 20.00     0.136 A 
HETATM    3  C3  UNL     1     -24.032  16.529  10.410  1.00 20.00     0.144 A 
HETATM    4  C4  UNL     1     -24.312  17.846  10.116  1.00 20.00     0.065 A 
HETATM    5  N7  UNL     1     -24.618  15.888  11.439  1.00 20.00    -0.270 NA
HETATM    6  N8  UNL     1     -25.189  18.568  10.842  1.00 20.00    -0.261 NA
ENDROOT
BRANCH   4   7
HETATM    7  C6  UNL     1     -23.647  18.523   8.969  1.00 20.00     0.107 C 
HETATM    8  C5  UNL     1     -22.594  17.683   8.293  1.00 20.00     0.029 C 
HETATM    9 BR9  UNL     1     -24.990  19.080   7.650  1.00 20.00    -0.085 Br
ENDBRANCH   4   7
TORSDOF 1
ENDMDL
MODEL 3
REMARK VINA RESULT:      -3.9     17.386     18.628
REMARK  1 active torsions:
REMARK  status: ('A' for Active; 'I' for Inactive)
REMARK    1  A    between atoms: C4_4  and  C6_6 
ROOT
HETATM    1  C1  UNL     1     -38.317  15.098  -4.356  1.00 20.00     0.135 A 
HETATM    2  C2  UNL     1     -37.654  16.202  -3.868  1.00 20.00     0.136 A 
HETATM    3  C3  UNL     1     -36.373  13.897  -4.286  1.00 20.00     0.144 A 
HETATM    4  C4  UNL     1     -35.708  15.001  -3.799  1.00 20.00     0.065 A 
HETATM    5  N7  UNL     1     -37.689  13.926  -4.574  1.00 20.00    -0.270 NA
HETATM    6  N8  UNL     1     -36.338  16.174  -3.581  1.00 20.00    -0.261 NA
ENDROOT
BRANCH   4   7
HETATM    7  C6  UNL     1     -34.253  14.935  -3.492  1.00 20.00     0.107 C 
HETATM    8  C5  UNL     1     -33.391  14.634  -4.691  1.00 20.00     0.029 C 
HETATM    9 BR9  UNL     1     -33.666  16.616  -2.665  1.00 20.00    -0.085 Br
ENDBRANCH   4   7
TORSDOF 1
ENDMDL
MODEL 4
REMARK VINA RESULT:      -3.8     17.702     18.897
REMARK  1 active torsions:
REMARK  status: ('A' for Active; 'I' for Inactive)
REMARK    1  A    between atoms: C4_4  and  C6_6 
ROOT
HETATM    1  C1  UNL     1     -38.869  14.913  -4.281  1.00 20.00     0.135 A 
HETATM    2  C2  UNL     1     -38.535  16.211  -3.961  1.00 20.00     0.136 A 
HETATM    3  C3  UNL     1     -36.666  14.314  -4.158  1.00 20.00     0.144 A 
HETATM    4  C4  UNL     1     -36.330  15.612  -3.840  1.00 20.00     0.065 A 
HETATM    5  N7  UNL     1     -37.941  13.942  -4.385  1.00 20.00    -0.270 NA
HETATM    6  N8  UNL     1     -37.259  16.584  -3.736  1.00 20.00    -0.261 NA
ENDROOT
BRANCH   4   7
HETATM    7  C6  UNL     1     -34.911  15.988  -3.597  1.00 20.00     0.107 C 
HETATM    8  C5  UNL     1     -34.576  16.199  -2.143  1.00 20.00     0.029 C 
HETATM    9 BR9  UNL     1     -33.719  14.624  -4.354  1.00 20.00    -0.085 Br
ENDBRANCH   4   7
TORSDOF 1
ENDMDL
MODEL 5
REMARK VINA RESULT:      -3.7     16.524     17.766
REMARK  1 active torsions:
REMARK  status: ('A' for Active; 'I' for Inactive)
REMARK    1  A    between atoms: C4_4  and  C6_6 
ROOT
HETATM    1  C1  UNL     1     -36.710  13.897  -4.781  1.00 20.00     0.135 A 
HETATM    2  C2  UNL     1     -37.096  15.074  -4.179  1.00 20.00     0.136 A 
HETATM    3  C3  UNL     1     -34.625  14.112  -3.868  1.00 20.00     0.144 A 
HETATM    4  C4  UNL     1     -35.010  15.290  -3.266  1.00 20.00     0.065 A 
HETATM    5  N7  UNL     1     -35.468  13.395  -4.636  1.00 20.00    -0.270 NA
HETATM    6  N8  UNL     1     -36.253  15.792  -3.411  1.00 20.00    -0.261 NA
ENDROOT
BRANCH   4   7
HETATM    7  C6  UNL     1     -34.052  16.058  -2.424  1.00 20.00     0.107 C 
HETATM    8  C5  UNL     1     -33.149  16.974  -3.209  1.00 20.00     0.029 C 
HETATM    9 BR9  UNL     1     -35.031  17.096  -1.075  1.00 20.00    -0.085 Br
ENDBRANCH   4   7
TORSDOF 1
ENDMDL
MODEL 6
REMARK VINA RESULT:      -3.7      1.734      2.117
REMARK  1 active torsions:
REMARK  status: ('A' for Active; 'I' for Inactive)
REMARK    1  A    between atoms: C4_4  and  C6_6 
ROOT
HETATM    1  C1  UNL     1     -22.327  18.046   8.647  1.00 20.00     0.135 A 
HETATM    2  C2  UNL     1     -23.649  18.401   8.495  1.00 20.00     0.136 A 
HETATM    3  C3  UNL     1     -22.659  17.761  10.891  1.00 20.00     0.144 A 
HETATM    4  C4  UNL     1     -23.981  18.117  10.740  1.00 20.00     0.065 A 
HETATM    5  N7  UNL     1     -21.808  17.720   9.847  1.00 20.00    -0.270 NA
HETATM    6  N8  UNL     1     -24.500  18.443   9.539  1.00 20.00    -0.261 NA
ENDROOT
BRANCH   4   7
HETATM    7  C6  UNL     1     -24.893  18.152  11.916  1.00 20.00     0.107 C 
HETATM    8  C5  UNL     1     -26.077  19.069  11.743  1.00 20.00     0.029 C 
HETATM    9 BR9  UNL     1     -25.522  16.338  12.330  1.00 20.00    -0.085 Br
ENDBRANCH   4   7
TORSDOF 1
ENDMDL
MODEL 7
REMARK VINA RESULT:      -3.5     16.727     18.027
REMARK  1 active torsions:
REMARK  status: ('A' for Active; 'I' for Inactive)
REMARK    1  A    between atoms: C4_4  and  C6_6 
ROOT
HETATM    1  C1  UNL     1     -35.739  14.572  -6.261  1.00 20.00     0.135 A 
HETATM    2  C2  UNL     1     -35.146  15.813  -6.192  1.00 20.00     0.136 A 
HETATM    3  C3  UNL     1     -35.200  14.191  -4.072  1.00 20.00     0.144 A 
HETATM    4  C4  UNL     1     -34.605  15.432  -4.002  1.00 20.00     0.065 A 
HETATM    5  N7  UNL     1     -35.776  13.739  -5.203  1.00 20.00    -0.270 NA
HETATM    6  N8  UNL     1     -34.568  16.265  -5.062  1.00 20.00    -0.261 NA
ENDROOT
BRANCH   4   7
HETATM    7  C6  UNL     1     -33.976  15.899  -2.737  1.00 20.00     0.107 C 
HETATM    8  C5  UNL     1     -32.862  16.892  -2.941  1.00 20.00     0.029 C 
HETATM    9 BR9  UNL     1     -35.341  16.676  -1.559  1.00 20.00    -0.085 Br
ENDBRANCH   4   7
TORSDOF 1
ENDMDL
MODEL 8
REMARK VINA RESULT:      -3.5     16.019     17.351
REMARK  1 active torsions:
REMARK  status: ('A' for Active; 'I' for Inactive)
REMARK    1  A    between atoms: C4_4  and  C6_6 
ROOT
HETATM    1  C1  UNL     1     -34.277  15.303  -6.422  1.00 20.00     0.135 A 
HETATM    2  C2  UNL     1     -34.598  16.574  -6.000  1.00 20.00     0.136 A 
HETATM    3  C3  UNL     1     -33.440  14.825  -4.349  1.00 20.00     0.144 A 
HETATM    4  C4  UNL     1     -33.760  16.096  -3.926  1.00 20.00     0.065 A 
HETATM    5  N7  UNL     1     -33.692  14.406  -5.604  1.00 20.00    -0.270 NA
HETATM    6  N8  UNL     1     -34.345  16.994  -4.745  1.00 20.00    -0.261 NA
ENDROOT
BRANCH   4   7
HETATM    7  C6  UNL     1     -33.465  16.526  -2.532  1.00 20.00     0.107 C 
HETATM    8  C5  UNL     1     -32.715  17.830  -2.441  1.00 20.00     0.029 C 
HETATM    9 BR9  UNL     1     -35.135  16.656  -1.506  1.00 20.00    -0.085 Br
ENDBRANCH   4   7
TORSDOF 1
ENDMDL
MODEL 9
REMARK VINA RESULT:      -3.5     15.785     17.126
REMARK  1 active torsions:
REMARK  status: ('A' for Active; 'I' for Inactive)
REMARK    1  A    between atoms: C4_4  and  C6_6 
ROOT
HETATM    1  C1  UNL     1     -33.894  17.379  -1.477  1.00 20.00     0.135 A 
HETATM    2  C2  UNL     1     -35.065  16.655  -1.498  1.00 20.00     0.136 A 
HETATM    3  C3  UNL     1     -33.127  16.192  -3.275  1.00 20.00     0.144 A 
HETATM    4  C4  UNL     1     -34.298  15.467  -3.295  1.00 20.00     0.065 A 
HETATM    5  N7  UNL     1     -32.904  17.161  -2.365  1.00 20.00    -0.270 NA
HETATM    6  N8  UNL     1     -35.289  15.685  -2.407  1.00 20.00    -0.261 NA
ENDROOT
BRANCH   4   7
HETATM    7  C6  UNL     1     -34.511  14.403  -4.314  1.00 20.00     0.107 C 
HETATM    8  C5  UNL     1     -35.888  13.793  -4.281  1.00 20.00     0.029 C 
HETATM    9 BR9  UNL     1     -34.151  15.114  -6.109  1.00 20.00    -0.085 Br
ENDBRANCH   4   7
TORSDOF 1
ENDMDL
