MODEL 1
REMARK VINA RESULT:      -5.0      0.000      0.000
REMARK  2 active torsions:
REMARK  status: ('A' for Active; 'I' for Inactive)
REMARK    1  A    between atoms: C3_3  and  C6_6 
REMARK    2  A    between atoms: C4_4  and  C7_7 
ROOT
HETATM    1  C1  UNL     1     -33.769  17.062  -2.215  1.00 20.00    -0.176 C 
HETATM    2  C2  UNL     1     -32.622  17.555  -1.853  1.00 20.00     0.091 C 
HETATM    3  C3  UNL     1     -34.916  16.573  -2.577  1.00 20.00     0.072 C 
ENDROOT
BRANCH   3   4
HETATM    4  C6  UNL     1     -35.011  15.180  -2.987  1.00 20.00     0.017 A 
HETATM    5  C5  UNL     1     -34.126  14.687  -4.096  1.00 20.00     0.022 A 
HETATM    6  C7  UNL     1     -35.604  14.855  -4.340  1.00 20.00     0.092 A 
BRANCH   6   7
HETATM    7  C4  UNL     1     -36.407  13.653  -4.444  1.00 20.00     0.177 C 
HETATM    8  O8  UNL     1     -35.756  12.573  -4.498  1.00 20.00    -0.648 OA
HETATM    9  O9  UNL     1     -37.655  13.850  -4.467  1.00 20.00    -0.648 OA
ENDBRANCH   6   7
ENDBRANCH   3   4
TORSDOF 2
ENDMDL
MODEL 2
REMARK VINA RESULT:      -5.0      0.909      1.552
REMARK  2 active torsions:
REMARK  status: ('A' for Active; 'I' for Inactive)
REMARK    1  A    between atoms: C3_3  and  C6_6 
REMARK    2  A    between atoms: C4_4  and  C7_7 
ROOT
HETATM    1  C1  UNL     1     -34.893  16.831  -1.482  1.00 20.00    -0.176 C 
HETATM    2  C2  UNL     1     -35.172  17.221  -0.275  1.00 20.00     0.091 C 
HETATM    3  C3  UNL     1     -34.612  16.442  -2.690  1.00 20.00     0.072 C 
ENDROOT
BRANCH   3   4
HETATM    4  C6  UNL     1     -34.836  15.057  -3.074  1.00 20.00     0.017 A 
HETATM    5  C5  UNL     1     -34.023  14.472  -4.193  1.00 20.00     0.022 A 
HETATM    6  C7  UNL     1     -35.486  14.764  -4.407  1.00 20.00     0.092 A 
BRANCH   6   7
HETATM    7  C4  UNL     1     -36.392  13.635  -4.474  1.00 20.00     0.177 C 
HETATM    8  O8  UNL     1     -37.620  13.929  -4.468  1.00 20.00    -0.648 OA
HETATM    9  O9  UNL     1     -35.829  12.506  -4.531  1.00 20.00    -0.648 OA
ENDBRANCH   6   7
ENDBRANCH   3   4
TORSDOF 2
ENDMDL
MODEL 3
REMARK VINA RESULT:      -5.0      0.116      1.084
REMARK  2 active torsions:
REMARK  status: ('A' for Active; 'I' for Inactive)
REMARK    1  A    between atoms: C3_3  and  C6_6 
REMARK    2  A    between atoms: C4_4  and  C7_7 
ROOT
HETATM    1  C1  UNL     1     -33.762  17.095  -2.349  1.00 20.00    -0.176 C 
HETATM    2  C2  UNL     1     -32.617  17.588  -1.985  1.00 20.00     0.091 C 
HETATM    3  C3  UNL     1     -34.909  16.605  -2.714  1.00 20.00     0.072 C 
ENDROOT
BRANCH   3   4
HETATM    4  C6  UNL     1     -35.026  15.186  -3.013  1.00 20.00     0.017 A 
HETATM    5  C5  UNL     1     -34.079  14.570  -4.003  1.00 20.00     0.022 A 
HETATM    6  C7  UNL     1     -35.526  14.765  -4.376  1.00 20.00     0.092 A 
BRANCH   6   7
HETATM    7  C4  UNL     1     -36.366  13.585  -4.444  1.00 20.00     0.177 C 
HETATM    8  O8  UNL     1     -37.607  13.809  -4.503  1.00 20.00    -0.648 OA
HETATM    9  O9  UNL     1     -35.740  12.488  -4.435  1.00 20.00    -0.648 OA
ENDBRANCH   6   7
ENDBRANCH   3   4
TORSDOF 2
ENDMDL
MODEL 4
REMARK VINA RESULT:      -4.6     10.900     11.481
REMARK  2 active torsions:
REMARK  status: ('A' for Active; 'I' for Inactive)
REMARK    1  A    between atoms: C3_3  and  C6_6 
REMARK    2  A    between atoms: C4_4  and  C7_7 
ROOT
HETATM    1  C1  UNL     1     -32.530   7.933   1.565  1.00 20.00    -0.176 C 
HETATM    2  C2  UNL     1     -32.857   8.344   0.377  1.00 20.00     0.091 C 
HETATM    3  C3  UNL     1     -32.203   7.526   2.755  1.00 20.00     0.072 C 
ENDROOT
BRANCH   3   4
HETATM    4  C6  UNL     1     -32.750   6.279   3.268  1.00 20.00     0.017 A 
HETATM    5  C5  UNL     1     -33.703   5.496   2.410  1.00 20.00     0.022 A 
HETATM    6  C7  UNL     1     -34.217   6.219   3.629  1.00 20.00     0.092 A 
BRANCH   6   7
HETATM    7  C4  UNL     1     -34.590   5.417   4.777  1.00 20.00     0.177 C 
HETATM    8  O8  UNL     1     -34.548   6.015   5.888  1.00 20.00    -0.648 OA
HETATM    9  O9  UNL     1     -34.907   4.224   4.509  1.00 20.00    -0.648 OA
ENDBRANCH   6   7
ENDBRANCH   3   4
TORSDOF 2
ENDMDL
MODEL 5
REMARK VINA RESULT:      -4.3      1.847      2.287
REMARK  2 active torsions:
REMARK  status: ('A' for Active; 'I' for Inactive)
REMARK    1  A    between atoms: C3_3  and  C6_6 
REMARK    2  A    between atoms: C4_4  and  C7_7 
ROOT
HETATM    1  C1  UNL     1     -35.392  17.062  -0.513  1.00 20.00    -0.176 C 
HETATM    2  C2  UNL     1     -35.384  17.348   0.754  1.00 20.00     0.091 C 
HETATM    3  C3  UNL     1     -35.401  16.778  -1.781  1.00 20.00     0.072 C 
ENDROOT
BRANCH   3   4
HETATM    4  C6  UNL     1     -34.488  15.773  -2.303  1.00 20.00     0.017 A 
HETATM    5  C5  UNL     1     -33.333  16.213  -3.157  1.00 20.00     0.022 A 
HETATM    6  C7  UNL     1     -34.491  15.484  -3.788  1.00 20.00     0.092 A 
BRANCH   6   7
HETATM    7  C4  UNL     1     -34.274  14.111  -4.200  1.00 20.00     0.177 C 
HETATM    8  O8  UNL     1     -33.083  13.821  -4.502  1.00 20.00    -0.648 OA
HETATM    9  O9  UNL     1     -35.310  13.388  -4.200  1.00 20.00    -0.648 OA
ENDBRANCH   6   7
ENDBRANCH   3   4
TORSDOF 2
ENDMDL
MODEL 6
REMARK VINA RESULT:      -4.3     10.458     11.162
REMARK  2 active torsions:
REMARK  status: ('A' for Active; 'I' for Inactive)
REMARK    1  A    between atoms: C3_3  and  C6_6 
REMARK    2  A    between atoms: C4_4  and  C7_7 
ROOT
HETATM    1  C1  UNL     1     -34.259   5.998   5.332  1.00 20.00    -0.176 C 
HETATM    2  C2  UNL     1     -34.895   5.066   5.975  1.00 20.00     0.091 C 
HETATM    3  C3  UNL     1     -33.621   6.932   4.692  1.00 20.00     0.072 C 
ENDROOT
BRANCH   3   4
HETATM    4  C6  UNL     1     -33.631   6.947   3.237  1.00 20.00     0.017 A 
HETATM    5  C5  UNL     1     -32.861   5.893   2.493  1.00 20.00     0.022 A 
HETATM    6  C7  UNL     1     -32.362   7.315   2.502  1.00 20.00     0.092 A 
BRANCH   6   7
HETATM    7  C4  UNL     1     -32.498   8.080   1.278  1.00 20.00     0.177 C 
HETATM    8  O8  UNL     1     -33.290   9.061   1.342  1.00 20.00    -0.648 OA
HETATM    9  O9  UNL     1     -31.803   7.661   0.311  1.00 20.00    -0.648 OA
ENDBRANCH   6   7
ENDBRANCH   3   4
TORSDOF 2
ENDMDL
MODEL 7
REMARK VINA RESULT:      -4.2     11.660     12.283
REMARK  2 active torsions:
REMARK  status: ('A' for Active; 'I' for Inactive)
REMARK    1  A    between atoms: C3_3  and  C6_6 
REMARK    2  A    between atoms: C4_4  and  C7_7 
ROOT
HETATM    1  C1  UNL     1     -32.803   6.833   1.862  1.00 20.00    -0.176 C 
HETATM    2  C2  UNL     1     -32.417   8.038   1.568  1.00 20.00     0.091 C 
HETATM    3  C3  UNL     1     -33.189   5.627   2.153  1.00 20.00     0.072 C 
ENDROOT
BRANCH   3   4
HETATM    4  C6  UNL     1     -33.351   5.236   3.545  1.00 20.00     0.017 A 
HETATM    5  C5  UNL     1     -34.363   4.182   3.892  1.00 20.00     0.022 A 
HETATM    6  C7  UNL     1     -34.623   5.618   4.268  1.00 20.00     0.092 A 
BRANCH   6   7
HETATM    7  C4  UNL     1     -34.512   5.974   5.669  1.00 20.00     0.177 C 
HETATM    8  O8  UNL     1     -33.981   7.096   5.899  1.00 20.00    -0.648 OA
HETATM    9  O9  UNL     1     -34.966   5.112   6.472  1.00 20.00    -0.648 OA
ENDBRANCH   6   7
ENDBRANCH   3   4
TORSDOF 2
ENDMDL
MODEL 8
REMARK VINA RESULT:      -4.0      4.303      5.793
REMARK  2 active torsions:
REMARK  status: ('A' for Active; 'I' for Inactive)
REMARK    1  A    between atoms: C3_3  and  C6_6 
REMARK    2  A    between atoms: C4_4  and  C7_7 
ROOT
HETATM    1  C1  UNL     1     -33.848  15.483  -3.505  1.00 20.00    -0.176 C 
HETATM    2  C2  UNL     1     -34.591  14.439  -3.716  1.00 20.00     0.091 C 
HETATM    3  C3  UNL     1     -33.105  16.528  -3.296  1.00 20.00     0.072 C 
ENDROOT
BRANCH   3   4
HETATM    4  C6  UNL     1     -33.109  17.168  -1.990  1.00 20.00     0.017 A 
HETATM    5  C5  UNL     1     -33.774  18.507  -1.837  1.00 20.00     0.022 A 
HETATM    6  C7  UNL     1     -32.271  18.410  -1.782  1.00 20.00     0.092 A 
BRANCH   6   7
HETATM    7  C4  UNL     1     -31.636  18.578  -0.490  1.00 20.00     0.177 C 
HETATM    8  O8  UNL     1     -30.409  18.286  -0.451  1.00 20.00    -0.648 OA
HETATM    9  O9  UNL     1     -32.400  18.997   0.425  1.00 20.00    -0.648 OA
ENDBRANCH   6   7
ENDBRANCH   3   4
TORSDOF 2
ENDMDL
MODEL 9
REMARK VINA RESULT:      -3.9     10.148     10.911
REMARK  2 active torsions:
REMARK  status: ('A' for Active; 'I' for Inactive)
REMARK    1  A    between atoms: C3_3  and  C6_6 
REMARK    2  A    between atoms: C4_4  and  C7_7 
ROOT
HETATM    1  C1  UNL     1     -34.273   5.315   3.934  1.00 20.00    -0.176 C 
HETATM    2  C2  UNL     1     -34.861   5.442   5.085  1.00 20.00     0.091 C 
HETATM    3  C3  UNL     1     -33.687   5.186   2.782  1.00 20.00     0.072 C 
ENDROOT
BRANCH   3   4
HETATM    4  C6  UNL     1     -32.708   6.173   2.354  1.00 20.00     0.017 A 
HETATM    5  C5  UNL     1     -32.313   7.266   3.307  1.00 20.00     0.022 A 
HETATM    6  C7  UNL     1     -33.163   7.594   2.107  1.00 20.00     0.092 A 
BRANCH   6   7
HETATM    7  C4  UNL     1     -32.535   8.316   1.018  1.00 20.00     0.177 C 
HETATM    8  O8  UNL     1     -31.676   7.663   0.364  1.00 20.00    -0.648 OA
HETATM    9  O9  UNL     1     -32.936   9.504   0.869  1.00 20.00    -0.648 OA
ENDBRANCH   6   7
ENDBRANCH   3   4
TORSDOF 2
ENDMDL
