MODEL 1
REMARK VINA RESULT:      -3.9      0.000      0.000
REMARK  0 active torsions:
REMARK  status: ('A' for Active; 'I' for Inactive)
ROOT
HETATM    1  C1  UNL     1     -24.343  18.539   8.858  1.00 20.00     0.025 A 
HETATM    2  C2  UNL     1     -24.376  18.364  10.188  1.00 20.00     0.091 A 
HETATM    3  C3  UNL     1     -23.067  18.140   8.207  1.00 20.00     0.227 A 
HETATM    4  C4  UNL     1     -25.418  19.080   7.971  1.00 20.00     0.055 C 
HETATM    5  O5  UNL     1     -22.853  18.240   7.008  1.00 20.00    -0.279 OA
HETATM    6  S6  UNL     1     -22.999  17.722  11.014  1.00 20.00    -0.036 SA
HETATM    7  S7  UNL     1     -21.884  17.502   9.326  1.00 20.00    -0.009 SA
HETATM    8 CL8  UNL     1     -25.753  18.758  11.153  1.00 20.00    -0.075 Cl
ENDROOT
TORSDOF 0
ENDMDL
MODEL 2
REMARK VINA RESULT:      -3.9      2.129      2.634
REMARK  0 active torsions:
REMARK  status: ('A' for Active; 'I' for Inactive)
ROOT
HETATM    1  C1  UNL     1     -22.700  17.966   9.361  1.00 20.00     0.025 A 
HETATM    2  C2  UNL     1     -23.344  18.026  10.537  1.00 20.00     0.091 A 
HETATM    3  C3  UNL     1     -23.504  18.397   8.186  1.00 20.00     0.227 A 
HETATM    4  C4  UNL     1     -21.296  17.525   9.098  1.00 20.00     0.055 C 
HETATM    5  O5  UNL     1     -23.086  18.396   7.038  1.00 20.00    -0.279 OA
HETATM    6  S6  UNL     1     -24.984  18.567  10.602  1.00 20.00    -0.036 SA
HETATM    7  S7  UNL     1     -25.123  18.912   8.602  1.00 20.00    -0.009 SA
HETATM    8 CL8  UNL     1     -22.608  17.576  12.033  1.00 20.00    -0.075 Cl
ENDROOT
TORSDOF 0
ENDMDL
MODEL 3
REMARK VINA RESULT:      -3.6      2.993      3.510
REMARK  0 active torsions:
REMARK  status: ('A' for Active; 'I' for Inactive)
ROOT
HETATM    1  C1  UNL     1     -23.124  18.190  10.156  1.00 20.00     0.025 A 
HETATM    2  C2  UNL     1     -24.287  18.595   9.622  1.00 20.00     0.091 A 
HETATM    3  C3  UNL     1     -23.165  17.930  11.620  1.00 20.00     0.227 A 
HETATM    4  C4  UNL     1     -21.816  17.974   9.465  1.00 20.00     0.055 C 
HETATM    5  O5  UNL     1     -22.200  17.568  12.275  1.00 20.00    -0.279 OA
HETATM    6  S6  UNL     1     -25.683  18.783  10.623  1.00 20.00    -0.036 SA
HETATM    7  S7  UNL     1     -24.743  18.192  12.329  1.00 20.00    -0.009 SA
HETATM    8 CL8  UNL     1     -24.474  18.953   7.943  1.00 20.00    -0.075 Cl
ENDROOT
TORSDOF 0
ENDMDL
MODEL 4
REMARK VINA RESULT:      -3.6      2.733      3.177
REMARK  0 active torsions:
REMARK  status: ('A' for Active; 'I' for Inactive)
ROOT
HETATM    1  C1  UNL     1     -24.116  18.545   9.737  1.00 20.00     0.025 A 
HETATM    2  C2  UNL     1     -22.975  18.008  10.196  1.00 20.00     0.091 A 
HETATM    3  C3  UNL     1     -25.204  18.659  10.745  1.00 20.00     0.227 A 
HETATM    4  C4  UNL     1     -24.417  19.033   8.356  1.00 20.00     0.055 C 
HETATM    5  O5  UNL     1     -26.313  19.110  10.503  1.00 20.00    -0.279 OA
HETATM    6  S6  UNL     1     -22.855  17.505  11.846  1.00 20.00    -0.036 SA
HETATM    7  S7  UNL     1     -24.745  18.080  12.332  1.00 20.00    -0.009 SA
HETATM    8 CL8  UNL     1     -21.579  17.781   9.205  1.00 20.00    -0.075 Cl
ENDROOT
TORSDOF 0
ENDMDL
MODEL 5
REMARK VINA RESULT:      -3.6     17.915     18.395
REMARK  0 active torsions:
REMARK  status: ('A' for Active; 'I' for Inactive)
ROOT
HETATM    1  C1  UNL     1     -34.903  14.878  -4.252  1.00 20.00     0.025 A 
HETATM    2  C2  UNL     1     -35.304  16.149  -4.100  1.00 20.00     0.091 A 
HETATM    3  C3  UNL     1     -36.004  13.887  -4.389  1.00 20.00     0.227 A 
HETATM    4  C4  UNL     1     -33.505  14.350  -4.298  1.00 20.00     0.055 C 
HETATM    5  O5  UNL     1     -35.827  12.686  -4.523  1.00 20.00    -0.279 OA
HETATM    6  S6  UNL     1     -36.990  16.530  -4.070  1.00 20.00    -0.036 SA
HETATM    7  S7  UNL     1     -37.598  14.607  -4.343  1.00 20.00    -0.009 SA
HETATM    8 CL8  UNL     1     -34.202  17.467  -3.923  1.00 20.00    -0.075 Cl
ENDROOT
TORSDOF 0
ENDMDL
MODEL 6
REMARK VINA RESULT:      -3.5      3.347      4.036
REMARK  0 active torsions:
REMARK  status: ('A' for Active; 'I' for Inactive)
ROOT
HETATM    1  C1  UNL     1     -23.561  18.113  10.859  1.00 20.00     0.025 A 
HETATM    2  C2  UNL     1     -23.167  18.412   9.612  1.00 20.00     0.091 A 
HETATM    3  C3  UNL     1     -24.958  18.507  11.185  1.00 20.00     0.227 A 
HETATM    4  C4  UNL     1     -22.775  17.444  11.941  1.00 20.00     0.055 C 
HETATM    5  O5  UNL     1     -25.481  18.326  12.274  1.00 20.00    -0.279 OA
HETATM    6  S6  UNL     1     -24.254  19.200   8.523  1.00 20.00    -0.036 SA
HETATM    7  S7  UNL     1     -25.797  19.263   9.848  1.00 20.00    -0.009 SA
HETATM    8 CL8  UNL     1     -21.588  18.047   9.014  1.00 20.00    -0.075 Cl
ENDROOT
TORSDOF 0
ENDMDL
MODEL 7
REMARK VINA RESULT:      -3.4      2.340      2.870
REMARK  0 active torsions:
REMARK  status: ('A' for Active; 'I' for Inactive)
ROOT
HETATM    1  C1  UNL     1     -24.583  18.434  10.734  1.00 20.00     0.025 A 
HETATM    2  C2  UNL     1     -23.303  18.037  10.794  1.00 20.00     0.091 A 
HETATM    3  C3  UNL     1     -25.043  18.859   9.385  1.00 20.00     0.227 A 
HETATM    4  C4  UNL     1     -25.583  18.500  11.844  1.00 20.00     0.055 C 
HETATM    5  O5  UNL     1     -26.171  19.263   9.146  1.00 20.00    -0.279 OA
HETATM    6  S6  UNL     1     -22.322  18.051   9.371  1.00 20.00    -0.036 SA
HETATM    7  S7  UNL     1     -23.806  18.727   8.155  1.00 20.00    -0.009 SA
HETATM    8 CL8  UNL     1     -22.554  17.501  12.255  1.00 20.00    -0.075 Cl
ENDROOT
TORSDOF 0
ENDMDL
MODEL 8
REMARK VINA RESULT:      -3.4      2.375      2.944
REMARK  0 active torsions:
REMARK  status: ('A' for Active; 'I' for Inactive)
ROOT
HETATM    1  C1  UNL     1     -24.495  18.316  10.639  1.00 20.00     0.025 A 
HETATM    2  C2  UNL     1     -24.583  18.601   9.331  1.00 20.00     0.091 A 
HETATM    3  C3  UNL     1     -23.187  17.755  11.070  1.00 20.00     0.227 A 
HETATM    4  C4  UNL     1     -25.539  18.492  11.695  1.00 20.00     0.055 C 
HETATM    5  O5  UNL     1     -22.931  17.427  12.219  1.00 20.00    -0.279 OA
HETATM    6  S6  UNL     1     -23.239  18.306   8.285  1.00 20.00    -0.036 SA
HETATM    7  S7  UNL     1     -22.029  17.608   9.766  1.00 20.00    -0.009 SA
HETATM    8 CL8  UNL     1     -26.006  19.261   8.608  1.00 20.00    -0.075 Cl
ENDROOT
TORSDOF 0
ENDMDL
MODEL 9
REMARK VINA RESULT:      -3.3     17.046     17.665
REMARK  0 active torsions:
REMARK  status: ('A' for Active; 'I' for Inactive)
ROOT
HETATM    1  C1  UNL     1     -34.698  15.644  -3.435  1.00 20.00     0.025 A 
HETATM    2  C2  UNL     1     -35.924  16.183  -3.353  1.00 20.00     0.091 A 
HETATM    3  C3  UNL     1     -34.633  14.347  -4.159  1.00 20.00     0.227 A 
HETATM    4  C4  UNL     1     -33.414  16.183  -2.891  1.00 20.00     0.055 C 
HETATM    5  O5  UNL     1     -33.604  13.707  -4.320  1.00 20.00    -0.279 OA
HETATM    6  S6  UNL     1     -37.279  15.371  -4.056  1.00 20.00    -0.036 SA
HETATM    7  S7  UNL     1     -36.182  13.813  -4.772  1.00 20.00    -0.009 SA
HETATM    8 CL8  UNL     1     -36.238  17.684  -2.558  1.00 20.00    -0.075 Cl
ENDROOT
TORSDOF 0
ENDMDL
