MODEL 1
REMARK VINA RESULT:      -4.7      0.000      0.000
REMARK  1 active torsions:
REMARK  status: ('A' for Active; 'I' for Inactive)
REMARK    1  A    between atoms: C3_3  and  C5_5 
ROOT
HETATM    1  C1  UNL     1     -36.653  18.409  -4.144  1.00 20.00     0.012 C 
HETATM    2  C2  UNL     1     -36.100  17.379  -4.416  1.00 20.00    -0.111 C 
HETATM    3  C4  UNL     1     -35.438  16.148  -4.742  1.00 20.00     0.088 A 
HETATM    4  C5  UNL     1     -35.934  14.868  -4.106  1.00 20.00     0.112 A 
HETATM    5  C6  UNL     1     -34.580  15.433  -3.713  1.00 20.00    -0.018 A 
HETATM    6  C7  UNL     1     -33.314  14.779  -4.213  1.00 20.00     0.017 C 
HETATM    7  C8  UNL     1     -34.447  15.986  -2.313  1.00 20.00     0.017 C 
ENDROOT
BRANCH   4   8
HETATM    8  C3  UNL     1     -35.994  13.682  -4.940  1.00 20.00     0.179 C 
HETATM    9  O9  UNL     1     -36.008  12.585  -4.318  1.00 20.00    -0.648 OA
HETATM   10  O10 UNL     1     -36.022  13.910  -6.183  1.00 20.00    -0.648 OA
ENDBRANCH   4   8
TORSDOF 1
ENDMDL
MODEL 2
REMARK VINA RESULT:      -4.7      1.483      2.119
REMARK  1 active torsions:
REMARK  status: ('A' for Active; 'I' for Inactive)
REMARK    1  A    between atoms: C3_3  and  C5_5 
ROOT
HETATM    1  C1  UNL     1     -34.881  17.004  -0.970  1.00 20.00     0.012 C 
HETATM    2  C2  UNL     1     -35.151  16.510  -2.030  1.00 20.00    -0.111 C 
HETATM    3  C4  UNL     1     -35.474  15.919  -3.297  1.00 20.00     0.088 A 
HETATM    4  C5  UNL     1     -35.251  14.435  -3.483  1.00 20.00     0.112 A 
HETATM    5  C6  UNL     1     -34.376  15.429  -4.226  1.00 20.00    -0.018 A 
HETATM    6  C7  UNL     1     -34.578  15.657  -5.705  1.00 20.00     0.017 C 
HETATM    7  C8  UNL     1     -32.927  15.515  -3.807  1.00 20.00     0.017 C 
ENDROOT
BRANCH   4   8
HETATM    8  C3  UNL     1     -36.260  13.690  -4.215  1.00 20.00     0.179 C 
HETATM    9  O9  UNL     1     -37.376  14.267  -4.332  1.00 20.00    -0.648 OA
HETATM   10  O10 UNL     1     -35.883  12.560  -4.635  1.00 20.00    -0.648 OA
ENDBRANCH   4   8
TORSDOF 1
ENDMDL
MODEL 3
REMARK VINA RESULT:      -4.7      1.477      2.057
REMARK  1 active torsions:
REMARK  status: ('A' for Active; 'I' for Inactive)
REMARK    1  A    between atoms: C3_3  and  C5_5 
ROOT
HETATM    1  C1  UNL     1     -34.864  16.979  -0.934  1.00 20.00     0.012 C 
HETATM    2  C2  UNL     1     -35.143  16.500  -1.998  1.00 20.00    -0.111 C 
HETATM    3  C4  UNL     1     -35.477  15.928  -3.271  1.00 20.00     0.088 A 
HETATM    4  C5  UNL     1     -35.244  14.449  -3.484  1.00 20.00     0.112 A 
HETATM    5  C6  UNL     1     -34.388  15.464  -4.222  1.00 20.00    -0.018 A 
HETATM    6  C7  UNL     1     -34.613  15.714  -5.694  1.00 20.00     0.017 C 
HETATM    7  C8  UNL     1     -32.935  15.557  -3.821  1.00 20.00     0.017 C 
ENDROOT
BRANCH   4   8
HETATM    8  C3  UNL     1     -36.255  13.707  -4.214  1.00 20.00     0.179 C 
HETATM    9  O9  UNL     1     -35.888  12.582  -4.652  1.00 20.00    -0.648 OA
HETATM   10  O10 UNL     1     -37.371  14.291  -4.315  1.00 20.00    -0.648 OA
ENDBRANCH   4   8
TORSDOF 1
ENDMDL
MODEL 4
REMARK VINA RESULT:      -4.7      1.817      2.716
REMARK  1 active torsions:
REMARK  status: ('A' for Active; 'I' for Inactive)
REMARK    1  A    between atoms: C3_3  and  C5_5 
ROOT
HETATM    1  C1  UNL     1     -33.674  15.561  -7.918  1.00 20.00     0.012 C 
HETATM    2  C2  UNL     1     -34.067  15.186  -6.848  1.00 20.00    -0.111 C 
HETATM    3  C4  UNL     1     -34.537  14.737  -5.568  1.00 20.00     0.088 A 
HETATM    4  C5  UNL     1     -36.018  14.816  -5.271  1.00 20.00     0.112 A 
HETATM    5  C6  UNL     1     -35.049  15.729  -4.539  1.00 20.00    -0.018 A 
HETATM    6  C7  UNL     1     -34.701  15.459  -3.095  1.00 20.00     0.017 C 
HETATM    7  C8  UNL     1     -35.114  17.202  -4.866  1.00 20.00     0.017 C 
ENDROOT
BRANCH   4   8
HETATM    8  C3  UNL     1     -36.621  13.704  -4.561  1.00 20.00     0.179 C 
HETATM    9  O9  UNL     1     -37.756  13.936  -4.059  1.00 20.00    -0.648 OA
HETATM   10  O10 UNL     1     -35.926  12.650  -4.539  1.00 20.00    -0.648 OA
ENDBRANCH   4   8
TORSDOF 1
ENDMDL
MODEL 5
REMARK VINA RESULT:      -4.6      1.683      2.465
REMARK  1 active torsions:
REMARK  status: ('A' for Active; 'I' for Inactive)
REMARK    1  A    between atoms: C3_3  and  C5_5 
ROOT
HETATM    1  C1  UNL     1     -33.971  16.268  -7.825  1.00 20.00     0.012 C 
HETATM    2  C2  UNL     1     -34.291  15.709  -6.813  1.00 20.00    -0.111 C 
HETATM    3  C4  UNL     1     -34.674  15.040  -5.602  1.00 20.00     0.088 A 
HETATM    4  C5  UNL     1     -36.139  14.995  -5.230  1.00 20.00     0.112 A 
HETATM    5  C6  UNL     1     -35.175  15.830  -4.406  1.00 20.00    -0.018 A 
HETATM    6  C7  UNL     1     -34.741  15.355  -3.040  1.00 20.00     0.017 C 
HETATM    7  C8  UNL     1     -35.322  17.332  -4.490  1.00 20.00     0.017 C 
ENDROOT
BRANCH   4   8
HETATM    8  C3  UNL     1     -36.655  13.755  -4.681  1.00 20.00     0.179 C 
HETATM    9  O9  UNL     1     -35.848  12.785  -4.686  1.00 20.00    -0.648 OA
HETATM   10  O10 UNL     1     -37.849  13.814  -4.271  1.00 20.00    -0.648 OA
ENDBRANCH   4   8
TORSDOF 1
ENDMDL
MODEL 6
REMARK VINA RESULT:      -4.5      1.689      2.927
REMARK  1 active torsions:
REMARK  status: ('A' for Active; 'I' for Inactive)
REMARK    1  A    between atoms: C3_3  and  C5_5 
ROOT
HETATM    1  C1  UNL     1     -34.994  16.980  -1.182  1.00 20.00     0.012 C 
HETATM    2  C2  UNL     1     -34.956  16.136  -2.033  1.00 20.00    -0.111 C 
HETATM    3  C4  UNL     1     -34.910  15.126  -3.052  1.00 20.00     0.088 A 
HETATM    4  C5  UNL     1     -34.528  15.531  -4.458  1.00 20.00     0.112 A 
HETATM    5  C6  UNL     1     -35.950  15.092  -4.157  1.00 20.00    -0.018 A 
HETATM    6  C7  UNL     1     -36.432  13.731  -4.602  1.00 20.00     0.017 C 
HETATM    7  C8  UNL     1     -37.025  16.151  -4.226  1.00 20.00     0.017 C 
ENDROOT
BRANCH   4   8
HETATM    8  C3  UNL     1     -33.651  14.642  -5.199  1.00 20.00     0.179 C 
HETATM    9  O9  UNL     1     -33.717  14.744  -6.455  1.00 20.00    -0.648 OA
HETATM   10  O10 UNL     1     -32.939  13.883  -4.483  1.00 20.00    -0.648 OA
ENDBRANCH   4   8
TORSDOF 1
ENDMDL
MODEL 7
REMARK VINA RESULT:      -4.3      1.771      2.636
REMARK  1 active torsions:
REMARK  status: ('A' for Active; 'I' for Inactive)
REMARK    1  A    between atoms: C3_3  and  C5_5 
ROOT
HETATM    1  C1  UNL     1     -35.328  17.095  -0.058  1.00 20.00     0.012 C 
HETATM    2  C2  UNL     1     -35.279  16.760  -1.209  1.00 20.00    -0.111 C 
HETATM    3  C4  UNL     1     -35.222  16.358  -2.587  1.00 20.00     0.088 A 
HETATM    4  C5  UNL     1     -34.186  15.338  -3.002  1.00 20.00     0.112 A 
HETATM    5  C6  UNL     1     -34.058  16.777  -3.468  1.00 20.00    -0.018 A 
HETATM    6  C7  UNL     1     -34.379  17.140  -4.898  1.00 20.00     0.017 C 
HETATM    7  C8  UNL     1     -32.919  17.586  -2.894  1.00 20.00     0.017 C 
ENDROOT
BRANCH   4   8
HETATM    8  C3  UNL     1     -34.591  14.316  -3.950  1.00 20.00     0.179 C 
HETATM    9  O9  UNL     1     -35.836  14.132  -4.045  1.00 20.00    -0.648 OA
HETATM   10  O10 UNL     1     -33.639  13.747  -4.554  1.00 20.00    -0.648 OA
ENDBRANCH   4   8
TORSDOF 1
ENDMDL
MODEL 8
REMARK VINA RESULT:      -4.3      1.109      2.612
REMARK  1 active torsions:
REMARK  status: ('A' for Active; 'I' for Inactive)
REMARK    1  A    between atoms: C3_3  and  C5_5 
ROOT
HETATM    1  C1  UNL     1     -34.188  16.672  -1.838  1.00 20.00     0.012 C 
HETATM    2  C2  UNL     1     -34.960  16.010  -2.475  1.00 20.00    -0.111 C 
HETATM    3  C4  UNL     1     -35.882  15.217  -3.236  1.00 20.00     0.088 A 
HETATM    4  C5  UNL     1     -35.695  15.125  -4.734  1.00 20.00     0.112 A 
HETATM    5  C6  UNL     1     -36.887  15.875  -4.165  1.00 20.00    -0.018 A 
HETATM    6  C7  UNL     1     -38.266  15.262  -4.228  1.00 20.00     0.017 C 
HETATM    7  C8  UNL     1     -36.898  17.376  -4.336  1.00 20.00     0.017 C 
ENDROOT
BRANCH   4   8
HETATM    8  C3  UNL     1     -35.902  13.832  -5.359  1.00 20.00     0.179 C 
HETATM    9  O9  UNL     1     -35.922  12.848  -4.570  1.00 20.00    -0.648 OA
HETATM   10  O10 UNL     1     -36.032  13.866  -6.616  1.00 20.00    -0.648 OA
ENDBRANCH   4   8
TORSDOF 1
ENDMDL
MODEL 9
REMARK VINA RESULT:      -3.9      4.051      5.253
REMARK  1 active torsions:
REMARK  status: ('A' for Active; 'I' for Inactive)
REMARK    1  A    between atoms: C3_3  and  C5_5 
ROOT
HETATM    1  C1  UNL     1     -32.993  14.622  -4.240  1.00 20.00     0.012 C 
HETATM    2  C2  UNL     1     -33.128  15.736  -3.816  1.00 20.00    -0.111 C 
HETATM    3  C4  UNL     1     -33.291  17.069  -3.309  1.00 20.00     0.088 A 
HETATM    4  C5  UNL     1     -32.852  17.365  -1.892  1.00 20.00     0.112 A 
HETATM    5  C6  UNL     1     -34.329  17.372  -2.243  1.00 20.00    -0.018 A 
HETATM    6  C7  UNL     1     -35.072  18.682  -2.363  1.00 20.00     0.017 C 
HETATM    7  C8  UNL     1     -35.177  16.262  -1.667  1.00 20.00     0.017 C 
ENDROOT
BRANCH   4   8
HETATM    8  C3  UNL     1     -32.173  18.624  -1.648  1.00 20.00     0.179 C 
HETATM    9  O9  UNL     1     -31.995  18.914  -0.433  1.00 20.00    -0.648 OA
HETATM   10  O10 UNL     1     -31.851  19.263  -2.689  1.00 20.00    -0.648 OA
ENDBRANCH   4   8
TORSDOF 1
ENDMDL
