MODEL 1
REMARK VINA RESULT:      -4.5      0.000      0.000
REMARK  2 active torsions:
REMARK  status: ('A' for Active; 'I' for Inactive)
REMARK    1  A    between atoms: C1_1  and  C3_3 
REMARK    2  A    between atoms: C1_1  and  O7_7 
ROOT
HETATM    1  C2  UNL     1     -33.870   6.837   5.676  1.00 20.00     0.055 A 
HETATM    2  C3  UNL     1     -34.403   6.182   4.446  1.00 20.00     0.122 A 
HETATM    3  C4  UNL     1     -34.258   5.394   5.694  1.00 20.00     0.184 A 
HETATM    4  F8  UNL     1     -35.426   5.054   6.353  1.00 20.00    -0.248 F 
ENDROOT
BRANCH   2   5
HETATM    5  C1  UNL     1     -33.453   5.909   3.319  1.00 20.00     0.265 C 
HETATM    6  O6  UNL     1     -33.478   4.897   2.632  1.00 20.00    -0.265 OA
BRANCH   5   7
HETATM    7  O7  UNL     1     -32.583   6.951   3.194  1.00 20.00    -0.326 OA
HETATM    8  C5  UNL     1     -32.482   7.514   1.882  1.00 20.00     0.213 C 
ENDBRANCH   5   7
ENDBRANCH   2   5
TORSDOF 2
ENDMDL
MODEL 2
REMARK VINA RESULT:      -4.1     11.655     12.296
REMARK  2 active torsions:
REMARK  status: ('A' for Active; 'I' for Inactive)
REMARK    1  A    between atoms: C1_1  and  C3_3 
REMARK    2  A    between atoms: C1_1  and  O7_7 
ROOT
HETATM    1  C2  UNL     1     -34.305  15.097  -4.910  1.00 20.00     0.055 A 
HETATM    2  C3  UNL     1     -35.612  14.894  -4.219  1.00 20.00     0.122 A 
HETATM    3  C4  UNL     1     -34.355  14.888  -3.431  1.00 20.00     0.184 A 
HETATM    4  F8  UNL     1     -34.124  15.986  -2.622  1.00 20.00    -0.248 F 
ENDROOT
BRANCH   2   5
HETATM    5  C1  UNL     1     -36.328  13.593  -4.424  1.00 20.00     0.265 C 
HETATM    6  O6  UNL     1     -35.771  12.504  -4.464  1.00 20.00    -0.265 OA
BRANCH   5   7
HETATM    7  O7  UNL     1     -37.665  13.824  -4.554  1.00 20.00    -0.326 OA
HETATM    8  C5  UNL     1     -38.090  15.159  -4.263  1.00 20.00     0.213 C 
ENDBRANCH   5   7
ENDBRANCH   2   5
TORSDOF 2
ENDMDL
MODEL 3
REMARK VINA RESULT:      -4.0     11.801     12.490
REMARK  2 active torsions:
REMARK  status: ('A' for Active; 'I' for Inactive)
REMARK    1  A    between atoms: C1_1  and  C3_3 
REMARK    2  A    between atoms: C1_1  and  O7_7 
ROOT
HETATM    1  C2  UNL     1     -34.717  15.098  -3.277  1.00 20.00     0.055 A 
HETATM    2  C3  UNL     1     -35.028  13.840  -4.018  1.00 20.00     0.122 A 
HETATM    3  C4  UNL     1     -33.883  14.682  -4.445  1.00 20.00     0.184 A 
HETATM    4  F8  UNL     1     -32.618  14.187  -4.183  1.00 20.00    -0.248 F 
ENDROOT
BRANCH   2   5
HETATM    5  C1  UNL     1     -36.250  13.812  -4.885  1.00 20.00     0.265 C 
HETATM    6  O6  UNL     1     -37.390  13.690  -4.458  1.00 20.00    -0.265 OA
BRANCH   5   7
HETATM    7  O7  UNL     1     -35.886  13.944  -6.192  1.00 20.00    -0.326 OA
HETATM    8  C5  UNL     1     -36.226  15.192  -6.803  1.00 20.00     0.213 C 
ENDBRANCH   5   7
ENDBRANCH   2   5
TORSDOF 2
ENDMDL
MODEL 4
REMARK VINA RESULT:      -3.9      2.598      3.589
REMARK  2 active torsions:
REMARK  status: ('A' for Active; 'I' for Inactive)
REMARK    1  A    between atoms: C1_1  and  C3_3 
REMARK    2  A    between atoms: C1_1  and  O7_7 
ROOT
HETATM    1  C2  UNL     1     -32.990   4.931   2.190  1.00 20.00     0.055 A 
HETATM    2  C3  UNL     1     -34.124   5.595   2.898  1.00 20.00     0.122 A 
HETATM    3  C4  UNL     1     -32.811   6.280   2.808  1.00 20.00     0.184 A 
HETATM    4  F8  UNL     1     -32.736   7.368   1.957  1.00 20.00    -0.248 F 
ENDROOT
BRANCH   2   5
HETATM    5  C1  UNL     1     -34.550   5.046   4.226  1.00 20.00     0.265 C 
HETATM    6  O6  UNL     1     -34.456   3.868   4.542  1.00 20.00    -0.265 OA
BRANCH   5   7
HETATM    7  O7  UNL     1     -35.043   6.055   4.999  1.00 20.00    -0.326 OA
HETATM    8  C5  UNL     1     -34.221   6.441   6.105  1.00 20.00     0.213 C 
ENDBRANCH   5   7
ENDBRANCH   2   5
TORSDOF 2
ENDMDL
MODEL 5
REMARK VINA RESULT:      -3.9      2.301      3.385
REMARK  2 active torsions:
REMARK  status: ('A' for Active; 'I' for Inactive)
REMARK    1  A    between atoms: C1_1  and  C3_3 
REMARK    2  A    between atoms: C1_1  and  O7_7 
ROOT
HETATM    1  C2  UNL     1     -32.708   7.394   2.101  1.00 20.00     0.055 A 
HETATM    2  C3  UNL     1     -33.342   6.708   3.266  1.00 20.00     0.122 A 
HETATM    3  C4  UNL     1     -31.895   7.035   3.303  1.00 20.00     0.184 A 
HETATM    4  F8  UNL     1     -31.512   8.063   4.146  1.00 20.00    -0.248 F 
ENDROOT
BRANCH   2   5
HETATM    5  C1  UNL     1     -33.742   5.272   3.111  1.00 20.00     0.265 C 
HETATM    6  O6  UNL     1     -33.129   4.460   2.431  1.00 20.00    -0.265 OA
BRANCH   5   7
HETATM    7  O7  UNL     1     -34.871   5.033   3.836  1.00 20.00    -0.326 OA
HETATM    8  C5  UNL     1     -34.806   5.404   5.216  1.00 20.00     0.213 C 
ENDBRANCH   5   7
ENDBRANCH   2   5
TORSDOF 2
ENDMDL
MODEL 6
REMARK VINA RESULT:      -3.9      2.693      3.975
REMARK  2 active torsions:
REMARK  status: ('A' for Active; 'I' for Inactive)
REMARK    1  A    between atoms: C1_1  and  C3_3 
REMARK    2  A    between atoms: C1_1  and  O7_7 
ROOT
HETATM    1  C2  UNL     1     -32.992   5.559   2.466  1.00 20.00     0.055 A 
HETATM    2  C3  UNL     1     -33.730   6.661   3.151  1.00 20.00     0.122 A 
HETATM    3  C4  UNL     1     -32.362   6.904   2.631  1.00 20.00     0.184 A 
HETATM    4  F8  UNL     1     -32.260   7.704   1.506  1.00 20.00    -0.248 F 
ENDROOT
BRANCH   2   5
HETATM    5  C1  UNL     1     -33.919   6.571   4.636  1.00 20.00     0.265 C 
HETATM    6  O6  UNL     1     -33.243   7.185   5.451  1.00 20.00    -0.265 OA
BRANCH   5   7
HETATM    7  O7  UNL     1     -34.942   5.715   4.914  1.00 20.00    -0.326 OA
HETATM    8  C5  UNL     1     -34.802   4.959   6.121  1.00 20.00     0.213 C 
ENDBRANCH   5   7
ENDBRANCH   2   5
TORSDOF 2
ENDMDL
MODEL 7
REMARK VINA RESULT:      -3.8      1.850      2.237
REMARK  2 active torsions:
REMARK  status: ('A' for Active; 'I' for Inactive)
REMARK    1  A    between atoms: C1_1  and  C3_3 
REMARK    2  A    between atoms: C1_1  and  O7_7 
ROOT
HETATM    1  C2  UNL     1     -35.433   5.283   4.482  1.00 20.00     0.055 A 
HETATM    2  C3  UNL     1     -34.179   5.780   3.844  1.00 20.00     0.122 A 
HETATM    3  C4  UNL     1     -34.228   4.405   4.396  1.00 20.00     0.184 A 
HETATM    4  F8  UNL     1     -34.255   3.368   3.480  1.00 20.00    -0.248 F 
ENDROOT
BRANCH   2   5
HETATM    5  C1  UNL     1     -33.373   6.811   4.574  1.00 20.00     0.265 C 
HETATM    6  O6  UNL     1     -33.610   7.184   5.716  1.00 20.00    -0.265 OA
BRANCH   5   7
HETATM    7  O7  UNL     1     -32.359   7.249   3.774  1.00 20.00    -0.326 OA
HETATM    8  C5  UNL     1     -32.592   7.133   2.367  1.00 20.00     0.213 C 
ENDBRANCH   5   7
ENDBRANCH   2   5
TORSDOF 2
ENDMDL
MODEL 8
REMARK VINA RESULT:      -3.8      0.922      1.640
REMARK  2 active torsions:
REMARK  status: ('A' for Active; 'I' for Inactive)
REMARK    1  A    between atoms: C1_1  and  C3_3 
REMARK    2  A    between atoms: C1_1  and  O7_7 
ROOT
HETATM    1  C2  UNL     1     -33.694   6.916   6.040  1.00 20.00     0.055 A 
HETATM    2  C3  UNL     1     -34.399   6.555   4.776  1.00 20.00     0.122 A 
HETATM    3  C4  UNL     1     -34.345   5.580   5.892  1.00 20.00     0.184 A 
HETATM    4  F8  UNL     1     -35.525   5.363   6.583  1.00 20.00    -0.248 F 
ENDROOT
BRANCH   2   5
HETATM    5  C1  UNL     1     -33.571   6.284   3.556  1.00 20.00     0.265 C 
HETATM    6  O6  UNL     1     -32.668   7.011   3.165  1.00 20.00    -0.265 OA
BRANCH   5   7
HETATM    7  O7  UNL     1     -33.983   5.122   2.974  1.00 20.00    -0.326 OA
HETATM    8  C5  UNL     1     -32.991   4.430   2.210  1.00 20.00     0.213 C 
ENDBRANCH   5   7
ENDBRANCH   2   5
TORSDOF 2
ENDMDL
MODEL 9
REMARK VINA RESULT:      -3.8      2.661      3.695
REMARK  2 active torsions:
REMARK  status: ('A' for Active; 'I' for Inactive)
REMARK    1  A    between atoms: C1_1  and  C3_3 
REMARK    2  A    between atoms: C1_1  and  O7_7 
ROOT
HETATM    1  C2  UNL     1     -31.868   7.316   3.169  1.00 20.00     0.055 A 
HETATM    2  C3  UNL     1     -32.778   6.237   2.684  1.00 20.00     0.122 A 
HETATM    3  C4  UNL     1     -32.916   7.612   2.146  1.00 20.00     0.184 A 
HETATM    4  F8  UNL     1     -32.499   7.813   0.842  1.00 20.00    -0.248 F 
ENDROOT
BRANCH   2   5
HETATM    5  C1  UNL     1     -33.836   5.729   3.617  1.00 20.00     0.265 C 
HETATM    6  O6  UNL     1     -34.336   4.615   3.544  1.00 20.00    -0.265 OA
BRANCH   5   7
HETATM    7  O7  UNL     1     -34.135   6.693   4.534  1.00 20.00    -0.326 OA
HETATM    8  C5  UNL     1     -34.295   6.233   5.880  1.00 20.00     0.213 C 
ENDBRANCH   5   7
ENDBRANCH   2   5
TORSDOF 2
ENDMDL
