MODEL 1
REMARK VINA RESULT:      -4.4      0.000      0.000
REMARK  1 active torsions:
REMARK  status: ('A' for Active; 'I' for Inactive)
REMARK    1  A    between atoms: C1_1  and  C2_2 
ROOT
HETATM    1  C2  UNL     1     -35.075  14.601  -3.486  1.00 20.00     0.064 A 
HETATM    2  C3  UNL     1     -35.479  15.991  -3.018  1.00 20.00    -0.030 A 
HETATM    3  C4  UNL     1     -34.306  15.809  -3.997  1.00 20.00    -0.030 A 
HETATM    4  C5  UNL     1     -35.192  16.348  -1.576  1.00 20.00     0.016 C 
HETATM    5  C6  UNL     1     -36.769  16.613  -3.508  1.00 20.00     0.016 C 
HETATM    6  C7  UNL     1     -34.458  16.253  -5.436  1.00 20.00     0.016 C 
HETATM    7  C8  UNL     1     -32.888  15.991  -3.499  1.00 20.00     0.016 C 
ENDROOT
BRANCH   1   8
HETATM    8  C1  UNL     1     -35.941  13.816  -4.377  1.00 20.00     0.237 C 
HETATM    9  O9  UNL     1     -35.844  12.601  -4.516  1.00 20.00    -0.306 OA
ENDBRANCH   1   8
TORSDOF 1
ENDMDL
MODEL 2
REMARK VINA RESULT:      -4.2      0.990      1.835
REMARK  1 active torsions:
REMARK  status: ('A' for Active; 'I' for Inactive)
REMARK    1  A    between atoms: C1_1  and  C2_2 
ROOT
HETATM    1  C2  UNL     1     -36.024  14.935  -3.959  1.00 20.00     0.064 A 
HETATM    2  C3  UNL     1     -35.646  16.287  -4.545  1.00 20.00    -0.030 A 
HETATM    3  C4  UNL     1     -34.679  15.550  -3.603  1.00 20.00    -0.030 A 
HETATM    4  C5  UNL     1     -36.398  17.499  -4.037  1.00 20.00     0.016 C 
HETATM    5  C6  UNL     1     -35.307  16.409  -6.016  1.00 20.00     0.016 C 
HETATM    6  C7  UNL     1     -33.402  14.957  -4.159  1.00 20.00     0.016 C 
HETATM    7  C8  UNL     1     -34.497  16.051  -2.186  1.00 20.00     0.016 C 
ENDROOT
BRANCH   1   8
HETATM    8  C1  UNL     1     -36.114  13.736  -4.804  1.00 20.00     0.237 C 
HETATM    9  O9  UNL     1     -35.863  12.606  -4.401  1.00 20.00    -0.306 OA
ENDBRANCH   1   8
TORSDOF 1
ENDMDL
MODEL 3
REMARK VINA RESULT:      -4.2      0.766      1.886
REMARK  1 active torsions:
REMARK  status: ('A' for Active; 'I' for Inactive)
REMARK    1  A    between atoms: C1_1  and  C2_2 
ROOT
HETATM    1  C2  UNL     1     -34.916  14.820  -4.546  1.00 20.00     0.064 A 
HETATM    2  C3  UNL     1     -34.496  15.843  -3.501  1.00 20.00    -0.030 A 
HETATM    3  C4  UNL     1     -35.251  16.287  -4.766  1.00 20.00    -0.030 A 
HETATM    4  C5  UNL     1     -33.018  16.142  -3.376  1.00 20.00     0.016 C 
HETATM    5  C6  UNL     1     -35.197  15.890  -2.160  1.00 20.00     0.016 C 
HETATM    6  C7  UNL     1     -36.683  16.765  -4.652  1.00 20.00     0.016 C 
HETATM    7  C8  UNL     1     -34.500  17.015  -5.861  1.00 20.00     0.016 C 
ENDROOT
BRANCH   1   8
HETATM    8  C1  UNL     1     -35.967  13.832  -4.266  1.00 20.00     0.237 C 
HETATM    9  O9  UNL     1     -35.853  12.637  -4.515  1.00 20.00    -0.306 OA
ENDBRANCH   1   8
TORSDOF 1
ENDMDL
MODEL 4
REMARK VINA RESULT:      -3.9      1.504      1.822
REMARK  1 active torsions:
REMARK  status: ('A' for Active; 'I' for Inactive)
REMARK    1  A    between atoms: C1_1  and  C2_2 
ROOT
HETATM    1  C2  UNL     1     -33.400  15.591  -3.608  1.00 20.00     0.064 A 
HETATM    2  C3  UNL     1     -34.794  15.947  -3.114  1.00 20.00    -0.030 A 
HETATM    3  C4  UNL     1     -34.023  16.913  -4.029  1.00 20.00    -0.030 A 
HETATM    4  C5  UNL     1     -34.947  16.278  -1.645  1.00 20.00     0.016 C 
HETATM    5  C6  UNL     1     -36.002  15.211  -3.655  1.00 20.00     0.016 C 
HETATM    6  C7  UNL     1     -34.481  17.116  -5.457  1.00 20.00     0.016 C 
HETATM    7  C8  UNL     1     -33.432  18.178  -3.442  1.00 20.00     0.016 C 
ENDROOT
BRANCH   1   8
HETATM    8  C1  UNL     1     -33.187  14.506  -4.576  1.00 20.00     0.237 C 
HETATM    9  O9  UNL     1     -33.172  13.320  -4.268  1.00 20.00    -0.306 OA
ENDBRANCH   1   8
TORSDOF 1
ENDMDL
MODEL 5
REMARK VINA RESULT:      -3.8      1.774      2.972
REMARK  1 active torsions:
REMARK  status: ('A' for Active; 'I' for Inactive)
REMARK    1  A    between atoms: C1_1  and  C2_2 
ROOT
HETATM    1  C2  UNL     1     -34.508  16.531  -4.324  1.00 20.00     0.064 A 
HETATM    2  C3  UNL     1     -34.029  15.157  -3.877  1.00 20.00    -0.030 A 
HETATM    3  C4  UNL     1     -34.145  16.310  -2.864  1.00 20.00    -0.030 A 
HETATM    4  C5  UNL     1     -32.660  14.713  -4.343  1.00 20.00     0.016 C 
HETATM    5  C6  UNL     1     -35.003  14.001  -3.804  1.00 20.00     0.016 C 
HETATM    6  C7  UNL     1     -35.229  16.271  -1.809  1.00 20.00     0.016 C 
HETATM    7  C8  UNL     1     -32.885  16.977  -2.353  1.00 20.00     0.016 C 
ENDROOT
BRANCH   1   8
HETATM    8  C1  UNL     1     -35.900  16.755  -4.738  1.00 20.00     0.237 C 
HETATM    9  O9  UNL     1     -36.296  16.600  -5.888  1.00 20.00    -0.306 OA
ENDBRANCH   1   8
TORSDOF 1
ENDMDL
MODEL 6
REMARK VINA RESULT:      -3.7      3.618      4.974
REMARK  1 active torsions:
REMARK  status: ('A' for Active; 'I' for Inactive)
REMARK    1  A    between atoms: C1_1  and  C2_2 
ROOT
HETATM    1  C2  UNL     1     -32.696  17.541  -1.427  1.00 20.00     0.064 A 
HETATM    2  C3  UNL     1     -33.252  17.394  -2.836  1.00 20.00    -0.030 A 
HETATM    3  C4  UNL     1     -34.180  17.776  -1.669  1.00 20.00    -0.030 A 
HETATM    4  C5  UNL     1     -33.321  15.996  -3.412  1.00 20.00     0.016 C 
HETATM    5  C6  UNL     1     -32.922  18.424  -3.894  1.00 20.00     0.016 C 
HETATM    6  C7  UNL     1     -34.749  19.175  -1.596  1.00 20.00     0.016 C 
HETATM    7  C8  UNL     1     -35.144  16.745  -1.120  1.00 20.00     0.016 C 
ENDROOT
BRANCH   1   8
HETATM    8  C1  UNL     1     -31.798  18.649  -1.074  1.00 20.00     0.237 C 
HETATM    9  O9  UNL     1     -30.662  18.486  -0.642  1.00 20.00    -0.306 OA
ENDBRANCH   1   8
TORSDOF 1
ENDMDL
MODEL 7
REMARK VINA RESULT:      -3.7      1.379      2.867
REMARK  1 active torsions:
REMARK  status: ('A' for Active; 'I' for Inactive)
REMARK    1  A    between atoms: C1_1  and  C2_2 
ROOT
HETATM    1  C2  UNL     1     -36.189  15.427  -4.784  1.00 20.00     0.064 A 
HETATM    2  C3  UNL     1     -34.741  15.802  -5.061  1.00 20.00    -0.030 A 
HETATM    3  C4  UNL     1     -35.448  16.311  -3.793  1.00 20.00    -0.030 A 
HETATM    4  C5  UNL     1     -34.478  16.763  -6.200  1.00 20.00     0.016 C 
HETATM    5  C6  UNL     1     -33.650  14.760  -4.939  1.00 20.00     0.016 C 
HETATM    6  C7  UNL     1     -35.044  15.763  -2.441  1.00 20.00     0.016 C 
HETATM    7  C8  UNL     1     -35.867  17.763  -3.709  1.00 20.00     0.016 C 
ENDROOT
BRANCH   1   8
HETATM    8  C1  UNL     1     -36.568  14.049  -4.441  1.00 20.00     0.237 C 
HETATM    9  O9  UNL     1     -37.729  13.660  -4.392  1.00 20.00    -0.306 OA
ENDBRANCH   1   8
TORSDOF 1
ENDMDL
MODEL 8
REMARK VINA RESULT:      -3.6      1.435      2.088
REMARK  1 active torsions:
REMARK  status: ('A' for Active; 'I' for Inactive)
REMARK    1  A    between atoms: C1_1  and  C2_2 
ROOT
HETATM    1  C2  UNL     1     -33.850  15.764  -3.632  1.00 20.00     0.064 A 
HETATM    2  C3  UNL     1     -34.093  16.755  -2.503  1.00 20.00    -0.030 A 
HETATM    3  C4  UNL     1     -34.568  17.071  -3.931  1.00 20.00    -0.030 A 
HETATM    4  C5  UNL     1     -32.887  17.481  -1.945  1.00 20.00     0.016 C 
HETATM    5  C6  UNL     1     -35.113  16.447  -1.428  1.00 20.00     0.016 C 
HETATM    6  C7  UNL     1     -36.049  17.070  -4.243  1.00 20.00     0.016 C 
HETATM    7  C8  UNL     1     -33.821  18.102  -4.751  1.00 20.00     0.016 C 
ENDROOT
BRANCH   1   8
HETATM    8  C1  UNL     1     -34.558  14.477  -3.681  1.00 20.00     0.237 C 
HETATM    9  O9  UNL     1     -34.146  13.504  -4.303  1.00 20.00    -0.306 OA
ENDBRANCH   1   8
TORSDOF 1
ENDMDL
MODEL 9
REMARK VINA RESULT:      -3.6      2.300      3.159
REMARK  1 active torsions:
REMARK  status: ('A' for Active; 'I' for Inactive)
REMARK    1  A    between atoms: C1_1  and  C2_2 
ROOT
HETATM    1  C2  UNL     1     -34.803  16.514  -4.226  1.00 20.00     0.064 A 
HETATM    2  C3  UNL     1     -34.241  16.318  -2.826  1.00 20.00    -0.030 A 
HETATM    3  C4  UNL     1     -34.196  15.171  -3.850  1.00 20.00    -0.030 A 
HETATM    4  C5  UNL     1     -35.232  16.254  -1.683  1.00 20.00     0.016 C 
HETATM    5  C6  UNL     1     -32.955  17.006  -2.420  1.00 20.00     0.016 C 
HETATM    6  C7  UNL     1     -32.868  14.746  -4.438  1.00 20.00     0.016 C 
HETATM    7  C8  UNL     1     -35.144  14.000  -3.696  1.00 20.00     0.016 C 
ENDROOT
BRANCH   1   8
HETATM    8  C1  UNL     1     -34.144  17.403  -5.194  1.00 20.00     0.237 C 
HETATM    9  O9  UNL     1     -34.706  18.353  -5.728  1.00 20.00    -0.306 OA
ENDBRANCH   1   8
TORSDOF 1
ENDMDL
