MODEL 1
REMARK VINA RESULT:      -4.3      0.000      0.000
REMARK  2 active torsions:
REMARK  status: ('A' for Active; 'I' for Inactive)
REMARK    1  A    between atoms: C1_1  and  C4_4 
REMARK    2  A    between atoms: C4_4  and  C5_5 
ROOT
HETATM    1  C4  UNL     1     -35.557  14.695  -5.269  1.00 20.00     0.137 C 
ENDROOT
BRANCH   1   2
HETATM    2  C1  UNL     1     -36.374  13.567  -4.630  1.00 20.00     0.174 C 
HETATM    3  O6  UNL     1     -35.736  12.498  -4.417  1.00 20.00    -0.648 OA
HETATM    4  O7  UNL     1     -37.588  13.839  -4.417  1.00 20.00    -0.648 OA
ENDBRANCH   1   2
BRANCH   1   5
HETATM    5  C5  UNL     1     -34.521  15.348  -4.339  1.00 20.00     0.039 C 
HETATM    6  C2  UNL     1     -35.022  15.440  -2.894  1.00 20.00     0.032 C 
HETATM    7  C3  UNL     1     -33.171  14.625  -4.383  1.00 20.00     0.032 C 
HETATM    8 CL8  UNL     1     -34.254  17.036  -4.930  1.00 20.00    -0.119 Cl
ENDBRANCH   1   5
TORSDOF 2
ENDMDL
MODEL 2
REMARK VINA RESULT:      -4.3      1.163      1.619
REMARK  2 active torsions:
REMARK  status: ('A' for Active; 'I' for Inactive)
REMARK    1  A    between atoms: C1_1  and  C4_4 
REMARK    2  A    between atoms: C4_4  and  C5_5 
ROOT
HETATM    1  C4  UNL     1     -35.593  14.701  -5.309  1.00 20.00     0.137 C 
ENDROOT
BRANCH   1   2
HETATM    2  C1  UNL     1     -36.382  13.569  -4.644  1.00 20.00     0.174 C 
HETATM    3  O6  UNL     1     -35.721  12.518  -4.414  1.00 20.00    -0.648 OA
HETATM    4  O7  UNL     1     -37.601  13.819  -4.429  1.00 20.00    -0.648 OA
ENDBRANCH   1   2
BRANCH   1   5
HETATM    5  C5  UNL     1     -34.607  15.431  -4.381  1.00 20.00     0.039 C 
HETATM    6  C2  UNL     1     -34.313  16.856  -4.861  1.00 20.00     0.032 C 
HETATM    7  C3  UNL     1     -35.094  15.455  -2.928  1.00 20.00     0.032 C 
HETATM    8 CL8  UNL     1     -33.050  14.513  -4.419  1.00 20.00    -0.119 Cl
ENDBRANCH   1   5
TORSDOF 2
ENDMDL
MODEL 3
REMARK VINA RESULT:      -4.3      0.023      1.143
REMARK  2 active torsions:
REMARK  status: ('A' for Active; 'I' for Inactive)
REMARK    1  A    between atoms: C1_1  and  C4_4 
REMARK    2  A    between atoms: C4_4  and  C5_5 
ROOT
HETATM    1  C4  UNL     1     -35.555  14.682  -5.290  1.00 20.00     0.137 C 
ENDROOT
BRANCH   1   2
HETATM    2  C1  UNL     1     -36.374  13.556  -4.649  1.00 20.00     0.174 C 
HETATM    3  O6  UNL     1     -37.583  13.836  -4.420  1.00 20.00    -0.648 OA
HETATM    4  O7  UNL     1     -35.731  12.496  -4.409  1.00 20.00    -0.648 OA
ENDBRANCH   1   2
BRANCH   1   5
HETATM    5  C5  UNL     1     -34.533  15.349  -4.356  1.00 20.00     0.039 C 
HETATM    6  C2  UNL     1     -35.049  15.452  -2.917  1.00 20.00     0.032 C 
HETATM    7  C3  UNL     1     -33.178  14.632  -4.380  1.00 20.00     0.032 C 
HETATM    8 CL8  UNL     1     -34.269  17.032  -4.960  1.00 20.00    -0.119 Cl
ENDBRANCH   1   5
TORSDOF 2
ENDMDL
MODEL 4
REMARK VINA RESULT:      -4.3      1.173      1.624
REMARK  2 active torsions:
REMARK  status: ('A' for Active; 'I' for Inactive)
REMARK    1  A    between atoms: C1_1  and  C4_4 
REMARK    2  A    between atoms: C4_4  and  C5_5 
ROOT
HETATM    1  C4  UNL     1     -35.605  14.719  -5.328  1.00 20.00     0.137 C 
ENDROOT
BRANCH   1   2
HETATM    2  C1  UNL     1     -36.388  13.588  -4.651  1.00 20.00     0.174 C 
HETATM    3  O6  UNL     1     -35.727  12.535  -4.434  1.00 20.00    -0.648 OA
HETATM    4  O7  UNL     1     -37.602  13.843  -4.415  1.00 20.00    -0.648 OA
ENDBRANCH   1   2
BRANCH   1   5
HETATM    5  C5  UNL     1     -34.527  15.373  -4.449  1.00 20.00     0.039 C 
HETATM    6  C2  UNL     1     -33.214  14.584  -4.465  1.00 20.00     0.032 C 
HETATM    7  C3  UNL     1     -34.269  16.831  -4.846  1.00 20.00     0.032 C 
HETATM    8 CL8  UNL     1     -35.142  15.372  -2.750  1.00 20.00    -0.119 Cl
ENDBRANCH   1   5
TORSDOF 2
ENDMDL
MODEL 5
REMARK VINA RESULT:      -4.2      1.175      1.988
REMARK  2 active torsions:
REMARK  status: ('A' for Active; 'I' for Inactive)
REMARK    1  A    between atoms: C1_1  and  C4_4 
REMARK    2  A    between atoms: C4_4  and  C5_5 
ROOT
HETATM    1  C4  UNL     1     -35.579  14.697  -5.337  1.00 20.00     0.137 C 
ENDROOT
BRANCH   1   2
HETATM    2  C1  UNL     1     -36.375  13.575  -4.661  1.00 20.00     0.174 C 
HETATM    3  O6  UNL     1     -37.582  13.849  -4.413  1.00 20.00    -0.648 OA
HETATM    4  O7  UNL     1     -35.719  12.525  -4.416  1.00 20.00    -0.648 OA
ENDBRANCH   1   2
BRANCH   1   5
HETATM    5  C5  UNL     1     -34.536  15.381  -4.437  1.00 20.00     0.039 C 
HETATM    6  C2  UNL     1     -33.204  14.625  -4.424  1.00 20.00     0.032 C 
HETATM    7  C3  UNL     1     -34.308  16.844  -4.832  1.00 20.00     0.032 C 
HETATM    8 CL8  UNL     1     -35.186  15.367  -2.751  1.00 20.00    -0.119 Cl
ENDBRANCH   1   5
TORSDOF 2
ENDMDL
MODEL 6
REMARK VINA RESULT:      -4.1     18.448     19.201
REMARK  2 active torsions:
REMARK  status: ('A' for Active; 'I' for Inactive)
REMARK    1  A    between atoms: C1_1  and  C4_4 
REMARK    2  A    between atoms: C4_4  and  C5_5 
ROOT
HETATM    1  C4  UNL     1     -22.807  16.966   9.496  1.00 20.00     0.137 C 
ENDROOT
BRANCH   1   2
HETATM    2  C1  UNL     1     -22.476  18.138   8.566  1.00 20.00     0.174 C 
HETATM    3  O6  UNL     1     -23.048  18.106   7.440  1.00 20.00    -0.648 OA
HETATM    4  O7  UNL     1     -21.656  18.977   9.031  1.00 20.00    -0.648 OA
ENDBRANCH   1   2
BRANCH   1   5
HETATM    5  C5  UNL     1     -23.672  17.333  10.714  1.00 20.00     0.039 C 
HETATM    6  C2  UNL     1     -22.824  17.799  11.902  1.00 20.00     0.032 C 
HETATM    7  C3  UNL     1     -24.726  18.392  10.372  1.00 20.00     0.032 C 
HETATM    8 CL8  UNL     1     -24.548  15.837  11.224  1.00 20.00    -0.119 Cl
ENDBRANCH   1   5
TORSDOF 2
ENDMDL
MODEL 7
REMARK VINA RESULT:      -4.0     18.886     19.556
REMARK  2 active torsions:
REMARK  status: ('A' for Active; 'I' for Inactive)
REMARK    1  A    between atoms: C1_1  and  C4_4 
REMARK    2  A    between atoms: C4_4  and  C5_5 
ROOT
HETATM    1  C4  UNL     1     -23.933  18.031   9.958  1.00 20.00     0.137 C 
ENDROOT
BRANCH   1   2
HETATM    2  C1  UNL     1     -22.622  17.778   9.206  1.00 20.00     0.174 C 
HETATM    3  O6  UNL     1     -21.908  18.802   9.014  1.00 20.00    -0.648 OA
HETATM    4  O7  UNL     1     -22.429  16.581   8.852  1.00 20.00    -0.648 OA
ENDBRANCH   1   2
BRANCH   1   5
HETATM    5  C5  UNL     1     -23.959  17.506  11.404  1.00 20.00     0.039 C 
HETATM    6  C2  UNL     1     -24.452  16.058  11.481  1.00 20.00     0.032 C 
HETATM    7  C3  UNL     1     -22.593  17.635  12.087  1.00 20.00     0.032 C 
HETATM    8 CL8  UNL     1     -25.129  18.529  12.327  1.00 20.00    -0.119 Cl
ENDBRANCH   1   5
TORSDOF 2
ENDMDL
MODEL 8
REMARK VINA RESULT:      -3.8      1.301      1.825
REMARK  2 active torsions:
REMARK  status: ('A' for Active; 'I' for Inactive)
REMARK    1  A    between atoms: C1_1  and  C4_4 
REMARK    2  A    between atoms: C4_4  and  C5_5 
ROOT
HETATM    1  C4  UNL     1     -35.349  14.260  -3.844  1.00 20.00     0.137 C 
ENDROOT
BRANCH   1   2
HETATM    2  C1  UNL     1     -36.389  13.871  -4.900  1.00 20.00     0.174 C 
HETATM    3  O6  UNL     1     -37.532  13.585  -4.446  1.00 20.00    -0.648 OA
HETATM    4  O7  UNL     1     -35.968  13.863  -6.090  1.00 20.00    -0.648 OA
ENDBRANCH   1   2
BRANCH   1   5
HETATM    5  C5  UNL     1     -35.217  15.772  -3.595  1.00 20.00     0.039 C 
HETATM    6  C2  UNL     1     -36.564  16.493  -3.706  1.00 20.00     0.032 C 
HETATM    7  C3  UNL     1     -34.566  16.077  -2.241  1.00 20.00     0.032 C 
HETATM    8 CL8  UNL     1     -34.135  16.438  -4.881  1.00 20.00    -0.119 Cl
ENDBRANCH   1   5
TORSDOF 2
ENDMDL
MODEL 9
REMARK VINA RESULT:      -3.7      1.691      2.462
REMARK  2 active torsions:
REMARK  status: ('A' for Active; 'I' for Inactive)
REMARK    1  A    between atoms: C1_1  and  C4_4 
REMARK    2  A    between atoms: C4_4  and  C5_5 
ROOT
HETATM    1  C4  UNL     1     -35.865  14.354  -5.933  1.00 20.00     0.137 C 
ENDROOT
BRANCH   1   2
HETATM    2  C1  UNL     1     -36.248  13.675  -4.613  1.00 20.00     0.174 C 
HETATM    3  O6  UNL     1     -36.945  14.380  -3.831  1.00 20.00    -0.648 OA
HETATM    4  O7  UNL     1     -35.800  12.504  -4.463  1.00 20.00    -0.648 OA
ENDBRANCH   1   2
BRANCH   1   5
HETATM    5  C5  UNL     1     -34.598  15.223  -5.868  1.00 20.00     0.039 C 
HETATM    6  C2  UNL     1     -33.770  15.130  -7.153  1.00 20.00     0.032 C 
HETATM    7  C3  UNL     1     -34.921  16.688  -5.554  1.00 20.00     0.032 C 
HETATM    8 CL8  UNL     1     -33.578  14.589  -4.517  1.00 20.00    -0.119 Cl
ENDBRANCH   1   5
TORSDOF 2
ENDMDL
