MODEL 1
REMARK VINA RESULT:      -3.9      0.000      0.000
REMARK  0 active torsions:
REMARK  status: ('A' for Active; 'I' for Inactive)
ROOT
HETATM    1  C1  UNL     1     -41.448   9.080   0.392  1.00 20.00     0.064 C 
HETATM    2  C2  UNL     1     -41.235   7.047  -1.008  1.00 20.00     0.030 C 
HETATM    3  C3  UNL     1     -41.436   5.544  -0.902  1.00 20.00     0.075 C 
HETATM    4  C4  UNL     1     -42.755   7.041   0.898  1.00 20.00     0.093 C 
HETATM    5  C5  UNL     1     -41.432   7.611   0.397  1.00 20.00     0.103 C 
HETATM    6  N6  UNL     1     -41.461  10.240   0.387  1.00 20.00    -0.197 NA
HETATM    7  S7  UNL     1     -42.800   5.335   0.276  1.00 20.00    -0.168 SA
ENDROOT
TORSDOF 0
ENDMDL
MODEL 2
REMARK VINA RESULT:      -3.8      8.937      9.118
REMARK  0 active torsions:
REMARK  status: ('A' for Active; 'I' for Inactive)
ROOT
HETATM    1  C1  UNL     1     -32.663   7.172   2.216  1.00 20.00     0.064 C 
HETATM    2  C2  UNL     1     -33.681   4.961   2.674  1.00 20.00     0.030 C 
HETATM    3  C3  UNL     1     -34.162   4.131   3.853  1.00 20.00     0.075 C 
HETATM    4  C4  UNL     1     -33.996   6.781   4.263  1.00 20.00     0.093 C 
HETATM    5  C5  UNL     1     -33.006   6.198   3.260  1.00 20.00     0.103 C 
HETATM    6  N6  UNL     1     -32.392   7.942   1.390  1.00 20.00    -0.197 NA
HETATM    7  S7  UNL     1     -34.761   5.342   5.064  1.00 20.00    -0.168 SA
ENDROOT
TORSDOF 0
ENDMDL
MODEL 3
REMARK VINA RESULT:      -3.7     10.890     11.902
REMARK  0 active torsions:
REMARK  status: ('A' for Active; 'I' for Inactive)
ROOT
HETATM    1  C1  UNL     1     -35.232  13.808  -4.135  1.00 20.00     0.064 C 
HETATM    2  C2  UNL     1     -35.009  15.615  -2.455  1.00 20.00     0.030 C 
HETATM    3  C3  UNL     1     -34.122  16.811  -2.154  1.00 20.00     0.075 C 
HETATM    4  C4  UNL     1     -34.108  15.939  -4.696  1.00 20.00     0.093 C 
HETATM    5  C5  UNL     1     -34.366  14.881  -3.629  1.00 20.00     0.103 C 
HETATM    6  N6  UNL     1     -35.917  12.961  -4.535  1.00 20.00    -0.197 NA
HETATM    7  S7  UNL     1     -33.588  17.419  -3.778  1.00 20.00    -0.168 SA
ENDROOT
TORSDOF 0
ENDMDL
MODEL 4
REMARK VINA RESULT:      -3.7     23.008     23.652
REMARK  0 active torsions:
REMARK  status: ('A' for Active; 'I' for Inactive)
ROOT
HETATM    1  C1  UNL     1     -22.406  17.436   8.232  1.00 20.00     0.064 C 
HETATM    2  C2  UNL     1     -24.248  17.448   9.887  1.00 20.00     0.030 C 
HETATM    3  C3  UNL     1     -24.471  17.211  11.372  1.00 20.00     0.075 C 
HETATM    4  C4  UNL     1     -21.958  17.815  10.636  1.00 20.00     0.093 C 
HETATM    5  C5  UNL     1     -22.797  17.073   9.600  1.00 20.00     0.103 C 
HETATM    6  N6  UNL     1     -22.096  17.724   7.151  1.00 20.00    -0.197 NA
HETATM    7  S7  UNL     1     -22.932  17.749  12.168  1.00 20.00    -0.168 SA
ENDROOT
TORSDOF 0
ENDMDL
MODEL 5
REMARK VINA RESULT:      -3.7     10.749     11.675
REMARK  0 active torsions:
REMARK  status: ('A' for Active; 'I' for Inactive)
ROOT
HETATM    1  C1  UNL     1     -35.434  13.903  -4.222  1.00 20.00     0.064 C 
HETATM    2  C2  UNL     1     -33.381  15.247  -3.876  1.00 20.00     0.030 C 
HETATM    3  C3  UNL     1     -32.964  16.598  -3.319  1.00 20.00     0.075 C 
HETATM    4  C4  UNL     1     -35.335  15.654  -2.477  1.00 20.00     0.093 C 
HETATM    5  C5  UNL     1     -34.908  15.231  -3.878  1.00 20.00     0.103 C 
HETATM    6  N6  UNL     1     -35.849  12.854  -4.492  1.00 20.00    -0.197 NA
HETATM    7  S7  UNL     1     -34.151  16.944  -1.992  1.00 20.00    -0.168 SA
ENDROOT
TORSDOF 0
ENDMDL
MODEL 6
REMARK VINA RESULT:      -3.6     10.392     11.288
REMARK  0 active torsions:
REMARK  status: ('A' for Active; 'I' for Inactive)
ROOT
HETATM    1  C1  UNL     1     -36.700  14.502  -4.261  1.00 20.00     0.064 C 
HETATM    2  C2  UNL     1     -34.231  14.596  -4.094  1.00 20.00     0.030 C 
HETATM    3  C3  UNL     1     -33.135  15.571  -3.693  1.00 20.00     0.075 C 
HETATM    4  C4  UNL     1     -35.586  16.084  -2.720  1.00 20.00     0.093 C 
HETATM    5  C5  UNL     1     -35.540  15.382  -4.072  1.00 20.00     0.103 C 
HETATM    6  N6  UNL     1     -37.618  13.807  -4.410  1.00 20.00    -0.197 NA
HETATM    7  S7  UNL     1     -33.875  16.600  -2.395  1.00 20.00    -0.168 SA
ENDROOT
TORSDOF 0
ENDMDL
MODEL 7
REMARK VINA RESULT:      -3.5      9.101      9.468
REMARK  0 active torsions:
REMARK  status: ('A' for Active; 'I' for Inactive)
ROOT
HETATM    1  C1  UNL     1     -32.924   6.994   2.721  1.00 20.00     0.064 C 
HETATM    2  C2  UNL     1     -33.302   7.017   5.169  1.00 20.00     0.030 C 
HETATM    3  C3  UNL     1     -34.291   6.482   6.191  1.00 20.00     0.075 C 
HETATM    4  C4  UNL     1     -34.232   5.209   3.826  1.00 20.00     0.093 C 
HETATM    5  C5  UNL     1     -33.881   6.692   3.794  1.00 20.00     0.103 C 
HETATM    6  N6  UNL     1     -32.168   7.233   1.873  1.00 20.00    -0.197 NA
HETATM    7  S7  UNL     1     -34.879   4.912   5.497  1.00 20.00    -0.168 SA
ENDROOT
TORSDOF 0
ENDMDL
MODEL 8
REMARK VINA RESULT:      -3.3     11.917     12.685
REMARK  0 active torsions:
REMARK  status: ('A' for Active; 'I' for Inactive)
ROOT
HETATM    1  C1  UNL     1     -33.601  15.025  -4.255  1.00 20.00     0.064 C 
HETATM    2  C2  UNL     1     -34.964  15.872  -2.368  1.00 20.00     0.030 C 
HETATM    3  C3  UNL     1     -34.891  16.917  -1.267  1.00 20.00     0.075 C 
HETATM    4  C4  UNL     1     -33.286  17.319  -3.384  1.00 20.00     0.093 C 
HETATM    5  C5  UNL     1     -33.598  15.864  -3.049  1.00 20.00     0.103 C 
HETATM    6  N6  UNL     1     -33.603  14.362  -5.207  1.00 20.00    -0.197 NA
HETATM    7  S7  UNL     1     -33.915  18.273  -1.972  1.00 20.00    -0.168 SA
ENDROOT
TORSDOF 0
ENDMDL
MODEL 9
REMARK VINA RESULT:      -3.1     10.437     11.207
REMARK  0 active torsions:
REMARK  status: ('A' for Active; 'I' for Inactive)
ROOT
HETATM    1  C1  UNL     1     -33.762  16.413  -2.506  1.00 20.00     0.064 C 
HETATM    2  C2  UNL     1     -34.435  14.498  -3.924  1.00 20.00     0.030 C 
HETATM    3  C3  UNL     1     -35.686  13.722  -4.301  1.00 20.00     0.075 C 
HETATM    4  C4  UNL     1     -36.078  16.203  -3.348  1.00 20.00     0.093 C 
HETATM    5  C5  UNL     1     -34.845  15.474  -2.825  1.00 20.00     0.103 C 
HETATM    6  N6  UNL     1     -32.906  17.156  -2.254  1.00 20.00    -0.197 NA
HETATM    7  S7  UNL     1     -37.029  14.940  -4.243  1.00 20.00    -0.168 SA
ENDROOT
TORSDOF 0
ENDMDL
