MODEL 1
REMARK VINA RESULT:      -4.0      0.000      0.000
REMARK  2 active torsions:
REMARK  status: ('A' for Active; 'I' for Inactive)
REMARK    1  A    between atoms: C8_8  and  C9_9 
REMARK    2  A    between atoms: C8_8  and  N10_10 
ROOT
HETATM    1  C1  UNL     1     -35.130  15.953  -1.976  1.00 20.00     0.039 C 
HETATM    2  C2  UNL     1     -33.027  16.259  -3.311  1.00 20.00     0.039 C 
HETATM    3  C3  UNL     1     -34.861  17.311  -1.320  1.00 20.00     0.273 C 
HETATM    4  C4  UNL     1     -32.828  17.607  -2.611  1.00 20.00     0.273 C 
HETATM    5  C5  UNL     1     -34.508  15.829  -3.383  1.00 20.00    -0.044 C 
HETATM    6  C6  UNL     1     -34.591  14.365  -3.850  1.00 20.00     0.015 C 
HETATM    7  C7  UNL     1     -35.276  16.697  -4.397  1.00 20.00     0.015 C 
HETATM    8  N10 UNL     1     -33.423  17.599  -1.268  1.00 20.00     0.089 N 
ENDROOT
BRANCH   8   9
HETATM    9  C8  UNL     1     -33.179  18.873  -0.592  1.00 20.00     0.287 C 
BRANCH   9  10
HETATM   10  C9  UNL     1     -32.461  18.703   0.735  1.00 20.00     0.144 C 
HETATM   11 CL11 UNL     1     -30.786  18.144   0.499  1.00 20.00    -0.129 Cl
ENDBRANCH   9  10
ENDBRANCH   8   9
TORSDOF 2
ENDMDL
MODEL 2
REMARK VINA RESULT:      -3.9     11.219     12.286
REMARK  2 active torsions:
REMARK  status: ('A' for Active; 'I' for Inactive)
REMARK    1  A    between atoms: C8_8  and  C9_9 
REMARK    2  A    between atoms: C8_8  and  N10_10 
ROOT
HETATM    1  C1  UNL     1     -33.830   6.731   4.867  1.00 20.00     0.039 C 
HETATM    2  C2  UNL     1     -33.727   4.539   3.651  1.00 20.00     0.039 C 
HETATM    3  C3  UNL     1     -33.398   7.423   3.570  1.00 20.00     0.273 C 
HETATM    4  C4  UNL     1     -33.299   5.303   2.395  1.00 20.00     0.273 C 
HETATM    5  C5  UNL     1     -34.565   5.396   4.623  1.00 20.00    -0.044 C 
HETATM    6  C6  UNL     1     -34.719   4.648   5.959  1.00 20.00     0.015 C 
HETATM    7  C7  UNL     1     -35.973   5.646   4.052  1.00 20.00     0.015 C 
HETATM    8  N10 UNL     1     -32.575   6.532   2.743  1.00 20.00     0.089 N 
ENDROOT
BRANCH   8   9
HETATM    9  C8  UNL     1     -32.127   7.223   1.534  1.00 20.00     0.287 C 
BRANCH   9  10
HETATM   10  C9  UNL     1     -32.861   8.532   1.304  1.00 20.00     0.144 C 
HETATM   11 CL11 UNL     1     -33.446   8.661  -0.374  1.00 20.00    -0.129 Cl
ENDBRANCH   9  10
ENDBRANCH   8   9
TORSDOF 2
ENDMDL
MODEL 3
REMARK VINA RESULT:      -3.9     13.052     14.844
REMARK  2 active torsions:
REMARK  status: ('A' for Active; 'I' for Inactive)
REMARK    1  A    between atoms: C8_8  and  C9_9 
REMARK    2  A    between atoms: C8_8  and  N10_10 
ROOT
HETATM    1  C1  UNL     1     -42.598   7.716  -1.528  1.00 20.00     0.039 C 
HETATM    2  C2  UNL     1     -41.519   6.656   0.475  1.00 20.00     0.039 C 
HETATM    3  C3  UNL     1     -43.382   6.417  -1.740  1.00 20.00     0.273 C 
HETATM    4  C4  UNL     1     -42.340   5.393   0.196  1.00 20.00     0.273 C 
HETATM    5  C5  UNL     1     -42.190   7.941  -0.057  1.00 20.00    -0.044 C 
HETATM    6  C6  UNL     1     -41.190   9.108   0.022  1.00 20.00     0.015 C 
HETATM    7  C7  UNL     1     -43.417   8.307   0.799  1.00 20.00     0.015 C 
HETATM    8  N10 UNL     1     -42.636   5.258  -1.235  1.00 20.00     0.089 N 
ENDROOT
BRANCH   8   9
HETATM    9  C8  UNL     1     -43.374   4.021  -1.492  1.00 20.00     0.287 C 
BRANCH   9  10
HETATM   10  C9  UNL     1     -43.403   3.654  -2.966  1.00 20.00     0.144 C 
HETATM   11 CL11 UNL     1     -41.955   2.728  -3.433  1.00 20.00    -0.129 Cl
ENDBRANCH   9  10
ENDBRANCH   8   9
TORSDOF 2
ENDMDL
MODEL 4
REMARK VINA RESULT:      -3.9      3.047      4.797
REMARK  2 active torsions:
REMARK  status: ('A' for Active; 'I' for Inactive)
REMARK    1  A    between atoms: C8_8  and  C9_9 
REMARK    2  A    between atoms: C8_8  and  N10_10 
ROOT
HETATM    1  C1  UNL     1     -32.985  17.409  -2.018  1.00 20.00     0.039 C 
HETATM    2  C2  UNL     1     -35.168  16.250  -1.580  1.00 20.00     0.039 C 
HETATM    3  C3  UNL     1     -32.932  16.704  -3.377  1.00 20.00     0.273 C 
HETATM    4  C4  UNL     1     -35.042  15.585  -2.954  1.00 20.00     0.273 C 
HETATM    5  C5  UNL     1     -34.424  17.600  -1.494  1.00 20.00    -0.044 C 
HETATM    6  C6  UNL     1     -34.375  18.061  -0.026  1.00 20.00     0.015 C 
HETATM    7  C7  UNL     1     -35.161  18.680  -2.308  1.00 20.00     0.015 C 
HETATM    8  N10 UNL     1     -33.634  15.415  -3.334  1.00 20.00     0.089 N 
ENDROOT
BRANCH   8   9
HETATM    9  C8  UNL     1     -33.530  14.731  -4.623  1.00 20.00     0.287 C 
BRANCH   9  10
HETATM   10  C9  UNL     1     -34.436  15.336  -5.680  1.00 20.00     0.144 C 
HETATM   11 CL11 UNL     1     -33.761  15.119  -7.314  1.00 20.00    -0.129 Cl
ENDBRANCH   9  10
ENDBRANCH   8   9
TORSDOF 2
ENDMDL
MODEL 5
REMARK VINA RESULT:      -3.9      3.513      5.364
REMARK  2 active torsions:
REMARK  status: ('A' for Active; 'I' for Inactive)
REMARK    1  A    between atoms: C8_8  and  C9_9 
REMARK    2  A    between atoms: C8_8  and  N10_10 
ROOT
HETATM    1  C1  UNL     1     -34.726  17.620  -3.799  1.00 20.00     0.039 C 
HETATM    2  C2  UNL     1     -33.409  15.515  -3.442  1.00 20.00     0.039 C 
HETATM    3  C3  UNL     1     -35.687  16.819  -4.684  1.00 20.00     0.273 C 
HETATM    4  C4  UNL     1     -34.414  14.784  -4.337  1.00 20.00     0.273 C 
HETATM    5  C5  UNL     1     -34.012  16.751  -2.743  1.00 20.00    -0.044 C 
HETATM    6  C6  UNL     1     -32.883  17.568  -2.089  1.00 20.00     0.015 C 
HETATM    7  C7  UNL     1     -34.994  16.324  -1.635  1.00 20.00     0.015 C 
HETATM    8  N10 UNL     1     -35.000  15.694  -5.329  1.00 20.00     0.089 N 
ENDROOT
BRANCH   8   9
HETATM    9  C8  UNL     1     -35.917  14.971  -6.210  1.00 20.00     0.287 C 
BRANCH   9  10
HETATM   10  C9  UNL     1     -35.570  15.140  -7.679  1.00 20.00     0.144 C 
HETATM   11 CL11 UNL     1     -33.812  15.288  -7.918  1.00 20.00    -0.129 Cl
ENDBRANCH   9  10
ENDBRANCH   8   9
TORSDOF 2
ENDMDL
MODEL 6
REMARK VINA RESULT:      -3.9      1.024      1.024
REMARK  2 active torsions:
REMARK  status: ('A' for Active; 'I' for Inactive)
REMARK    1  A    between atoms: C8_8  and  C9_9 
REMARK    2  A    between atoms: C8_8  and  N10_10 
ROOT
HETATM    1  C1  UNL     1     -35.194  15.843  -2.170  1.00 20.00     0.039 C 
HETATM    2  C2  UNL     1     -32.940  16.326  -3.161  1.00 20.00     0.039 C 
HETATM    3  C3  UNL     1     -35.100  17.171  -1.413  1.00 20.00     0.273 C 
HETATM    4  C4  UNL     1     -32.921  17.639  -2.372  1.00 20.00     0.273 C 
HETATM    5  C5  UNL     1     -34.368  15.831  -3.473  1.00 20.00    -0.044 C 
HETATM    6  C6  UNL     1     -34.300  14.394  -4.021  1.00 20.00     0.015 C 
HETATM    7  C7  UNL     1     -35.029  16.718  -4.545  1.00 20.00     0.015 C 
HETATM    8  N10 UNL     1     -33.703  17.524  -1.134  1.00 20.00     0.089 N 
ENDROOT
BRANCH   8   9
HETATM    9  C8  UNL     1     -33.631  18.767  -0.366  1.00 20.00     0.287 C 
BRANCH   9  10
HETATM   10  C9  UNL     1     -32.698  18.663   0.828  1.00 20.00     0.144 C 
HETATM   11 CL11 UNL     1     -33.534  17.988   2.248  1.00 20.00    -0.129 Cl
ENDBRANCH   9  10
ENDBRANCH   8   9
TORSDOF 2
ENDMDL
MODEL 7
REMARK VINA RESULT:      -3.8      3.309      5.126
REMARK  2 active torsions:
REMARK  status: ('A' for Active; 'I' for Inactive)
REMARK    1  A    between atoms: C8_8  and  C9_9 
REMARK    2  A    between atoms: C8_8  and  N10_10 
ROOT
HETATM    1  C1  UNL     1     -32.906  16.081  -3.414  1.00 20.00     0.039 C 
HETATM    2  C2  UNL     1     -34.827  16.566  -1.875  1.00 20.00     0.039 C 
HETATM    3  C3  UNL     1     -33.876  15.308  -4.314  1.00 20.00     0.273 C 
HETATM    4  C4  UNL     1     -35.734  15.779  -2.826  1.00 20.00     0.273 C 
HETATM    5  C5  UNL     1     -33.600  17.179  -2.581  1.00 20.00    -0.044 C 
HETATM    6  C6  UNL     1     -32.617  17.714  -1.524  1.00 20.00     0.015 C 
HETATM    7  C7  UNL     1     -34.021  18.358  -3.478  1.00 20.00     0.015 C 
HETATM    8  N10 UNL     1     -34.980  14.736  -3.533  1.00 20.00     0.089 N 
ENDROOT
BRANCH   8   9
HETATM    9  C8  UNL     1     -35.869  13.959  -4.397  1.00 20.00     0.287 C 
BRANCH   9  10
HETATM   10  C9  UNL     1     -35.807  14.401  -5.849  1.00 20.00     0.144 C 
HETATM   11 CL11 UNL     1     -36.896  15.777  -6.154  1.00 20.00    -0.129 Cl
ENDBRANCH   9  10
ENDBRANCH   8   9
TORSDOF 2
ENDMDL
MODEL 8
REMARK VINA RESULT:      -3.8      3.356      5.125
REMARK  2 active torsions:
REMARK  status: ('A' for Active; 'I' for Inactive)
REMARK    1  A    between atoms: C8_8  and  C9_9 
REMARK    2  A    between atoms: C8_8  and  N10_10 
ROOT
HETATM    1  C1  UNL     1     -34.481  17.856  -3.837  1.00 20.00     0.039 C 
HETATM    2  C2  UNL     1     -33.098  15.851  -3.235  1.00 20.00     0.039 C 
HETATM    3  C3  UNL     1     -35.448  16.917  -4.567  1.00 20.00     0.273 C 
HETATM    4  C4  UNL     1     -34.111  14.979  -3.984  1.00 20.00     0.273 C 
HETATM    5  C5  UNL     1     -33.712  17.160  -2.695  1.00 20.00    -0.044 C 
HETATM    6  C6  UNL     1     -32.585  18.085  -2.201  1.00 20.00     0.015 C 
HETATM    7  C7  UNL     1     -34.646  16.871  -1.505  1.00 20.00     0.015 C 
HETATM    8  N10 UNL     1     -34.751  15.728  -5.072  1.00 20.00     0.089 N 
ENDROOT
BRANCH   8   9
HETATM    9  C8  UNL     1     -35.676  14.868  -5.811  1.00 20.00     0.287 C 
BRANCH   9  10
HETATM   10  C9  UNL     1     -36.332  13.820  -4.928  1.00 20.00     0.144 C 
HETATM   11 CL11 UNL     1     -37.889  14.397  -4.285  1.00 20.00    -0.129 Cl
ENDBRANCH   9  10
ENDBRANCH   8   9
TORSDOF 2
ENDMDL
MODEL 9
REMARK VINA RESULT:      -3.7      1.195      2.086
REMARK  2 active torsions:
REMARK  status: ('A' for Active; 'I' for Inactive)
REMARK    1  A    between atoms: C8_8  and  C9_9 
REMARK    2  A    between atoms: C8_8  and  N10_10 
ROOT
HETATM    1  C1  UNL     1     -34.951  16.664  -4.628  1.00 20.00     0.039 C 
HETATM    2  C2  UNL     1     -35.060  15.923  -2.233  1.00 20.00     0.039 C 
HETATM    3  C3  UNL     1     -33.726  17.510  -4.267  1.00 20.00     0.273 C 
HETATM    4  C4  UNL     1     -33.831  16.793  -1.952  1.00 20.00     0.273 C 
HETATM    5  C5  UNL     1     -35.138  15.446  -3.698  1.00 20.00    -0.044 C 
HETATM    6  C6  UNL     1     -36.519  14.816  -3.956  1.00 20.00     0.015 C 
HETATM    7  C7  UNL     1     -34.067  14.376  -3.980  1.00 20.00     0.015 C 
HETATM    8  N10 UNL     1     -33.775  17.942  -2.865  1.00 20.00     0.089 N 
ENDROOT
BRANCH   8   9
HETATM    9  C8  UNL     1     -32.627  18.792  -2.550  1.00 20.00     0.287 C 
BRANCH   9  10
HETATM   10  C9  UNL     1     -32.472  19.035  -1.059  1.00 20.00     0.144 C 
HETATM   11 CL11 UNL     1     -30.993  18.270  -0.427  1.00 20.00    -0.129 Cl
ENDBRANCH   9  10
ENDBRANCH   8   9
TORSDOF 2
ENDMDL
