MODEL 1
REMARK VINA RESULT:      -4.5      0.000      0.000
REMARK  1 active torsions:
REMARK  status: ('A' for Active; 'I' for Inactive)
REMARK    1  A    between atoms: C2_2  and  C8_8 
ROOT
HETATM    1  C1  UNL     1     -23.131  17.847   9.801  1.00 20.00     0.203 C 
HETATM    2  C2  UNL     1     -24.223  18.832   9.382  1.00 20.00     0.244 C 
HETATM    3  C3  UNL     1     -25.336  18.445  11.484  1.00 20.00     0.245 C 
HETATM    4  C4  UNL     1     -24.228  17.454  11.890  1.00 20.00     0.150 C 
HETATM    5  C5  UNL     1     -26.681  18.135  12.134  1.00 20.00     0.045 C 
HETATM    6  C6  UNL     1     -24.556  15.974  11.679  1.00 20.00     0.042 C 
HETATM    7  N9  UNL     1     -25.493  18.470  10.023  1.00 20.00     0.097 N 
HETATM    8  O10 UNL     1     -23.003  17.800  11.224  1.00 20.00    -0.382 OA
HETATM    9  H27 UNL     1     -26.213  19.145   9.765  1.00 20.00     0.317 HD
ENDROOT
BRANCH   2  10
HETATM   10  C8  UNL     1     -24.400  18.838   7.867  1.00 20.00     0.033 C 
HETATM   11  C7  UNL     1     -25.814  19.116   7.475  1.00 20.00     0.007 C 
ENDBRANCH   2  10
TORSDOF 1
ENDMDL
MODEL 2
REMARK VINA RESULT:      -4.2     16.439     18.533
REMARK  1 active torsions:
REMARK  status: ('A' for Active; 'I' for Inactive)
REMARK    1  A    between atoms: C2_2  and  C8_8 
ROOT
HETATM    1  C1  UNL     1     -34.098  15.072  -4.404  1.00 20.00     0.203 C 
HETATM    2  C2  UNL     1     -34.836  15.161  -3.067  1.00 20.00     0.244 C 
HETATM    3  C3  UNL     1     -36.851  14.429  -4.169  1.00 20.00     0.245 C 
HETATM    4  C4  UNL     1     -36.092  14.346  -5.507  1.00 20.00     0.150 C 
HETATM    5  C5  UNL     1     -38.340  14.713  -4.344  1.00 20.00     0.045 C 
HETATM    6  C6  UNL     1     -36.265  15.548  -6.439  1.00 20.00     0.042 C 
HETATM    7  N9  UNL     1     -36.256  15.455  -3.302  1.00 20.00     0.097 N 
HETATM    8  O10 UNL     1     -34.699  14.097  -5.257  1.00 20.00    -0.382 OA
HETATM    9  H27 UNL     1     -36.752  15.485  -2.411  1.00 20.00     0.317 HD
ENDROOT
BRANCH   2  10
HETATM   10  C8  UNL     1     -34.231  16.242  -2.180  1.00 20.00     0.033 C 
HETATM   11  C7  UNL     1     -33.049  16.890  -2.825  1.00 20.00     0.007 C 
ENDBRANCH   2  10
TORSDOF 1
ENDMDL
MODEL 3
REMARK VINA RESULT:      -4.1      1.603      2.301
REMARK  1 active torsions:
REMARK  status: ('A' for Active; 'I' for Inactive)
REMARK    1  A    between atoms: C2_2  and  C8_8 
ROOT
HETATM    1  C1  UNL     1     -23.677  19.263   8.111  1.00 20.00     0.203 C 
HETATM    2  C2  UNL     1     -24.969  19.212   8.927  1.00 20.00     0.244 C 
HETATM    3  C3  UNL     1     -23.825  17.910  10.601  1.00 20.00     0.245 C 
HETATM    4  C4  UNL     1     -22.531  17.970   9.766  1.00 20.00     0.150 C 
HETATM    5  C5  UNL     1     -23.914  16.662  11.474  1.00 20.00     0.045 C 
HETATM    6  C6  UNL     1     -22.243  16.737   8.906  1.00 20.00     0.042 C 
HETATM    7  N9  UNL     1     -25.004  17.982   9.728  1.00 20.00     0.097 N 
HETATM    8  O10 UNL     1     -22.532  19.159   8.960  1.00 20.00    -0.382 OA
HETATM    9  H27 UNL     1     -25.854  17.965  10.293  1.00 20.00     0.317 HD
ENDROOT
BRANCH   2  10
HETATM   10  C8  UNL     1     -26.191  19.263   8.016  1.00 20.00     0.033 C 
HETATM   11  C7  UNL     1     -25.810  19.186   6.573  1.00 20.00     0.007 C 
ENDBRANCH   2  10
TORSDOF 1
ENDMDL
MODEL 4
REMARK VINA RESULT:      -4.0     15.206     17.370
REMARK  1 active torsions:
REMARK  status: ('A' for Active; 'I' for Inactive)
REMARK    1  A    between atoms: C2_2  and  C8_8 
ROOT
HETATM    1  C1  UNL     1     -33.429  16.317  -3.055  1.00 20.00     0.203 C 
HETATM    2  C2  UNL     1     -34.610  15.862  -2.197  1.00 20.00     0.244 C 
HETATM    3  C3  UNL     1     -35.194  14.264  -3.904  1.00 20.00     0.245 C 
HETATM    4  C4  UNL     1     -34.000  14.735  -4.756  1.00 20.00     0.150 C 
HETATM    5  C5  UNL     1     -36.344  13.711  -4.742  1.00 20.00     0.045 C 
HETATM    6  C6  UNL     1     -34.335  15.734  -5.866  1.00 20.00     0.042 C 
HETATM    7  N9  UNL     1     -35.688  15.360  -3.060  1.00 20.00     0.097 N 
HETATM    8  O10 UNL     1     -32.972  15.258  -3.900  1.00 20.00    -0.382 OA
HETATM    9  H27 UNL     1     -36.463  15.031  -2.484  1.00 20.00     0.317 HD
ENDROOT
BRANCH   2  10
HETATM   10  C8  UNL     1     -35.134  17.008  -1.339  1.00 20.00     0.033 C 
HETATM   11  C7  UNL     1     -34.023  17.843  -0.792  1.00 20.00     0.007 C 
ENDBRANCH   2  10
TORSDOF 1
ENDMDL
MODEL 5
REMARK VINA RESULT:      -4.0     16.708     18.912
REMARK  1 active torsions:
REMARK  status: ('A' for Active; 'I' for Inactive)
REMARK    1  A    between atoms: C2_2  and  C8_8 
ROOT
HETATM    1  C1  UNL     1     -34.879  14.184  -4.052  1.00 20.00     0.203 C 
HETATM    2  C2  UNL     1     -35.636  15.395  -3.506  1.00 20.00     0.244 C 
HETATM    3  C3  UNL     1     -36.258  15.982  -5.759  1.00 20.00     0.245 C 
HETATM    4  C4  UNL     1     -35.490  14.757  -6.293  1.00 20.00     0.150 C 
HETATM    5  C5  UNL     1     -36.330  17.127  -6.766  1.00 20.00     0.045 C 
HETATM    6  C6  UNL     1     -34.084  15.043  -6.826  1.00 20.00     0.042 C 
HETATM    7  N9  UNL     1     -35.652  16.466  -4.511  1.00 20.00     0.097 N 
HETATM    8  O10 UNL     1     -35.449  13.736  -5.283  1.00 20.00    -0.382 OA
HETATM    9  H27 UNL     1     -36.183  17.262  -4.155  1.00 20.00     0.317 HD
ENDROOT
BRANCH   2  10
HETATM   10  C8  UNL     1     -34.990  15.909  -2.224  1.00 20.00     0.033 C 
HETATM   11  C7  UNL     1     -33.646  16.506  -2.481  1.00 20.00     0.007 C 
ENDBRANCH   2  10
TORSDOF 1
ENDMDL
MODEL 6
REMARK VINA RESULT:      -3.9     16.761     18.780
REMARK  1 active torsions:
REMARK  status: ('A' for Active; 'I' for Inactive)
REMARK    1  A    between atoms: C2_2  and  C8_8 
ROOT
HETATM    1  C1  UNL     1     -35.526  14.398  -6.154  1.00 20.00     0.203 C 
HETATM    2  C2  UNL     1     -34.184  15.027  -6.534  1.00 20.00     0.244 C 
HETATM    3  C3  UNL     1     -33.650  15.227  -4.193  1.00 20.00     0.245 C 
HETATM    4  C4  UNL     1     -35.006  14.593  -3.827  1.00 20.00     0.150 C 
HETATM    5  C5  UNL     1     -33.126  16.176  -3.118  1.00 20.00     0.045 C 
HETATM    6  C6  UNL     1     -36.114  15.579  -3.447  1.00 20.00     0.042 C 
HETATM    7  N9  UNL     1     -33.745  15.942  -5.472  1.00 20.00     0.097 N 
HETATM    8  O10 UNL     1     -35.439  13.732  -4.892  1.00 20.00    -0.382 OA
HETATM    9  H27 UNL     1     -32.836  16.337  -5.715  1.00 20.00     0.317 HD
ENDROOT
BRANCH   2  10
HETATM   10  C8  UNL     1     -34.293  15.787  -7.851  1.00 20.00     0.033 C 
HETATM   11  C7  UNL     1     -34.225  17.265  -7.644  1.00 20.00     0.007 C 
ENDBRANCH   2  10
TORSDOF 1
ENDMDL
MODEL 7
REMARK VINA RESULT:      -3.8     16.058     18.081
REMARK  1 active torsions:
REMARK  status: ('A' for Active; 'I' for Inactive)
REMARK    1  A    between atoms: C2_2  and  C8_8 
ROOT
HETATM    1  C1  UNL     1     -35.296  14.482  -5.005  1.00 20.00     0.203 C 
HETATM    2  C2  UNL     1     -33.940  14.937  -5.547  1.00 20.00     0.244 C 
HETATM    3  C3  UNL     1     -33.428  15.876  -3.387  1.00 20.00     0.245 C 
HETATM    4  C4  UNL     1     -34.798  15.411  -2.857  1.00 20.00     0.150 C 
HETATM    5  C5  UNL     1     -32.899  17.114  -2.669  1.00 20.00     0.045 C 
HETATM    6  C6  UNL     1     -35.893  16.480  -2.833  1.00 20.00     0.042 C 
HETATM    7  N9  UNL     1     -33.497  16.140  -4.830  1.00 20.00     0.097 N 
HETATM    8  O10 UNL     1     -35.235  14.258  -3.595  1.00 20.00    -0.382 OA
HETATM    9  H27 UNL     1     -32.579  16.425  -5.174  1.00 20.00     0.317 HD
ENDROOT
BRANCH   2  10
HETATM   10  C8  UNL     1     -34.022  15.233  -7.040  1.00 20.00     0.033 C 
HETATM   11  C7  UNL     1     -35.425  15.146  -7.546  1.00 20.00     0.007 C 
ENDBRANCH   2  10
TORSDOF 1
ENDMDL
MODEL 8
REMARK VINA RESULT:      -3.6     22.372     23.420
REMARK  1 active torsions:
REMARK  status: ('A' for Active; 'I' for Inactive)
REMARK    1  A    between atoms: C2_2  and  C8_8 
ROOT
HETATM    1  C1  UNL     1     -41.076   7.162  -1.168  1.00 20.00     0.203 C 
HETATM    2  C2  UNL     1     -41.301   7.623   0.272  1.00 20.00     0.244 C 
HETATM    3  C3  UNL     1     -42.241   5.464   0.783  1.00 20.00     0.245 C 
HETATM    4  C4  UNL     1     -42.008   5.015  -0.672  1.00 20.00     0.150 C 
HETATM    5  C5  UNL     1     -43.415   4.749   1.447  1.00 20.00     0.045 C 
HETATM    6  C6  UNL     1     -43.229   5.100  -1.592  1.00 20.00     0.042 C 
HETATM    7  N9  UNL     1     -42.453   6.916   0.847  1.00 20.00     0.097 N 
HETATM    8  O10 UNL     1     -40.904   5.744  -1.231  1.00 20.00    -0.382 OA
HETATM    9  H27 UNL     1     -42.583   7.204   1.817  1.00 20.00     0.317 HD
ENDROOT
BRANCH   2  10
HETATM   10  C8  UNL     1     -41.544   9.127   0.331  1.00 20.00     0.033 C 
HETATM   11  C7  UNL     1     -42.944   9.477  -0.054  1.00 20.00     0.007 C 
ENDBRANCH   2  10
TORSDOF 1
ENDMDL
MODEL 9
REMARK VINA RESULT:      -3.6     15.034     16.729
REMARK  1 active torsions:
REMARK  status: ('A' for Active; 'I' for Inactive)
REMARK    1  A    between atoms: C2_2  and  C8_8 
ROOT
HETATM    1  C1  UNL     1     -34.092  16.576  -4.020  1.00 20.00     0.203 C 
HETATM    2  C2  UNL     1     -35.202  15.683  -3.465  1.00 20.00     0.244 C 
HETATM    3  C3  UNL     1     -35.381  17.145  -1.558  1.00 20.00     0.245 C 
HETATM    4  C4  UNL     1     -34.260  18.033  -2.131  1.00 20.00     0.150 C 
HETATM    5  C5  UNL     1     -35.458  17.190  -0.034  1.00 20.00     0.045 C 
HETATM    6  C6  UNL     1     -32.864  17.788  -1.553  1.00 20.00     0.042 C 
HETATM    7  N9  UNL     1     -35.212  15.754  -1.998  1.00 20.00     0.097 N 
HETATM    8  O10 UNL     1     -34.240  17.921  -3.563  1.00 20.00    -0.382 OA
HETATM    9  H27 UNL     1     -35.971  15.180  -1.632  1.00 20.00     0.317 HD
ENDROOT
BRANCH   2  10
HETATM   10  C8  UNL     1     -35.010  14.236  -3.905  1.00 20.00     0.033 C 
HETATM   11  C7  UNL     1     -36.230  13.693  -4.574  1.00 20.00     0.007 C 
ENDBRANCH   2  10
TORSDOF 1
ENDMDL
