MODEL 1
REMARK VINA RESULT:      -3.6      0.000      0.000
REMARK  2 active torsions:
REMARK  status: ('A' for Active; 'I' for Inactive)
REMARK    1  A    between atoms: C4_4  and  C5_5 
REMARK    2  A    between atoms: C5_5  and  N6_6 
ROOT
HETATM    1  C1  UNL     1     -23.107  16.899   9.574  1.00 20.00     0.158 C 
HETATM    2  N6  UNL     1     -23.878  16.401  10.302  1.00 20.00    -0.264 NA
HETATM    3  S7  UNL     1     -22.058  17.544   8.564  1.00 20.00    -0.055 SA
ENDROOT
BRANCH   2   4
HETATM    4  C5  UNL     1     -24.350  17.277  11.387  1.00 20.00     0.060 C 
HETATM    5  C2  UNL     1     -25.308  16.457  12.258  1.00 20.00     0.041 C 
HETATM    6  C3  UNL     1     -23.133  17.697  12.217  1.00 20.00     0.041 C 
BRANCH   4   7
HETATM    7  C4  UNL     1     -25.099  18.474  10.783  1.00 20.00     0.147 C 
HETATM    8 CL8  UNL     1     -26.220  19.260  11.929  1.00 20.00    -0.128 Cl
ENDBRANCH   4   7
ENDBRANCH   2   4
TORSDOF 2
ENDMDL
MODEL 2
REMARK VINA RESULT:      -3.4      3.031      3.609
REMARK  2 active torsions:
REMARK  status: ('A' for Active; 'I' for Inactive)
REMARK    1  A    between atoms: C4_4  and  C5_5 
REMARK    2  A    between atoms: C5_5  and  N6_6 
ROOT
HETATM    1  C1  UNL     1     -25.397  18.535  10.951  1.00 20.00     0.158 C 
HETATM    2  N6  UNL     1     -24.502  18.357  10.217  1.00 20.00    -0.264 NA
HETATM    3  S7  UNL     1     -26.627  18.804  11.927  1.00 20.00    -0.055 SA
ENDROOT
BRANCH   2   4
HETATM    4  C5  UNL     1     -23.568  17.299  10.634  1.00 20.00     0.060 C 
HETATM    5  C2  UNL     1     -22.810  17.809  11.865  1.00 20.00     0.041 C 
HETATM    6  C3  UNL     1     -24.391  16.065  11.013  1.00 20.00     0.041 C 
BRANCH   4   7
HETATM    7  C4  UNL     1     -22.574  17.022   9.496  1.00 20.00     0.147 C 
HETATM    8 CL8  UNL     1     -21.429  18.362   9.214  1.00 20.00    -0.128 Cl
ENDBRANCH   4   7
ENDBRANCH   2   4
TORSDOF 2
ENDMDL
MODEL 3
REMARK VINA RESULT:      -3.4      2.416      2.921
REMARK  2 active torsions:
REMARK  status: ('A' for Active; 'I' for Inactive)
REMARK    1  A    between atoms: C4_4  and  C5_5 
REMARK    2  A    between atoms: C5_5  and  N6_6 
ROOT
HETATM    1  C1  UNL     1     -24.734  18.882   9.186  1.00 20.00     0.158 C 
HETATM    2  N6  UNL     1     -24.431  18.809  10.314  1.00 20.00    -0.264 NA
HETATM    3  S7  UNL     1     -25.171  19.009   7.659  1.00 20.00    -0.055 SA
ENDROOT
BRANCH   2   4
HETATM    4  C5  UNL     1     -23.390  17.810  10.606  1.00 20.00     0.060 C 
HETATM    5  C2  UNL     1     -22.187  18.120   9.709  1.00 20.00     0.041 C 
HETATM    6  C3  UNL     1     -22.988  17.962  12.076  1.00 20.00     0.041 C 
BRANCH   4   7
HETATM    7  C4  UNL     1     -23.927  16.408  10.280  1.00 20.00     0.147 C 
HETATM    8 CL8  UNL     1     -24.672  15.591  11.681  1.00 20.00    -0.128 Cl
ENDBRANCH   4   7
ENDBRANCH   2   4
TORSDOF 2
ENDMDL
MODEL 4
REMARK VINA RESULT:      -3.2     18.814     19.309
REMARK  2 active torsions:
REMARK  status: ('A' for Active; 'I' for Inactive)
REMARK    1  A    between atoms: C4_4  and  C5_5 
REMARK    2  A    between atoms: C5_5  and  N6_6 
ROOT
HETATM    1  C1  UNL     1     -36.249  14.147  -4.335  1.00 20.00     0.158 C 
HETATM    2  N6  UNL     1     -35.131  13.798  -4.336  1.00 20.00    -0.264 NA
HETATM    3  S7  UNL     1     -37.780  14.585  -4.334  1.00 20.00    -0.055 SA
ENDROOT
BRANCH   2   4
HETATM    4  C5  UNL     1     -34.148  14.893  -4.318  1.00 20.00     0.060 C 
HETATM    5  C2  UNL     1     -34.323  15.651  -2.997  1.00 20.00     0.041 C 
HETATM    6  C3  UNL     1     -32.749  14.273  -4.372  1.00 20.00     0.041 C 
BRANCH   4   7
HETATM    7  C4  UNL     1     -34.422  15.841  -5.495  1.00 20.00     0.147 C 
HETATM    8 CL8  UNL     1     -33.953  15.162  -7.077  1.00 20.00    -0.128 Cl
ENDBRANCH   4   7
ENDBRANCH   2   4
TORSDOF 2
ENDMDL
MODEL 5
REMARK VINA RESULT:      -3.2     19.640     20.157
REMARK  2 active torsions:
REMARK  status: ('A' for Active; 'I' for Inactive)
REMARK    1  A    between atoms: C4_4  and  C5_5 
REMARK    2  A    between atoms: C5_5  and  N6_6 
ROOT
HETATM    1  C1  UNL     1     -38.623  14.680  -4.278  1.00 20.00     0.158 C 
HETATM    2  N6  UNL     1     -37.704  13.955  -4.318  1.00 20.00    -0.264 NA
HETATM    3  S7  UNL     1     -39.895  15.636  -4.221  1.00 20.00    -0.055 SA
ENDROOT
BRANCH   2   4
HETATM    4  C5  UNL     1     -36.400  14.624  -4.453  1.00 20.00     0.060 C 
HETATM    5  C2  UNL     1     -35.313  13.576  -4.189  1.00 20.00     0.041 C 
HETATM    6  C3  UNL     1     -36.280  15.138  -5.891  1.00 20.00     0.041 C 
BRANCH   4   7
HETATM    7  C4  UNL     1     -36.296  15.747  -3.410  1.00 20.00     0.147 C 
HETATM    8 CL8  UNL     1     -34.792  15.686  -2.451  1.00 20.00    -0.128 Cl
ENDBRANCH   4   7
ENDBRANCH   2   4
TORSDOF 2
ENDMDL
MODEL 6
REMARK VINA RESULT:      -3.2      2.742      3.473
REMARK  2 active torsions:
REMARK  status: ('A' for Active; 'I' for Inactive)
REMARK    1  A    between atoms: C4_4  and  C5_5 
REMARK    2  A    between atoms: C5_5  and  N6_6 
ROOT
HETATM    1  C1  UNL     1     -24.184  16.589  10.526  1.00 20.00     0.158 C 
HETATM    2  N6  UNL     1     -23.531  16.493   9.558  1.00 20.00    -0.264 NA
HETATM    3  S7  UNL     1     -25.084  16.684  11.836  1.00 20.00    -0.055 SA
ENDROOT
BRANCH   2   4
HETATM    4  C5  UNL     1     -22.745  17.693   9.227  1.00 20.00     0.060 C 
HETATM    5  C2  UNL     1     -21.802  17.967  10.403  1.00 20.00     0.041 C 
HETATM    6  C3  UNL     1     -21.924  17.389   7.971  1.00 20.00     0.041 C 
BRANCH   4   7
HETATM    7  C4  UNL     1     -23.696  18.886   9.041  1.00 20.00     0.147 C 
HETATM    8 CL8  UNL     1     -24.539  18.881   7.468  1.00 20.00    -0.128 Cl
ENDBRANCH   4   7
ENDBRANCH   2   4
TORSDOF 2
ENDMDL
MODEL 7
REMARK VINA RESULT:      -3.2      2.726      3.300
REMARK  2 active torsions:
REMARK  status: ('A' for Active; 'I' for Inactive)
REMARK    1  A    between atoms: C4_4  and  C5_5 
REMARK    2  A    between atoms: C5_5  and  N6_6 
ROOT
HETATM    1  C1  UNL     1     -24.361  19.002   8.625  1.00 20.00     0.158 C 
HETATM    2  N6  UNL     1     -23.676  18.891   9.569  1.00 20.00    -0.264 NA
HETATM    3  S7  UNL     1     -25.303  19.185   7.355  1.00 20.00    -0.055 SA
ENDROOT
BRANCH   2   4
HETATM    4  C5  UNL     1     -22.886  17.650   9.611  1.00 20.00     0.060 C 
HETATM    5  C2  UNL     1     -23.825  16.518  10.042  1.00 20.00     0.041 C 
HETATM    6  C3  UNL     1     -22.364  17.374   8.198  1.00 20.00     0.041 C 
BRANCH   4   7
HETATM    7  C4  UNL     1     -21.757  17.802  10.642  1.00 20.00     0.147 C 
HETATM    8 CL8  UNL     1     -22.324  17.716  12.332  1.00 20.00    -0.128 Cl
ENDBRANCH   4   7
ENDBRANCH   2   4
TORSDOF 2
ENDMDL
MODEL 8
REMARK VINA RESULT:      -3.2      1.901      2.093
REMARK  2 active torsions:
REMARK  status: ('A' for Active; 'I' for Inactive)
REMARK    1  A    between atoms: C4_4  and  C5_5 
REMARK    2  A    between atoms: C5_5  and  N6_6 
ROOT
HETATM    1  C1  UNL     1     -23.743  17.625   9.500  1.00 20.00     0.158 C 
HETATM    2  N6  UNL     1     -24.728  17.784  10.114  1.00 20.00    -0.264 NA
HETATM    3  S7  UNL     1     -22.423  17.421   8.634  1.00 20.00    -0.055 SA
ENDROOT
BRANCH   2   4
HETATM    4  C5  UNL     1     -24.618  17.452  11.544  1.00 20.00     0.060 C 
HETATM    5  C2  UNL     1     -26.003  17.647  12.171  1.00 20.00     0.041 C 
HETATM    6  C3  UNL     1     -24.205  15.982  11.657  1.00 20.00     0.041 C 
BRANCH   4   7
HETATM    7  C4  UNL     1     -23.613  18.404  12.210  1.00 20.00     0.147 C 
HETATM    8 CL8  UNL     1     -21.967  17.725  12.332  1.00 20.00    -0.128 Cl
ENDBRANCH   4   7
ENDBRANCH   2   4
TORSDOF 2
ENDMDL
MODEL 9
REMARK VINA RESULT:      -3.1     18.590     19.151
REMARK  2 active torsions:
REMARK  status: ('A' for Active; 'I' for Inactive)
REMARK    1  A    between atoms: C4_4  and  C5_5 
REMARK    2  A    between atoms: C5_5  and  N6_6 
ROOT
HETATM    1  C1  UNL     1     -36.385  14.172  -4.399  1.00 20.00     0.158 C 
HETATM    2  N6  UNL     1     -35.265  13.831  -4.412  1.00 20.00    -0.264 NA
HETATM    3  S7  UNL     1     -37.919  14.601  -4.369  1.00 20.00    -0.055 SA
ENDROOT
BRANCH   2   4
HETATM    4  C5  UNL     1     -34.309  14.881  -4.800  1.00 20.00     0.060 C 
HETATM    5  C2  UNL     1     -32.906  14.390  -4.425  1.00 20.00     0.041 C 
HETATM    6  C3  UNL     1     -34.400  15.067  -6.317  1.00 20.00     0.041 C 
BRANCH   4   7
HETATM    7  C4  UNL     1     -34.627  16.169  -4.024  1.00 20.00     0.147 C 
HETATM    8 CL8  UNL     1     -34.102  16.117  -2.319  1.00 20.00    -0.128 Cl
ENDBRANCH   4   7
ENDBRANCH   2   4
TORSDOF 2
ENDMDL
