MODEL 1
REMARK VINA RESULT:      -4.6      0.000      0.000
REMARK  1 active torsions:
REMARK  status: ('A' for Active; 'I' for Inactive)
REMARK    1  A    between atoms: C1_1  and  C2_2 
ROOT
HETATM    1  C1  UNL     1     -34.826   5.363   4.444  1.00 20.00     0.417 C 
HETATM    2  F3  UNL     1     -36.094   5.533   3.994  1.00 20.00    -0.208 F 
HETATM    3  F4  UNL     1     -34.489   4.074   4.202  1.00 20.00    -0.208 F 
ENDROOT
BRANCH   1   4
HETATM    4  C2  UNL     1     -34.777   5.633   5.921  1.00 20.00     0.417 C 
HETATM    5  F5  UNL     1     -34.068   4.661   6.541  1.00 20.00    -0.208 F 
HETATM    6  F6  UNL     1     -34.128   6.803   6.147  1.00 20.00    -0.208 F 
ENDBRANCH   1   4
TORSDOF 1
ENDMDL
MODEL 2
REMARK VINA RESULT:      -4.6      0.034      2.472
REMARK  1 active torsions:
REMARK  status: ('A' for Active; 'I' for Inactive)
REMARK    1  A    between atoms: C1_1  and  C2_2 
ROOT
HETATM    1  C1  UNL     1     -34.797   5.613   5.926  1.00 20.00     0.417 C 
HETATM    2  F3  UNL     1     -34.199   6.805   6.167  1.00 20.00    -0.208 F 
HETATM    3  F4  UNL     1     -34.050   4.664   6.539  1.00 20.00    -0.208 F 
ENDROOT
BRANCH   1   4
HETATM    4  C2  UNL     1     -34.830   5.357   4.446  1.00 20.00     0.417 C 
HETATM    5  F5  UNL     1     -34.487   4.072   4.195  1.00 20.00    -0.208 F 
HETATM    6  F6  UNL     1     -36.095   5.528   3.984  1.00 20.00    -0.208 F 
ENDBRANCH   1   4
TORSDOF 1
ENDMDL
MODEL 3
REMARK VINA RESULT:      -4.4      0.615      1.307
REMARK  1 active torsions:
REMARK  status: ('A' for Active; 'I' for Inactive)
REMARK    1  A    between atoms: C1_1  and  C2_2 
ROOT
HETATM    1  C1  UNL     1     -34.685   5.327   4.303  1.00 20.00     0.417 C 
HETATM    2  F3  UNL     1     -36.008   5.542   4.096  1.00 20.00    -0.208 F 
HETATM    3  F4  UNL     1     -34.441   4.032   3.996  1.00 20.00    -0.208 F 
ENDROOT
BRANCH   1   4
HETATM    4  C2  UNL     1     -34.357   5.578   5.748  1.00 20.00     0.417 C 
HETATM    5  F5  UNL     1     -34.259   6.910   5.971  1.00 20.00    -0.208 F 
HETATM    6  F6  UNL     1     -35.367   5.119   6.530  1.00 20.00    -0.208 F 
ENDBRANCH   1   4
TORSDOF 1
ENDMDL
MODEL 4
REMARK VINA RESULT:      -4.3      0.652      2.562
REMARK  1 active torsions:
REMARK  status: ('A' for Active; 'I' for Inactive)
REMARK    1  A    between atoms: C1_1  and  C2_2 
ROOT
HETATM    1  C1  UNL     1     -34.381   5.499   5.796  1.00 20.00     0.417 C 
HETATM    2  F3  UNL     1     -35.467   5.102   6.504  1.00 20.00    -0.208 F 
HETATM    3  F4  UNL     1     -34.179   6.807   6.081  1.00 20.00    -0.208 F 
ENDROOT
BRANCH   1   4
HETATM    4  C2  UNL     1     -34.653   5.334   4.327  1.00 20.00     0.417 C 
HETATM    5  F5  UNL     1     -34.276   4.097   3.928  1.00 20.00    -0.208 F 
HETATM    6  F6  UNL     1     -35.986   5.436   4.098  1.00 20.00    -0.208 F 
ENDBRANCH   1   4
TORSDOF 1
ENDMDL
MODEL 5
REMARK VINA RESULT:      -4.3      1.352      1.827
REMARK  1 active torsions:
REMARK  status: ('A' for Active; 'I' for Inactive)
REMARK    1  A    between atoms: C1_1  and  C2_2 
ROOT
HETATM    1  C1  UNL     1     -34.818   5.348   4.874  1.00 20.00     0.417 C 
HETATM    2  F3  UNL     1     -35.962   5.438   4.152  1.00 20.00    -0.208 F 
HETATM    3  F4  UNL     1     -35.176   5.066   6.149  1.00 20.00    -0.208 F 
ENDROOT
BRANCH   1   4
HETATM    4  C2  UNL     1     -34.091   6.662   4.829  1.00 20.00     0.417 C 
HETATM    5  F5  UNL     1     -33.422   6.856   5.991  1.00 20.00    -0.208 F 
HETATM    6  F6  UNL     1     -33.164   6.635   3.838  1.00 20.00    -0.208 F 
ENDBRANCH   1   4
TORSDOF 1
ENDMDL
MODEL 6
REMARK VINA RESULT:      -4.3      1.388      2.456
REMARK  1 active torsions:
REMARK  status: ('A' for Active; 'I' for Inactive)
REMARK    1  A    between atoms: C1_1  and  C2_2 
ROOT
HETATM    1  C1  UNL     1     -34.078   6.656   4.715  1.00 20.00     0.417 C 
HETATM    2  F3  UNL     1     -33.155   6.559   3.726  1.00 20.00    -0.208 F 
HETATM    3  F4  UNL     1     -33.404   6.911   5.862  1.00 20.00    -0.208 F 
ENDROOT
BRANCH   1   4
HETATM    4  C2  UNL     1     -34.820   5.356   4.839  1.00 20.00     0.417 C 
HETATM    5  F5  UNL     1     -35.149   5.138   6.134  1.00 20.00    -0.208 F 
HETATM    6  F6  UNL     1     -35.981   5.428   4.142  1.00 20.00    -0.208 F 
ENDBRANCH   1   4
TORSDOF 1
ENDMDL
MODEL 7
REMARK VINA RESULT:      -4.3      1.077      2.686
REMARK  1 active torsions:
REMARK  status: ('A' for Active; 'I' for Inactive)
REMARK    1  A    between atoms: C1_1  and  C2_2 
ROOT
HETATM    1  C1  UNL     1     -34.058   6.190   5.285  1.00 20.00     0.417 C 
HETATM    2  F3  UNL     1     -34.460   6.863   6.391  1.00 20.00    -0.208 F 
HETATM    3  F4  UNL     1     -34.073   7.072   4.258  1.00 20.00    -0.208 F 
ENDROOT
BRANCH   1   4
HETATM    4  C2  UNL     1     -35.016   5.066   5.005  1.00 20.00     0.417 C 
HETATM    5  F5  UNL     1     -35.970   5.482   4.140  1.00 20.00    -0.208 F 
HETATM    6  F6  UNL     1     -34.354   4.045   4.405  1.00 20.00    -0.208 F 
ENDBRANCH   1   4
TORSDOF 1
ENDMDL
MODEL 8
REMARK VINA RESULT:      -4.3      1.209      2.259
REMARK  1 active torsions:
REMARK  status: ('A' for Active; 'I' for Inactive)
REMARK    1  A    between atoms: C1_1  and  C2_2 
ROOT
HETATM    1  C1  UNL     1     -34.259   6.364   4.458  1.00 20.00     0.417 C 
HETATM    2  F3  UNL     1     -33.401   6.094   3.443  1.00 20.00    -0.208 F 
HETATM    3  F4  UNL     1     -33.529   6.910   5.459  1.00 20.00    -0.208 F 
ENDROOT
BRANCH   1   4
HETATM    4  C2  UNL     1     -34.896   5.087   4.930  1.00 20.00     0.417 C 
HETATM    5  F5  UNL     1     -34.375   4.037   4.253  1.00 20.00    -0.208 F 
HETATM    6  F6  UNL     1     -34.608   4.895   6.242  1.00 20.00    -0.208 F 
ENDBRANCH   1   4
TORSDOF 1
ENDMDL
MODEL 9
REMARK VINA RESULT:      -4.2      1.241      2.058
REMARK  1 active torsions:
REMARK  status: ('A' for Active; 'I' for Inactive)
REMARK    1  A    between atoms: C1_1  and  C2_2 
ROOT
HETATM    1  C1  UNL     1     -34.922   5.175   4.915  1.00 20.00     0.417 C 
HETATM    2  F3  UNL     1     -34.672   4.952   6.229  1.00 20.00    -0.208 F 
HETATM    3  F4  UNL     1     -34.432   4.112   4.233  1.00 20.00    -0.208 F 
ENDROOT
BRANCH   1   4
HETATM    4  C2  UNL     1     -34.221   6.429   4.475  1.00 20.00     0.417 C 
HETATM    5  F5  UNL     1     -33.490   6.928   5.500  1.00 20.00    -0.208 F 
HETATM    6  F6  UNL     1     -33.353   6.136   3.474  1.00 20.00    -0.208 F 
ENDBRANCH   1   4
TORSDOF 1
ENDMDL
