MODEL 1
REMARK VINA RESULT:      -5.0      0.000      0.000
REMARK  5 active torsions:
REMARK  status: ('A' for Active; 'I' for Inactive)
REMARK    1  A    between atoms: C1_1  and  C3_3 
REMARK    2  A    between atoms: C3_3  and  C4_4 
REMARK    3  A    between atoms: C4_4  and  C5_5 
REMARK    4  A    between atoms: C5_5  and  C6_6 
REMARK    5  A    between atoms: C6_6  and  C7_7 
ROOT
HETATM    1  C4  UNL     1     -33.696   5.018   2.495  1.00 20.00     0.004 C 
ENDROOT
BRANCH   1   2
HETATM    2  C3  UNL     1     -32.507   5.944   2.754  1.00 20.00     0.028 C 
BRANCH   2   3
HETATM    3  C1  UNL     1     -32.815   7.354   2.341  1.00 20.00    -0.015 C 
HETATM    4  C2  UNL     1     -32.499   7.855   1.145  1.00 20.00     0.080 C 
HETATM    5 CL8  UNL     1     -32.863   9.464   0.680  1.00 20.00    -0.097 Cl
ENDBRANCH   2   3
ENDBRANCH   1   2
BRANCH   1   6
HETATM    6  C5  UNL     1     -34.124   4.293   3.775  1.00 20.00     0.001 C 
BRANCH   6   7
HETATM    7  C6  UNL     1     -35.184   5.094   4.537  1.00 20.00     0.015 C 
BRANCH   7   8
HETATM    8  C7  UNL     1     -34.763   5.449   5.960  1.00 20.00     0.114 C 
HETATM    9 CL9  UNL     1     -33.799   6.942   6.020  1.00 20.00    -0.130 Cl
ENDBRANCH   7   8
ENDBRANCH   6   7
ENDBRANCH   1   6
TORSDOF 5
ENDMDL
MODEL 2
REMARK VINA RESULT:      -4.5      1.767      2.125
REMARK  5 active torsions:
REMARK  status: ('A' for Active; 'I' for Inactive)
REMARK    1  A    between atoms: C1_1  and  C3_3 
REMARK    2  A    between atoms: C3_3  and  C4_4 
REMARK    3  A    between atoms: C4_4  and  C5_5 
REMARK    4  A    between atoms: C5_5  and  C6_6 
REMARK    5  A    between atoms: C6_6  and  C7_7 
ROOT
HETATM    1  C4  UNL     1     -33.735   7.218   4.160  1.00 20.00     0.004 C 
ENDROOT
BRANCH   1   2
HETATM    2  C3  UNL     1     -32.378   7.149   3.458  1.00 20.00     0.028 C 
BRANCH   2   3
HETATM    3  C1  UNL     1     -32.527   7.293   1.971  1.00 20.00    -0.015 C 
HETATM    4  C2  UNL     1     -32.890   8.432   1.376  1.00 20.00     0.080 C 
HETATM    5 CL8  UNL     1     -33.049   8.588  -0.323  1.00 20.00    -0.097 Cl
ENDBRANCH   2   3
ENDBRANCH   1   2
BRANCH   1   6
HETATM    6  C5  UNL     1     -33.623   6.797   5.629  1.00 20.00     0.001 C 
BRANCH   6   7
HETATM    7  C6  UNL     1     -34.578   5.644   5.949  1.00 20.00     0.015 C 
BRANCH   7   8
HETATM    8  C7  UNL     1     -35.247   5.054   4.712  1.00 20.00     0.114 C 
HETATM    9 CL9  UNL     1     -34.174   3.934   3.842  1.00 20.00    -0.130 Cl
ENDBRANCH   7   8
ENDBRANCH   6   7
ENDBRANCH   1   6
TORSDOF 5
ENDMDL
MODEL 3
REMARK VINA RESULT:      -3.6      1.102      4.894
REMARK  5 active torsions:
REMARK  status: ('A' for Active; 'I' for Inactive)
REMARK    1  A    between atoms: C1_1  and  C3_3 
REMARK    2  A    between atoms: C3_3  and  C4_4 
REMARK    3  A    between atoms: C4_4  and  C5_5 
REMARK    4  A    between atoms: C5_5  and  C6_6 
REMARK    5  A    between atoms: C6_6  and  C7_7 
ROOT
HETATM    1  C4  UNL     1     -32.881   5.295   2.240  1.00 20.00     0.004 C 
ENDROOT
BRANCH   1   2
HETATM    2  C3  UNL     1     -34.010   4.516   2.916  1.00 20.00     0.028 C 
BRANCH   2   3
HETATM    3  C1  UNL     1     -34.598   5.291   4.059  1.00 20.00    -0.015 C 
HETATM    4  C2  UNL     1     -34.530   4.891   5.331  1.00 20.00     0.080 C 
HETATM    5 CL8  UNL     1     -35.199   5.788   6.629  1.00 20.00    -0.097 Cl
ENDBRANCH   2   3
ENDBRANCH   1   2
BRANCH   1   6
HETATM    6  C5  UNL     1     -32.863   6.757   2.698  1.00 20.00     0.001 C 
BRANCH   6   7
HETATM    7  C6  UNL     1     -32.115   7.642   1.695  1.00 20.00     0.015 C 
BRANCH   7   8
HETATM    8  C7  UNL     1     -32.941   8.829   1.207  1.00 20.00     0.114 C 
HETATM    9 CL9  UNL     1     -33.480   8.621  -0.475  1.00 20.00    -0.130 Cl
ENDBRANCH   7   8
ENDBRANCH   6   7
ENDBRANCH   1   6
TORSDOF 5
ENDMDL
MODEL 4
REMARK VINA RESULT:      -3.5     11.318     12.317
REMARK  5 active torsions:
REMARK  status: ('A' for Active; 'I' for Inactive)
REMARK    1  A    between atoms: C1_1  and  C3_3 
REMARK    2  A    between atoms: C3_3  and  C4_4 
REMARK    3  A    between atoms: C4_4  and  C5_5 
REMARK    4  A    between atoms: C5_5  and  C6_6 
REMARK    5  A    between atoms: C6_6  and  C7_7 
ROOT
HETATM    1  C4  UNL     1     -34.156  17.257  -1.596  1.00 20.00     0.004 C 
ENDROOT
BRANCH   1   2
HETATM    2  C3  UNL     1     -32.736  17.804  -1.748  1.00 20.00     0.028 C 
BRANCH   2   3
HETATM    3  C1  UNL     1     -32.216  18.336  -0.445  1.00 20.00    -0.015 C 
HETATM    4  C2  UNL     1     -30.923  18.324  -0.110  1.00 20.00     0.080 C 
HETATM    5 CL8  UNL     1     -30.338  18.941   1.378  1.00 20.00    -0.097 Cl
ENDBRANCH   2   3
ENDBRANCH   1   2
BRANCH   1   6
HETATM    6  C5  UNL     1     -34.351  15.981  -2.422  1.00 20.00     0.001 C 
BRANCH   6   7
HETATM    7  C6  UNL     1     -33.275  15.852  -3.504  1.00 20.00     0.015 C 
BRANCH   7   8
HETATM    8  C7  UNL     1     -33.423  14.594  -4.354  1.00 20.00     0.114 C 
HETATM    9 CL9  UNL     1     -34.934  13.723  -4.002  1.00 20.00    -0.130 Cl
ENDBRANCH   7   8
ENDBRANCH   6   7
ENDBRANCH   1   6
TORSDOF 5
ENDMDL
MODEL 5
REMARK VINA RESULT:      -3.4     11.311     12.180
REMARK  5 active torsions:
REMARK  status: ('A' for Active; 'I' for Inactive)
REMARK    1  A    between atoms: C1_1  and  C3_3 
REMARK    2  A    between atoms: C3_3  and  C4_4 
REMARK    3  A    between atoms: C4_4  and  C5_5 
REMARK    4  A    between atoms: C5_5  and  C6_6 
REMARK    5  A    between atoms: C6_6  and  C7_7 
ROOT
HETATM    1  C4  UNL     1     -33.264  15.773  -3.580  1.00 20.00     0.004 C 
ENDROOT
BRANCH   1   2
HETATM    2  C3  UNL     1     -34.236  16.162  -2.465  1.00 20.00     0.028 C 
BRANCH   2   3
HETATM    3  C1  UNL     1     -33.691  17.289  -1.637  1.00 20.00    -0.015 C 
HETATM    4  C2  UNL     1     -32.521  17.883  -1.884  1.00 20.00     0.080 C 
HETATM    5 CL8  UNL     1     -31.912  19.174  -0.937  1.00 20.00    -0.097 Cl
ENDBRANCH   2   3
ENDBRANCH   1   2
BRANCH   1   6
HETATM    6  C5  UNL     1     -33.755  14.536  -4.339  1.00 20.00     0.001 C 
BRANCH   6   7
HETATM    7  C6  UNL     1     -35.094  14.041  -3.784  1.00 20.00     0.015 C 
BRANCH   7   8
HETATM    8  C7  UNL     1     -36.142  13.799  -4.866  1.00 20.00     0.114 C 
HETATM    9 CL9  UNL     1     -35.680  14.529  -6.420  1.00 20.00    -0.130 Cl
ENDBRANCH   7   8
ENDBRANCH   6   7
ENDBRANCH   1   6
TORSDOF 5
ENDMDL
MODEL 6
REMARK VINA RESULT:      -3.4     11.335     12.373
REMARK  5 active torsions:
REMARK  status: ('A' for Active; 'I' for Inactive)
REMARK    1  A    between atoms: C1_1  and  C3_3 
REMARK    2  A    between atoms: C3_3  and  C4_4 
REMARK    3  A    between atoms: C4_4  and  C5_5 
REMARK    4  A    between atoms: C5_5  and  C6_6 
REMARK    5  A    between atoms: C6_6  and  C7_7 
ROOT
HETATM    1  C4  UNL     1     -34.737  15.771  -2.621  1.00 20.00     0.004 C 
ENDROOT
BRANCH   1   2
HETATM    2  C3  UNL     1     -34.721  14.558  -3.553  1.00 20.00     0.028 C 
BRANCH   2   3
HETATM    3  C1  UNL     1     -33.998  14.865  -4.832  1.00 20.00    -0.015 C 
HETATM    4  C2  UNL     1     -34.596  14.892  -6.026  1.00 20.00     0.080 C 
HETATM    5 CL8  UNL     1     -33.762  15.251  -7.479  1.00 20.00    -0.097 Cl
ENDBRANCH   2   3
ENDBRANCH   1   2
BRANCH   1   6
HETATM    6  C5  UNL     1     -33.372  16.465  -2.588  1.00 20.00     0.001 C 
BRANCH   6   7
HETATM    7  C6  UNL     1     -33.366  17.629  -1.592  1.00 20.00     0.015 C 
BRANCH   7   8
HETATM    8  C7  UNL     1     -32.132  18.518  -1.711  1.00 20.00     0.114 C 
HETATM    9 CL9  UNL     1     -30.982  18.247  -0.381  1.00 20.00    -0.130 Cl
ENDBRANCH   7   8
ENDBRANCH   6   7
ENDBRANCH   1   6
TORSDOF 5
ENDMDL
MODEL 7
REMARK VINA RESULT:      -3.4     11.378     12.465
REMARK  5 active torsions:
REMARK  status: ('A' for Active; 'I' for Inactive)
REMARK    1  A    between atoms: C1_1  and  C3_3 
REMARK    2  A    between atoms: C3_3  and  C4_4 
REMARK    3  A    between atoms: C4_4  and  C5_5 
REMARK    4  A    between atoms: C5_5  and  C6_6 
REMARK    5  A    between atoms: C6_6  and  C7_7 
ROOT
HETATM    1  C4  UNL     1     -33.161  16.639  -2.706  1.00 20.00     0.004 C 
ENDROOT
BRANCH   1   2
HETATM    2  C3  UNL     1     -33.263  18.062  -2.156  1.00 20.00     0.028 C 
BRANCH   2   3
HETATM    3  C1  UNL     1     -32.641  18.165  -0.794  1.00 20.00    -0.015 C 
HETATM    4  C2  UNL     1     -31.326  18.272  -0.592  1.00 20.00     0.080 C 
HETATM    5 CL8  UNL     1     -30.627  18.396   0.967  1.00 20.00    -0.097 Cl
ENDBRANCH   2   3
ENDBRANCH   1   2
BRANCH   1   6
HETATM    6  C5  UNL     1     -34.473  15.872  -2.511  1.00 20.00     0.001 C 
BRANCH   6   7
HETATM    7  C6  UNL     1     -34.622  14.757  -3.550  1.00 20.00     0.015 C 
BRANCH   7   8
HETATM    8  C7  UNL     1     -33.415  14.628  -4.474  1.00 20.00     0.114 C 
HETATM    9 CL9  UNL     1     -33.842  14.913  -6.177  1.00 20.00    -0.130 Cl
ENDBRANCH   7   8
ENDBRANCH   6   7
ENDBRANCH   1   6
TORSDOF 5
ENDMDL
MODEL 8
REMARK VINA RESULT:      -3.4     15.873     16.544
REMARK  5 active torsions:
REMARK  status: ('A' for Active; 'I' for Inactive)
REMARK    1  A    between atoms: C1_1  and  C3_3 
REMARK    2  A    between atoms: C3_3  and  C4_4 
REMARK    3  A    between atoms: C4_4  and  C5_5 
REMARK    4  A    between atoms: C5_5  and  C6_6 
REMARK    5  A    between atoms: C6_6  and  C7_7 
ROOT
HETATM    1  C4  UNL     1     -23.408  17.015  10.137  1.00 20.00     0.004 C 
ENDROOT
BRANCH   1   2
HETATM    2  C3  UNL     1     -22.870  18.393   9.749  1.00 20.00     0.028 C 
BRANCH   2   3
HETATM    3  C1  UNL     1     -23.799  19.092   8.800  1.00 20.00    -0.015 C 
HETATM    4  C2  UNL     1     -24.682  18.452   8.030  1.00 20.00     0.080 C 
HETATM    5 CL8  UNL     1     -25.744  19.260   6.955  1.00 20.00    -0.097 Cl
ENDBRANCH   2   3
ENDBRANCH   1   2
BRANCH   1   6
HETATM    6  C5  UNL     1     -23.443  16.841  11.659  1.00 20.00     0.001 C 
BRANCH   6   7
HETATM    7  C6  UNL     1     -24.203  17.988  12.330  1.00 20.00     0.015 C 
BRANCH   7   8
HETATM    8  C7  UNL     1     -25.718  17.876  12.181  1.00 20.00     0.114 C 
HETATM    9 CL9  UNL     1     -26.408  19.263  11.307  1.00 20.00    -0.130 Cl
ENDBRANCH   7   8
ENDBRANCH   6   7
ENDBRANCH   1   6
TORSDOF 5
ENDMDL
MODEL 9
REMARK VINA RESULT:      -3.4     11.341     12.137
REMARK  5 active torsions:
REMARK  status: ('A' for Active; 'I' for Inactive)
REMARK    1  A    between atoms: C1_1  and  C3_3 
REMARK    2  A    between atoms: C3_3  and  C4_4 
REMARK    3  A    between atoms: C4_4  and  C5_5 
REMARK    4  A    between atoms: C5_5  and  C6_6 
REMARK    5  A    between atoms: C6_6  and  C7_7 
ROOT
HETATM    1  C4  UNL     1     -33.314  16.483  -2.738  1.00 20.00     0.004 C 
ENDROOT
BRANCH   1   2
HETATM    2  C3  UNL     1     -34.659  16.127  -2.101  1.00 20.00     0.028 C 
BRANCH   2   3
HETATM    3  C1  UNL     1     -35.567  15.453  -3.088  1.00 20.00    -0.015 C 
HETATM    4  C2  UNL     1     -35.179  14.445  -3.873  1.00 20.00     0.080 C 
HETATM    5 CL8  UNL     1     -36.226  13.677  -4.991  1.00 20.00    -0.097 Cl
ENDBRANCH   2   3
ENDBRANCH   1   2
BRANCH   1   6
HETATM    6  C5  UNL     1     -32.667  17.682  -2.037  1.00 20.00     0.001 C 
BRANCH   6   7
HETATM    7  C6  UNL     1     -33.453  18.081  -0.784  1.00 20.00     0.015 C 
BRANCH   7   8
HETATM    8  C7  UNL     1     -32.562  18.543   0.365  1.00 20.00     0.114 C 
HETATM    9 CL9  UNL     1     -30.839  18.251   0.034  1.00 20.00    -0.130 Cl
ENDBRANCH   7   8
ENDBRANCH   6   7
ENDBRANCH   1   6
TORSDOF 5
ENDMDL
