MODEL 1
REMARK VINA RESULT:      -4.6      0.000      0.000
REMARK  3 active torsions:
REMARK  status: ('A' for Active; 'I' for Inactive)
REMARK    1  A    between atoms: C3_3  and  C4_4 
REMARK    2  A    between atoms: C4_4  and  C5_5 
REMARK    3  A    between atoms: C5_5  and  C6_6 
ROOT
HETATM    1  C4  UNL     1     -33.329   5.071   2.634  1.00 20.00     0.005 C 
ENDROOT
BRANCH   1   2
HETATM    2  C3  UNL     1     -33.279   6.572   2.867  1.00 20.00    -0.014 A 
HETATM    3  C1  UNL     1     -31.986   7.236   3.252  1.00 20.00     0.005 A 
HETATM    4  C2  UNL     1     -32.572   7.467   1.886  1.00 20.00     0.005 A 
ENDBRANCH   1   2
BRANCH   1   5
HETATM    5  C5  UNL     1     -34.161   4.364   3.705  1.00 20.00     0.015 C 
BRANCH   5   6
HETATM    6  C6  UNL     1     -35.111   5.338   4.390  1.00 20.00     0.114 C 
HETATM    7 CL7  UNL     1     -34.634   5.580   6.087  1.00 20.00    -0.130 Cl
ENDBRANCH   5   6
ENDBRANCH   1   5
TORSDOF 3
ENDMDL
MODEL 2
REMARK VINA RESULT:      -4.5      2.394      3.636
REMARK  3 active torsions:
REMARK  status: ('A' for Active; 'I' for Inactive)
REMARK    1  A    between atoms: C3_3  and  C4_4 
REMARK    2  A    between atoms: C4_4  and  C5_5 
REMARK    3  A    between atoms: C5_5  and  C6_6 
ROOT
HETATM    1  C4  UNL     1     -33.846   4.816   3.694  1.00 20.00     0.005 C 
ENDROOT
BRANCH   1   2
HETATM    2  C3  UNL     1     -34.723   5.656   4.608  1.00 20.00    -0.014 A 
HETATM    3  C1  UNL     1     -34.936   5.246   6.040  1.00 20.00     0.005 A 
HETATM    4  C2  UNL     1     -34.107   6.460   5.720  1.00 20.00     0.005 A 
ENDBRANCH   1   2
BRANCH   1   5
HETATM    5  C5  UNL     1     -33.482   5.572   2.415  1.00 20.00     0.015 C 
BRANCH   5   6
HETATM    6  C6  UNL     1     -32.582   6.761   2.721  1.00 20.00     0.114 C 
HETATM    7 CL7  UNL     1     -32.601   7.917   1.368  1.00 20.00    -0.130 Cl
ENDBRANCH   5   6
ENDBRANCH   1   5
TORSDOF 3
ENDMDL
MODEL 3
REMARK VINA RESULT:      -4.5      2.672      4.004
REMARK  3 active torsions:
REMARK  status: ('A' for Active; 'I' for Inactive)
REMARK    1  A    between atoms: C3_3  and  C4_4 
REMARK    2  A    between atoms: C4_4  and  C5_5 
REMARK    3  A    between atoms: C5_5  and  C6_6 
ROOT
HETATM    1  C4  UNL     1     -33.316   6.006   3.385  1.00 20.00     0.005 C 
ENDROOT
BRANCH   1   2
HETATM    2  C3  UNL     1     -34.368   6.350   4.426  1.00 20.00    -0.014 A 
HETATM    3  C1  UNL     1     -34.768   5.336   5.462  1.00 20.00     0.005 A 
HETATM    4  C2  UNL     1     -33.974   6.548   5.864  1.00 20.00     0.005 A 
ENDBRANCH   1   2
BRANCH   1   5
HETATM    5  C5  UNL     1     -32.515   7.240   2.968  1.00 20.00     0.015 C 
BRANCH   5   6
HETATM    6  C6  UNL     1     -32.499   7.395   1.453  1.00 20.00     0.114 C 
HETATM    7 CL7  UNL     1     -32.909   9.065   0.996  1.00 20.00    -0.130 Cl
ENDBRANCH   5   6
ENDBRANCH   1   5
TORSDOF 3
ENDMDL
MODEL 4
REMARK VINA RESULT:      -4.0      1.535      1.996
REMARK  3 active torsions:
REMARK  status: ('A' for Active; 'I' for Inactive)
REMARK    1  A    between atoms: C3_3  and  C4_4 
REMARK    2  A    between atoms: C4_4  and  C5_5 
REMARK    3  A    between atoms: C5_5  and  C6_6 
ROOT
HETATM    1  C4  UNL     1     -33.977   7.111   4.305  1.00 20.00     0.005 C 
ENDROOT
BRANCH   1   2
HETATM    2  C3  UNL     1     -32.729   6.779   3.504  1.00 20.00    -0.014 A 
HETATM    3  C1  UNL     1     -32.814   5.857   2.319  1.00 20.00     0.005 A 
HETATM    4  C2  UNL     1     -32.555   7.324   2.114  1.00 20.00     0.005 A 
ENDBRANCH   1   2
BRANCH   1   5
HETATM    5  C5  UNL     1     -33.835   6.689   5.768  1.00 20.00     0.015 C 
BRANCH   5   6
HETATM    6  C6  UNL     1     -34.615   5.411   6.047  1.00 20.00     0.114 C 
HETATM    7 CL7  UNL     1     -35.399   4.827   4.560  1.00 20.00    -0.130 Cl
ENDBRANCH   5   6
ENDBRANCH   1   5
TORSDOF 3
ENDMDL
MODEL 5
REMARK VINA RESULT:      -3.9      1.219      1.979
REMARK  3 active torsions:
REMARK  status: ('A' for Active; 'I' for Inactive)
REMARK    1  A    between atoms: C3_3  and  C4_4 
REMARK    2  A    between atoms: C4_4  and  C5_5 
REMARK    3  A    between atoms: C5_5  and  C6_6 
ROOT
HETATM    1  C4  UNL     1     -34.298   4.355   4.111  1.00 20.00     0.005 C 
ENDROOT
BRANCH   1   2
HETATM    2  C3  UNL     1     -34.047   5.070   2.794  1.00 20.00    -0.014 A 
HETATM    3  C1  UNL     1     -32.867   5.991   2.645  1.00 20.00     0.005 A 
HETATM    4  C2  UNL     1     -32.887   4.671   1.925  1.00 20.00     0.005 A 
ENDBRANCH   1   2
BRANCH   1   5
HETATM    5  C5  UNL     1     -35.326   5.098   4.966  1.00 20.00     0.015 C 
BRANCH   5   6
HETATM    6  C6  UNL     1     -34.689   5.637   6.240  1.00 20.00     0.114 C 
HETATM    7 CL7  UNL     1     -33.694   7.067   5.879  1.00 20.00    -0.130 Cl
ENDBRANCH   5   6
ENDBRANCH   1   5
TORSDOF 3
ENDMDL
MODEL 6
REMARK VINA RESULT:      -3.8      1.563      2.365
REMARK  3 active torsions:
REMARK  status: ('A' for Active; 'I' for Inactive)
REMARK    1  A    between atoms: C3_3  and  C4_4 
REMARK    2  A    between atoms: C4_4  and  C5_5 
REMARK    3  A    between atoms: C5_5  and  C6_6 
ROOT
HETATM    1  C4  UNL     1     -32.342   7.274   2.148  1.00 20.00     0.005 C 
ENDROOT
BRANCH   1   2
HETATM    2  C3  UNL     1     -33.269   8.107   1.278  1.00 20.00    -0.014 A 
HETATM    3  C1  UNL     1     -32.857   9.484   0.835  1.00 20.00     0.005 A 
HETATM    4  C2  UNL     1     -32.927   8.363  -0.164  1.00 20.00     0.005 A 
ENDBRANCH   1   2
BRANCH   1   5
HETATM    5  C5  UNL     1     -33.068   6.070   2.750  1.00 20.00     0.015 C 
BRANCH   5   6
HETATM    6  C6  UNL     1     -33.841   6.467   4.000  1.00 20.00     0.114 C 
HETATM    7 CL7  UNL     1     -35.119   5.278   4.343  1.00 20.00    -0.130 Cl
ENDBRANCH   5   6
ENDBRANCH   1   5
TORSDOF 3
ENDMDL
MODEL 7
REMARK VINA RESULT:      -3.6      2.121      3.615
REMARK  3 active torsions:
REMARK  status: ('A' for Active; 'I' for Inactive)
REMARK    1  A    between atoms: C3_3  and  C4_4 
REMARK    2  A    between atoms: C4_4  and  C5_5 
REMARK    3  A    between atoms: C5_5  and  C6_6 
ROOT
HETATM    1  C4  UNL     1     -34.774   5.642   3.763  1.00 20.00     0.005 C 
ENDROOT
BRANCH   1   2
HETATM    2  C3  UNL     1     -35.126   5.659   5.242  1.00 20.00    -0.014 A 
HETATM    3  C1  UNL     1     -34.294   4.886   6.227  1.00 20.00     0.005 A 
HETATM    4  C2  UNL     1     -34.248   6.389   6.220  1.00 20.00     0.005 A 
ENDBRANCH   1   2
BRANCH   1   5
HETATM    5  C5  UNL     1     -33.732   6.708   3.422  1.00 20.00     0.015 C 
BRANCH   5   6
HETATM    6  C6  UNL     1     -32.682   6.159   2.466  1.00 20.00     0.114 C 
HETATM    7 CL7  UNL     1     -32.944   4.421   2.188  1.00 20.00    -0.130 Cl
ENDBRANCH   5   6
ENDBRANCH   1   5
TORSDOF 3
ENDMDL
MODEL 8
REMARK VINA RESULT:      -3.4      9.308      9.736
REMARK  3 active torsions:
REMARK  status: ('A' for Active; 'I' for Inactive)
REMARK    1  A    between atoms: C3_3  and  C4_4 
REMARK    2  A    between atoms: C4_4  and  C5_5 
REMARK    3  A    between atoms: C5_5  and  C6_6 
ROOT
HETATM    1  C4  UNL     1     -41.124   7.089  -1.137  1.00 20.00     0.005 C 
ENDROOT
BRANCH   1   2
HETATM    2  C3  UNL     1     -41.465   7.778   0.174  1.00 20.00    -0.014 A 
HETATM    3  C1  UNL     1     -41.461   9.279   0.264  1.00 20.00     0.005 A 
HETATM    4  C2  UNL     1     -42.761   8.527   0.321  1.00 20.00     0.005 A 
ENDBRANCH   1   2
BRANCH   1   5
HETATM    5  C5  UNL     1     -41.161   5.566  -0.996  1.00 20.00     0.015 C 
BRANCH   5   6
HETATM    6  C6  UNL     1     -42.533   5.017  -1.363  1.00 20.00     0.114 C 
HETATM    7 CL7  UNL     1     -42.374   3.673  -2.518  1.00 20.00    -0.130 Cl
ENDBRANCH   5   6
ENDBRANCH   1   5
TORSDOF 3
ENDMDL
MODEL 9
REMARK VINA RESULT:      -3.4      8.825      9.449
REMARK  3 active torsions:
REMARK  status: ('A' for Active; 'I' for Inactive)
REMARK    1  A    between atoms: C3_3  and  C4_4 
REMARK    2  A    between atoms: C4_4  and  C5_5 
REMARK    3  A    between atoms: C5_5  and  C6_6 
ROOT
HETATM    1  C4  UNL     1     -41.017   6.772   0.144  1.00 20.00     0.005 C 
ENDROOT
BRANCH   1   2
HETATM    2  C3  UNL     1     -41.448   8.092  -0.476  1.00 20.00    -0.014 A 
HETATM    3  C1  UNL     1     -42.731   8.747  -0.046  1.00 20.00     0.005 A 
HETATM    4  C2  UNL     1     -41.411   9.357   0.335  1.00 20.00     0.005 A 
ENDBRANCH   1   2
BRANCH   1   5
HETATM    5  C5  UNL     1     -40.930   5.662  -0.904  1.00 20.00     0.015 C 
BRANCH   5   6
HETATM    6  C6  UNL     1     -42.316   5.155  -1.281  1.00 20.00     0.114 C 
HETATM    7 CL7  UNL     1     -43.332   4.992   0.171  1.00 20.00    -0.130 Cl
ENDBRANCH   5   6
ENDBRANCH   1   5
TORSDOF 3
ENDMDL
