MODEL 1
REMARK VINA RESULT:      -5.2      0.000      0.000
REMARK  3 active torsions:
REMARK  status: ('A' for Active; 'I' for Inactive)
REMARK    1  A    between atoms: C3_3  and  C7_7 
REMARK    2  A    between atoms: C5_5  and  C6_6 
REMARK    3  A    between atoms: C6_6  and  C7_7 
ROOT
HETATM    1  C1  UNL     1     -32.909   8.629   0.508  1.00 20.00     0.012 C 
HETATM    2  C2  UNL     1     -32.613   8.021   1.500  1.00 20.00    -0.117 C 
HETATM    3  C5  UNL     1     -32.243   7.280   2.715  1.00 20.00     0.093 C 
ENDROOT
BRANCH   3   4
HETATM    4  C6  UNL     1     -33.170   6.084   2.970  1.00 20.00     0.023 C 
BRANCH   4   5
HETATM    5  C7  UNL     1     -34.215   6.324   4.073  1.00 20.00     0.044 C 
HETATM    6  C4  UNL     1     -33.557   6.922   5.314  1.00 20.00     0.017 C 
BRANCH   5   7
HETATM    7  C3  UNL     1     -34.931   5.053   4.496  1.00 20.00     0.235 C 
HETATM    8  O8  UNL     1     -34.562   3.914   4.228  1.00 20.00    -0.306 OA
ENDBRANCH   5   7
ENDBRANCH   4   5
ENDBRANCH   3   4
TORSDOF 3
ENDMDL
MODEL 2
REMARK VINA RESULT:      -4.7      1.329      1.808
REMARK  3 active torsions:
REMARK  status: ('A' for Active; 'I' for Inactive)
REMARK    1  A    between atoms: C3_3  and  C7_7 
REMARK    2  A    between atoms: C5_5  and  C6_6 
REMARK    3  A    between atoms: C6_6  and  C7_7 
ROOT
HETATM    1  C1  UNL     1     -32.806   8.631   0.586  1.00 20.00     0.012 C 
HETATM    2  C2  UNL     1     -32.618   7.921   1.536  1.00 20.00    -0.117 C 
HETATM    3  C5  UNL     1     -32.380   7.055   2.700  1.00 20.00     0.093 C 
ENDROOT
BRANCH   3   4
HETATM    4  C6  UNL     1     -33.392   5.905   2.784  1.00 20.00     0.023 C 
BRANCH   4   5
HETATM    5  C7  UNL     1     -33.878   5.599   4.211  1.00 20.00     0.044 C 
HETATM    6  C4  UNL     1     -35.337   5.150   4.196  1.00 20.00     0.017 C 
BRANCH   5   7
HETATM    7  C3  UNL     1     -33.772   6.796   5.142  1.00 20.00     0.235 C 
HETATM    8  O8  UNL     1     -34.173   6.824   6.301  1.00 20.00    -0.306 OA
ENDBRANCH   5   7
ENDBRANCH   4   5
ENDBRANCH   3   4
TORSDOF 3
ENDMDL
MODEL 3
REMARK VINA RESULT:      -4.4      1.868      2.506
REMARK  3 active torsions:
REMARK  status: ('A' for Active; 'I' for Inactive)
REMARK    1  A    between atoms: C3_3  and  C7_7 
REMARK    2  A    between atoms: C5_5  and  C6_6 
REMARK    3  A    between atoms: C6_6  and  C7_7 
ROOT
HETATM    1  C1  UNL     1     -32.205   7.212   2.781  1.00 20.00     0.012 C 
HETATM    2  C2  UNL     1     -32.842   6.199   2.695  1.00 20.00    -0.117 C 
HETATM    3  C5  UNL     1     -33.625   4.960   2.583  1.00 20.00     0.093 C 
ENDROOT
BRANCH   3   4
HETATM    4  C6  UNL     1     -33.796   4.257   3.935  1.00 20.00     0.023 C 
BRANCH   4   5
HETATM    5  C7  UNL     1     -34.967   4.793   4.778  1.00 20.00     0.044 C 
HETATM    6  C4  UNL     1     -35.839   5.731   3.947  1.00 20.00     0.017 C 
BRANCH   5   7
HETATM    7  C3  UNL     1     -34.509   5.556   6.010  1.00 20.00     0.235 C 
HETATM    8  O8  UNL     1     -34.069   6.701   6.005  1.00 20.00    -0.306 OA
ENDBRANCH   5   7
ENDBRANCH   4   5
ENDBRANCH   3   4
TORSDOF 3
ENDMDL
MODEL 4
REMARK VINA RESULT:      -4.2      2.329      4.322
REMARK  3 active torsions:
REMARK  status: ('A' for Active; 'I' for Inactive)
REMARK    1  A    between atoms: C3_3  and  C7_7 
REMARK    2  A    between atoms: C5_5  and  C6_6 
REMARK    3  A    between atoms: C6_6  and  C7_7 
ROOT
HETATM    1  C1  UNL     1     -34.903   5.021   5.916  1.00 20.00     0.012 C 
HETATM    2  C2  UNL     1     -34.314   6.032   5.645  1.00 20.00    -0.117 C 
HETATM    3  C5  UNL     1     -33.598   7.273   5.317  1.00 20.00     0.093 C 
ENDROOT
BRANCH   3   4
HETATM    4  C6  UNL     1     -32.562   7.070   4.204  1.00 20.00     0.023 C 
BRANCH   4   5
HETATM    5  C7  UNL     1     -33.174   6.802   2.818  1.00 20.00     0.044 C 
HETATM    6  C4  UNL     1     -33.122   5.312   2.488  1.00 20.00     0.017 C 
BRANCH   5   7
HETATM    7  C3  UNL     1     -32.461   7.548   1.702  1.00 20.00     0.235 C 
HETATM    8  O8  UNL     1     -32.868   8.577   1.172  1.00 20.00    -0.306 OA
ENDBRANCH   5   7
ENDBRANCH   4   5
ENDBRANCH   3   4
TORSDOF 3
ENDMDL
MODEL 5
REMARK VINA RESULT:      -4.2     10.727     11.328
REMARK  3 active torsions:
REMARK  status: ('A' for Active; 'I' for Inactive)
REMARK    1  A    between atoms: C3_3  and  C7_7 
REMARK    2  A    between atoms: C5_5  and  C6_6 
REMARK    3  A    between atoms: C6_6  and  C7_7 
ROOT
HETATM    1  C1  UNL     1     -32.617  17.850  -1.938  1.00 20.00     0.012 C 
HETATM    2  C2  UNL     1     -33.600  17.162  -1.880  1.00 20.00    -0.117 C 
HETATM    3  C5  UNL     1     -34.802  16.320  -1.803  1.00 20.00     0.093 C 
ENDROOT
BRANCH   3   4
HETATM    4  C6  UNL     1     -35.298  15.887  -3.188  1.00 20.00     0.023 C 
BRANCH   4   5
HETATM    5  C7  UNL     1     -34.744  14.532  -3.659  1.00 20.00     0.044 C 
HETATM    6  C4  UNL     1     -33.507  14.733  -4.533  1.00 20.00     0.017 C 
BRANCH   5   7
HETATM    7  C3  UNL     1     -35.751  13.726  -4.462  1.00 20.00     0.235 C 
HETATM    8  O8  UNL     1     -35.841  12.503  -4.454  1.00 20.00    -0.306 OA
ENDBRANCH   5   7
ENDBRANCH   4   5
ENDBRANCH   3   4
TORSDOF 3
ENDMDL
MODEL 6
REMARK VINA RESULT:      -4.1     10.886     11.634
REMARK  3 active torsions:
REMARK  status: ('A' for Active; 'I' for Inactive)
REMARK    1  A    between atoms: C3_3  and  C7_7 
REMARK    2  A    between atoms: C5_5  and  C6_6 
REMARK    3  A    between atoms: C6_6  and  C7_7 
ROOT
HETATM    1  C1  UNL     1     -32.902  17.039  -2.647  1.00 20.00     0.012 C 
HETATM    2  C2  UNL     1     -33.841  16.299  -2.758  1.00 20.00    -0.117 C 
HETATM    3  C5  UNL     1     -34.993  15.396  -2.888  1.00 20.00     0.093 C 
ENDROOT
BRANCH   3   4
HETATM    4  C6  UNL     1     -34.724  14.249  -3.871  1.00 20.00     0.023 C 
BRANCH   4   5
HETATM    5  C7  UNL     1     -35.902  13.937  -4.810  1.00 20.00     0.044 C 
HETATM    6  C4  UNL     1     -35.668  14.556  -6.187  1.00 20.00     0.017 C 
BRANCH   5   7
HETATM    7  C3  UNL     1     -37.230  14.461  -4.288  1.00 20.00     0.235 C 
HETATM    8  O8  UNL     1     -38.305  13.880  -4.394  1.00 20.00    -0.306 OA
ENDBRANCH   5   7
ENDBRANCH   4   5
ENDBRANCH   3   4
TORSDOF 3
ENDMDL
MODEL 7
REMARK VINA RESULT:      -4.1      1.187      3.836
REMARK  3 active torsions:
REMARK  status: ('A' for Active; 'I' for Inactive)
REMARK    1  A    between atoms: C3_3  and  C7_7 
REMARK    2  A    between atoms: C5_5  and  C6_6 
REMARK    3  A    between atoms: C6_6  and  C7_7 
ROOT
HETATM    1  C1  UNL     1     -34.977   5.037   6.279  1.00 20.00     0.012 C 
HETATM    2  C2  UNL     1     -34.317   5.945   5.851  1.00 20.00    -0.117 C 
HETATM    3  C5  UNL     1     -33.508   7.057   5.334  1.00 20.00     0.093 C 
ENDROOT
BRANCH   3   4
HETATM    4  C6  UNL     1     -33.742   7.299   3.837  1.00 20.00     0.023 C 
BRANCH   4   5
HETATM    5  C7  UNL     1     -32.635   6.738   2.930  1.00 20.00     0.044 C 
HETATM    6  C4  UNL     1     -32.442   7.629   1.705  1.00 20.00     0.017 C 
BRANCH   5   7
HETATM    7  C3  UNL     1     -32.930   5.331   2.435  1.00 20.00     0.235 C 
HETATM    8  O8  UNL     1     -33.841   4.619   2.844  1.00 20.00    -0.306 OA
ENDBRANCH   5   7
ENDBRANCH   4   5
ENDBRANCH   3   4
TORSDOF 3
ENDMDL
MODEL 8
REMARK VINA RESULT:      -4.1      2.347      4.293
REMARK  3 active torsions:
REMARK  status: ('A' for Active; 'I' for Inactive)
REMARK    1  A    between atoms: C3_3  and  C7_7 
REMARK    2  A    between atoms: C5_5  and  C6_6 
REMARK    3  A    between atoms: C6_6  and  C7_7 
ROOT
HETATM    1  C1  UNL     1     -34.757   5.072   5.990  1.00 20.00     0.012 C 
HETATM    2  C2  UNL     1     -34.636   5.625   4.931  1.00 20.00    -0.117 C 
HETATM    3  C5  UNL     1     -34.496   6.305   3.636  1.00 20.00     0.093 C 
ENDROOT
BRANCH   3   4
HETATM    4  C6  UNL     1     -33.285   5.797   2.842  1.00 20.00     0.023 C 
BRANCH   4   5
HETATM    5  C7  UNL     1     -32.283   6.897   2.452  1.00 20.00     0.044 C 
HETATM    6  C4  UNL     1     -31.804   7.649   3.691  1.00 20.00     0.017 C 
BRANCH   5   7
HETATM    7  C3  UNL     1     -32.868   7.917   1.489  1.00 20.00     0.235 C 
HETATM    8  O8  UNL     1     -32.340   8.282   0.444  1.00 20.00    -0.306 OA
ENDBRANCH   5   7
ENDBRANCH   4   5
ENDBRANCH   3   4
TORSDOF 3
ENDMDL
MODEL 9
REMARK VINA RESULT:      -4.1     10.672     11.568
REMARK  3 active torsions:
REMARK  status: ('A' for Active; 'I' for Inactive)
REMARK    1  A    between atoms: C3_3  and  C7_7 
REMARK    2  A    between atoms: C5_5  and  C6_6 
REMARK    3  A    between atoms: C6_6  and  C7_7 
ROOT
HETATM    1  C1  UNL     1     -35.041  16.494  -1.472  1.00 20.00     0.012 C 
HETATM    2  C2  UNL     1     -34.647  15.890  -2.433  1.00 20.00    -0.117 C 
HETATM    3  C5  UNL     1     -34.162  15.157  -3.610  1.00 20.00     0.093 C 
ENDROOT
BRANCH   3   4
HETATM    4  C6  UNL     1     -34.942  13.857  -3.847  1.00 20.00     0.023 C 
BRANCH   4   5
HETATM    5  C7  UNL     1     -36.019  13.962  -4.940  1.00 20.00     0.044 C 
HETATM    6  C4  UNL     1     -35.538  14.852  -6.083  1.00 20.00     0.017 C 
BRANCH   5   7
HETATM    7  C3  UNL     1     -37.329  14.537  -4.427  1.00 20.00     0.235 C 
HETATM    8  O8  UNL     1     -38.383  13.916  -4.337  1.00 20.00    -0.306 OA
ENDBRANCH   5   7
ENDBRANCH   4   5
ENDBRANCH   3   4
TORSDOF 3
ENDMDL
