MODEL 1
REMARK VINA RESULT:      -5.7      0.000      0.000
REMARK  2 active torsions:
REMARK  status: ('A' for Active; 'I' for Inactive)
REMARK    1  A    between atoms: C1_1  and  C2_2 
REMARK    2  A    between atoms: C2_2  and  C3_3 
ROOT
HETATM    1  C2  UNL     1     -34.609   5.766   4.417  1.00 20.00     0.396 C 
HETATM    2  F6  UNL     1     -34.313   7.020   3.991  1.00 20.00    -0.190 F 
HETATM    3  F7  UNL     1     -35.921   5.557   4.142  1.00 20.00    -0.190 F 
ENDROOT
BRANCH   1   4
HETATM    4  C1  UNL     1     -33.777   4.775   3.640  1.00 20.00     0.434 C 
HETATM    5  F4  UNL     1     -33.749   5.142   2.334  1.00 20.00    -0.207 F 
HETATM    6  F5  UNL     1     -34.346   3.546   3.689  1.00 20.00    -0.207 F 
ENDBRANCH   1   4
BRANCH   1   7
HETATM    7  C3  UNL     1     -34.403   5.692   5.908  1.00 20.00     0.460 C 
HETATM    8  F8  UNL     1     -33.584   6.682   6.326  1.00 20.00    -0.165 F 
HETATM    9  F9  UNL     1     -33.844   4.516   6.266  1.00 20.00    -0.165 F 
HETATM   10  F10 UNL     1     -35.571   5.817   6.572  1.00 20.00    -0.165 F 
ENDBRANCH   1   7
TORSDOF 2
ENDMDL
MODEL 2
REMARK VINA RESULT:      -5.6      1.099      2.186
REMARK  2 active torsions:
REMARK  status: ('A' for Active; 'I' for Inactive)
REMARK    1  A    between atoms: C1_1  and  C2_2 
REMARK    2  A    between atoms: C2_2  and  C3_3 
ROOT
HETATM    1  C2  UNL     1     -33.910   6.368   4.225  1.00 20.00     0.396 C 
HETATM    2  F6  UNL     1     -33.165   6.841   5.256  1.00 20.00    -0.190 F 
HETATM    3  F7  UNL     1     -34.637   7.413   3.754  1.00 20.00    -0.190 F 
ENDROOT
BRANCH   1   4
HETATM    4  C1  UNL     1     -32.986   5.878   3.136  1.00 20.00     0.434 C 
HETATM    5  F4  UNL     1     -32.322   6.935   2.605  1.00 20.00    -0.207 F 
HETATM    6  F5  UNL     1     -33.702   5.320   2.130  1.00 20.00    -0.207 F 
ENDBRANCH   1   4
BRANCH   1   7
HETATM    7  C3  UNL     1     -34.850   5.310   4.742  1.00 20.00     0.460 C 
HETATM    8  F8  UNL     1     -36.052   5.400   4.134  1.00 20.00    -0.165 F 
HETATM    9  F9  UNL     1     -35.049   5.442   6.071  1.00 20.00    -0.165 F 
HETATM   10  F10 UNL     1     -34.367   4.070   4.517  1.00 20.00    -0.165 F 
ENDBRANCH   1   7
TORSDOF 2
ENDMDL
MODEL 3
REMARK VINA RESULT:      -5.6      0.540      1.901
REMARK  2 active torsions:
REMARK  status: ('A' for Active; 'I' for Inactive)
REMARK    1  A    between atoms: C1_1  and  C2_2 
REMARK    2  A    between atoms: C2_2  and  C3_3 
ROOT
HETATM    1  C2  UNL     1     -34.599   5.227   4.443  1.00 20.00     0.396 C 
HETATM    2  F6  UNL     1     -35.851   5.578   4.056  1.00 20.00    -0.190 F 
HETATM    3  F7  UNL     1     -34.494   3.886   4.263  1.00 20.00    -0.190 F 
ENDROOT
BRANCH   1   4
HETATM    4  C1  UNL     1     -33.596   5.925   3.557  1.00 20.00     0.434 C 
HETATM    5  F4  UNL     1     -33.981   7.213   3.377  1.00 20.00    -0.207 F 
HETATM    6  F5  UNL     1     -33.573   5.348   2.331  1.00 20.00    -0.207 F 
ENDBRANCH   1   4
BRANCH   1   7
HETATM    7  C3  UNL     1     -34.432   5.539   5.908  1.00 20.00     0.460 C 
HETATM    8  F8  UNL     1     -33.828   4.515   6.549  1.00 20.00    -0.165 F 
HETATM    9  F9  UNL     1     -35.626   5.750   6.502  1.00 20.00    -0.165 F 
HETATM   10  F10 UNL     1     -33.677   6.642   6.093  1.00 20.00    -0.165 F 
ENDBRANCH   1   7
TORSDOF 2
ENDMDL
MODEL 4
REMARK VINA RESULT:      -5.4      1.121      3.038
REMARK  2 active torsions:
REMARK  status: ('A' for Active; 'I' for Inactive)
REMARK    1  A    between atoms: C1_1  and  C2_2 
REMARK    2  A    between atoms: C2_2  and  C3_3 
ROOT
HETATM    1  C2  UNL     1     -34.032   6.256   4.311  1.00 20.00     0.396 C 
HETATM    2  F6  UNL     1     -34.750   7.271   3.768  1.00 20.00    -0.190 F 
HETATM    3  F7  UNL     1     -33.070   5.929   3.411  1.00 20.00    -0.190 F 
ENDROOT
BRANCH   1   4
HETATM    4  C1  UNL     1     -33.376   6.742   5.581  1.00 20.00     0.434 C 
HETATM    5  F4  UNL     1     -34.312   7.327   6.370  1.00 20.00    -0.207 F 
HETATM    6  F5  UNL     1     -32.453   7.694   5.297  1.00 20.00    -0.207 F 
ENDBRANCH   1   4
BRANCH   1   7
HETATM    7  C3  UNL     1     -34.936   5.067   4.514  1.00 20.00     0.460 C 
HETATM    8  F8  UNL     1     -36.170   5.318   4.025  1.00 20.00    -0.165 F 
HETATM    9  F9  UNL     1     -35.064   4.769   5.824  1.00 20.00    -0.165 F 
HETATM   10  F10 UNL     1     -34.459   3.973   3.884  1.00 20.00    -0.165 F 
ENDBRANCH   1   7
TORSDOF 2
ENDMDL
MODEL 5
REMARK VINA RESULT:      -5.3      0.677      3.285
REMARK  2 active torsions:
REMARK  status: ('A' for Active; 'I' for Inactive)
REMARK    1  A    between atoms: C1_1  and  C2_2 
REMARK    2  A    between atoms: C2_2  and  C3_3 
ROOT
HETATM    1  C2  UNL     1     -34.633   5.871   4.263  1.00 20.00     0.396 C 
HETATM    2  F6  UNL     1     -35.966   5.676   4.100  1.00 20.00    -0.190 F 
HETATM    3  F7  UNL     1     -34.377   7.157   3.911  1.00 20.00    -0.190 F 
ENDROOT
BRANCH   1   4
HETATM    4  C1  UNL     1     -34.283   5.678   5.719  1.00 20.00     0.434 C 
HETATM    5  F4  UNL     1     -35.255   4.946   6.318  1.00 20.00    -0.207 F 
HETATM    6  F5  UNL     1     -34.246   6.874   6.354  1.00 20.00    -0.207 F 
ENDBRANCH   1   4
BRANCH   1   7
HETATM    7  C3  UNL     1     -33.885   4.951   3.333  1.00 20.00     0.460 C 
HETATM    8  F8  UNL     1     -33.936   3.677   3.779  1.00 20.00    -0.165 F 
HETATM    9  F9  UNL     1     -32.584   5.303   3.240  1.00 20.00    -0.165 F 
HETATM   10  F10 UNL     1     -34.411   4.973   2.091  1.00 20.00    -0.165 F 
ENDBRANCH   1   7
TORSDOF 2
ENDMDL
MODEL 6
REMARK VINA RESULT:      -5.3      0.943      3.161
REMARK  2 active torsions:
REMARK  status: ('A' for Active; 'I' for Inactive)
REMARK    1  A    between atoms: C1_1  and  C2_2 
REMARK    2  A    between atoms: C2_2  and  C3_3 
ROOT
HETATM    1  C2  UNL     1     -34.543   5.459   4.469  1.00 20.00     0.396 C 
HETATM    2  F6  UNL     1     -34.231   4.190   4.105  1.00 20.00    -0.190 F 
HETATM    3  F7  UNL     1     -35.843   5.657   4.131  1.00 20.00    -0.190 F 
ENDROOT
BRANCH   1   4
HETATM    4  C1  UNL     1     -34.396   5.591   5.966  1.00 20.00     0.434 C 
HETATM    5  F4  UNL     1     -35.397   4.907   6.574  1.00 20.00    -0.207 F 
HETATM    6  F5  UNL     1     -34.527   6.888   6.337  1.00 20.00    -0.207 F 
ENDBRANCH   1   4
BRANCH   1   7
HETATM    7  C3  UNL     1     -33.682   6.420   3.690  1.00 20.00     0.460 C 
HETATM    8  F8  UNL     1     -34.413   7.468   3.251  1.00 20.00    -0.165 F 
HETATM    9  F9  UNL     1     -33.134   5.820   2.612  1.00 20.00    -0.165 F 
HETATM   10  F10 UNL     1     -32.679   6.908   4.449  1.00 20.00    -0.165 F 
ENDBRANCH   1   7
TORSDOF 2
ENDMDL
MODEL 7
REMARK VINA RESULT:      -5.3      1.066      3.420
REMARK  2 active torsions:
REMARK  status: ('A' for Active; 'I' for Inactive)
REMARK    1  A    between atoms: C1_1  and  C2_2 
REMARK    2  A    between atoms: C2_2  and  C3_3 
ROOT
HETATM    1  C2  UNL     1     -34.398   5.132   4.099  1.00 20.00     0.396 C 
HETATM    2  F6  UNL     1     -34.386   3.793   4.316  1.00 20.00    -0.190 F 
HETATM    3  F7  UNL     1     -35.672   5.466   3.775  1.00 20.00    -0.190 F 
ENDROOT
BRANCH   1   4
HETATM    4  C1  UNL     1     -34.010   5.840   5.375  1.00 20.00     0.434 C 
HETATM    5  F4  UNL     1     -34.731   5.329   6.405  1.00 20.00    -0.207 F 
HETATM    6  F5  UNL     1     -34.322   7.156   5.294  1.00 20.00    -0.207 F 
ENDBRANCH   1   4
BRANCH   1   7
HETATM    7  C3  UNL     1     -33.496   5.449   2.934  1.00 20.00     0.460 C 
HETATM    8  F8  UNL     1     -32.667   4.414   2.676  1.00 20.00    -0.165 F 
HETATM    9  F9  UNL     1     -32.734   6.534   3.187  1.00 20.00    -0.165 F 
HETATM   10  F10 UNL     1     -34.208   5.693   1.814  1.00 20.00    -0.165 F 
ENDBRANCH   1   7
TORSDOF 2
ENDMDL
MODEL 8
REMARK VINA RESULT:      -5.1      1.635      2.950
REMARK  2 active torsions:
REMARK  status: ('A' for Active; 'I' for Inactive)
REMARK    1  A    between atoms: C1_1  and  C2_2 
REMARK    2  A    between atoms: C2_2  and  C3_3 
ROOT
HETATM    1  C2  UNL     1     -33.513   5.519   2.853  1.00 20.00     0.396 C 
HETATM    2  F6  UNL     1     -34.233   5.290   1.726  1.00 20.00    -0.190 F 
HETATM    3  F7  UNL     1     -32.478   4.641   2.843  1.00 20.00    -0.190 F 
ENDROOT
BRANCH   1   4
HETATM    4  C1  UNL     1     -32.969   6.926   2.811  1.00 20.00     0.434 C 
HETATM    5  F4  UNL     1     -32.806   7.303   1.518  1.00 20.00    -0.207 F 
HETATM    6  F5  UNL     1     -31.744   6.972   3.389  1.00 20.00    -0.207 F 
ENDBRANCH   1   4
BRANCH   1   7
HETATM    7  C3  UNL     1     -34.380   5.241   4.054  1.00 20.00     0.460 C 
HETATM    8  F8  UNL     1     -34.248   3.957   4.451  1.00 20.00    -0.165 F 
HETATM    9  F9  UNL     1     -35.684   5.455   3.776  1.00 20.00    -0.165 F 
HETATM   10  F10 UNL     1     -34.043   6.029   5.096  1.00 20.00    -0.165 F 
ENDBRANCH   1   7
TORSDOF 2
ENDMDL
MODEL 9
REMARK VINA RESULT:      -5.1      1.487      3.153
REMARK  2 active torsions:
REMARK  status: ('A' for Active; 'I' for Inactive)
REMARK    1  A    between atoms: C1_1  and  C2_2 
REMARK    2  A    between atoms: C2_2  and  C3_3 
ROOT
HETATM    1  C2  UNL     1     -33.863   6.575   4.177  1.00 20.00     0.396 C 
HETATM    2  F6  UNL     1     -34.791   7.537   3.943  1.00 20.00    -0.190 F 
HETATM    3  F7  UNL     1     -33.230   6.911   5.330  1.00 20.00    -0.190 F 
ENDROOT
BRANCH   1   4
HETATM    4  C1  UNL     1     -34.565   5.252   4.366  1.00 20.00     0.434 C 
HETATM    5  F4  UNL     1     -35.883   5.401   4.082  1.00 20.00    -0.207 F 
HETATM    6  F5  UNL     1     -34.486   4.860   5.661  1.00 20.00    -0.207 F 
ENDBRANCH   1   4
BRANCH   1   7
HETATM    7  C3  UNL     1     -32.862   6.574   3.051  1.00 20.00     0.460 C 
HETATM    8  F8  UNL     1     -33.312   7.310   2.012  1.00 20.00    -0.165 F 
HETATM    9  F9  UNL     1     -32.635   5.321   2.601  1.00 20.00    -0.165 F 
HETATM   10  F10 UNL     1     -31.681   7.095   3.443  1.00 20.00    -0.165 F 
ENDBRANCH   1   7
TORSDOF 2
ENDMDL
