MODEL 1
REMARK VINA RESULT:      -5.7      0.000      0.000
REMARK  2 active torsions:
REMARK  status: ('A' for Active; 'I' for Inactive)
REMARK    1  A    between atoms: C1_1  and  C2_2 
REMARK    2  A    between atoms: C2_2  and  C3_3 
ROOT
HETATM    1  C2  UNL     1     -33.829   6.381   4.008  1.00 20.00     0.365 C 
HETATM    2  F5  UNL     1     -34.606   7.443   3.652  1.00 20.00    -0.193 F 
HETATM    3  F6  UNL     1     -33.039   6.822   5.025  1.00 20.00    -0.193 F 
ENDROOT
BRANCH   1   4
HETATM    4  C1  UNL     1     -32.946   6.032   2.820  1.00 20.00     0.345 C 
HETATM    5  F4  UNL     1     -33.658   5.213   1.995  1.00 20.00    -0.226 F 
HETATM    6 CL9  UNL     1     -32.440   7.452   1.885  1.00 20.00    -0.083 Cl
ENDBRANCH   1   4
BRANCH   1   7
HETATM    7  C3  UNL     1     -34.738   5.290   4.551  1.00 20.00     0.388 C 
HETATM    8  F7  UNL     1     -34.273   4.085   4.124  1.00 20.00    -0.181 F 
HETATM    9  F8  UNL     1     -35.989   5.414   4.042  1.00 20.00    -0.181 F 
HETATM   10 CL10 UNL     1     -34.817   5.280   6.320  1.00 20.00    -0.042 Cl
ENDBRANCH   1   7
TORSDOF 2
ENDMDL
MODEL 2
REMARK VINA RESULT:      -5.3      1.205      2.030
REMARK  2 active torsions:
REMARK  status: ('A' for Active; 'I' for Inactive)
REMARK    1  A    between atoms: C1_1  and  C2_2 
REMARK    2  A    between atoms: C2_2  and  C3_3 
ROOT
HETATM    1  C2  UNL     1     -33.502   5.694   2.950  1.00 20.00     0.365 C 
HETATM    2  F5  UNL     1     -32.472   4.801   2.938  1.00 20.00    -0.193 F 
HETATM    3  F6  UNL     1     -34.182   5.493   1.787  1.00 20.00    -0.193 F 
ENDROOT
BRANCH   1   4
HETATM    4  C1  UNL     1     -32.906   7.092   2.930  1.00 20.00     0.345 C 
HETATM    5  F4  UNL     1     -31.698   7.041   3.561  1.00 20.00    -0.226 F 
HETATM    6 CL9  UNL     1     -32.646   7.718   1.291  1.00 20.00    -0.083 Cl
ENDBRANCH   1   4
BRANCH   1   7
HETATM    7  C3  UNL     1     -34.424   5.339   4.105  1.00 20.00     0.388 C 
HETATM    8  F7  UNL     1     -34.259   4.023   4.404  1.00 20.00    -0.181 F 
HETATM    9  F8  UNL     1     -35.723   5.485   3.741  1.00 20.00    -0.181 F 
HETATM   10 CL10 UNL     1     -34.106   6.302   5.558  1.00 20.00    -0.042 Cl
ENDBRANCH   1   7
TORSDOF 2
ENDMDL
MODEL 3
REMARK VINA RESULT:      -5.1      1.466      2.100
REMARK  2 active torsions:
REMARK  status: ('A' for Active; 'I' for Inactive)
REMARK    1  A    between atoms: C1_1  and  C2_2 
REMARK    2  A    between atoms: C2_2  and  C3_3 
ROOT
HETATM    1  C2  UNL     1     -34.501   5.169   4.222  1.00 20.00     0.365 C 
HETATM    2  F5  UNL     1     -34.831   3.848   4.145  1.00 20.00    -0.193 F 
HETATM    3  F6  UNL     1     -35.550   5.846   3.679  1.00 20.00    -0.193 F 
ENDROOT
BRANCH   1   4
HETATM    4  C1  UNL     1     -33.274   5.393   3.354  1.00 20.00     0.345 C 
HETATM    5  F4  UNL     1     -33.321   4.501   2.323  1.00 20.00    -0.226 F 
HETATM    6 CL9  UNL     1     -33.194   7.026   2.666  1.00 20.00    -0.083 Cl
ENDBRANCH   1   4
BRANCH   1   7
HETATM    7  C3  UNL     1     -34.401   5.547   5.691  1.00 20.00     0.388 C 
HETATM    8  F7  UNL     1     -33.746   4.555   6.351  1.00 20.00    -0.181 F 
HETATM    9  F8  UNL     1     -35.635   5.622   6.249  1.00 20.00    -0.181 F 
HETATM   10 CL10 UNL     1     -33.542   7.074   5.950  1.00 20.00    -0.042 Cl
ENDBRANCH   1   7
TORSDOF 2
ENDMDL
MODEL 4
REMARK VINA RESULT:      -4.9      0.947      3.474
REMARK  2 active torsions:
REMARK  status: ('A' for Active; 'I' for Inactive)
REMARK    1  A    between atoms: C1_1  and  C2_2 
REMARK    2  A    between atoms: C2_2  and  C3_3 
ROOT
HETATM    1  C2  UNL     1     -34.288   5.140   3.799  1.00 20.00     0.365 C 
HETATM    2  F5  UNL     1     -35.563   5.451   3.429  1.00 20.00    -0.193 F 
HETATM    3  F6  UNL     1     -34.289   3.801   4.044  1.00 20.00    -0.193 F 
ENDROOT
BRANCH   1   4
HETATM    4  C1  UNL     1     -33.990   5.872   5.098  1.00 20.00     0.345 C 
HETATM    5  F4  UNL     1     -34.344   7.179   4.933  1.00 20.00    -0.226 F 
HETATM    6 CL9  UNL     1     -34.890   5.228   6.485  1.00 20.00    -0.083 Cl
ENDBRANCH   1   4
BRANCH   1   7
HETATM    7  C3  UNL     1     -33.372   5.408   2.617  1.00 20.00     0.388 C 
HETATM    8  F7  UNL     1     -34.133   5.527   1.496  1.00 20.00    -0.181 F 
HETATM    9  F8  UNL     1     -32.548   4.351   2.404  1.00 20.00    -0.181 F 
HETATM   10 CL10 UNL     1     -32.406   6.879   2.814  1.00 20.00    -0.042 Cl
ENDBRANCH   1   7
TORSDOF 2
ENDMDL
MODEL 5
REMARK VINA RESULT:      -4.8      0.748      3.356
REMARK  2 active torsions:
REMARK  status: ('A' for Active; 'I' for Inactive)
REMARK    1  A    between atoms: C1_1  and  C2_2 
REMARK    2  A    between atoms: C2_2  and  C3_3 
ROOT
HETATM    1  C2  UNL     1     -33.940   6.248   3.917  1.00 20.00     0.365 C 
HETATM    2  F5  UNL     1     -33.038   6.618   4.870  1.00 20.00    -0.193 F 
HETATM    3  F6  UNL     1     -34.714   7.346   3.691  1.00 20.00    -0.193 F 
ENDROOT
BRANCH   1   4
HETATM    4  C1  UNL     1     -34.811   5.149   4.503  1.00 20.00     0.345 C 
HETATM    5  F4  UNL     1     -34.282   3.950   4.127  1.00 20.00    -0.226 F 
HETATM    6 CL9  UNL     1     -34.886   5.188   6.275  1.00 20.00    -0.083 Cl
ENDBRANCH   1   4
BRANCH   1   7
HETATM    7  C3  UNL     1     -33.178   5.934   2.640  1.00 20.00     0.388 C 
HETATM    8  F7  UNL     1     -34.040   5.384   1.744  1.00 20.00    -0.181 F 
HETATM    9  F8  UNL     1     -32.225   4.996   2.872  1.00 20.00    -0.181 F 
HETATM   10 CL10 UNL     1     -32.432   7.367   1.914  1.00 20.00    -0.042 Cl
ENDBRANCH   1   7
TORSDOF 2
ENDMDL
MODEL 6
REMARK VINA RESULT:      -4.8      1.362      3.377
REMARK  2 active torsions:
REMARK  status: ('A' for Active; 'I' for Inactive)
REMARK    1  A    between atoms: C1_1  and  C2_2 
REMARK    2  A    between atoms: C2_2  and  C3_3 
ROOT
HETATM    1  C2  UNL     1     -34.749   5.319   4.454  1.00 20.00     0.365 C 
HETATM    2  F5  UNL     1     -36.009   5.519   3.974  1.00 20.00    -0.193 F 
HETATM    3  F6  UNL     1     -34.468   4.006   4.227  1.00 20.00    -0.193 F 
ENDROOT
BRANCH   1   4
HETATM    4  C1  UNL     1     -34.780   5.558   5.955  1.00 20.00     0.345 C 
HETATM    5  F4  UNL     1     -34.013   4.599   6.548  1.00 20.00    -0.226 F 
HETATM    6 CL9  UNL     1     -34.140   7.144   6.424  1.00 20.00    -0.083 Cl
ENDBRANCH   1   4
BRANCH   1   7
HETATM    7  C3  UNL     1     -33.788   6.160   3.629  1.00 20.00     0.388 C 
HETATM    8  F7  UNL     1     -32.768   6.566   4.432  1.00 20.00    -0.181 F 
HETATM    9  F8  UNL     1     -34.398   7.290   3.192  1.00 20.00    -0.181 F 
HETATM   10 CL10 UNL     1     -33.116   5.279   2.247  1.00 20.00    -0.042 Cl
ENDBRANCH   1   7
TORSDOF 2
ENDMDL
MODEL 7
REMARK VINA RESULT:      -4.7      1.178      1.427
REMARK  2 active torsions:
REMARK  status: ('A' for Active; 'I' for Inactive)
REMARK    1  A    between atoms: C1_1  and  C2_2 
REMARK    2  A    between atoms: C2_2  and  C3_3 
ROOT
HETATM    1  C2  UNL     1     -33.737   6.502   4.160  1.00 20.00     0.365 C 
HETATM    2  F5  UNL     1     -34.505   7.555   3.759  1.00 20.00    -0.193 F 
HETATM    3  F6  UNL     1     -32.929   6.984   5.145  1.00 20.00    -0.193 F 
ENDROOT
BRANCH   1   4
HETATM    4  C1  UNL     1     -32.872   6.082   2.982  1.00 20.00     0.345 C 
HETATM    5  F4  UNL     1     -33.584   5.188   2.238  1.00 20.00    -0.226 F 
HETATM    6 CL9  UNL     1     -32.418   7.436   1.931  1.00 20.00    -0.083 Cl
ENDBRANCH   1   4
BRANCH   1   7
HETATM    7  C3  UNL     1     -34.652   5.452   4.769  1.00 20.00     0.388 C 
HETATM    8  F7  UNL     1     -34.839   5.748   6.083  1.00 20.00    -0.181 F 
HETATM    9  F8  UNL     1     -34.064   4.230   4.737  1.00 20.00    -0.181 F 
HETATM   10 CL10 UNL     1     -36.230   5.368   3.969  1.00 20.00    -0.042 Cl
ENDBRANCH   1   7
TORSDOF 2
ENDMDL
MODEL 8
REMARK VINA RESULT:      -4.6      1.855      3.425
REMARK  2 active torsions:
REMARK  status: ('A' for Active; 'I' for Inactive)
REMARK    1  A    between atoms: C1_1  and  C2_2 
REMARK    2  A    between atoms: C2_2  and  C3_3 
ROOT
HETATM    1  C2  UNL     1     -33.624   6.822   4.386  1.00 20.00     0.365 C 
HETATM    2  F5  UNL     1     -32.794   7.368   5.320  1.00 20.00    -0.193 F 
HETATM    3  F6  UNL     1     -34.618   7.733   4.195  1.00 20.00    -0.193 F 
ENDROOT
BRANCH   1   4
HETATM    4  C1  UNL     1     -34.227   5.560   4.982  1.00 20.00     0.345 C 
HETATM    5  F4  UNL     1     -34.434   5.782   6.312  1.00 20.00    -0.226 F 
HETATM    6 CL9  UNL     1     -35.780   5.115   4.249  1.00 20.00    -0.083 Cl
ENDBRANCH   1   4
BRANCH   1   7
HETATM    7  C3  UNL     1     -32.850   6.684   3.086  1.00 20.00     0.388 C 
HETATM    8  F7  UNL     1     -31.554   7.031   3.312  1.00 20.00    -0.181 F 
HETATM    9  F8  UNL     1     -33.318   7.555   2.157  1.00 20.00    -0.181 F 
HETATM   10 CL10 UNL     1     -32.897   5.040   2.429  1.00 20.00    -0.042 Cl
ENDBRANCH   1   7
TORSDOF 2
ENDMDL
MODEL 9
REMARK VINA RESULT:      -4.6      8.532      9.269
REMARK  2 active torsions:
REMARK  status: ('A' for Active; 'I' for Inactive)
REMARK    1  A    between atoms: C1_1  and  C2_2 
REMARK    2  A    between atoms: C2_2  and  C3_3 
ROOT
HETATM    1  C2  UNL     1     -41.818   7.021  -0.853  1.00 20.00     0.365 C 
HETATM    2  F5  UNL     1     -40.791   7.409  -1.662  1.00 20.00    -0.193 F 
HETATM    3  F6  UNL     1     -42.957   7.433  -1.476  1.00 20.00    -0.193 F 
ENDROOT
BRANCH   1   4
HETATM    4  C1  UNL     1     -41.683   7.771   0.462  1.00 20.00     0.345 C 
HETATM    5  F4  UNL     1     -40.591   7.279   1.115  1.00 20.00    -0.226 F 
HETATM    6 CL9  UNL     1     -41.458   9.518   0.250  1.00 20.00    -0.083 Cl
ENDBRANCH   1   4
BRANCH   1   7
HETATM    7  C3  UNL     1     -41.830   5.502  -0.798  1.00 20.00     0.388 C 
HETATM    8  F7  UNL     1     -42.102   5.116   0.478  1.00 20.00    -0.181 F 
HETATM    9  F8  UNL     1     -40.602   5.004  -1.090  1.00 20.00    -0.181 F 
HETATM   10 CL10 UNL     1     -43.032   4.784  -1.882  1.00 20.00    -0.042 Cl
ENDBRANCH   1   7
TORSDOF 2
ENDMDL
