MODEL 1
REMARK VINA RESULT:      -5.4      0.000      0.000
REMARK  0 active torsions:
REMARK  status: ('A' for Active; 'I' for Inactive)
ROOT
HETATM    1  C1  UNL     1     -34.336   6.281   6.177  1.00 20.00    -0.030 A 
HETATM    2  C2  UNL     1     -34.843   5.113   5.770  1.00 20.00    -0.030 A 
HETATM    3  C3  UNL     1     -33.467   7.152   5.323  1.00 20.00     0.036 A 
HETATM    4  C4  UNL     1     -34.602   4.533   4.410  1.00 20.00     0.036 A 
HETATM    5  C5  UNL     1     -34.518   6.704   2.994  1.00 20.00     0.020 A 
HETATM    6  C6  UNL     1     -33.284   6.742   3.871  1.00 20.00    -0.032 A 
HETATM    7  C7  UNL     1     -33.865   5.401   3.404  1.00 20.00    -0.032 A 
HETATM    8  C8  UNL     1     -32.016   7.279   3.255  1.00 20.00     0.016 C 
HETATM    9  C9  UNL     1     -33.175   4.606   2.323  1.00 20.00     0.016 C 
ENDROOT
TORSDOF 0
ENDMDL
MODEL 2
REMARK VINA RESULT:      -4.9      0.998      3.459
REMARK  0 active torsions:
REMARK  status: ('A' for Active; 'I' for Inactive)
ROOT
HETATM    1  C1  UNL     1     -33.356   4.575   2.482  1.00 20.00    -0.030 A 
HETATM    2  C2  UNL     1     -32.835   5.800   2.355  1.00 20.00    -0.030 A 
HETATM    3  C3  UNL     1     -34.146   4.129   3.674  1.00 20.00     0.036 A 
HETATM    4  C4  UNL     1     -32.976   6.874   3.390  1.00 20.00     0.036 A 
HETATM    5  C5  UNL     1     -35.355   6.343   4.278  1.00 20.00     0.020 A 
HETATM    6  C6  UNL     1     -34.489   5.181   4.715  1.00 20.00    -0.032 A 
HETATM    7  C7  UNL     1     -33.890   6.586   4.570  1.00 20.00    -0.032 A 
HETATM    8  C8  UNL     1     -34.751   4.602   6.084  1.00 20.00     0.016 C 
HETATM    9  C9  UNL     1     -33.558   7.404   5.794  1.00 20.00     0.016 C 
ENDROOT
TORSDOF 0
ENDMDL
MODEL 3
REMARK VINA RESULT:      -4.8     16.053     17.162
REMARK  0 active torsions:
REMARK  status: ('A' for Active; 'I' for Inactive)
ROOT
HETATM    1  C1  UNL     1     -25.824  19.259  10.286  1.00 20.00    -0.030 A 
HETATM    2  C2  UNL     1     -25.878  18.958  11.587  1.00 20.00    -0.030 A 
HETATM    3  C3  UNL     1     -24.643  18.961   9.413  1.00 20.00     0.036 A 
HETATM    4  C4  UNL     1     -24.764  18.288  12.332  1.00 20.00     0.036 A 
HETATM    5  C5  UNL     1     -23.841  16.733  10.472  1.00 20.00     0.020 A 
HETATM    6  C6  UNL     1     -23.517  18.143  10.023  1.00 20.00    -0.032 A 
HETATM    7  C7  UNL     1     -23.579  17.798  11.516  1.00 20.00    -0.032 A 
HETATM    8  C8  UNL     1     -22.187  18.362   9.345  1.00 20.00     0.016 C 
HETATM    9  C9  UNL     1     -22.310  17.674  12.324  1.00 20.00     0.016 C 
ENDROOT
TORSDOF 0
ENDMDL
MODEL 4
REMARK VINA RESULT:      -4.6     15.880     17.206
REMARK  0 active torsions:
REMARK  status: ('A' for Active; 'I' for Inactive)
ROOT
HETATM    1  C1  UNL     1     -23.029  18.666   8.638  1.00 20.00    -0.030 A 
HETATM    2  C2  UNL     1     -24.312  19.043   8.619  1.00 20.00    -0.030 A 
HETATM    3  C3  UNL     1     -22.360  18.061   9.834  1.00 20.00     0.036 A 
HETATM    4  C4  UNL     1     -25.235  18.908   9.791  1.00 20.00     0.036 A 
HETATM    5  C5  UNL     1     -24.336  16.708  10.830  1.00 20.00     0.020 A 
HETATM    6  C6  UNL     1     -23.238  17.731  11.030  1.00 20.00    -0.032 A 
HETATM    7  C7  UNL     1     -24.709  18.164  11.008  1.00 20.00    -0.032 A 
HETATM    8  C8  UNL     1     -22.477  17.680  12.332  1.00 20.00     0.016 C 
HETATM    9  C9  UNL     1     -25.412  18.544  12.288  1.00 20.00     0.016 C 
ENDROOT
TORSDOF 0
ENDMDL
MODEL 5
REMARK VINA RESULT:      -4.6      0.981      3.224
REMARK  0 active torsions:
REMARK  status: ('A' for Active; 'I' for Inactive)
ROOT
HETATM    1  C1  UNL     1     -32.504   6.868   2.802  1.00 20.00    -0.030 A 
HETATM    2  C2  UNL     1     -32.687   7.602   3.904  1.00 20.00    -0.030 A 
HETATM    3  C3  UNL     1     -33.093   5.505   2.605  1.00 20.00     0.036 A 
HETATM    4  C4  UNL     1     -33.502   7.150   5.077  1.00 20.00     0.036 A 
HETATM    5  C5  UNL     1     -35.347   5.795   3.857  1.00 20.00     0.020 A 
HETATM    6  C6  UNL     1     -34.067   5.009   3.661  1.00 20.00    -0.032 A 
HETATM    7  C7  UNL     1     -34.277   5.851   4.926  1.00 20.00    -0.032 A 
HETATM    8  C8  UNL     1     -34.166   3.505   3.722  1.00 20.00     0.016 C 
HETATM    9  C9  UNL     1     -34.584   5.184   6.244  1.00 20.00     0.016 C 
ENDROOT
TORSDOF 0
ENDMDL
MODEL 6
REMARK VINA RESULT:      -4.3     12.008     13.006
REMARK  0 active torsions:
REMARK  status: ('A' for Active; 'I' for Inactive)
ROOT
HETATM    1  C1  UNL     1     -35.073  15.905  -2.244  1.00 20.00    -0.030 A 
HETATM    2  C2  UNL     1     -33.964  15.969  -2.988  1.00 20.00    -0.030 A 
HETATM    3  C3  UNL     1     -35.291  16.720  -1.006  1.00 20.00     0.036 A 
HETATM    4  C4  UNL     1     -32.804  16.863  -2.673  1.00 20.00     0.036 A 
HETATM    5  C5  UNL     1     -34.055  18.902  -1.671  1.00 20.00     0.020 A 
HETATM    6  C6  UNL     1     -34.249  17.776  -0.677  1.00 20.00    -0.032 A 
HETATM    7  C7  UNL     1     -32.976  17.850  -1.530  1.00 20.00    -0.032 A 
HETATM    8  C8  UNL     1     -34.206  18.135   0.788  1.00 20.00     0.016 C 
HETATM    9  C9  UNL     1     -31.668  18.282  -0.914  1.00 20.00     0.016 C 
ENDROOT
TORSDOF 0
ENDMDL
MODEL 7
REMARK VINA RESULT:      -4.2      9.158     10.001
REMARK  0 active torsions:
REMARK  status: ('A' for Active; 'I' for Inactive)
ROOT
HETATM    1  C1  UNL     1     -41.774   8.709  -0.459  1.00 20.00    -0.030 A 
HETATM    2  C2  UNL     1     -42.735   8.633   0.468  1.00 20.00    -0.030 A 
HETATM    3  C3  UNL     1     -41.205   7.517  -1.165  1.00 20.00     0.036 A 
HETATM    4  C4  UNL     1     -43.357   7.346   0.915  1.00 20.00     0.036 A 
HETATM    5  C5  UNL     1     -43.319   6.021  -1.314  1.00 20.00     0.020 A 
HETATM    6  C6  UNL     1     -41.868   6.174  -0.907  1.00 20.00    -0.032 A 
HETATM    7  C7  UNL     1     -42.970   6.087   0.157  1.00 20.00    -0.032 A 
HETATM    8  C8  UNL     1     -40.954   5.000  -1.156  1.00 20.00     0.016 C 
HETATM    9  C9  UNL     1     -43.151   4.826   0.966  1.00 20.00     0.016 C 
ENDROOT
TORSDOF 0
ENDMDL
MODEL 8
REMARK VINA RESULT:      -4.2     11.642     12.719
REMARK  0 active torsions:
REMARK  status: ('A' for Active; 'I' for Inactive)
ROOT
HETATM    1  C1  UNL     1     -34.001  15.879  -2.716  1.00 20.00    -0.030 A 
HETATM    2  C2  UNL     1     -33.189  15.539  -3.723  1.00 20.00    -0.030 A 
HETATM    3  C3  UNL     1     -35.492  15.748  -2.772  1.00 20.00     0.036 A 
HETATM    4  C4  UNL     1     -33.673  14.988  -5.030  1.00 20.00     0.036 A 
HETATM    5  C5  UNL     1     -35.711  13.605  -4.217  1.00 20.00     0.020 A 
HETATM    6  C6  UNL     1     -36.084  15.055  -3.987  1.00 20.00    -0.032 A 
HETATM    7  C7  UNL     1     -35.154  14.666  -5.142  1.00 20.00    -0.032 A 
HETATM    8  C8  UNL     1     -37.515  15.450  -4.260  1.00 20.00     0.016 C 
HETATM    9  C9  UNL     1     -35.658  14.674  -6.565  1.00 20.00     0.016 C 
ENDROOT
TORSDOF 0
ENDMDL
MODEL 9
REMARK VINA RESULT:      -4.1     11.784     12.786
REMARK  0 active torsions:
REMARK  status: ('A' for Active; 'I' for Inactive)
ROOT
HETATM    1  C1  UNL     1     -34.681  14.546  -3.777  1.00 20.00    -0.030 A 
HETATM    2  C2  UNL     1     -33.450  14.900  -4.161  1.00 20.00    -0.030 A 
HETATM    3  C3  UNL     1     -35.463  15.268  -2.723  1.00 20.00     0.036 A 
HETATM    4  C4  UNL     1     -32.703  16.062  -3.581  1.00 20.00     0.036 A 
HETATM    5  C5  UNL     1     -34.666  17.700  -3.148  1.00 20.00     0.020 A 
HETATM    6  C6  UNL     1     -34.868  16.556  -2.177  1.00 20.00    -0.032 A 
HETATM    7  C7  UNL     1     -33.456  16.962  -2.616  1.00 20.00    -0.032 A 
HETATM    8  C8  UNL     1     -35.367  16.904  -0.796  1.00 20.00     0.016 C 
HETATM    9  C9  UNL     1     -32.550  17.714  -1.672  1.00 20.00     0.016 C 
ENDROOT
TORSDOF 0
ENDMDL
