MODEL 1
REMARK VINA RESULT:      -4.2      0.000      0.000
REMARK  6 active torsions:
REMARK  status: ('A' for Active; 'I' for Inactive)
REMARK    1  A    between atoms: C5_5  and  C6_6 
REMARK    2  A    between atoms: C5_5  and  C7_7 
REMARK    3  A    between atoms: C6_6  and  C9_9 
REMARK    4  A    between atoms: C7_7  and  O11_11 
REMARK    5  A    between atoms: C8_8  and  C9_9 
REMARK    6  A    between atoms: C9_9  and  C10_10 
ROOT
HETATM    1  C9  UNL     1     -34.160  15.247  -4.348  1.00 20.00     0.007 C 
ENDROOT
BRANCH   1   2
HETATM    2  C6  UNL     1     -34.936  13.978  -3.898  1.00 20.00     0.008 C 
BRANCH   2   3
HETATM    3  C5  UNL     1     -36.246  13.745  -4.665  1.00 20.00     0.027 C 
BRANCH   3   4
HETATM    4  C7  UNL     1     -37.385  14.606  -4.131  1.00 20.00     0.167 C 
BRANCH   4   5
HETATM    5  O11 UNL     1     -38.633  14.002  -4.437  1.00 20.00    -0.396 OA
HETATM    6  C4  UNL     1     -39.695  14.948  -4.400  1.00 20.00     0.201 C 
ENDBRANCH   4   5
ENDBRANCH   3   4
ENDBRANCH   2   3
ENDBRANCH   1   2
BRANCH   1   7
HETATM    7  C8  UNL     1     -34.170  16.388  -3.276  1.00 20.00    -0.017 C 
HETATM    8  C1  UNL     1     -34.976  16.015  -2.026  1.00 20.00     0.010 C 
HETATM    9  C2  UNL     1     -32.798  16.920  -2.858  1.00 20.00     0.010 C 
ENDBRANCH   1   7
BRANCH   1  10
HETATM   10  C10 UNL     1     -34.540  15.695  -5.793  1.00 20.00     0.082 C 
HETATM   11  C3  UNL     1     -33.686  15.018  -6.866  1.00 20.00     0.027 C 
HETATM   12 CL12 UNL     1     -34.441  17.464  -6.035  1.00 20.00    -0.125 Cl
ENDBRANCH   1  10
TORSDOF 6
ENDMDL
MODEL 2
REMARK VINA RESULT:      -4.2      2.525      3.920
REMARK  6 active torsions:
REMARK  status: ('A' for Active; 'I' for Inactive)
REMARK    1  A    between atoms: C5_5  and  C6_6 
REMARK    2  A    between atoms: C5_5  and  C7_7 
REMARK    3  A    between atoms: C6_6  and  C9_9 
REMARK    4  A    between atoms: C7_7  and  O11_11 
REMARK    5  A    between atoms: C8_8  and  C9_9 
REMARK    6  A    between atoms: C9_9  and  C10_10 
ROOT
HETATM    1  C9  UNL     1     -33.494  16.924  -2.105  1.00 20.00     0.007 C 
ENDROOT
BRANCH   1   2
HETATM    2  C6  UNL     1     -33.291  16.638  -3.619  1.00 20.00     0.008 C 
BRANCH   2   3
HETATM    3  C5  UNL     1     -33.203  15.144  -3.963  1.00 20.00     0.027 C 
BRANCH   3   4
HETATM    4  C7  UNL     1     -34.250  14.728  -4.990  1.00 20.00     0.167 C 
BRANCH   4   5
HETATM    5  O11 UNL     1     -34.979  13.607  -4.512  1.00 20.00    -0.396 OA
HETATM    6  C4  UNL     1     -36.377  13.867  -4.480  1.00 20.00     0.201 C 
ENDBRANCH   4   5
ENDBRANCH   3   4
ENDBRANCH   2   3
ENDBRANCH   1   2
BRANCH   1   7
HETATM    7  C8  UNL     1     -34.953  16.638  -1.614  1.00 20.00    -0.017 C 
HETATM    8  C1  UNL     1     -35.217  17.182  -0.204  1.00 20.00     0.010 C 
HETATM    9  C2  UNL     1     -36.072  17.093  -2.552  1.00 20.00     0.010 C 
ENDBRANCH   1   7
BRANCH   1  10
HETATM   10  C10 UNL     1     -32.915  18.308  -1.679  1.00 20.00     0.082 C 
HETATM   11  C3  UNL     1     -32.620  19.219  -2.872  1.00 20.00     0.027 C 
HETATM   12 CL12 UNL     1     -31.428  18.182  -0.693  1.00 20.00    -0.125 Cl
ENDBRANCH   1  10
TORSDOF 6
ENDMDL
MODEL 3
REMARK VINA RESULT:      -4.1      1.438      2.111
REMARK  6 active torsions:
REMARK  status: ('A' for Active; 'I' for Inactive)
REMARK    1  A    between atoms: C5_5  and  C6_6 
REMARK    2  A    between atoms: C5_5  and  C7_7 
REMARK    3  A    between atoms: C6_6  and  C9_9 
REMARK    4  A    between atoms: C7_7  and  O11_11 
REMARK    5  A    between atoms: C8_8  and  C9_9 
REMARK    6  A    between atoms: C9_9  and  C10_10 
ROOT
HETATM    1  C9  UNL     1     -34.104  16.351  -3.502  1.00 20.00     0.007 C 
ENDROOT
BRANCH   1   2
HETATM    2  C6  UNL     1     -35.187  15.298  -3.135  1.00 20.00     0.008 C 
BRANCH   2   3
HETATM    3  C5  UNL     1     -35.191  14.066  -4.051  1.00 20.00     0.027 C 
BRANCH   3   4
HETATM    4  C7  UNL     1     -36.364  14.079  -5.025  1.00 20.00     0.167 C 
BRANCH   4   5
HETATM    5  O11 UNL     1     -37.552  13.678  -4.359  1.00 20.00    -0.396 OA
HETATM    6  C4  UNL     1     -38.504  14.733  -4.305  1.00 20.00     0.201 C 
ENDBRANCH   4   5
ENDBRANCH   3   4
ENDBRANCH   2   3
ENDBRANCH   1   2
BRANCH   1   7
HETATM    7  C8  UNL     1     -33.413  16.987  -2.249  1.00 20.00    -0.017 C 
HETATM    8  C1  UNL     1     -32.612  18.249  -2.595  1.00 20.00     0.010 C 
HETATM    9  C2  UNL     1     -34.331  17.278  -1.060  1.00 20.00     0.010 C 
ENDBRANCH   1   7
BRANCH   1  10
HETATM   10  C10 UNL     1     -34.605  17.374  -4.568  1.00 20.00     0.082 C 
HETATM   11  C3  UNL     1     -36.078  17.742  -4.387  1.00 20.00     0.027 C 
HETATM   12 CL12 UNL     1     -34.372  16.815  -6.251  1.00 20.00    -0.125 Cl
ENDBRANCH   1  10
TORSDOF 6
ENDMDL
MODEL 4
REMARK VINA RESULT:      -4.1      3.695      5.795
REMARK  6 active torsions:
REMARK  status: ('A' for Active; 'I' for Inactive)
REMARK    1  A    between atoms: C5_5  and  C6_6 
REMARK    2  A    between atoms: C5_5  and  C7_7 
REMARK    3  A    between atoms: C6_6  and  C9_9 
REMARK    4  A    between atoms: C7_7  and  O11_11 
REMARK    5  A    between atoms: C8_8  and  C9_9 
REMARK    6  A    between atoms: C9_9  and  C10_10 
ROOT
HETATM    1  C9  UNL     1     -34.507  16.189  -2.539  1.00 20.00     0.007 C 
ENDROOT
BRANCH   1   2
HETATM    2  C6  UNL     1     -33.179  16.996  -2.564  1.00 20.00     0.008 C 
BRANCH   2   3
HETATM    3  C5  UNL     1     -32.854  17.701  -1.239  1.00 20.00     0.027 C 
BRANCH   3   4
HETATM    4  C7  UNL     1     -31.806  18.795  -1.413  1.00 20.00     0.167 C 
BRANCH   4   5
HETATM    5  O11 UNL     1     -30.645  18.477  -0.658  1.00 20.00    -0.396 OA
HETATM    6  C4  UNL     1     -30.949  18.298   0.719  1.00 20.00     0.201 C 
ENDBRANCH   4   5
ENDBRANCH   3   4
ENDBRANCH   2   3
ENDBRANCH   1   2
BRANCH   1   7
HETATM    7  C8  UNL     1     -34.436  14.859  -3.361  1.00 20.00    -0.017 C 
HETATM    8  C1  UNL     1     -35.768  14.517  -4.042  1.00 20.00     0.010 C 
HETATM    9  C2  UNL     1     -33.303  14.770  -4.384  1.00 20.00     0.010 C 
ENDBRANCH   1   7
BRANCH   1  10
HETATM   10  C10 UNL     1     -35.751  17.083  -2.836  1.00 20.00     0.082 C 
HETATM   11  C3  UNL     1     -35.435  18.239  -3.787  1.00 20.00     0.027 C 
HETATM   12 CL12 UNL     1     -36.505  17.762  -1.364  1.00 20.00    -0.125 Cl
ENDBRANCH   1  10
TORSDOF 6
ENDMDL
MODEL 5
REMARK VINA RESULT:      -4.1      1.507      2.033
REMARK  6 active torsions:
REMARK  status: ('A' for Active; 'I' for Inactive)
REMARK    1  A    between atoms: C5_5  and  C6_6 
REMARK    2  A    between atoms: C5_5  and  C7_7 
REMARK    3  A    between atoms: C6_6  and  C9_9 
REMARK    4  A    between atoms: C7_7  and  O11_11 
REMARK    5  A    between atoms: C8_8  and  C9_9 
REMARK    6  A    between atoms: C9_9  and  C10_10 
ROOT
HETATM    1  C9  UNL     1     -34.748  15.736  -3.794  1.00 20.00     0.007 C 
ENDROOT
BRANCH   1   2
HETATM    2  C6  UNL     1     -35.861  16.700  -4.290  1.00 20.00     0.008 C 
BRANCH   2   3
HETATM    3  C5  UNL     1     -37.250  16.053  -4.381  1.00 20.00     0.027 C 
BRANCH   3   4
HETATM    4  C7  UNL     1     -37.197  14.546  -4.155  1.00 20.00     0.167 C 
BRANCH   4   5
HETATM    5  O11 UNL     1     -38.475  13.974  -4.395  1.00 20.00    -0.396 OA
HETATM    6  C4  UNL     1     -39.509  14.944  -4.294  1.00 20.00     0.201 C 
ENDBRANCH   4   5
ENDBRANCH   3   4
ENDBRANCH   2   3
ENDBRANCH   1   2
BRANCH   1   7
HETATM    7  C8  UNL     1     -34.201  16.105  -2.374  1.00 20.00    -0.017 C 
HETATM    8  C1  UNL     1     -33.040  17.106  -2.432  1.00 20.00     0.010 C 
HETATM    9  C2  UNL     1     -35.243  16.592  -1.366  1.00 20.00     0.010 C 
ENDBRANCH   1   7
BRANCH   1  10
HETATM   10  C10 UNL     1     -33.653  15.483  -4.876  1.00 20.00     0.082 C 
HETATM   11  C3  UNL     1     -34.244  15.143  -6.245  1.00 20.00     0.027 C 
HETATM   12 CL12 UNL     1     -32.500  14.191  -4.430  1.00 20.00    -0.125 Cl
ENDBRANCH   1  10
TORSDOF 6
ENDMDL
MODEL 6
REMARK VINA RESULT:      -4.1      1.702      3.065
REMARK  6 active torsions:
REMARK  status: ('A' for Active; 'I' for Inactive)
REMARK    1  A    between atoms: C5_5  and  C6_6 
REMARK    2  A    between atoms: C5_5  and  C7_7 
REMARK    3  A    between atoms: C6_6  and  C9_9 
REMARK    4  A    between atoms: C7_7  and  O11_11 
REMARK    5  A    between atoms: C8_8  and  C9_9 
REMARK    6  A    between atoms: C9_9  and  C10_10 
ROOT
HETATM    1  C9  UNL     1     -34.617  16.135  -3.557  1.00 20.00     0.007 C 
ENDROOT
BRANCH   1   2
HETATM    2  C6  UNL     1     -34.159  14.764  -4.128  1.00 20.00     0.008 C 
BRANCH   2   3
HETATM    3  C5  UNL     1     -35.210  13.652  -3.995  1.00 20.00     0.027 C 
BRANCH   3   4
HETATM    4  C7  UNL     1     -36.303  13.766  -5.052  1.00 20.00     0.167 C 
BRANCH   4   5
HETATM    5  O11 UNL     1     -37.581  13.674  -4.440  1.00 20.00    -0.396 OA
HETATM    6  C4  UNL     1     -38.165  14.956  -4.252  1.00 20.00     0.201 C 
ENDBRANCH   4   5
ENDBRANCH   3   4
ENDBRANCH   2   3
ENDBRANCH   1   2
BRANCH   1   7
HETATM    7  C8  UNL     1     -34.486  17.307  -4.587  1.00 20.00    -0.017 C 
HETATM    8  C1  UNL     1     -34.469  16.814  -6.040  1.00 20.00     0.010 C 
HETATM    9  C2  UNL     1     -35.509  18.434  -4.444  1.00 20.00     0.010 C 
ENDBRANCH   1   7
BRANCH   1  10
HETATM   10  C10 UNL     1     -34.011  16.424  -2.149  1.00 20.00     0.082 C 
HETATM   11  C3  UNL     1     -35.068  16.840  -1.125  1.00 20.00     0.027 C 
HETATM   12 CL12 UNL     1     -32.733  17.675  -2.170  1.00 20.00    -0.125 Cl
ENDBRANCH   1  10
TORSDOF 6
ENDMDL
MODEL 7
REMARK VINA RESULT:      -4.1      2.337      3.471
REMARK  6 active torsions:
REMARK  status: ('A' for Active; 'I' for Inactive)
REMARK    1  A    between atoms: C5_5  and  C6_6 
REMARK    2  A    between atoms: C5_5  and  C7_7 
REMARK    3  A    between atoms: C6_6  and  C9_9 
REMARK    4  A    between atoms: C7_7  and  O11_11 
REMARK    5  A    between atoms: C8_8  and  C9_9 
REMARK    6  A    between atoms: C9_9  and  C10_10 
ROOT
HETATM    1  C9  UNL     1     -34.748  16.716  -2.294  1.00 20.00     0.007 C 
ENDROOT
BRANCH   1   2
HETATM    2  C6  UNL     1     -35.392  15.356  -2.684  1.00 20.00     0.008 C 
BRANCH   2   3
HETATM    3  C5  UNL     1     -36.484  15.470  -3.757  1.00 20.00     0.027 C 
BRANCH   3   4
HETATM    4  C7  UNL     1     -36.734  14.143  -4.465  1.00 20.00     0.167 C 
BRANCH   4   5
HETATM    5  O11 UNL     1     -38.115  13.817  -4.411  1.00 20.00    -0.396 OA
HETATM    6  C4  UNL     1     -38.918  14.973  -4.211  1.00 20.00     0.201 C 
ENDBRANCH   4   5
ENDBRANCH   3   4
ENDBRANCH   2   3
ENDBRANCH   1   2
BRANCH   1   7
HETATM    7  C8  UNL     1     -33.282  16.877  -2.819  1.00 20.00    -0.017 C 
HETATM    8  C1  UNL     1     -32.818  15.673  -3.649  1.00 20.00     0.010 C 
HETATM    9  C2  UNL     1     -32.989  18.167  -3.586  1.00 20.00     0.010 C 
ENDBRANCH   1   7
BRANCH   1  10
HETATM   10  C10 UNL     1     -34.950  17.059  -0.786  1.00 20.00     0.082 C 
HETATM   11  C3  UNL     1     -36.278  17.766  -0.513  1.00 20.00     0.027 C 
HETATM   12 CL12 UNL     1     -33.635  18.062  -0.104  1.00 20.00    -0.125 Cl
ENDBRANCH   1  10
TORSDOF 6
ENDMDL
MODEL 8
REMARK VINA RESULT:      -4.0      1.865      2.621
REMARK  6 active torsions:
REMARK  status: ('A' for Active; 'I' for Inactive)
REMARK    1  A    between atoms: C5_5  and  C6_6 
REMARK    2  A    between atoms: C5_5  and  C7_7 
REMARK    3  A    between atoms: C6_6  and  C9_9 
REMARK    4  A    between atoms: C7_7  and  O11_11 
REMARK    5  A    between atoms: C8_8  and  C9_9 
REMARK    6  A    between atoms: C9_9  and  C10_10 
ROOT
HETATM    1  C9  UNL     1     -33.781  16.769  -3.150  1.00 20.00     0.007 C 
ENDROOT
BRANCH   1   2
HETATM    2  C6  UNL     1     -34.545  15.449  -2.853  1.00 20.00     0.008 C 
BRANCH   2   3
HETATM    3  C5  UNL     1     -34.543  14.454  -4.022  1.00 20.00     0.027 C 
BRANCH   3   4
HETATM    4  C7  UNL     1     -35.941  13.928  -4.330  1.00 20.00     0.167 C 
BRANCH   4   5
HETATM    5  O11 UNL     1     -36.040  13.594  -5.707  1.00 20.00    -0.396 OA
HETATM    6  C4  UNL     1     -35.610  14.664  -6.538  1.00 20.00     0.201 C 
ENDBRANCH   4   5
ENDBRANCH   3   4
ENDBRANCH   2   3
ENDBRANCH   1   2
BRANCH   1   7
HETATM    7  C8  UNL     1     -33.711  17.732  -1.916  1.00 20.00    -0.017 C 
HETATM    8  C1  UNL     1     -34.691  17.336  -0.805  1.00 20.00     0.010 C 
HETATM    9  C2  UNL     1     -32.320  17.943  -1.317  1.00 20.00     0.010 C 
ENDBRANCH   1   7
BRANCH   1  10
HETATM   10  C10 UNL     1     -34.244  17.438  -4.481  1.00 20.00     0.082 C 
HETATM   11  C3  UNL     1     -33.530  18.762  -4.757  1.00 20.00     0.027 C 
HETATM   12 CL12 UNL     1     -36.008  17.729  -4.553  1.00 20.00    -0.125 Cl
ENDBRANCH   1  10
TORSDOF 6
ENDMDL
MODEL 9
REMARK VINA RESULT:      -4.0      2.359      3.658
REMARK  6 active torsions:
REMARK  status: ('A' for Active; 'I' for Inactive)
REMARK    1  A    between atoms: C5_5  and  C6_6 
REMARK    2  A    between atoms: C5_5  and  C7_7 
REMARK    3  A    between atoms: C6_6  and  C9_9 
REMARK    4  A    between atoms: C7_7  and  O11_11 
REMARK    5  A    between atoms: C8_8  and  C9_9 
REMARK    6  A    between atoms: C9_9  and  C10_10 
ROOT
HETATM    1  C9  UNL     1     -34.241  16.545  -1.974  1.00 20.00     0.007 C 
ENDROOT
BRANCH   1   2
HETATM    2  C6  UNL     1     -34.932  15.678  -3.063  1.00 20.00     0.008 C 
BRANCH   2   3
HETATM    3  C5  UNL     1     -33.977  14.728  -3.800  1.00 20.00     0.027 C 
BRANCH   3   4
HETATM    4  C7  UNL     1     -33.977  14.968  -5.306  1.00 20.00     0.167 C 
BRANCH   4   5
HETATM    5  O11 UNL     1     -34.988  14.183  -5.921  1.00 20.00    -0.396 OA
HETATM    6  C4  UNL     1     -35.733  14.938  -6.867  1.00 20.00     0.201 C 
ENDBRANCH   4   5
ENDBRANCH   3   4
ENDBRANCH   2   3
ENDBRANCH   1   2
BRANCH   1   7
HETATM    7  C8  UNL     1     -35.231  17.500  -1.226  1.00 20.00    -0.017 C 
HETATM    8  C1  UNL     1     -36.557  17.678  -1.976  1.00 20.00     0.010 C 
HETATM    9  C2  UNL     1     -35.517  17.147   0.235  1.00 20.00     0.010 C 
ENDBRANCH   1   7
BRANCH   1  10
HETATM   10  C10 UNL     1     -32.937  17.225  -2.494  1.00 20.00     0.082 C 
HETATM   11  C3  UNL     1     -32.225  18.042  -1.414  1.00 20.00     0.027 C 
HETATM   12 CL12 UNL     1     -33.205  18.286  -3.909  1.00 20.00    -0.125 Cl
ENDBRANCH   1  10
TORSDOF 6
ENDMDL
