MODEL 1
REMARK VINA RESULT:      -4.5      0.000      0.000
REMARK  4 active torsions:
REMARK  status: ('A' for Active; 'I' for Inactive)
REMARK    1  A    between atoms: C2_2  and  C8_8 
REMARK    2  A    between atoms: C3_3  and  C9_9 
REMARK    3  A    between atoms: C8_8  and  C9_9 
REMARK    4  A    between atoms: C9_9  and  C10_10 
ROOT
HETATM    1  C9  UNL     1     -35.574  15.239  -4.478  1.00 20.00     0.062 C 
ENDROOT
BRANCH   1   2
HETATM    2  C3  UNL     1     -36.548  14.055  -4.486  1.00 20.00     0.127 C 
HETATM    3  C5  UNL     1     -38.011  14.380  -4.322  1.00 20.00     0.091 C 
HETATM    4  O11 UNL     1     -36.169  12.888  -4.595  1.00 20.00    -0.298 OA
ENDBRANCH   1   2
BRANCH   1   5
HETATM    5  C8  UNL     1     -34.394  14.981  -3.517  1.00 20.00     0.045 C 
BRANCH   5   6
HETATM    6  C2  UNL     1     -34.096  16.143  -2.591  1.00 20.00    -0.092 C 
HETATM    7  C1  UNL     1     -32.967  16.860  -2.705  1.00 20.00     0.014 C 
HETATM    8  C4  UNL     1     -35.095  16.432  -1.507  1.00 20.00     0.042 C 
ENDBRANCH   5   6
ENDBRANCH   1   5
BRANCH   1   9
HETATM    9  C10 UNL     1     -35.150  15.562  -5.935  1.00 20.00    -0.011 C 
HETATM   10  C6  UNL     1     -33.804  14.914  -6.278  1.00 20.00     0.010 C 
HETATM   11  C7  UNL     1     -35.093  17.061  -6.247  1.00 20.00     0.010 C 
ENDBRANCH   1   9
TORSDOF 4
ENDMDL
MODEL 2
REMARK VINA RESULT:      -4.5      0.994      1.502
REMARK  4 active torsions:
REMARK  status: ('A' for Active; 'I' for Inactive)
REMARK    1  A    between atoms: C2_2  and  C8_8 
REMARK    2  A    between atoms: C3_3  and  C9_9 
REMARK    3  A    between atoms: C8_8  and  C9_9 
REMARK    4  A    between atoms: C9_9  and  C10_10 
ROOT
HETATM    1  C9  UNL     1     -35.859  15.254  -4.729  1.00 20.00     0.062 C 
ENDROOT
BRANCH   1   2
HETATM    2  C3  UNL     1     -37.302  14.820  -4.443  1.00 20.00     0.127 C 
HETATM    3  C5  UNL     1     -38.287  15.916  -4.123  1.00 20.00     0.091 C 
HETATM    4  O11 UNL     1     -37.651  13.640  -4.447  1.00 20.00    -0.298 OA
ENDBRANCH   1   2
BRANCH   1   5
HETATM    5  C8  UNL     1     -34.898  14.740  -3.635  1.00 20.00     0.045 C 
BRANCH   5   6
HETATM    6  C2  UNL     1     -34.379  15.830  -2.719  1.00 20.00    -0.092 C 
HETATM    7  C1  UNL     1     -35.101  16.276  -1.678  1.00 20.00     0.014 C 
HETATM    8  C4  UNL     1     -33.040  16.425  -3.050  1.00 20.00     0.042 C 
ENDBRANCH   5   6
ENDBRANCH   1   5
BRANCH   1   9
HETATM    9  C10 UNL     1     -35.472  14.826  -6.169  1.00 20.00    -0.011 C 
HETATM   10  C6  UNL     1     -33.960  14.942  -6.395  1.00 20.00     0.010 C 
HETATM   11  C7  UNL     1     -36.217  15.593  -7.266  1.00 20.00     0.010 C 
ENDBRANCH   1   9
TORSDOF 4
ENDMDL
MODEL 3
REMARK VINA RESULT:      -4.3      0.881      3.350
REMARK  4 active torsions:
REMARK  status: ('A' for Active; 'I' for Inactive)
REMARK    1  A    between atoms: C2_2  and  C8_8 
REMARK    2  A    between atoms: C3_3  and  C9_9 
REMARK    3  A    between atoms: C8_8  and  C9_9 
REMARK    4  A    between atoms: C9_9  and  C10_10 
ROOT
HETATM    1  C9  UNL     1     -34.948  14.844  -4.707  1.00 20.00     0.062 C 
ENDROOT
BRANCH   1   2
HETATM    2  C3  UNL     1     -36.074  13.820  -4.518  1.00 20.00     0.127 C 
HETATM    3  C5  UNL     1     -37.478  14.365  -4.443  1.00 20.00     0.091 C 
HETATM    4  O11 UNL     1     -35.859  12.613  -4.409  1.00 20.00    -0.298 OA
ENDBRANCH   1   2
BRANCH   1   5
HETATM    5  C8  UNL     1     -35.454  16.093  -5.459  1.00 20.00     0.045 C 
BRANCH   5   6
HETATM    6  C2  UNL     1     -34.611  16.465  -6.662  1.00 20.00    -0.092 C 
HETATM    7  C1  UNL     1     -34.441  17.744  -7.032  1.00 20.00     0.014 C 
HETATM    8  C4  UNL     1     -34.009  15.339  -7.453  1.00 20.00     0.042 C 
ENDBRANCH   5   6
ENDBRANCH   1   5
BRANCH   1   9
HETATM    9  C10 UNL     1     -34.296  15.147  -3.332  1.00 20.00    -0.011 C 
HETATM   10  C6  UNL     1     -35.248  15.941  -2.430  1.00 20.00     0.010 C 
HETATM   11  C7  UNL     1     -32.952  15.875  -3.429  1.00 20.00     0.010 C 
ENDBRANCH   1   9
TORSDOF 4
ENDMDL
MODEL 4
REMARK VINA RESULT:      -4.3      1.203      1.502
REMARK  4 active torsions:
REMARK  status: ('A' for Active; 'I' for Inactive)
REMARK    1  A    between atoms: C2_2  and  C8_8 
REMARK    2  A    between atoms: C3_3  and  C9_9 
REMARK    3  A    between atoms: C8_8  and  C9_9 
REMARK    4  A    between atoms: C9_9  and  C10_10 
ROOT
HETATM    1  C9  UNL     1     -35.237  15.015  -4.214  1.00 20.00     0.062 C 
ENDROOT
BRANCH   1   2
HETATM    2  C3  UNL     1     -36.365  13.985  -4.338  1.00 20.00     0.127 C 
HETATM    3  C5  UNL     1     -37.775  14.519  -4.319  1.00 20.00     0.091 C 
HETATM    4  O11 UNL     1     -36.150  12.776  -4.426  1.00 20.00    -0.298 OA
ENDBRANCH   1   2
BRANCH   1   5
HETATM    5  C8  UNL     1     -34.904  15.298  -2.734  1.00 20.00     0.045 C 
BRANCH   5   6
HETATM    6  C2  UNL     1     -35.292  16.690  -2.277  1.00 20.00    -0.092 C 
HETATM    7  C1  UNL     1     -35.617  17.652  -3.154  1.00 20.00     0.014 C 
HETATM    8  C4  UNL     1     -35.252  16.964  -0.800  1.00 20.00     0.042 C 
ENDBRANCH   5   6
ENDBRANCH   1   5
BRANCH   1   9
HETATM    9  C10 UNL     1     -34.023  14.550  -5.063  1.00 20.00    -0.011 C 
HETATM   10  C6  UNL     1     -32.702  14.817  -4.333  1.00 20.00     0.010 C 
HETATM   11  C7  UNL     1     -33.972  15.168  -6.464  1.00 20.00     0.010 C 
ENDBRANCH   1   9
TORSDOF 4
ENDMDL
MODEL 5
REMARK VINA RESULT:      -4.1      1.358      2.024
REMARK  4 active torsions:
REMARK  status: ('A' for Active; 'I' for Inactive)
REMARK    1  A    between atoms: C2_2  and  C8_8 
REMARK    2  A    between atoms: C3_3  and  C9_9 
REMARK    3  A    between atoms: C8_8  and  C9_9 
REMARK    4  A    between atoms: C9_9  and  C10_10 
ROOT
HETATM    1  C9  UNL     1     -36.235  15.559  -3.700  1.00 20.00     0.062 C 
ENDROOT
BRANCH   1   2
HETATM    2  C3  UNL     1     -36.768  14.216  -4.211  1.00 20.00     0.127 C 
HETATM    3  C5  UNL     1     -35.743  13.159  -4.537  1.00 20.00     0.091 C 
HETATM    4  O11 UNL     1     -37.969  14.001  -4.374  1.00 20.00    -0.298 OA
ENDBRANCH   1   2
BRANCH   1   5
HETATM    5  C8  UNL     1     -34.763  15.436  -3.249  1.00 20.00     0.045 C 
BRANCH   5   6
HETATM    6  C2  UNL     1     -34.374  16.419  -2.163  1.00 20.00    -0.092 C 
HETATM    7  C1  UNL     1     -35.194  16.691  -1.136  1.00 20.00     0.014 C 
HETATM    8  C4  UNL     1     -33.050  17.113  -2.308  1.00 20.00     0.042 C 
ENDBRANCH   5   6
ENDBRANCH   1   5
BRANCH   1   9
HETATM    9  C10 UNL     1     -36.483  16.651  -4.774  1.00 20.00    -0.011 C 
HETATM   10  C6  UNL     1     -35.240  16.866  -5.644  1.00 20.00     0.010 C 
HETATM   11  C7  UNL     1     -36.949  17.993  -4.200  1.00 20.00     0.010 C 
ENDBRANCH   1   9
TORSDOF 4
ENDMDL
MODEL 6
REMARK VINA RESULT:      -4.0      1.366      3.795
REMARK  4 active torsions:
REMARK  status: ('A' for Active; 'I' for Inactive)
REMARK    1  A    between atoms: C2_2  and  C8_8 
REMARK    2  A    between atoms: C3_3  and  C9_9 
REMARK    3  A    between atoms: C8_8  and  C9_9 
REMARK    4  A    between atoms: C9_9  and  C10_10 
ROOT
HETATM    1  C9  UNL     1     -34.920  15.480  -4.025  1.00 20.00     0.062 C 
ENDROOT
BRANCH   1   2
HETATM    2  C3  UNL     1     -33.976  14.693  -4.941  1.00 20.00     0.127 C 
HETATM    3  C5  UNL     1     -33.997  15.054  -6.405  1.00 20.00     0.091 C 
HETATM    4  O11 UNL     1     -33.249  13.792  -4.524  1.00 20.00    -0.298 OA
ENDBRANCH   1   2
BRANCH   1   5
HETATM    5  C8  UNL     1     -36.255  14.730  -3.827  1.00 20.00     0.045 C 
BRANCH   5   6
HETATM    6  C2  UNL     1     -37.440  15.412  -4.482  1.00 20.00    -0.092 C 
HETATM    7  C1  UNL     1     -37.291  16.522  -5.221  1.00 20.00     0.014 C 
HETATM    8  C4  UNL     1     -38.798  14.821  -4.230  1.00 20.00     0.042 C 
ENDBRANCH   5   6
ENDBRANCH   1   5
BRANCH   1   9
HETATM    9  C10 UNL     1     -34.182  15.826  -2.704  1.00 20.00    -0.011 C 
HETATM   10  C6  UNL     1     -35.159  16.342  -1.642  1.00 20.00     0.010 C 
HETATM   11  C7  UNL     1     -33.034  16.825  -2.878  1.00 20.00     0.010 C 
ENDBRANCH   1   9
TORSDOF 4
ENDMDL
MODEL 7
REMARK VINA RESULT:      -4.0      1.290      2.703
REMARK  4 active torsions:
REMARK  status: ('A' for Active; 'I' for Inactive)
REMARK    1  A    between atoms: C2_2  and  C8_8 
REMARK    2  A    between atoms: C3_3  and  C9_9 
REMARK    3  A    between atoms: C8_8  and  C9_9 
REMARK    4  A    between atoms: C9_9  and  C10_10 
ROOT
HETATM    1  C9  UNL     1     -35.472  15.094  -3.724  1.00 20.00     0.062 C 
ENDROOT
BRANCH   1   2
HETATM    2  C3  UNL     1     -34.507  13.940  -4.021  1.00 20.00     0.127 C 
HETATM    3  C5  UNL     1     -33.105  14.318  -4.430  1.00 20.00     0.091 C 
HETATM    4  O11 UNL     1     -34.848  12.759  -3.958  1.00 20.00    -0.298 OA
ENDBRANCH   1   2
BRANCH   1   5
HETATM    5  C8  UNL     1     -34.714  16.434  -3.603  1.00 20.00     0.045 C 
BRANCH   5   6
HETATM    6  C2  UNL     1     -34.357  16.805  -2.178  1.00 20.00    -0.092 C 
HETATM    7  C1  UNL     1     -35.228  16.640  -1.170  1.00 20.00     0.014 C 
HETATM    8  C4  UNL     1     -33.002  17.411  -1.945  1.00 20.00     0.042 C 
ENDBRANCH   5   6
ENDBRANCH   1   5
BRANCH   1   9
HETATM    9  C10 UNL     1     -36.607  15.097  -4.782  1.00 20.00    -0.011 C 
HETATM   10  C6  UNL     1     -36.712  16.458  -5.479  1.00 20.00     0.010 C 
HETATM   11  C7  UNL     1     -37.977  14.697  -4.223  1.00 20.00     0.010 C 
ENDBRANCH   1   9
TORSDOF 4
ENDMDL
MODEL 8
REMARK VINA RESULT:      -3.9      1.472      2.052
REMARK  4 active torsions:
REMARK  status: ('A' for Active; 'I' for Inactive)
REMARK    1  A    between atoms: C2_2  and  C8_8 
REMARK    2  A    between atoms: C3_3  and  C9_9 
REMARK    3  A    between atoms: C8_8  and  C9_9 
REMARK    4  A    between atoms: C9_9  and  C10_10 
ROOT
HETATM    1  C9  UNL     1     -35.055  15.633  -3.615  1.00 20.00     0.062 C 
ENDROOT
BRANCH   1   2
HETATM    2  C3  UNL     1     -35.021  14.187  -4.121  1.00 20.00     0.127 C 
HETATM    3  C5  UNL     1     -36.329  13.603  -4.592  1.00 20.00     0.091 C 
HETATM    4  O11 UNL     1     -33.991  13.513  -4.127  1.00 20.00    -0.298 OA
ENDBRANCH   1   2
BRANCH   1   5
HETATM    5  C8  UNL     1     -33.686  16.051  -3.035  1.00 20.00     0.045 C 
BRANCH   5   6
HETATM    6  C2  UNL     1     -33.787  16.980  -1.842  1.00 20.00    -0.092 C 
HETATM    7  C1  UNL     1     -34.885  17.017  -1.071  1.00 20.00     0.014 C 
HETATM    8  C4  UNL     1     -32.624  17.895  -1.584  1.00 20.00     0.042 C 
ENDBRANCH   5   6
ENDBRANCH   1   5
BRANCH   1   9
HETATM    9  C10 UNL     1     -35.578  16.559  -4.744  1.00 20.00    -0.011 C 
HETATM   10  C6  UNL     1     -34.426  17.308  -5.425  1.00 20.00     0.010 C 
HETATM   11  C7  UNL     1     -36.642  17.560  -4.284  1.00 20.00     0.010 C 
ENDBRANCH   1   9
TORSDOF 4
ENDMDL
MODEL 9
REMARK VINA RESULT:      -3.8      1.585      2.079
REMARK  4 active torsions:
REMARK  status: ('A' for Active; 'I' for Inactive)
REMARK    1  A    between atoms: C2_2  and  C8_8 
REMARK    2  A    between atoms: C3_3  and  C9_9 
REMARK    3  A    between atoms: C8_8  and  C9_9 
REMARK    4  A    between atoms: C9_9  and  C10_10 
ROOT
HETATM    1  C9  UNL     1     -35.014  15.731  -4.131  1.00 20.00     0.062 C 
ENDROOT
BRANCH   1   2
HETATM    2  C3  UNL     1     -36.480  15.776  -4.577  1.00 20.00     0.127 C 
HETATM    3  C5  UNL     1     -37.298  14.531  -4.343  1.00 20.00     0.091 C 
HETATM    4  O11 UNL     1     -36.975  16.763  -5.122  1.00 20.00    -0.298 OA
ENDBRANCH   1   2
BRANCH   1   5
HETATM    5  C8  UNL     1     -34.903  15.447  -2.618  1.00 20.00     0.045 C 
BRANCH   5   6
HETATM    6  C2  UNL     1     -34.468  16.648  -1.802  1.00 20.00    -0.092 C 
HETATM    7  C1  UNL     1     -35.200  17.097  -0.770  1.00 20.00     0.014 C 
HETATM    8  C4  UNL     1     -33.207  17.345  -2.224  1.00 20.00     0.042 C 
ENDBRANCH   5   6
ENDBRANCH   1   5
BRANCH   1   9
HETATM    9  C10 UNL     1     -34.237  14.731  -5.027  1.00 20.00    -0.011 C 
HETATM   10  C6  UNL     1     -32.849  14.430  -4.448  1.00 20.00     0.010 C 
HETATM   11  C7  UNL     1     -34.100  15.179  -6.485  1.00 20.00     0.010 C 
ENDBRANCH   1   9
TORSDOF 4
ENDMDL
