MODEL 1
REMARK VINA RESULT:      -4.7      0.000      0.000
REMARK  6 active torsions:
REMARK  status: ('A' for Active; 'I' for Inactive)
REMARK    1  A    between atoms: C1_1  and  C10_10 
REMARK    2  A    between atoms: C7_7  and  C8_8 
REMARK    3  A    between atoms: C8_8  and  C12_12 
REMARK    4  A    between atoms: C9_9  and  C10_10 
REMARK    5  A    between atoms: C9_9  and  C12_12 
REMARK    6  A    between atoms: C10_10  and  C11_11 
ROOT
HETATM    1  C10 UNL     1     -35.128  15.010  -4.601  1.00 20.00     0.058 C 
ENDROOT
BRANCH   1   2
HETATM    2  C1  UNL     1     -36.207  13.928  -4.511  1.00 20.00     0.127 C 
HETATM    3  C2  UNL     1     -37.629  14.400  -4.339  1.00 20.00     0.091 C 
HETATM    4  O13 UNL     1     -35.946  12.729  -4.595  1.00 20.00    -0.298 OA
ENDBRANCH   1   2
BRANCH   1   5
HETATM    5  C9  UNL     1     -35.389  16.105  -3.544  1.00 20.00     0.016 C 
BRANCH   5   6
HETATM    6  C12 UNL     1     -34.466  16.058  -2.300  1.00 20.00    -0.018 C 
HETATM    7  C6  UNL     1     -35.172  16.768  -1.137  1.00 20.00     0.010 C 
BRANCH   6   8
HETATM    8  C8  UNL     1     -33.083  16.684  -2.586  1.00 20.00     0.004 C 
BRANCH   8   9
HETATM    9  C7  UNL     1     -32.897  18.136  -2.132  1.00 20.00    -0.004 C 
HETATM   10  C3  UNL     1     -31.796  18.312  -1.098  1.00 20.00     0.005 C 
ENDBRANCH   8   9
ENDBRANCH   6   8
ENDBRANCH   5   6
ENDBRANCH   1   5
BRANCH   1  11
HETATM   11  C11 UNL     1     -34.995  15.592  -6.035  1.00 20.00    -0.012 C 
HETATM   12  C4  UNL     1     -34.884  17.119  -6.018  1.00 20.00     0.010 C 
HETATM   13  C5  UNL     1     -33.854  15.001  -6.867  1.00 20.00     0.010 C 
ENDBRANCH   1  11
TORSDOF 6
ENDMDL
MODEL 2
REMARK VINA RESULT:      -4.7      1.135      1.657
REMARK  6 active torsions:
REMARK  status: ('A' for Active; 'I' for Inactive)
REMARK    1  A    between atoms: C1_1  and  C10_10 
REMARK    2  A    between atoms: C7_7  and  C8_8 
REMARK    3  A    between atoms: C8_8  and  C12_12 
REMARK    4  A    between atoms: C9_9  and  C10_10 
REMARK    5  A    between atoms: C9_9  and  C12_12 
REMARK    6  A    between atoms: C10_10  and  C11_11 
ROOT
HETATM    1  C10 UNL     1     -35.177  14.854  -5.146  1.00 20.00     0.058 C 
ENDROOT
BRANCH   1   2
HETATM    2  C1  UNL     1     -36.196  13.835  -4.632  1.00 20.00     0.127 C 
HETATM    3  C2  UNL     1     -37.563  14.361  -4.273  1.00 20.00     0.091 C 
HETATM    4  O13 UNL     1     -35.935  12.636  -4.532  1.00 20.00    -0.298 OA
ENDBRANCH   1   2
BRANCH   1   5
HETATM    5  C9  UNL     1     -35.380  16.209  -4.432  1.00 20.00     0.016 C 
BRANCH   5   6
HETATM    6  C12 UNL     1     -34.418  16.485  -3.249  1.00 20.00    -0.018 C 
HETATM    7  C6  UNL     1     -33.082  15.784  -3.529  1.00 20.00     0.010 C 
BRANCH   6   8
HETATM    8  C8  UNL     1     -35.021  16.034  -1.901  1.00 20.00     0.004 C 
BRANCH   8   9
HETATM    9  C7  UNL     1     -35.207  17.133  -0.848  1.00 20.00    -0.004 C 
HETATM   10  C3  UNL     1     -33.951  17.951  -0.596  1.00 20.00     0.005 C 
ENDBRANCH   8   9
ENDBRANCH   6   8
ENDBRANCH   5   6
ENDBRANCH   1   5
BRANCH   1  11
HETATM   11  C11 UNL     1     -35.208  14.991  -6.693  1.00 20.00    -0.012 C 
HETATM   12  C4  UNL     1     -36.093  16.159  -7.140  1.00 20.00     0.010 C 
HETATM   13  C5  UNL     1     -33.834  15.102  -7.358  1.00 20.00     0.010 C 
ENDBRANCH   1  11
TORSDOF 6
ENDMDL
MODEL 3
REMARK VINA RESULT:      -4.4      1.405      2.531
REMARK  6 active torsions:
REMARK  status: ('A' for Active; 'I' for Inactive)
REMARK    1  A    between atoms: C1_1  and  C10_10 
REMARK    2  A    between atoms: C7_7  and  C8_8 
REMARK    3  A    between atoms: C8_8  and  C12_12 
REMARK    4  A    between atoms: C9_9  and  C10_10 
REMARK    5  A    between atoms: C9_9  and  C12_12 
REMARK    6  A    between atoms: C10_10  and  C11_11 
ROOT
HETATM    1  C10 UNL     1     -35.482  15.850  -5.021  1.00 20.00     0.058 C 
ENDROOT
BRANCH   1   2
HETATM    2  C1  UNL     1     -35.229  14.889  -6.185  1.00 20.00     0.127 C 
HETATM    3  C2  UNL     1     -34.024  15.169  -7.048  1.00 20.00     0.091 C 
HETATM    4  O13 UNL     1     -35.952  13.918  -6.406  1.00 20.00    -0.298 OA
ENDBRANCH   1   2
BRANCH   1   5
HETATM    5  C9  UNL     1     -35.541  15.066  -3.692  1.00 20.00     0.016 C 
BRANCH   5   6
HETATM    6  C12 UNL     1     -34.534  15.525  -2.606  1.00 20.00    -0.018 C 
HETATM    7  C6  UNL     1     -35.236  16.523  -1.676  1.00 20.00     0.010 C 
BRANCH   6   8
HETATM    8  C8  UNL     1     -33.258  16.134  -3.228  1.00 20.00     0.004 C 
BRANCH   8   9
HETATM    9  C7  UNL     1     -32.901  17.553  -2.770  1.00 20.00    -0.004 C 
HETATM   10  C3  UNL     1     -32.982  18.587  -3.882  1.00 20.00     0.005 C 
ENDBRANCH   8   9
ENDBRANCH   6   8
ENDBRANCH   5   6
ENDBRANCH   1   5
BRANCH   1  11
HETATM   11  C11 UNL     1     -36.743  16.728  -5.245  1.00 20.00    -0.012 C 
HETATM   12  C4  UNL     1     -37.975  16.135  -4.555  1.00 20.00     0.010 C 
HETATM   13  C5  UNL     1     -36.585  18.198  -4.845  1.00 20.00     0.010 C 
ENDBRANCH   1  11
TORSDOF 6
ENDMDL
MODEL 4
REMARK VINA RESULT:      -4.4      1.911      3.943
REMARK  6 active torsions:
REMARK  status: ('A' for Active; 'I' for Inactive)
REMARK    1  A    between atoms: C1_1  and  C10_10 
REMARK    2  A    between atoms: C7_7  and  C8_8 
REMARK    3  A    between atoms: C8_8  and  C12_12 
REMARK    4  A    between atoms: C9_9  and  C10_10 
REMARK    5  A    between atoms: C9_9  and  C12_12 
REMARK    6  A    between atoms: C10_10  and  C11_11 
ROOT
HETATM    1  C10 UNL     1     -35.973  15.185  -4.772  1.00 20.00     0.058 C 
ENDROOT
BRANCH   1   2
HETATM    2  C1  UNL     1     -37.413  14.818  -4.405  1.00 20.00     0.127 C 
HETATM    3  C2  UNL     1     -38.355  15.962  -4.125  1.00 20.00     0.091 C 
HETATM    4  O13 UNL     1     -37.803  13.652  -4.358  1.00 20.00    -0.298 OA
ENDBRANCH   1   2
BRANCH   1   5
HETATM    5  C9  UNL     1     -35.600  14.564  -6.136  1.00 20.00     0.016 C 
BRANCH   5   6
HETATM    6  C12 UNL     1     -35.388  15.579  -7.289  1.00 20.00    -0.018 C 
HETATM    7  C6  UNL     1     -33.976  15.385  -7.859  1.00 20.00     0.010 C 
BRANCH   6   8
HETATM    8  C8  UNL     1     -35.613  17.033  -6.823  1.00 20.00     0.004 C 
BRANCH   8   9
HETATM    9  C7  UNL     1     -34.352  17.889  -6.660  1.00 20.00    -0.004 C 
HETATM   10  C3  UNL     1     -34.076  18.294  -5.220  1.00 20.00     0.005 C 
ENDBRANCH   8   9
ENDBRANCH   6   8
ENDBRANCH   5   6
ENDBRANCH   1   5
BRANCH   1  11
HETATM   11  C11 UNL     1     -34.965  14.803  -3.653  1.00 20.00    -0.012 C 
HETATM   12  C4  UNL     1     -33.553  14.598  -4.211  1.00 20.00     0.010 C 
HETATM   13  C5  UNL     1     -34.915  15.774  -2.471  1.00 20.00     0.010 C 
ENDBRANCH   1  11
TORSDOF 6
ENDMDL
MODEL 5
REMARK VINA RESULT:      -4.2      1.284      2.478
REMARK  6 active torsions:
REMARK  status: ('A' for Active; 'I' for Inactive)
REMARK    1  A    between atoms: C1_1  and  C10_10 
REMARK    2  A    between atoms: C7_7  and  C8_8 
REMARK    3  A    between atoms: C8_8  and  C12_12 
REMARK    4  A    between atoms: C9_9  and  C10_10 
REMARK    5  A    between atoms: C9_9  and  C12_12 
REMARK    6  A    between atoms: C10_10  and  C11_11 
ROOT
HETATM    1  C10 UNL     1     -34.863  15.761  -4.318  1.00 20.00     0.058 C 
ENDROOT
BRANCH   1   2
HETATM    2  C1  UNL     1     -33.980  14.853  -5.177  1.00 20.00     0.127 C 
HETATM    3  C2  UNL     1     -34.028  15.072  -6.668  1.00 20.00     0.091 C 
HETATM    4  O13 UNL     1     -33.245  13.996  -4.688  1.00 20.00    -0.298 OA
ENDBRANCH   1   2
BRANCH   1   5
HETATM    5  C9  UNL     1     -34.654  15.439  -2.822  1.00 20.00     0.016 C 
BRANCH   5   6
HETATM    6  C12 UNL     1     -34.217  16.638  -1.942  1.00 20.00    -0.018 C 
HETATM    7  C6  UNL     1     -35.321  16.922  -0.915  1.00 20.00     0.010 C 
BRANCH   6   8
HETATM    8  C8  UNL     1     -33.900  17.889  -2.791  1.00 20.00     0.004 C 
BRANCH   8   9
HETATM    9  C7  UNL     1     -32.530  18.533  -2.551  1.00 20.00    -0.004 C 
HETATM   10  C3  UNL     1     -31.943  18.218  -1.184  1.00 20.00     0.005 C 
ENDBRANCH   8   9
ENDBRANCH   6   8
ENDBRANCH   5   6
ENDBRANCH   1   5
BRANCH   1  11
HETATM   11  C11 UNL     1     -36.359  15.692  -4.734  1.00 20.00    -0.012 C 
HETATM   12  C4  UNL     1     -36.984  14.340  -4.376  1.00 20.00     0.010 C 
HETATM   13  C5  UNL     1     -37.232  16.825  -4.186  1.00 20.00     0.010 C 
ENDBRANCH   1  11
TORSDOF 6
ENDMDL
MODEL 6
REMARK VINA RESULT:      -4.1      1.844      4.351
REMARK  6 active torsions:
REMARK  status: ('A' for Active; 'I' for Inactive)
REMARK    1  A    between atoms: C1_1  and  C10_10 
REMARK    2  A    between atoms: C7_7  and  C8_8 
REMARK    3  A    between atoms: C8_8  and  C12_12 
REMARK    4  A    between atoms: C9_9  and  C10_10 
REMARK    5  A    between atoms: C9_9  and  C12_12 
REMARK    6  A    between atoms: C10_10  and  C11_11 
ROOT
HETATM    1  C10 UNL     1     -35.910  15.315  -4.046  1.00 20.00     0.058 C 
ENDROOT
BRANCH   1   2
HETATM    2  C1  UNL     1     -35.912  14.105  -4.983  1.00 20.00     0.127 C 
HETATM    3  C2  UNL     1     -35.780  14.388  -6.458  1.00 20.00     0.091 C 
HETATM    4  O13 UNL     1     -35.995  12.950  -4.567  1.00 20.00    -0.298 OA
ENDBRANCH   1   2
BRANCH   1   5
HETATM    5  C9  UNL     1     -35.908  16.621  -4.869  1.00 20.00     0.016 C 
BRANCH   5   6
HETATM    6  C12 UNL     1     -37.071  17.599  -4.562  1.00 20.00    -0.018 C 
HETATM    7  C6  UNL     1     -36.488  18.877  -3.945  1.00 20.00     0.010 C 
BRANCH   6   8
HETATM    8  C8  UNL     1     -38.131  16.959  -3.639  1.00 20.00     0.004 C 
BRANCH   8   9
HETATM    9  C7  UNL     1     -39.409  16.465  -4.327  1.00 20.00    -0.004 C 
HETATM   10  C3  UNL     1     -39.568  14.953  -4.296  1.00 20.00     0.005 C 
ENDBRANCH   8   9
ENDBRANCH   6   8
ENDBRANCH   5   6
ENDBRANCH   1   5
BRANCH   1  11
HETATM   11  C11 UNL     1     -34.745  15.262  -3.019  1.00 20.00    -0.012 C 
HETATM   12  C4  UNL     1     -33.391  15.530  -3.685  1.00 20.00     0.010 C 
HETATM   13  C5  UNL     1     -34.913  16.181  -1.806  1.00 20.00     0.010 C 
ENDBRANCH   1  11
TORSDOF 6
ENDMDL
MODEL 7
REMARK VINA RESULT:      -4.0      2.026      4.602
REMARK  6 active torsions:
REMARK  status: ('A' for Active; 'I' for Inactive)
REMARK    1  A    between atoms: C1_1  and  C10_10 
REMARK    2  A    between atoms: C7_7  and  C8_8 
REMARK    3  A    between atoms: C8_8  and  C12_12 
REMARK    4  A    between atoms: C9_9  and  C10_10 
REMARK    5  A    between atoms: C9_9  and  C12_12 
REMARK    6  A    between atoms: C10_10  and  C11_11 
ROOT
HETATM    1  C10 UNL     1     -34.624  16.736  -3.077  1.00 20.00     0.058 C 
ENDROOT
BRANCH   1   2
HETATM    2  C1  UNL     1     -34.451  17.022  -1.583  1.00 20.00     0.127 C 
HETATM    3  C2  UNL     1     -33.226  17.803  -1.178  1.00 20.00     0.091 C 
HETATM    4  O13 UNL     1     -35.273  16.656  -0.744  1.00 20.00    -0.298 OA
ENDBRANCH   1   2
BRANCH   1   5
HETATM    5  C9  UNL     1     -33.397  15.967  -3.613  1.00 20.00     0.016 C 
BRANCH   5   6
HETATM    6  C12 UNL     1     -33.718  14.645  -4.359  1.00 20.00    -0.018 C 
HETATM    7  C6  UNL     1     -33.909  14.957  -5.849  1.00 20.00     0.010 C 
BRANCH   6   8
HETATM    8  C8  UNL     1     -34.956  13.938  -3.767  1.00 20.00     0.004 C 
BRANCH   8   9
HETATM    9  C7  UNL     1     -36.132  13.728  -4.727  1.00 20.00    -0.004 C 
HETATM   10  C3  UNL     1     -37.390  14.478  -4.319  1.00 20.00     0.005 C 
ENDBRANCH   8   9
ENDBRANCH   6   8
ENDBRANCH   5   6
ENDBRANCH   1   5
BRANCH   1  11
HETATM   11  C11 UNL     1     -34.915  18.025  -3.893  1.00 20.00    -0.012 C 
HETATM   12  C4  UNL     1     -33.687  18.482  -4.686  1.00 20.00     0.010 C 
HETATM   13  C5  UNL     1     -36.127  17.938  -4.825  1.00 20.00     0.010 C 
ENDBRANCH   1  11
TORSDOF 6
ENDMDL
MODEL 8
REMARK VINA RESULT:      -4.0      3.441      6.869
REMARK  6 active torsions:
REMARK  status: ('A' for Active; 'I' for Inactive)
REMARK    1  A    between atoms: C1_1  and  C10_10 
REMARK    2  A    between atoms: C7_7  and  C8_8 
REMARK    3  A    between atoms: C8_8  and  C12_12 
REMARK    4  A    between atoms: C9_9  and  C10_10 
REMARK    5  A    between atoms: C9_9  and  C12_12 
REMARK    6  A    between atoms: C10_10  and  C11_11 
ROOT
HETATM    1  C10 UNL     1     -32.558  18.356   0.550  1.00 20.00     0.058 C 
ENDROOT
BRANCH   1   2
HETATM    2  C1  UNL     1     -31.060  18.551   0.302  1.00 20.00     0.127 C 
HETATM    3  C2  UNL     1     -30.279  19.258   1.381  1.00 20.00     0.091 C 
HETATM    4  O13 UNL     1     -30.502  18.138  -0.714  1.00 20.00    -0.298 OA
ENDBRANCH   1   2
BRANCH   1   5
HETATM    5  C9  UNL     1     -33.373  19.222  -0.435  1.00 20.00     0.016 C 
BRANCH   5   6
HETATM    6  C12 UNL     1     -34.036  18.449  -1.604  1.00 20.00    -0.018 C 
HETATM    7  C6  UNL     1     -35.232  19.263  -2.116  1.00 20.00     0.010 C 
BRANCH   6   8
HETATM    8  C8  UNL     1     -34.461  17.025  -1.183  1.00 20.00     0.004 C 
BRANCH   8   9
HETATM    9  C7  UNL     1     -34.459  15.969  -2.294  1.00 20.00    -0.004 C 
HETATM   10  C3  UNL     1     -33.289  16.102  -3.257  1.00 20.00     0.005 C 
ENDBRANCH   8   9
ENDBRANCH   6   8
ENDBRANCH   5   6
ENDBRANCH   1   5
BRANCH   1  11
HETATM   11  C11 UNL     1     -32.948  18.619   2.031  1.00 20.00    -0.012 C 
HETATM   12  C4  UNL     1     -34.415  19.040   2.162  1.00 20.00     0.010 C 
HETATM   13  C5  UNL     1     -32.657  17.460   2.989  1.00 20.00     0.010 C 
ENDBRANCH   1  11
TORSDOF 6
ENDMDL
MODEL 9
REMARK VINA RESULT:      -4.0      1.478      3.060
REMARK  6 active torsions:
REMARK  status: ('A' for Active; 'I' for Inactive)
REMARK    1  A    between atoms: C1_1  and  C10_10 
REMARK    2  A    between atoms: C7_7  and  C8_8 
REMARK    3  A    between atoms: C8_8  and  C12_12 
REMARK    4  A    between atoms: C9_9  and  C10_10 
REMARK    5  A    between atoms: C9_9  and  C12_12 
REMARK    6  A    between atoms: C10_10  and  C11_11 
ROOT
HETATM    1  C10 UNL     1     -34.751  15.623  -4.072  1.00 20.00     0.058 C 
ENDROOT
BRANCH   1   2
HETATM    2  C1  UNL     1     -33.898  14.806  -5.045  1.00 20.00     0.127 C 
HETATM    3  C2  UNL     1     -34.035  15.135  -6.510  1.00 20.00     0.091 C 
HETATM    4  O13 UNL     1     -33.117  13.934  -4.664  1.00 20.00    -0.298 OA
ENDBRANCH   1   2
BRANCH   1   5
HETATM    5  C9  UNL     1     -33.998  15.810  -2.737  1.00 20.00     0.016 C 
BRANCH   5   6
HETATM    6  C12 UNL     1     -34.301  17.131  -1.985  1.00 20.00    -0.018 C 
HETATM    7  C6  UNL     1     -32.972  17.766  -1.554  1.00 20.00     0.010 C 
BRANCH   6   8
HETATM    8  C8  UNL     1     -35.236  16.904  -0.778  1.00 20.00     0.004 C 
BRANCH   8   9
HETATM    9  C7  UNL     1     -36.409  17.882  -0.644  1.00 20.00    -0.004 C 
HETATM   10  C3  UNL     1     -36.664  18.699  -1.901  1.00 20.00     0.005 C 
ENDBRANCH   8   9
ENDBRANCH   6   8
ENDBRANCH   5   6
ENDBRANCH   1   5
BRANCH   1  11
HETATM   11  C11 UNL     1     -36.165  15.011  -3.872  1.00 20.00    -0.012 C 
HETATM   12  C4  UNL     1     -37.266  15.965  -4.347  1.00 20.00     0.010 C 
HETATM   13  C5  UNL     1     -36.367  13.634  -4.509  1.00 20.00     0.010 C 
ENDBRANCH   1  11
TORSDOF 6
ENDMDL
