MODEL 1
REMARK VINA RESULT:      -4.7      0.000      0.000
REMARK  4 active torsions:
REMARK  status: ('A' for Active; 'I' for Inactive)
REMARK    1  A    between atoms: C2_2  and  C8_8 
REMARK    2  A    between atoms: C3_3  and  C9_9 
REMARK    3  A    between atoms: C8_8  and  C9_9 
REMARK    4  A    between atoms: C9_9  and  C10_10 
ROOT
HETATM    1  C1  UNL     1     -25.536  19.068   7.162  1.00 20.00    -0.111 C 
HETATM    2  C2  UNL     1     -25.023  18.909   8.237  1.00 20.00    -0.106 C 
HETATM    3  C4  UNL     1     -26.158  19.260   5.853  1.00 20.00     0.112 C 
ENDROOT
BRANCH   2   4
HETATM    4  C8  UNL     1     -24.396  18.716   9.553  1.00 20.00     0.106 C 
BRANCH   4   5
HETATM    5  C9  UNL     1     -23.753  17.327   9.728  1.00 20.00     0.069 C 
BRANCH   5   6
HETATM    6  C3  UNL     1     -22.438  17.289   8.940  1.00 20.00     0.128 C 
HETATM    7  C5  UNL     1     -21.305  18.134   9.465  1.00 20.00     0.091 C 
HETATM    8  O11 UNL     1     -22.290  16.587   7.938  1.00 20.00    -0.298 OA
ENDBRANCH   5   6
BRANCH   5   9
HETATM    9  C10 UNL     1     -23.544  16.871  11.198  1.00 20.00    -0.011 C 
HETATM   10  C6  UNL     1     -24.489  15.713  11.551  1.00 20.00     0.010 C 
HETATM   11  C7  UNL     1     -23.769  18.009  12.201  1.00 20.00     0.010 C 
ENDBRANCH   5   9
ENDBRANCH   4   5
ENDBRANCH   2   4
TORSDOF 4
ENDMDL
MODEL 2
REMARK VINA RESULT:      -4.5     15.225     16.319
REMARK  4 active torsions:
REMARK  status: ('A' for Active; 'I' for Inactive)
REMARK    1  A    between atoms: C2_2  and  C8_8 
REMARK    2  A    between atoms: C3_3  and  C9_9 
REMARK    3  A    between atoms: C8_8  and  C9_9 
REMARK    4  A    between atoms: C9_9  and  C10_10 
ROOT
HETATM    1  C1  UNL     1     -32.805   8.282   1.124  1.00 20.00    -0.111 C 
HETATM    2  C2  UNL     1     -32.746   7.630   2.131  1.00 20.00    -0.106 C 
HETATM    3  C4  UNL     1     -32.878   9.078  -0.100  1.00 20.00     0.112 C 
ENDROOT
BRANCH   2   4
HETATM    4  C8  UNL     1     -32.674   6.831   3.364  1.00 20.00     0.106 C 
BRANCH   4   5
HETATM    5  C9  UNL     1     -34.018   6.188   3.757  1.00 20.00     0.069 C 
BRANCH   5   6
HETATM    6  C3  UNL     1     -33.962   4.690   3.436  1.00 20.00     0.128 C 
HETATM    7  C5  UNL     1     -33.062   4.271   2.301  1.00 20.00     0.091 C 
HETATM    8  O11 UNL     1     -34.596   3.854   4.082  1.00 20.00    -0.298 OA
ENDBRANCH   5   6
BRANCH   5   9
HETATM    9  C10 UNL     1     -34.469   6.435   5.223  1.00 20.00    -0.011 C 
HETATM   10  C6  UNL     1     -33.427   7.270   5.983  1.00 20.00     0.010 C 
HETATM   11  C7  UNL     1     -34.703   5.130   5.991  1.00 20.00     0.010 C 
ENDBRANCH   5   9
ENDBRANCH   4   5
ENDBRANCH   2   4
TORSDOF 4
ENDMDL
MODEL 3
REMARK VINA RESULT:      -4.5     14.282     17.390
REMARK  4 active torsions:
REMARK  status: ('A' for Active; 'I' for Inactive)
REMARK    1  A    between atoms: C2_2  and  C8_8 
REMARK    2  A    between atoms: C3_3  and  C9_9 
REMARK    3  A    between atoms: C8_8  and  C9_9 
REMARK    4  A    between atoms: C9_9  and  C10_10 
ROOT
HETATM    1  C1  UNL     1     -33.407  17.385  -1.745  1.00 20.00    -0.111 C 
HETATM    2  C2  UNL     1     -34.260  16.653  -2.168  1.00 20.00    -0.106 C 
HETATM    3  C4  UNL     1     -32.366  18.274  -1.233  1.00 20.00     0.112 C 
ENDROOT
BRANCH   2   4
HETATM    4  C8  UNL     1     -35.307  15.757  -2.685  1.00 20.00     0.106 C 
BRANCH   4   5
HETATM    5  C9  UNL     1     -34.758  14.617  -3.563  1.00 20.00     0.069 C 
BRANCH   5   6
HETATM    6  C3  UNL     1     -35.936  13.889  -4.222  1.00 20.00     0.128 C 
HETATM    7  C5  UNL     1     -37.201  14.686  -4.423  1.00 20.00     0.091 C 
HETATM    8  O11 UNL     1     -35.861  12.719  -4.598  1.00 20.00    -0.298 OA
ENDBRANCH   5   6
BRANCH   5   9
HETATM    9  C10 UNL     1     -33.696  15.040  -4.615  1.00 20.00    -0.011 C 
HETATM   10  C6  UNL     1     -34.256  14.910  -6.040  1.00 20.00     0.010 C 
HETATM   11  C7  UNL     1     -32.412  14.210  -4.518  1.00 20.00     0.010 C 
ENDBRANCH   5   9
ENDBRANCH   4   5
ENDBRANCH   2   4
TORSDOF 4
ENDMDL
MODEL 4
REMARK VINA RESULT:      -4.5     15.763     18.420
REMARK  4 active torsions:
REMARK  status: ('A' for Active; 'I' for Inactive)
REMARK    1  A    between atoms: C2_2  and  C8_8 
REMARK    2  A    between atoms: C3_3  and  C9_9 
REMARK    3  A    between atoms: C8_8  and  C9_9 
REMARK    4  A    between atoms: C9_9  and  C10_10 
ROOT
HETATM    1  C1  UNL     1     -34.816  16.218  -1.930  1.00 20.00    -0.111 C 
HETATM    2  C2  UNL     1     -34.390  15.634  -2.890  1.00 20.00    -0.106 C 
HETATM    3  C4  UNL     1     -35.330  16.932  -0.762  1.00 20.00     0.112 C 
ENDROOT
BRANCH   2   4
HETATM    4  C8  UNL     1     -33.870  14.917  -4.064  1.00 20.00     0.106 C 
BRANCH   4   5
HETATM    5  C9  UNL     1     -34.929  14.687  -5.160  1.00 20.00     0.069 C 
BRANCH   5   6
HETATM    6  C3  UNL     1     -36.029  13.777  -4.601  1.00 20.00     0.128 C 
HETATM    7  C5  UNL     1     -37.354  14.424  -4.289  1.00 20.00     0.091 C 
HETATM    8  O11 UNL     1     -35.862  12.568  -4.434  1.00 20.00    -0.298 OA
ENDBRANCH   5   6
BRANCH   5   9
HETATM    9  C10 UNL     1     -35.527  15.977  -5.787  1.00 20.00    -0.011 C 
HETATM   10  C6  UNL     1     -36.098  15.692  -7.184  1.00 20.00     0.010 C 
HETATM   11  C7  UNL     1     -34.495  17.104  -5.902  1.00 20.00     0.010 C 
ENDBRANCH   5   9
ENDBRANCH   4   5
ENDBRANCH   2   4
TORSDOF 4
ENDMDL
MODEL 5
REMARK VINA RESULT:      -4.4     14.821     17.555
REMARK  4 active torsions:
REMARK  status: ('A' for Active; 'I' for Inactive)
REMARK    1  A    between atoms: C2_2  and  C8_8 
REMARK    2  A    between atoms: C3_3  and  C9_9 
REMARK    3  A    between atoms: C8_8  and  C9_9 
REMARK    4  A    between atoms: C9_9  and  C10_10 
ROOT
HETATM    1  C1  UNL     1     -35.298  16.933  -0.757  1.00 20.00    -0.111 C 
HETATM    2  C2  UNL     1     -35.469  16.554  -1.884  1.00 20.00    -0.106 C 
HETATM    3  C4  UNL     1     -35.088  17.398   0.613  1.00 20.00     0.112 C 
ENDROOT
BRANCH   2   4
HETATM    4  C8  UNL     1     -35.679  16.088  -3.263  1.00 20.00     0.106 C 
BRANCH   4   5
HETATM    5  C9  UNL     1     -35.089  14.690  -3.534  1.00 20.00     0.069 C 
BRANCH   5   6
HETATM    6  C3  UNL     1     -36.163  13.822  -4.202  1.00 20.00     0.128 C 
HETATM    7  C5  UNL     1     -37.506  14.465  -4.441  1.00 20.00     0.091 C 
HETATM    8  O11 UNL     1     -35.945  12.663  -4.557  1.00 20.00    -0.298 OA
ENDBRANCH   5   6
BRANCH   5   9
HETATM    9  C10 UNL     1     -33.764  14.674  -4.344  1.00 20.00    -0.011 C 
HETATM   10  C6  UNL     1     -32.735  15.633  -3.728  1.00 20.00     0.010 C 
HETATM   11  C7  UNL     1     -33.972  15.058  -5.813  1.00 20.00     0.010 C 
ENDBRANCH   5   9
ENDBRANCH   4   5
ENDBRANCH   2   4
TORSDOF 4
ENDMDL
MODEL 6
REMARK VINA RESULT:      -4.1     11.500     15.224
REMARK  4 active torsions:
REMARK  status: ('A' for Active; 'I' for Inactive)
REMARK    1  A    between atoms: C2_2  and  C8_8 
REMARK    2  A    between atoms: C3_3  and  C9_9 
REMARK    3  A    between atoms: C8_8  and  C9_9 
REMARK    4  A    between atoms: C9_9  and  C10_10 
ROOT
HETATM    1  C1  UNL     1     -31.253  18.377  -0.014  1.00 20.00    -0.111 C 
HETATM    2  C2  UNL     1     -31.882  18.171  -1.017  1.00 20.00    -0.106 C 
HETATM    3  C4  UNL     1     -30.490  18.629   1.208  1.00 20.00     0.112 C 
ENDROOT
BRANCH   2   4
HETATM    4  C8  UNL     1     -32.650  17.919  -2.245  1.00 20.00     0.106 C 
BRANCH   4   5
HETATM    5  C9  UNL     1     -33.772  16.879  -2.064  1.00 20.00     0.069 C 
BRANCH   5   6
HETATM    6  C3  UNL     1     -34.992  17.571  -1.443  1.00 20.00     0.128 C 
HETATM    7  C5  UNL     1     -35.367  17.162  -0.042  1.00 20.00     0.091 C 
HETATM    8  O11 UNL     1     -35.629  18.441  -2.039  1.00 20.00    -0.298 OA
ENDBRANCH   5   6
BRANCH   5   9
HETATM    9  C10 UNL     1     -34.161  16.090  -3.344  1.00 20.00    -0.011 C 
HETATM   10  C6  UNL     1     -35.298  15.100  -3.053  1.00 20.00     0.010 C 
HETATM   11  C7  UNL     1     -32.978  15.315  -3.936  1.00 20.00     0.010 C 
ENDBRANCH   5   9
ENDBRANCH   4   5
ENDBRANCH   2   4
TORSDOF 4
ENDMDL
MODEL 7
REMARK VINA RESULT:      -4.1     13.999     17.480
REMARK  4 active torsions:
REMARK  status: ('A' for Active; 'I' for Inactive)
REMARK    1  A    between atoms: C2_2  and  C8_8 
REMARK    2  A    between atoms: C3_3  and  C9_9 
REMARK    3  A    between atoms: C8_8  and  C9_9 
REMARK    4  A    between atoms: C9_9  and  C10_10 
ROOT
HETATM    1  C1  UNL     1     -32.958  17.467  -1.890  1.00 20.00    -0.111 C 
HETATM    2  C2  UNL     1     -33.681  16.616  -2.332  1.00 20.00    -0.106 C 
HETATM    3  C4  UNL     1     -32.081  18.506  -1.350  1.00 20.00     0.112 C 
ENDROOT
BRANCH   2   4
HETATM    4  C8  UNL     1     -34.564  15.572  -2.874  1.00 20.00     0.106 C 
BRANCH   4   5
HETATM    5  C9  UNL     1     -34.895  15.764  -4.367  1.00 20.00     0.069 C 
BRANCH   5   6
HETATM    6  C3  UNL     1     -34.005  14.829  -5.194  1.00 20.00     0.128 C 
HETATM    7  C5  UNL     1     -33.990  15.048  -6.686  1.00 20.00     0.091 C 
HETATM    8  O11 UNL     1     -33.310  13.954  -4.677  1.00 20.00    -0.298 OA
ENDBRANCH   5   6
BRANCH   5   9
HETATM    9  C10 UNL     1     -36.393  15.597  -4.741  1.00 20.00    -0.011 C 
HETATM   10  C6  UNL     1     -37.258  16.641  -4.019  1.00 20.00     0.010 C 
HETATM   11  C7  UNL     1     -36.929  14.202  -4.403  1.00 20.00     0.010 C 
ENDBRANCH   5   9
ENDBRANCH   4   5
ENDBRANCH   2   4
TORSDOF 4
ENDMDL
MODEL 8
REMARK VINA RESULT:      -4.0     13.800     17.320
REMARK  4 active torsions:
REMARK  status: ('A' for Active; 'I' for Inactive)
REMARK    1  A    between atoms: C2_2  and  C8_8 
REMARK    2  A    between atoms: C3_3  and  C9_9 
REMARK    3  A    between atoms: C8_8  and  C9_9 
REMARK    4  A    between atoms: C9_9  and  C10_10 
ROOT
HETATM    1  C1  UNL     1     -32.918  17.588  -1.644  1.00 20.00    -0.111 C 
HETATM    2  C2  UNL     1     -33.780  16.840  -2.020  1.00 20.00    -0.106 C 
HETATM    3  C4  UNL     1     -31.867  18.494  -1.186  1.00 20.00     0.112 C 
ENDROOT
BRANCH   2   4
HETATM    4  C8  UNL     1     -34.837  15.926  -2.481  1.00 20.00     0.106 C 
BRANCH   4   5
HETATM    5  C9  UNL     1     -34.700  15.527  -3.963  1.00 20.00     0.069 C 
BRANCH   5   6
HETATM    6  C3  UNL     1     -35.081  14.050  -4.114  1.00 20.00     0.128 C 
HETATM    7  C5  UNL     1     -36.494  13.752  -4.546  1.00 20.00     0.091 C 
HETATM    8  O11 UNL     1     -34.274  13.139  -3.920  1.00 20.00    -0.298 OA
ENDBRANCH   5   6
BRANCH   5   9
HETATM    9  C10 UNL     1     -35.482  16.418  -4.966  1.00 20.00    -0.011 C 
HETATM   10  C6  UNL     1     -34.520  17.150  -5.913  1.00 20.00     0.010 C 
HETATM   11  C7  UNL     1     -36.360  17.459  -4.262  1.00 20.00     0.010 C 
ENDBRANCH   5   9
ENDBRANCH   4   5
ENDBRANCH   2   4
TORSDOF 4
ENDMDL
MODEL 9
REMARK VINA RESULT:      -3.9     16.227     18.603
REMARK  4 active torsions:
REMARK  status: ('A' for Active; 'I' for Inactive)
REMARK    1  A    between atoms: C2_2  and  C8_8 
REMARK    2  A    between atoms: C3_3  and  C9_9 
REMARK    3  A    between atoms: C8_8  and  C9_9 
REMARK    4  A    between atoms: C9_9  and  C10_10 
ROOT
HETATM    1  C1  UNL     1     -39.262  16.667  -3.637  1.00 20.00    -0.111 C 
HETATM    2  C2  UNL     1     -38.120  16.480  -3.959  1.00 20.00    -0.106 C 
HETATM    3  C4  UNL     1     -40.651  16.899  -3.244  1.00 20.00     0.112 C 
ENDROOT
BRANCH   2   4
HETATM    4  C8  UNL     1     -36.721  16.249  -4.352  1.00 20.00     0.106 C 
BRANCH   4   5
HETATM    5  C9  UNL     1     -36.101  14.997  -3.702  1.00 20.00     0.069 C 
BRANCH   5   6
HETATM    6  C3  UNL     1     -35.922  13.919  -4.778  1.00 20.00     0.128 C 
HETATM    7  C5  UNL     1     -35.832  14.392  -6.207  1.00 20.00     0.091 C 
HETATM    8  O11 UNL     1     -35.828  12.722  -4.502  1.00 20.00    -0.298 OA
ENDBRANCH   5   6
BRANCH   5   9
HETATM    9  C10 UNL     1     -34.781  15.240  -2.920  1.00 20.00    -0.011 C 
HETATM   10  C6  UNL     1     -34.990  16.271  -1.802  1.00 20.00     0.010 C 
HETATM   11  C7  UNL     1     -33.645  15.727  -3.827  1.00 20.00     0.010 C 
ENDBRANCH   5   9
ENDBRANCH   4   5
ENDBRANCH   2   4
TORSDOF 4
ENDMDL
