MODEL 1
REMARK VINA RESULT:      -4.6      0.000      0.000
REMARK  2 active torsions:
REMARK  status: ('A' for Active; 'I' for Inactive)
REMARK    1  A    between atoms: C3_3  and  C8_8 
REMARK    2  A    between atoms: C4_4  and  C7_7 
ROOT
HETATM    1  C1  UNL     1     -36.364  13.930  -4.304  1.00 20.00     0.065 C 
HETATM    2  C8  UNL     1     -34.902  13.928  -4.103  1.00 20.00     0.183 C 
HETATM    3  N9  UNL     1     -37.514  13.939  -4.455  1.00 20.00    -0.197 NA
ENDROOT
BRANCH   2   4
HETATM    4  C3  UNL     1     -34.463  15.133  -3.371  1.00 20.00     0.055 A 
HETATM    5  C2  UNL     1     -33.248  15.769  -3.520  1.00 20.00     0.079 A 
HETATM    6  S11 UNL     1     -33.175  17.125  -2.472  1.00 20.00    -0.084 SA
HETATM    7  C4  UNL     1     -34.755  16.749  -1.917  1.00 20.00     0.079 A 
HETATM    8  N10 UNL     1     -35.329  15.694  -2.453  1.00 20.00    -0.249 NA
BRANCH   7   9
HETATM    9  C7  UNL     1     -35.462  17.601  -0.849  1.00 20.00     0.045 A 
HETATM   10  C5  UNL     1     -34.617  18.345   0.158  1.00 20.00     0.012 A 
HETATM   11  C6  UNL     1     -35.404  17.149   0.592  1.00 20.00     0.012 A 
ENDBRANCH   7   9
ENDBRANCH   2   4
TORSDOF 2
ENDMDL
MODEL 2
REMARK VINA RESULT:      -4.4      2.010      2.355
REMARK  2 active torsions:
REMARK  status: ('A' for Active; 'I' for Inactive)
REMARK    1  A    between atoms: C3_3  and  C8_8 
REMARK    2  A    between atoms: C4_4  and  C7_7 
ROOT
HETATM    1  C1  UNL     1     -34.743  13.723  -4.232  1.00 20.00     0.065 C 
HETATM    2  C8  UNL     1     -33.699  14.762  -4.134  1.00 20.00     0.183 C 
HETATM    3  N9  UNL     1     -35.568  12.911  -4.300  1.00 20.00    -0.197 NA
ENDROOT
BRANCH   2   4
HETATM    4  C3  UNL     1     -34.004  15.725  -3.057  1.00 20.00     0.055 A 
HETATM    5  C2  UNL     1     -35.183  15.790  -2.345  1.00 20.00     0.079 A 
HETATM    6  S11 UNL     1     -35.093  17.059  -1.195  1.00 20.00    -0.084 SA
HETATM    7  C4  UNL     1     -33.505  17.408  -1.743  1.00 20.00     0.079 A 
HETATM    8  N10 UNL     1     -33.040  16.652  -2.714  1.00 20.00    -0.249 NA
BRANCH   7   9
HETATM    9  C7  UNL     1     -32.668  18.545  -1.131  1.00 20.00     0.045 A 
HETATM   10  C5  UNL     1     -31.263  18.239  -0.667  1.00 20.00     0.012 A 
HETATM   11  C6  UNL     1     -32.339  18.488   0.343  1.00 20.00     0.012 A 
ENDBRANCH   7   9
ENDBRANCH   2   4
TORSDOF 2
ENDMDL
MODEL 3
REMARK VINA RESULT:      -4.3     13.119     14.871
REMARK  2 active torsions:
REMARK  status: ('A' for Active; 'I' for Inactive)
REMARK    1  A    between atoms: C3_3  and  C8_8 
REMARK    2  A    between atoms: C4_4  and  C7_7 
ROOT
HETATM    1  C1  UNL     1     -25.426  19.005   4.452  1.00 20.00     0.065 C 
HETATM    2  C8  UNL     1     -26.413  19.251   5.522  1.00 20.00     0.183 C 
HETATM    3  N9  UNL     1     -24.643  18.811   3.618  1.00 20.00    -0.197 NA
ENDROOT
BRANCH   2   4
HETATM    4  C3  UNL     1     -25.790  19.140   6.857  1.00 20.00     0.055 A 
HETATM    5  C2  UNL     1     -26.445  19.262   8.064  1.00 20.00     0.079 A 
HETATM    6  S11 UNL     1     -25.328  19.058   9.349  1.00 20.00    -0.084 SA
HETATM    7  C4  UNL     1     -24.080  18.828   8.194  1.00 20.00     0.079 A 
HETATM    8  N10 UNL     1     -24.434  18.890   6.929  1.00 20.00    -0.249 NA
BRANCH   7   9
HETATM    9  C7  UNL     1     -22.625  18.561   8.615  1.00 20.00     0.045 A 
HETATM   10  C5  UNL     1     -21.958  17.290   8.144  1.00 20.00     0.012 A 
HETATM   11  C6  UNL     1     -22.347  17.433   9.582  1.00 20.00     0.012 A 
ENDBRANCH   7   9
ENDBRANCH   2   4
TORSDOF 2
ENDMDL
MODEL 4
REMARK VINA RESULT:      -4.3      1.593      1.808
REMARK  2 active torsions:
REMARK  status: ('A' for Active; 'I' for Inactive)
REMARK    1  A    between atoms: C3_3  and  C8_8 
REMARK    2  A    between atoms: C4_4  and  C7_7 
ROOT
HETATM    1  C1  UNL     1     -36.133  13.898  -4.297  1.00 20.00     0.065 C 
HETATM    2  C8  UNL     1     -34.688  14.096  -4.075  1.00 20.00     0.183 C 
HETATM    3  N9  UNL     1     -37.272  13.752  -4.468  1.00 20.00    -0.197 NA
ENDROOT
BRANCH   2   4
HETATM    4  C3  UNL     1     -34.384  15.510  -3.774  1.00 20.00     0.055 A 
HETATM    5  C2  UNL     1     -34.429  16.553  -4.674  1.00 20.00     0.079 A 
HETATM    6  S11 UNL     1     -34.002  18.015  -3.884  1.00 20.00    -0.084 SA
HETATM    7  C4  UNL     1     -33.796  17.136  -2.424  1.00 20.00     0.079 A 
HETATM    8  N10 UNL     1     -34.021  15.841  -2.483  1.00 20.00    -0.249 NA
BRANCH   7   9
HETATM    9  C7  UNL     1     -33.371  17.825  -1.117  1.00 20.00     0.045 A 
HETATM   10  C5  UNL     1     -32.906  19.262  -1.176  1.00 20.00     0.012 A 
HETATM   11  C6  UNL     1     -31.912  18.172  -0.923  1.00 20.00     0.012 A 
ENDBRANCH   7   9
ENDBRANCH   2   4
TORSDOF 2
ENDMDL
MODEL 5
REMARK VINA RESULT:      -4.2      2.832      5.447
REMARK  2 active torsions:
REMARK  status: ('A' for Active; 'I' for Inactive)
REMARK    1  A    between atoms: C3_3  and  C8_8 
REMARK    2  A    between atoms: C4_4  and  C7_7 
ROOT
HETATM    1  C1  UNL     1     -31.052  18.509  -0.171  1.00 20.00     0.065 C 
HETATM    2  C8  UNL     1     -31.801  18.795  -1.410  1.00 20.00     0.183 C 
HETATM    3  N9  UNL     1     -30.471  18.278   0.807  1.00 20.00    -0.197 NA
ENDROOT
BRANCH   2   4
HETATM    4  C3  UNL     1     -32.982  17.917  -1.533  1.00 20.00     0.055 A 
HETATM    5  C2  UNL     1     -34.139  18.014  -0.788  1.00 20.00     0.079 A 
HETATM    6  S11 UNL     1     -35.240  16.791  -1.273  1.00 20.00    -0.084 SA
HETATM    7  C4  UNL     1     -34.088  16.245  -2.422  1.00 20.00     0.079 A 
HETATM    8  N10 UNL     1     -32.951  16.904  -2.471  1.00 20.00    -0.249 NA
BRANCH   7   9
HETATM    9  C7  UNL     1     -34.371  15.049  -3.347  1.00 20.00     0.045 A 
HETATM   10  C5  UNL     1     -33.333  14.672  -4.379  1.00 20.00     0.012 A 
HETATM   11  C6  UNL     1     -34.614  15.312  -4.816  1.00 20.00     0.012 A 
ENDBRANCH   7   9
ENDBRANCH   2   4
TORSDOF 2
ENDMDL
MODEL 6
REMARK VINA RESULT:      -4.0      1.443      1.558
REMARK  2 active torsions:
REMARK  status: ('A' for Active; 'I' for Inactive)
REMARK    1  A    between atoms: C3_3  and  C8_8 
REMARK    2  A    between atoms: C4_4  and  C7_7 
ROOT
HETATM    1  C1  UNL     1     -34.180  14.592  -5.330  1.00 20.00     0.065 C 
HETATM    2  C8  UNL     1     -34.553  14.352  -3.922  1.00 20.00     0.183 C 
HETATM    3  N9  UNL     1     -33.885  14.791  -6.434  1.00 20.00    -0.197 NA
ENDROOT
BRANCH   2   4
HETATM    4  C3  UNL     1     -34.255  15.530  -3.083  1.00 20.00     0.055 A 
HETATM    5  C2  UNL     1     -33.107  16.292  -3.143  1.00 20.00     0.079 A 
HETATM    6  S11 UNL     1     -33.194  17.558  -1.989  1.00 20.00    -0.084 SA
HETATM    7  C4  UNL     1     -34.741  16.985  -1.515  1.00 20.00     0.079 A 
HETATM    8  N10 UNL     1     -35.194  15.926  -2.151  1.00 20.00    -0.249 NA
BRANCH   7   9
HETATM    9  C7  UNL     1     -35.555  17.673  -0.406  1.00 20.00     0.045 A 
HETATM   10  C5  UNL     1     -34.870  18.707   0.457  1.00 20.00     0.012 A 
HETATM   11  C6  UNL     1     -35.215  17.370   1.035  1.00 20.00     0.012 A 
ENDBRANCH   7   9
ENDBRANCH   2   4
TORSDOF 2
ENDMDL
MODEL 7
REMARK VINA RESULT:      -4.0      2.472      5.215
REMARK  2 active torsions:
REMARK  status: ('A' for Active; 'I' for Inactive)
REMARK    1  A    between atoms: C3_3  and  C8_8 
REMARK    2  A    between atoms: C4_4  and  C7_7 
ROOT
HETATM    1  C1  UNL     1     -31.721  18.301  -0.557  1.00 20.00     0.065 C 
HETATM    2  C8  UNL     1     -33.183  18.170  -0.717  1.00 20.00     0.183 C 
HETATM    3  N9  UNL     1     -30.571  18.400  -0.440  1.00 20.00    -0.197 NA
ENDROOT
BRANCH   2   4
HETATM    4  C3  UNL     1     -33.531  17.733  -2.084  1.00 20.00     0.055 A 
HETATM    5  C2  UNL     1     -33.780  18.563  -3.157  1.00 20.00     0.079 A 
HETATM    6  S11 UNL     1     -34.141  17.620  -4.543  1.00 20.00    -0.084 SA
HETATM    7  C4  UNL     1     -33.936  16.201  -3.600  1.00 20.00     0.079 A 
HETATM    8  N10 UNL     1     -33.619  16.378  -2.336  1.00 20.00    -0.249 NA
BRANCH   7   9
HETATM    9  C7  UNL     1     -34.113  14.796  -4.202  1.00 20.00     0.045 A 
HETATM   10  C5  UNL     1     -34.944  14.646  -5.455  1.00 20.00     0.012 A 
HETATM   11  C6  UNL     1     -35.480  14.153  -4.148  1.00 20.00     0.012 A 
ENDBRANCH   7   9
ENDBRANCH   2   4
TORSDOF 2
ENDMDL
MODEL 8
REMARK VINA RESULT:      -3.8      1.574      1.796
REMARK  2 active torsions:
REMARK  status: ('A' for Active; 'I' for Inactive)
REMARK    1  A    between atoms: C3_3  and  C8_8 
REMARK    2  A    between atoms: C4_4  and  C7_7 
ROOT
HETATM    1  C1  UNL     1     -35.206  13.697  -4.126  1.00 20.00     0.065 C 
HETATM    2  C8  UNL     1     -34.306  14.747  -3.611  1.00 20.00     0.183 C 
HETATM    3  N9  UNL     1     -35.922  12.877  -4.527  1.00 20.00    -0.197 NA
ENDROOT
BRANCH   2   4
HETATM    4  C3  UNL     1     -35.072  15.855  -3.004  1.00 20.00     0.055 A 
HETATM    5  C2  UNL     1     -36.294  16.323  -3.440  1.00 20.00     0.079 A 
HETATM    6  S11 UNL     1     -36.808  17.614  -2.436  1.00 20.00    -0.084 SA
HETATM    7  C4  UNL     1     -35.369  17.439  -1.517  1.00 20.00     0.079 A 
HETATM    8  N10 UNL     1     -34.540  16.493  -1.902  1.00 20.00    -0.249 NA
BRANCH   7   9
HETATM    9  C7  UNL     1     -35.065  18.340  -0.308  1.00 20.00     0.045 A 
HETATM   10  C5  UNL     1     -33.788  18.105   0.465  1.00 20.00     0.012 A 
HETATM   11  C6  UNL     1     -35.101  17.731   1.075  1.00 20.00     0.012 A 
ENDBRANCH   7   9
ENDBRANCH   2   4
TORSDOF 2
ENDMDL
MODEL 9
REMARK VINA RESULT:      -3.8     10.915     11.429
REMARK  2 active torsions:
REMARK  status: ('A' for Active; 'I' for Inactive)
REMARK    1  A    between atoms: C3_3  and  C8_8 
REMARK    2  A    between atoms: C4_4  and  C7_7 
ROOT
HETATM    1  C1  UNL     1     -32.900   8.395   0.500  1.00 20.00     0.065 C 
HETATM    2  C8  UNL     1     -32.142   7.876   1.656  1.00 20.00     0.183 C 
HETATM    3  N9  UNL     1     -33.502   8.795  -0.408  1.00 20.00    -0.197 NA
ENDROOT
BRANCH   2   4
HETATM    4  C3  UNL     1     -32.852   6.750   2.295  1.00 20.00     0.055 A 
HETATM    5  C2  UNL     1     -32.896   5.455   1.825  1.00 20.00     0.079 A 
HETATM    6  S11 UNL     1     -33.831   4.487   2.889  1.00 20.00    -0.084 SA
HETATM    7  C4  UNL     1     -34.093   5.868   3.874  1.00 20.00     0.079 A 
HETATM    8  N10 UNL     1     -33.537   6.989   3.470  1.00 20.00    -0.249 NA
BRANCH   7   9
HETATM    9  C7  UNL     1     -34.933   5.798   5.161  1.00 20.00     0.045 A 
HETATM   10  C5  UNL     1     -34.384   6.433   6.417  1.00 20.00     0.012 A 
HETATM   11  C6  UNL     1     -34.435   4.942   6.303  1.00 20.00     0.012 A 
ENDBRANCH   7   9
ENDBRANCH   2   4
TORSDOF 2
ENDMDL
