MODEL 1
REMARK VINA RESULT:      -4.2      0.000      0.000
REMARK  2 active torsions:
REMARK  status: ('A' for Active; 'I' for Inactive)
REMARK    1  A    between atoms: C5_5  and  C6_6 
REMARK    2  A    between atoms: C5_5  and  C7_7 
ROOT
HETATM    1  C1  UNL     1     -23.651  18.639   7.916  1.00 20.00     0.079 C 
HETATM    2  C6  UNL     1     -23.138  18.389   9.267  1.00 20.00     0.189 C 
HETATM    3  N8  UNL     1     -24.062  18.838   6.848  1.00 20.00    -0.196 NA
HETATM    4 CL9  UNL     1     -21.360  18.186   9.089  1.00 20.00    -0.109 Cl
ENDROOT
BRANCH   2   5
HETATM    5  C5  UNL     1     -23.722  17.122   9.911  1.00 20.00     0.043 C 
BRANCH   5   6
HETATM    6  C7  UNL     1     -24.125  17.204  11.415  1.00 20.00    -0.049 C 
HETATM    7  C2  UNL     1     -22.955  17.620  12.317  1.00 20.00     0.014 C 
HETATM    8  C3  UNL     1     -25.293  18.185  11.621  1.00 20.00     0.014 C 
HETATM    9  C4  UNL     1     -24.592  15.799  11.853  1.00 20.00     0.014 C 
ENDBRANCH   5   6
ENDBRANCH   2   5
TORSDOF 2
ENDMDL
MODEL 2
REMARK VINA RESULT:      -4.1     16.241     17.455
REMARK  2 active torsions:
REMARK  status: ('A' for Active; 'I' for Inactive)
REMARK    1  A    between atoms: C5_5  and  C6_6 
REMARK    2  A    between atoms: C5_5  and  C7_7 
ROOT
HETATM    1  C1  UNL     1     -35.389  13.859  -4.321  1.00 20.00     0.079 C 
HETATM    2  C6  UNL     1     -34.576  15.044  -4.030  1.00 20.00     0.189 C 
HETATM    3  N8  UNL     1     -36.037  12.923  -4.551  1.00 20.00    -0.196 NA
HETATM    4 CL9  UNL     1     -32.875  14.572  -4.369  1.00 20.00    -0.109 Cl
ENDROOT
BRANCH   2   5
HETATM    5  C5  UNL     1     -34.683  15.507  -2.569  1.00 20.00     0.043 C 
BRANCH   5   6
HETATM    6  C7  UNL     1     -34.433  17.017  -2.275  1.00 20.00    -0.049 C 
HETATM    7  C2  UNL     1     -32.940  17.358  -2.171  1.00 20.00     0.014 C 
HETATM    8  C3  UNL     1     -35.077  17.904  -3.355  1.00 20.00     0.014 C 
HETATM    9  C4  UNL     1     -35.096  17.349  -0.920  1.00 20.00     0.014 C 
ENDBRANCH   5   6
ENDBRANCH   2   5
TORSDOF 2
ENDMDL
MODEL 3
REMARK VINA RESULT:      -4.1     16.248     17.541
REMARK  2 active torsions:
REMARK  status: ('A' for Active; 'I' for Inactive)
REMARK    1  A    between atoms: C5_5  and  C6_6 
REMARK    2  A    between atoms: C5_5  and  C7_7 
ROOT
HETATM    1  C1  UNL     1     -35.462  13.839  -4.267  1.00 20.00     0.079 C 
HETATM    2  C6  UNL     1     -34.634  15.025  -4.017  1.00 20.00     0.189 C 
HETATM    3  N8  UNL     1     -36.120  12.904  -4.464  1.00 20.00    -0.196 NA
HETATM    4 CL9  UNL     1     -32.945  14.534  -4.390  1.00 20.00    -0.109 Cl
ENDROOT
BRANCH   2   5
HETATM    5  C5  UNL     1     -34.702  15.514  -2.562  1.00 20.00     0.043 C 
BRANCH   5   6
HETATM    6  C7  UNL     1     -34.458  17.031  -2.304  1.00 20.00    -0.049 C 
HETATM    7  C2  UNL     1     -35.196  17.544  -1.059  1.00 20.00     0.014 C 
HETATM    8  C3  UNL     1     -32.956  17.332  -2.157  1.00 20.00     0.014 C 
HETATM    9  C4  UNL     1     -34.987  17.808  -3.529  1.00 20.00     0.014 C 
ENDBRANCH   5   6
ENDBRANCH   2   5
TORSDOF 2
ENDMDL
MODEL 4
REMARK VINA RESULT:      -4.1     16.273     17.532
REMARK  2 active torsions:
REMARK  status: ('A' for Active; 'I' for Inactive)
REMARK    1  A    between atoms: C5_5  and  C6_6 
REMARK    2  A    between atoms: C5_5  and  C7_7 
ROOT
HETATM    1  C1  UNL     1     -35.465  13.841  -4.269  1.00 20.00     0.079 C 
HETATM    2  C6  UNL     1     -34.635  15.024  -4.016  1.00 20.00     0.189 C 
HETATM    3  N8  UNL     1     -36.125  12.907  -4.468  1.00 20.00    -0.196 NA
HETATM    4 CL9  UNL     1     -32.948  14.533  -4.395  1.00 20.00    -0.109 Cl
ENDROOT
BRANCH   2   5
HETATM    5  C5  UNL     1     -34.698  15.508  -2.560  1.00 20.00     0.043 C 
BRANCH   5   6
HETATM    6  C7  UNL     1     -34.514  17.034  -2.302  1.00 20.00    -0.049 C 
HETATM    7  C2  UNL     1     -35.050  17.895  -3.455  1.00 20.00     0.014 C 
HETATM    8  C3  UNL     1     -35.204  17.461  -0.994  1.00 20.00     0.014 C 
HETATM    9  C4  UNL     1     -33.001  17.309  -2.162  1.00 20.00     0.014 C 
ENDBRANCH   5   6
ENDBRANCH   2   5
TORSDOF 2
ENDMDL
MODEL 5
REMARK VINA RESULT:      -4.0     17.148     18.452
REMARK  2 active torsions:
REMARK  status: ('A' for Active; 'I' for Inactive)
REMARK    1  A    between atoms: C5_5  and  C6_6 
REMARK    2  A    between atoms: C5_5  and  C7_7 
ROOT
HETATM    1  C1  UNL     1     -37.247  14.591  -4.450  1.00 20.00     0.079 C 
HETATM    2  C6  UNL     1     -36.007  15.365  -4.586  1.00 20.00     0.189 C 
HETATM    3  N8  UNL     1     -38.229  13.982  -4.339  1.00 20.00    -0.196 NA
HETATM    4 CL9  UNL     1     -35.154  14.681  -6.012  1.00 20.00    -0.109 Cl
ENDROOT
BRANCH   2   5
HETATM    5  C5  UNL     1     -35.090  15.258  -3.358  1.00 20.00     0.043 C 
BRANCH   5   6
HETATM    6  C7  UNL     1     -34.642  16.588  -2.680  1.00 20.00    -0.049 C 
HETATM    7  C2  UNL     1     -35.159  17.830  -3.421  1.00 20.00     0.014 C 
HETATM    8  C3  UNL     1     -35.109  16.646  -1.215  1.00 20.00     0.014 C 
HETATM    9  C4  UNL     1     -33.099  16.629  -2.697  1.00 20.00     0.014 C 
ENDBRANCH   5   6
ENDBRANCH   2   5
TORSDOF 2
ENDMDL
MODEL 6
REMARK VINA RESULT:      -3.6     17.113     18.458
REMARK  2 active torsions:
REMARK  status: ('A' for Active; 'I' for Inactive)
REMARK    1  A    between atoms: C5_5  and  C6_6 
REMARK    2  A    between atoms: C5_5  and  C7_7 
ROOT
HETATM    1  C1  UNL     1     -36.048  13.830  -4.411  1.00 20.00     0.079 C 
HETATM    2  C6  UNL     1     -36.226  15.272  -4.207  1.00 20.00     0.189 C 
HETATM    3  N8  UNL     1     -35.904  12.689  -4.568  1.00 20.00    -0.196 NA
HETATM    4 CL9  UNL     1     -37.286  15.832  -5.547  1.00 20.00    -0.109 Cl
ENDROOT
BRANCH   2   5
HETATM    5  C5  UNL     1     -34.907  16.058  -4.252  1.00 20.00     0.043 C 
BRANCH   5   6
HETATM    6  C7  UNL     1     -34.483  16.822  -2.962  1.00 20.00    -0.049 C 
HETATM    7  C2  UNL     1     -35.171  16.278  -1.702  1.00 20.00     0.014 C 
HETATM    8  C3  UNL     1     -32.957  16.768  -2.765  1.00 20.00     0.014 C 
HETATM    9  C4  UNL     1     -34.895  18.300  -3.133  1.00 20.00     0.014 C 
ENDBRANCH   5   6
ENDBRANCH   2   5
TORSDOF 2
ENDMDL
MODEL 7
REMARK VINA RESULT:      -3.6     17.553     18.708
REMARK  2 active torsions:
REMARK  status: ('A' for Active; 'I' for Inactive)
REMARK    1  A    between atoms: C5_5  and  C6_6 
REMARK    2  A    between atoms: C5_5  and  C7_7 
ROOT
HETATM    1  C1  UNL     1     -37.330  14.924  -4.203  1.00 20.00     0.079 C 
HETATM    2  C6  UNL     1     -36.839  16.271  -3.890  1.00 20.00     0.189 C 
HETATM    3  N8  UNL     1     -37.715  13.857  -4.448  1.00 20.00    -0.196 NA
HETATM    4 CL9  UNL     1     -37.997  17.409  -4.661  1.00 20.00    -0.109 Cl
ENDROOT
BRANCH   2   5
HETATM    5  C5  UNL     1     -35.430  16.545  -4.440  1.00 20.00     0.043 C 
BRANCH   5   6
HETATM    6  C7  UNL     1     -34.228  16.323  -3.474  1.00 20.00    -0.049 C 
HETATM    7  C2  UNL     1     -33.213  17.474  -3.521  1.00 20.00     0.014 C 
HETATM    8  C3  UNL     1     -34.711  16.138  -2.024  1.00 20.00     0.014 C 
HETATM    9  C4  UNL     1     -33.506  15.029  -3.909  1.00 20.00     0.014 C 
ENDBRANCH   5   6
ENDBRANCH   2   5
TORSDOF 2
ENDMDL
MODEL 8
REMARK VINA RESULT:      -3.6     15.088     16.642
REMARK  2 active torsions:
REMARK  status: ('A' for Active; 'I' for Inactive)
REMARK    1  A    between atoms: C5_5  and  C6_6 
REMARK    2  A    between atoms: C5_5  and  C7_7 
ROOT
HETATM    1  C1  UNL     1     -32.306  18.329  -1.621  1.00 20.00     0.079 C 
HETATM    2  C6  UNL     1     -33.494  17.631  -2.126  1.00 20.00     0.189 C 
HETATM    3  N8  UNL     1     -31.364  18.880  -1.225  1.00 20.00    -0.196 NA
HETATM    4 CL9  UNL     1     -34.573  17.404  -0.706  1.00 20.00    -0.109 Cl
ENDROOT
BRANCH   2   5
HETATM    5  C5  UNL     1     -33.176  16.257  -2.735  1.00 20.00     0.043 C 
BRANCH   5   6
HETATM    6  C7  UNL     1     -34.109  15.745  -3.873  1.00 20.00    -0.049 C 
HETATM    7  C2  UNL     1     -35.425  15.162  -3.339  1.00 20.00     0.014 C 
HETATM    8  C3  UNL     1     -34.427  16.869  -4.875  1.00 20.00     0.014 C 
HETATM    9  C4  UNL     1     -33.360  14.625  -4.628  1.00 20.00     0.014 C 
ENDBRANCH   5   6
ENDBRANCH   2   5
TORSDOF 2
ENDMDL
MODEL 9
REMARK VINA RESULT:      -3.5     17.678     18.846
REMARK  2 active torsions:
REMARK  status: ('A' for Active; 'I' for Inactive)
REMARK    1  A    between atoms: C5_5  and  C6_6 
REMARK    2  A    between atoms: C5_5  and  C7_7 
ROOT
HETATM    1  C1  UNL     1     -35.710  14.770  -6.709  1.00 20.00     0.079 C 
HETATM    2  C6  UNL     1     -35.160  14.773  -5.349  1.00 20.00     0.189 C 
HETATM    3  N8  UNL     1     -36.142  14.771  -7.786  1.00 20.00    -0.196 NA
HETATM    4 CL9  UNL     1     -36.103  13.547  -4.433  1.00 20.00    -0.109 Cl
ENDROOT
BRANCH   2   5
HETATM    5  C5  UNL     1     -35.293  16.132  -4.644  1.00 20.00     0.043 C 
BRANCH   5   6
HETATM    6  C7  UNL     1     -34.321  16.425  -3.462  1.00 20.00    -0.049 C 
HETATM    7  C2  UNL     1     -34.957  16.142  -2.093  1.00 20.00     0.014 C 
HETATM    8  C3  UNL     1     -33.027  15.604  -3.594  1.00 20.00     0.014 C 
HETATM    9  C4  UNL     1     -33.950  17.923  -3.518  1.00 20.00     0.014 C 
ENDBRANCH   5   6
ENDBRANCH   2   5
TORSDOF 2
ENDMDL
