MODEL 1
REMARK VINA RESULT:      -5.4      0.000      0.000
REMARK  3 active torsions:
REMARK  status: ('A' for Active; 'I' for Inactive)
REMARK    1  A    between atoms: C3_3  and  C4_4 
REMARK    2  A    between atoms: C4_4  and  C5_5 
REMARK    3  A    between atoms: C4_4  and  O6_6 
ROOT
HETATM    1  C1  UNL     1     -32.488   7.284   2.237  1.00 20.00     0.012 C 
HETATM    2  C2  UNL     1     -33.024   6.363   2.791  1.00 20.00    -0.115 C 
HETATM    3  C3  UNL     1     -33.680   5.233   3.469  1.00 20.00     0.133 C 
ENDROOT
BRANCH   3   4
HETATM    4  C4  UNL     1     -34.791   5.713   4.404  1.00 20.00     0.236 C 
BRANCH   4   5
HETATM    5  C5  UNL     1     -34.306   5.824   5.838  1.00 20.00     0.413 C 
HETATM    6  F7  UNL     1     -33.811   4.646   6.276  1.00 20.00    -0.168 F 
HETATM    7  F8  UNL     1     -33.336   6.754   5.963  1.00 20.00    -0.168 F 
HETATM    8  F9  UNL     1     -35.320   6.169   6.661  1.00 20.00    -0.168 F 
ENDBRANCH   4   5
BRANCH   4   9
HETATM    9  O6  UNL     1     -35.864   4.773   4.364  1.00 20.00    -0.386 OA
HETATM   10  H14 UNL     1     -36.186   4.684   5.274  1.00 20.00     0.210 HD
ENDBRANCH   4   9
ENDBRANCH   3   4
TORSDOF 3
ENDMDL
MODEL 2
REMARK VINA RESULT:      -5.2      1.757      2.067
REMARK  3 active torsions:
REMARK  status: ('A' for Active; 'I' for Inactive)
REMARK    1  A    between atoms: C3_3  and  C4_4 
REMARK    2  A    between atoms: C4_4  and  C5_5 
REMARK    3  A    between atoms: C4_4  and  O6_6 
ROOT
HETATM    1  C1  UNL     1     -32.561   8.262   0.893  1.00 20.00     0.012 C 
HETATM    2  C2  UNL     1     -32.655   7.582   1.877  1.00 20.00    -0.115 C 
HETATM    3  C3  UNL     1     -32.769   6.749   3.086  1.00 20.00     0.133 C 
ENDROOT
BRANCH   3   4
HETATM    4  C4  UNL     1     -33.806   5.639   2.903  1.00 20.00     0.236 C 
BRANCH   4   5
HETATM    5  C5  UNL     1     -34.537   5.337   4.197  1.00 20.00     0.413 C 
HETATM    6  F7  UNL     1     -34.357   4.050   4.568  1.00 20.00    -0.168 F 
HETATM    7  F8  UNL     1     -34.107   6.123   5.206  1.00 20.00    -0.168 F 
HETATM    8  F9  UNL     1     -35.866   5.535   4.055  1.00 20.00    -0.168 F 
ENDBRANCH   4   5
BRANCH   4   9
HETATM    9  O6  UNL     1     -33.139   4.453   2.475  1.00 20.00    -0.386 OA
HETATM   10  H14 UNL     1     -32.752   4.652   1.608  1.00 20.00     0.210 HD
ENDBRANCH   4   9
ENDBRANCH   3   4
TORSDOF 3
ENDMDL
MODEL 3
REMARK VINA RESULT:      -4.7      1.751      2.176
REMARK  3 active torsions:
REMARK  status: ('A' for Active; 'I' for Inactive)
REMARK    1  A    between atoms: C3_3  and  C4_4 
REMARK    2  A    between atoms: C4_4  and  C5_5 
REMARK    3  A    between atoms: C4_4  and  O6_6 
ROOT
HETATM    1  C1  UNL     1     -32.412   7.955   1.554  1.00 20.00     0.012 C 
HETATM    2  C2  UNL     1     -32.756   6.935   2.087  1.00 20.00    -0.115 C 
HETATM    3  C3  UNL     1     -33.177   5.684   2.739  1.00 20.00     0.133 C 
ENDROOT
BRANCH   3   4
HETATM    4  C4  UNL     1     -33.645   5.933   4.174  1.00 20.00     0.236 C 
BRANCH   4   5
HETATM    5  C5  UNL     1     -34.778   5.002   4.562  1.00 20.00     0.413 C 
HETATM    6  F7  UNL     1     -34.871   4.882   5.904  1.00 20.00    -0.168 F 
HETATM    7  F8  UNL     1     -35.967   5.446   4.103  1.00 20.00    -0.168 F 
HETATM    8  F9  UNL     1     -34.575   3.764   4.058  1.00 20.00    -0.168 F 
ENDBRANCH   4   5
BRANCH   4   9
HETATM    9  O6  UNL     1     -34.112   7.277   4.278  1.00 20.00    -0.386 OA
HETATM   10  H14 UNL     1     -33.390   7.844   3.965  1.00 20.00     0.210 HD
ENDBRANCH   4   9
ENDBRANCH   3   4
TORSDOF 3
ENDMDL
MODEL 4
REMARK VINA RESULT:      -4.7      1.824      2.227
REMARK  3 active torsions:
REMARK  status: ('A' for Active; 'I' for Inactive)
REMARK    1  A    between atoms: C3_3  and  C4_4 
REMARK    2  A    between atoms: C4_4  and  C5_5 
REMARK    3  A    between atoms: C4_4  and  O6_6 
ROOT
HETATM    1  C1  UNL     1     -33.023   4.809   1.999  1.00 20.00     0.012 C 
HETATM    2  C2  UNL     1     -33.255   5.691   2.781  1.00 20.00    -0.115 C 
HETATM    3  C3  UNL     1     -33.539   6.774   3.738  1.00 20.00     0.133 C 
ENDROOT
BRANCH   3   4
HETATM    4  C4  UNL     1     -33.726   6.230   5.155  1.00 20.00     0.236 C 
BRANCH   4   5
HETATM    5  C5  UNL     1     -34.849   5.212   5.221  1.00 20.00     0.413 C 
HETATM    6  F7  UNL     1     -35.854   5.542   4.381  1.00 20.00    -0.168 F 
HETATM    7  F8  UNL     1     -34.419   3.976   4.888  1.00 20.00    -0.168 F 
HETATM    8  F9  UNL     1     -35.366   5.149   6.468  1.00 20.00    -0.168 F 
ENDBRANCH   4   5
BRANCH   4   9
HETATM    9  O6  UNL     1     -34.049   7.314   6.024  1.00 20.00    -0.386 OA
HETATM   10  H14 UNL     1     -33.835   8.127   5.542  1.00 20.00     0.210 HD
ENDBRANCH   4   9
ENDBRANCH   3   4
TORSDOF 3
ENDMDL
MODEL 5
REMARK VINA RESULT:      -4.5      2.906      3.973
REMARK  3 active torsions:
REMARK  status: ('A' for Active; 'I' for Inactive)
REMARK    1  A    between atoms: C3_3  and  C4_4 
REMARK    2  A    between atoms: C4_4  and  C5_5 
REMARK    3  A    between atoms: C4_4  and  O6_6 
ROOT
HETATM    1  C1  UNL     1     -35.051   4.951   6.393  1.00 20.00     0.012 C 
HETATM    2  C2  UNL     1     -34.757   5.216   5.259  1.00 20.00    -0.115 C 
HETATM    3  C3  UNL     1     -34.398   5.539   3.868  1.00 20.00     0.133 C 
ENDROOT
BRANCH   3   4
HETATM    4  C4  UNL     1     -33.686   6.889   3.775  1.00 20.00     0.236 C 
BRANCH   4   5
HETATM    5  C5  UNL     1     -32.596   6.875   2.721  1.00 20.00     0.413 C 
HETATM    6  F7  UNL     1     -32.920   7.665   1.675  1.00 20.00    -0.168 F 
HETATM    7  F8  UNL     1     -31.418   7.309   3.218  1.00 20.00    -0.168 F 
HETATM    8  F9  UNL     1     -32.407   5.625   2.242  1.00 20.00    -0.168 F 
ENDBRANCH   4   5
BRANCH   4   9
HETATM    9  O6  UNL     1     -33.089   7.181   5.037  1.00 20.00    -0.386 OA
HETATM   10  H14 UNL     1     -32.129   7.146   4.902  1.00 20.00     0.210 HD
ENDBRANCH   4   9
ENDBRANCH   3   4
TORSDOF 3
ENDMDL
MODEL 6
REMARK VINA RESULT:      -4.4      2.601      3.686
REMARK  3 active torsions:
REMARK  status: ('A' for Active; 'I' for Inactive)
REMARK    1  A    between atoms: C3_3  and  C4_4 
REMARK    2  A    between atoms: C4_4  and  C5_5 
REMARK    3  A    between atoms: C4_4  and  O6_6 
ROOT
HETATM    1  C1  UNL     1     -34.811   5.395   6.258  1.00 20.00     0.012 C 
HETATM    2  C2  UNL     1     -34.710   5.322   5.063  1.00 20.00    -0.115 C 
HETATM    3  C3  UNL     1     -34.589   5.232   3.598  1.00 20.00     0.133 C 
ENDROOT
BRANCH   3   4
HETATM    4  C4  UNL     1     -33.134   5.375   3.149  1.00 20.00     0.236 C 
BRANCH   4   5
HETATM    5  C5  UNL     1     -32.789   6.815   2.821  1.00 20.00     0.413 C 
HETATM    6  F7  UNL     1     -31.754   7.251   3.572  1.00 20.00    -0.168 F 
HETATM    7  F8  UNL     1     -32.448   6.961   1.523  1.00 20.00    -0.168 F 
HETATM    8  F9  UNL     1     -33.840   7.628   3.067  1.00 20.00    -0.168 F 
ENDBRANCH   4   5
BRANCH   4   9
HETATM    9  O6  UNL     1     -32.935   4.585   1.978  1.00 20.00    -0.386 OA
HETATM   10  H14 UNL     1     -32.187   3.998   2.166  1.00 20.00     0.210 HD
ENDBRANCH   4   9
ENDBRANCH   3   4
TORSDOF 3
ENDMDL
MODEL 7
REMARK VINA RESULT:      -4.3      4.113      4.880
REMARK  3 active torsions:
REMARK  status: ('A' for Active; 'I' for Inactive)
REMARK    1  A    between atoms: C3_3  and  C4_4 
REMARK    2  A    between atoms: C4_4  and  C5_5 
REMARK    3  A    between atoms: C4_4  and  O6_6 
ROOT
HETATM    1  C1  UNL     1     -34.758   4.961   4.149  1.00 20.00     0.012 C 
HETATM    2  C2  UNL     1     -33.972   5.369   3.338  1.00 20.00    -0.115 C 
HETATM    3  C3  UNL     1     -33.007   5.866   2.343  1.00 20.00     0.133 C 
ENDROOT
BRANCH   3   4
HETATM    4  C4  UNL     1     -32.777   7.371   2.495  1.00 20.00     0.236 C 
BRANCH   4   5
HETATM    5  C5  UNL     1     -32.628   8.052   1.148  1.00 20.00     0.413 C 
HETATM    6  F7  UNL     1     -32.618   9.396   1.281  1.00 20.00    -0.168 F 
HETATM    7  F8  UNL     1     -31.484   7.689   0.530  1.00 20.00    -0.168 F 
HETATM    8  F9  UNL     1     -33.658   7.734   0.333  1.00 20.00    -0.168 F 
ENDBRANCH   4   5
BRANCH   4   9
HETATM    9  O6  UNL     1     -31.578   7.579   3.239  1.00 20.00    -0.386 OA
HETATM   10  H14 UNL     1     -31.849   7.897   4.114  1.00 20.00     0.210 HD
ENDBRANCH   4   9
ENDBRANCH   3   4
TORSDOF 3
ENDMDL
MODEL 8
REMARK VINA RESULT:      -4.3     12.998     13.652
REMARK  3 active torsions:
REMARK  status: ('A' for Active; 'I' for Inactive)
REMARK    1  A    between atoms: C3_3  and  C4_4 
REMARK    2  A    between atoms: C4_4  and  C5_5 
REMARK    3  A    between atoms: C4_4  and  O6_6 
ROOT
HETATM    1  C1  UNL     1     -34.824  16.438  -1.801  1.00 20.00     0.012 C 
HETATM    2  C2  UNL     1     -34.800  15.578  -2.639  1.00 20.00    -0.115 C 
HETATM    3  C3  UNL     1     -34.772  14.522  -3.665  1.00 20.00     0.133 C 
ENDROOT
BRANCH   3   4
HETATM    4  C4  UNL     1     -33.615  14.726  -4.643  1.00 20.00     0.236 C 
BRANCH   4   5
HETATM    5  C5  UNL     1     -34.113  15.022  -6.045  1.00 20.00     0.413 C 
HETATM    6  F7  UNL     1     -34.333  16.344  -6.214  1.00 20.00    -0.168 F 
HETATM    7  F8  UNL     1     -33.225  14.627  -6.982  1.00 20.00    -0.168 F 
HETATM    8  F9  UNL     1     -35.280  14.384  -6.285  1.00 20.00    -0.168 F 
ENDBRANCH   4   5
BRANCH   4   9
HETATM    9  O6  UNL     1     -32.833  13.533  -4.686  1.00 20.00    -0.386 OA
HETATM   10  H14 UNL     1     -31.981  13.776  -5.080  1.00 20.00     0.210 HD
ENDBRANCH   4   9
ENDBRANCH   3   4
TORSDOF 3
ENDMDL
MODEL 9
REMARK VINA RESULT:      -4.2     12.958     13.799
REMARK  3 active torsions:
REMARK  status: ('A' for Active; 'I' for Inactive)
REMARK    1  A    between atoms: C3_3  and  C4_4 
REMARK    2  A    between atoms: C4_4  and  C5_5 
REMARK    3  A    between atoms: C4_4  and  O6_6 
ROOT
HETATM    1  C1  UNL     1     -34.434  16.118  -2.314  1.00 20.00     0.012 C 
HETATM    2  C2  UNL     1     -34.106  15.399  -3.218  1.00 20.00    -0.115 C 
HETATM    3  C3  UNL     1     -33.702  14.516  -4.325  1.00 20.00     0.133 C 
ENDROOT
BRANCH   3   4
HETATM    4  C4  UNL     1     -34.133  15.085  -5.678  1.00 20.00     0.236 C 
BRANCH   4   5
HETATM    5  C5  UNL     1     -35.570  14.722  -6.005  1.00 20.00     0.413 C 
HETATM    6  F7  UNL     1     -35.963  13.627  -5.320  1.00 20.00    -0.168 F 
HETATM    7  F8  UNL     1     -36.418  15.727  -5.700  1.00 20.00    -0.168 F 
HETATM    8  F9  UNL     1     -35.708  14.449  -7.321  1.00 20.00    -0.168 F 
ENDBRANCH   4   5
BRANCH   4   9
HETATM    9  O6  UNL     1     -33.290  14.544  -6.694  1.00 20.00    -0.386 OA
HETATM   10  H14 UNL     1     -33.018  13.665  -6.387  1.00 20.00     0.210 HD
ENDBRANCH   4   9
ENDBRANCH   3   4
TORSDOF 3
ENDMDL
