MODEL 1
REMARK VINA RESULT:      -4.6      0.000      0.000
REMARK  1 active torsions:
REMARK  status: ('A' for Active; 'I' for Inactive)
REMARK    1  A    between atoms: C8_8  and  N10_10 
ROOT
HETATM    1  C1  UNL     1     -22.629  17.639   8.189  1.00 20.00     0.065 C 
HETATM    2  C4  UNL     1     -21.708  17.739  10.490  1.00 20.00     0.051 C 
HETATM    3  C5  UNL     1     -22.505  17.843  11.780  1.00 20.00     0.274 C 
HETATM    4  C6  UNL     1     -24.033  17.107  10.177  1.00 20.00     0.292 C 
HETATM    5  C7  UNL     1     -22.650  17.022   9.521  1.00 20.00     0.122 C 
HETATM    6  N9  UNL     1     -22.612  18.126   7.137  1.00 20.00    -0.197 NA
HETATM    7  N10 UNL     1     -23.863  18.056  11.283  1.00 20.00     0.094 N 
ENDROOT
BRANCH   7   8
HETATM    8  C8  UNL     1     -24.895  17.922  12.332  1.00 20.00     0.223 A 
HETATM    9  C2  UNL     1     -26.201  18.659  12.215  1.00 20.00     0.038 A 
HETATM   10  C3  UNL     1     -26.167  17.166  12.060  1.00 20.00     0.038 A 
ENDBRANCH   7   8
TORSDOF 1
ENDMDL
MODEL 2
REMARK VINA RESULT:      -4.3     17.628     18.971
REMARK  1 active torsions:
REMARK  status: ('A' for Active; 'I' for Inactive)
REMARK    1  A    between atoms: C8_8  and  N10_10 
ROOT
HETATM    1  C1  UNL     1     -37.225  14.101  -4.440  1.00 20.00     0.065 C 
HETATM    2  C4  UNL     1     -35.306  14.599  -5.931  1.00 20.00     0.051 C 
HETATM    3  C5  UNL     1     -34.043  15.356  -5.557  1.00 20.00     0.274 C 
HETATM    4  C6  UNL     1     -34.991  14.711  -3.525  1.00 20.00     0.292 C 
HETATM    5  C7  UNL     1     -35.773  13.972  -4.616  1.00 20.00     0.122 C 
HETATM    6  N9  UNL     1     -38.372  14.203  -4.301  1.00 20.00    -0.197 NA
HETATM    7  N10 UNL     1     -34.364  15.843  -4.217  1.00 20.00     0.094 N 
ENDROOT
BRANCH   7   8
HETATM    8  C8  UNL     1     -33.194  16.392  -3.500  1.00 20.00     0.223 A 
HETATM    9  C2  UNL     1     -33.027  17.878  -3.338  1.00 20.00     0.038 A 
HETATM   10  C3  UNL     1     -33.356  17.027  -2.146  1.00 20.00     0.038 A 
ENDBRANCH   7   8
TORSDOF 1
ENDMDL
MODEL 3
REMARK VINA RESULT:      -4.2      1.718      4.408
REMARK  1 active torsions:
REMARK  status: ('A' for Active; 'I' for Inactive)
REMARK    1  A    between atoms: C8_8  and  N10_10 
ROOT
HETATM    1  C1  UNL     1     -27.049  18.488  11.857  1.00 20.00     0.065 C 
HETATM    2  C4  UNL     1     -25.667  16.473  12.288  1.00 20.00     0.051 C 
HETATM    3  C5  UNL     1     -24.300  16.172  11.699  1.00 20.00     0.274 C 
HETATM    4  C6  UNL     1     -24.602  18.466  11.396  1.00 20.00     0.292 C 
HETATM    5  C7  UNL     1     -25.741  18.001  12.311  1.00 20.00     0.122 C 
HETATM    6  N9  UNL     1     -28.083  18.872  11.499  1.00 20.00    -0.197 NA
HETATM    7  N10 UNL     1     -24.144  17.246  10.720  1.00 20.00     0.094 N 
ENDROOT
BRANCH   7   8
HETATM    8  C8  UNL     1     -22.771  17.354  10.185  1.00 20.00     0.223 A 
HETATM    9  C2  UNL     1     -22.498  17.090   8.729  1.00 20.00     0.038 A 
HETATM   10  C3  UNL     1     -22.394  18.487   9.269  1.00 20.00     0.038 A 
ENDBRANCH   7   8
TORSDOF 1
ENDMDL
MODEL 4
REMARK VINA RESULT:      -4.1     15.017     16.497
REMARK  1 active torsions:
REMARK  status: ('A' for Active; 'I' for Inactive)
REMARK    1  A    between atoms: C8_8  and  N10_10 
ROOT
HETATM    1  C1  UNL     1     -31.489  18.427  -0.847  1.00 20.00     0.065 C 
HETATM    2  C4  UNL     1     -32.456  19.258  -2.975  1.00 20.00     0.051 C 
HETATM    3  C5  UNL     1     -33.237  18.443  -3.992  1.00 20.00     0.274 C 
HETATM    4  C6  UNL     1     -33.294  17.183  -2.029  1.00 20.00     0.292 C 
HETATM    5  C7  UNL     1     -32.715  18.549  -1.644  1.00 20.00     0.122 C 
HETATM    6  N9  UNL     1     -30.520  18.330  -0.217  1.00 20.00    -0.197 NA
HETATM    7  N10 UNL     1     -33.085  17.083  -3.478  1.00 20.00     0.094 N 
ENDROOT
BRANCH   7   8
HETATM    8  C8  UNL     1     -33.980  16.108  -4.133  1.00 20.00     0.223 A 
HETATM    9  C2  UNL     1     -33.534  14.687  -4.346  1.00 20.00     0.038 A 
HETATM   10  C3  UNL     1     -34.606  14.992  -3.341  1.00 20.00     0.038 A 
ENDBRANCH   7   8
TORSDOF 1
ENDMDL
MODEL 5
REMARK VINA RESULT:      -4.0     14.989     16.234
REMARK  1 active torsions:
REMARK  status: ('A' for Active; 'I' for Inactive)
REMARK    1  A    between atoms: C8_8  and  N10_10 
ROOT
HETATM    1  C1  UNL     1     -33.645  14.927  -4.080  1.00 20.00     0.065 C 
HETATM    2  C4  UNL     1     -35.083  15.930  -2.325  1.00 20.00     0.051 C 
HETATM    3  C5  UNL     1     -34.696  17.043  -1.366  1.00 20.00     0.274 C 
HETATM    4  C6  UNL     1     -33.130  17.155  -3.092  1.00 20.00     0.292 C 
HETATM    5  C7  UNL     1     -34.214  16.176  -3.559  1.00 20.00     0.122 C 
HETATM    6  N9  UNL     1     -33.196  13.940  -4.491  1.00 20.00    -0.197 NA
HETATM    7  N10 UNL     1     -33.267  17.193  -1.631  1.00 20.00     0.094 N 
ENDROOT
BRANCH   7   8
HETATM    8  C8  UNL     1     -32.684  18.406  -1.022  1.00 20.00     0.223 A 
HETATM    9  C2  UNL     1     -32.348  18.436   0.445  1.00 20.00     0.038 A 
HETATM   10  C3  UNL     1     -31.247  18.423  -0.576  1.00 20.00     0.038 A 
ENDBRANCH   7   8
TORSDOF 1
ENDMDL
MODEL 6
REMARK VINA RESULT:      -3.8     16.983     17.992
REMARK  1 active torsions:
REMARK  status: ('A' for Active; 'I' for Inactive)
REMARK    1  A    between atoms: C8_8  and  N10_10 
ROOT
HETATM    1  C1  UNL     1     -35.231  13.830  -4.202  1.00 20.00     0.065 C 
HETATM    2  C4  UNL     1     -34.715  16.169  -4.847  1.00 20.00     0.051 C 
HETATM    3  C5  UNL     1     -34.847  17.400  -3.967  1.00 20.00     0.274 C 
HETATM    4  C6  UNL     1     -34.830  15.594  -2.490  1.00 20.00     0.292 C 
HETATM    5  C7  UNL     1     -34.452  15.028  -3.863  1.00 20.00     0.122 C 
HETATM    6  N9  UNL     1     -35.847  12.884  -4.470  1.00 20.00    -0.197 NA
HETATM    7  N10 UNL     1     -35.512  16.860  -2.782  1.00 20.00     0.094 N 
ENDROOT
BRANCH   7   8
HETATM    8  C8  UNL     1     -35.522  17.797  -1.640  1.00 20.00     0.223 A 
HETATM    9  C2  UNL     1     -36.762  17.968  -0.805  1.00 20.00     0.038 A 
HETATM   10  C3  UNL     1     -35.559  17.280  -0.228  1.00 20.00     0.038 A 
ENDBRANCH   7   8
TORSDOF 1
ENDMDL
MODEL 7
REMARK VINA RESULT:      -3.8     17.012     18.483
REMARK  1 active torsions:
REMARK  status: ('A' for Active; 'I' for Inactive)
REMARK    1  A    between atoms: C8_8  and  N10_10 
ROOT
HETATM    1  C1  UNL     1     -32.995  17.635  -2.413  1.00 20.00     0.065 C 
HETATM    2  C4  UNL     1     -34.974  16.148  -2.255  1.00 20.00     0.051 C 
HETATM    3  C5  UNL     1     -35.548  15.285  -3.367  1.00 20.00     0.274 C 
HETATM    4  C6  UNL     1     -33.379  15.802  -4.055  1.00 20.00     0.292 C 
HETATM    5  C7  UNL     1     -33.487  16.264  -2.597  1.00 20.00     0.122 C 
HETATM    6  N9  UNL     1     -32.605  18.717  -2.267  1.00 20.00    -0.197 NA
HETATM    7  N10 UNL     1     -34.767  15.718  -4.524  1.00 20.00     0.094 N 
ENDROOT
BRANCH   7   8
HETATM    8  C8  UNL     1     -34.934  14.841  -5.701  1.00 20.00     0.223 A 
HETATM    9  C2  UNL     1     -35.567  15.368  -6.961  1.00 20.00     0.038 A 
HETATM   10  C3  UNL     1     -34.100  15.051  -6.936  1.00 20.00     0.038 A 
ENDBRANCH   7   8
TORSDOF 1
ENDMDL
MODEL 8
REMARK VINA RESULT:      -3.8     16.687     17.744
REMARK  1 active torsions:
REMARK  status: ('A' for Active; 'I' for Inactive)
REMARK    1  A    between atoms: C8_8  and  N10_10 
ROOT
HETATM    1  C1  UNL     1     -35.645  14.321  -4.950  1.00 20.00     0.065 C 
HETATM    2  C4  UNL     1     -33.378  15.142  -4.365  1.00 20.00     0.051 C 
HETATM    3  C5  UNL     1     -33.025  16.096  -3.237  1.00 20.00     0.274 C 
HETATM    4  C6  UNL     1     -35.149  15.288  -2.708  1.00 20.00     0.292 C 
HETATM    5  C7  UNL     1     -34.646  14.437  -3.880  1.00 20.00     0.122 C 
HETATM    6  N9  UNL     1     -36.434  14.230  -5.795  1.00 20.00    -0.197 NA
HETATM    7  N10 UNL     1     -34.344  16.513  -2.764  1.00 20.00     0.094 N 
ENDROOT
BRANCH   7   8
HETATM    8  C8  UNL     1     -34.300  17.243  -1.480  1.00 20.00     0.223 A 
HETATM    9  C2  UNL     1     -35.157  18.461  -1.266  1.00 20.00     0.038 A 
HETATM   10  C3  UNL     1     -35.465  17.190  -0.530  1.00 20.00     0.038 A 
ENDBRANCH   7   8
TORSDOF 1
ENDMDL
MODEL 9
REMARK VINA RESULT:      -3.7     13.676     14.937
REMARK  1 active torsions:
REMARK  status: ('A' for Active; 'I' for Inactive)
REMARK    1  A    between atoms: C8_8  and  N10_10 
ROOT
HETATM    1  C1  UNL     1     -32.688  18.253   2.107  1.00 20.00     0.065 C 
HETATM    2  C4  UNL     1     -31.575  18.901  -0.013  1.00 20.00     0.051 C 
HETATM    3  C5  UNL     1     -32.007  18.513  -1.417  1.00 20.00     0.274 C 
HETATM    4  C6  UNL     1     -33.880  18.138  -0.077  1.00 20.00     0.292 C 
HETATM    5  C7  UNL     1     -32.872  18.891   0.798  1.00 20.00     0.122 C 
HETATM    6  N9  UNL     1     -32.543  17.748   3.141  1.00 20.00    -0.197 NA
HETATM    7  N10 UNL     1     -33.075  17.550  -1.154  1.00 20.00     0.094 N 
ENDROOT
BRANCH   7   8
HETATM    8  C8  UNL     1     -33.864  17.210  -2.355  1.00 20.00     0.223 A 
HETATM    9  C2  UNL     1     -33.668  15.888  -3.047  1.00 20.00     0.038 A 
HETATM   10  C3  UNL     1     -34.937  16.157  -2.293  1.00 20.00     0.038 A 
ENDBRANCH   7   8
TORSDOF 1
ENDMDL
