MODEL 1
REMARK VINA RESULT:      -4.1      0.000      0.000
REMARK  1 active torsions:
REMARK  status: ('A' for Active; 'I' for Inactive)
REMARK    1  A    between atoms: C8_8  and  N10_10 
ROOT
HETATM    1  C1  UNL     1     -34.058  14.861  -5.237  1.00 20.00     0.065 C 
HETATM    2  C4  UNL     1     -35.096  15.185  -2.995  1.00 20.00     0.051 C 
HETATM    3  C5  UNL     1     -34.931  16.505  -2.249  1.00 20.00     0.274 C 
HETATM    4  C6  UNL     1     -32.989  16.269  -3.497  1.00 20.00     0.292 C 
HETATM    5  C7  UNL     1     -33.805  15.015  -3.800  1.00 20.00     0.122 C 
HETATM    6  N9  UNL     1     -34.259  14.740  -6.374  1.00 20.00    -0.197 NA
HETATM    7  N10 UNL     1     -33.478  16.671  -2.176  1.00 20.00     0.094 N 
ENDROOT
BRANCH   7   8
HETATM    8  C8  UNL     1     -33.069  18.038  -1.794  1.00 20.00     0.223 A 
HETATM    9  C2  UNL     1     -33.332  18.552  -0.406  1.00 20.00     0.038 A 
HETATM   10  C3  UNL     1     -31.927  18.256  -0.841  1.00 20.00     0.038 A 
ENDBRANCH   7   8
TORSDOF 1
ENDMDL
MODEL 2
REMARK VINA RESULT:      -4.0     13.354     16.071
REMARK  1 active torsions:
REMARK  status: ('A' for Active; 'I' for Inactive)
REMARK    1  A    between atoms: C8_8  and  N10_10 
ROOT
HETATM    1  C1  UNL     1     -22.657  17.416  11.302  1.00 20.00     0.065 C 
HETATM    2  C4  UNL     1     -22.211  17.111   8.869  1.00 20.00     0.051 C 
HETATM    3  C5  UNL     1     -22.762  18.102   7.851  1.00 20.00     0.274 C 
HETATM    4  C6  UNL     1     -24.311  18.087   9.579  1.00 20.00     0.292 C 
HETATM    5  C7  UNL     1     -23.243  17.080  10.000  1.00 20.00     0.122 C 
HETATM    6  N9  UNL     1     -22.193  17.683  12.332  1.00 20.00    -0.197 NA
HETATM    7  N10 UNL     1     -24.202  18.094   8.118  1.00 20.00     0.094 N 
ENDROOT
BRANCH   7   8
HETATM    8  C8  UNL     1     -24.916  19.222   7.486  1.00 20.00     0.223 A 
HETATM    9  C2  UNL     1     -25.107  19.263   5.995  1.00 20.00     0.038 A 
HETATM   10  C3  UNL     1     -26.284  19.026   6.895  1.00 20.00     0.038 A 
ENDBRANCH   7   8
TORSDOF 1
ENDMDL
MODEL 3
REMARK VINA RESULT:      -4.0     11.155     11.976
REMARK  1 active torsions:
REMARK  status: ('A' for Active; 'I' for Inactive)
REMARK    1  A    between atoms: C8_8  and  N10_10 
ROOT
HETATM    1  C1  UNL     1     -32.698   8.097   1.100  1.00 20.00     0.065 C 
HETATM    2  C4  UNL     1     -32.785   5.714   1.825  1.00 20.00     0.051 C 
HETATM    3  C5  UNL     1     -33.811   5.256   2.856  1.00 20.00     0.274 C 
HETATM    4  C6  UNL     1     -33.340   7.459   3.410  1.00 20.00     0.292 C 
HETATM    5  C7  UNL     1     -32.455   7.161   2.203  1.00 20.00     0.122 C 
HETATM    6  N9  UNL     1     -32.892   8.837   0.227  1.00 20.00    -0.197 NA
HETATM    7  N10 UNL     1     -33.556   6.135   3.998  1.00 20.00     0.094 N 
ENDROOT
BRANCH   7   8
HETATM    8  C8  UNL     1     -34.640   6.113   5.001  1.00 20.00     0.223 A 
HETATM    9  C2  UNL     1     -34.768   4.961   5.959  1.00 20.00     0.038 A 
HETATM   10  C3  UNL     1     -34.336   6.307   6.461  1.00 20.00     0.038 A 
ENDBRANCH   7   8
TORSDOF 1
ENDMDL
MODEL 4
REMARK VINA RESULT:      -4.0      1.502      2.087
REMARK  1 active torsions:
REMARK  status: ('A' for Active; 'I' for Inactive)
REMARK    1  A    between atoms: C8_8  and  N10_10 
ROOT
HETATM    1  C1  UNL     1     -35.560  13.874  -4.350  1.00 20.00     0.065 C 
HETATM    2  C4  UNL     1     -33.658  15.481  -4.250  1.00 20.00     0.051 C 
HETATM    3  C5  UNL     1     -33.291  16.166  -2.938  1.00 20.00     0.274 C 
HETATM    4  C6  UNL     1     -35.584  15.830  -2.824  1.00 20.00     0.292 C 
HETATM    5  C7  UNL     1     -35.175  15.280  -4.188  1.00 20.00     0.122 C 
HETATM    6  N9  UNL     1     -35.864  12.762  -4.478  1.00 20.00    -0.197 NA
HETATM    7  N10 UNL     1     -34.540  16.816  -2.537  1.00 20.00     0.094 N 
ENDROOT
BRANCH   7   8
HETATM    8  C8  UNL     1     -34.534  17.266  -1.130  1.00 20.00     0.223 A 
HETATM    9  C2  UNL     1     -33.401  18.102  -0.603  1.00 20.00     0.038 A 
HETATM   10  C3  UNL     1     -34.759  18.713  -0.788  1.00 20.00     0.038 A 
ENDBRANCH   7   8
TORSDOF 1
ENDMDL
MODEL 5
REMARK VINA RESULT:      -3.9      1.421      4.529
REMARK  1 active torsions:
REMARK  status: ('A' for Active; 'I' for Inactive)
REMARK    1  A    between atoms: C8_8  and  N10_10 
ROOT
HETATM    1  C1  UNL     1     -31.873  18.209  -1.304  1.00 20.00     0.065 C 
HETATM    2  C4  UNL     1     -34.274  17.541  -1.264  1.00 20.00     0.051 C 
HETATM    3  C5  UNL     1     -34.714  16.202  -1.846  1.00 20.00     0.274 C 
HETATM    4  C6  UNL     1     -32.874  16.834  -3.110  1.00 20.00     0.292 C 
HETATM    5  C7  UNL     1     -33.074  17.972  -2.112  1.00 20.00     0.122 C 
HETATM    6  N9  UNL     1     -30.923  18.396  -0.664  1.00 20.00    -0.197 NA
HETATM    7  N10 UNL     1     -34.213  16.251  -3.221  1.00 20.00     0.094 N 
ENDROOT
BRANCH   7   8
HETATM    8  C8  UNL     1     -34.222  14.934  -3.889  1.00 20.00     0.223 A 
HETATM    9  C2  UNL     1     -35.510  14.180  -4.069  1.00 20.00     0.038 A 
HETATM   10  C3  UNL     1     -34.819  14.776  -5.260  1.00 20.00     0.038 A 
ENDBRANCH   7   8
TORSDOF 1
ENDMDL
MODEL 6
REMARK VINA RESULT:      -3.9     14.246     16.432
REMARK  1 active torsions:
REMARK  status: ('A' for Active; 'I' for Inactive)
REMARK    1  A    between atoms: C8_8  and  N10_10 
ROOT
HETATM    1  C1  UNL     1     -24.465  18.977   7.645  1.00 20.00     0.065 C 
HETATM    2  C4  UNL     1     -22.445  18.668   9.072  1.00 20.00     0.051 C 
HETATM    3  C5  UNL     1     -22.456  17.668  10.222  1.00 20.00     0.274 C 
HETATM    4  C6  UNL     1     -24.644  18.421  10.056  1.00 20.00     0.292 C 
HETATM    5  C7  UNL     1     -23.883  19.185   8.975  1.00 20.00     0.122 C 
HETATM    6  N9  UNL     1     -24.925  18.812   6.592  1.00 20.00    -0.197 NA
HETATM    7  N10 UNL     1     -23.599  18.096  11.030  1.00 20.00     0.094 N 
ENDROOT
BRANCH   7   8
HETATM    8  C8  UNL     1     -24.021  17.084  12.021  1.00 20.00     0.223 A 
HETATM    9  C2  UNL     1     -25.479  16.779  12.223  1.00 20.00     0.038 A 
HETATM   10  C3  UNL     1     -24.585  15.764  11.573  1.00 20.00     0.038 A 
ENDBRANCH   7   8
TORSDOF 1
ENDMDL
MODEL 7
REMARK VINA RESULT:      -3.9     12.272     14.304
REMARK  1 active torsions:
REMARK  status: ('A' for Active; 'I' for Inactive)
REMARK    1  A    between atoms: C8_8  and  N10_10 
ROOT
HETATM    1  C1  UNL     1     -42.034   8.733   0.206  1.00 20.00     0.065 C 
HETATM    2  C4  UNL     1     -40.872   6.530   0.292  1.00 20.00     0.051 C 
HETATM    3  C5  UNL     1     -41.090   5.497  -0.807  1.00 20.00     0.274 C 
HETATM    4  C6  UNL     1     -43.089   6.667  -0.674  1.00 20.00     0.292 C 
HETATM    5  C7  UNL     1     -42.198   7.289   0.400  1.00 20.00     0.122 C 
HETATM    6  N9  UNL     1     -41.903   9.876   0.052  1.00 20.00    -0.197 NA
HETATM    7  N10 UNL     1     -42.543   5.316  -0.816  1.00 20.00     0.094 N 
ENDROOT
BRANCH   7   8
HETATM    8  C8  UNL     1     -43.033   4.613  -2.019  1.00 20.00     0.223 A 
HETATM    9  C2  UNL     1     -42.181   3.576  -2.696  1.00 20.00     0.038 A 
HETATM   10  C3  UNL     1     -43.417   3.161  -1.954  1.00 20.00     0.038 A 
ENDBRANCH   7   8
TORSDOF 1
ENDMDL
MODEL 8
REMARK VINA RESULT:      -3.9      2.210      2.642
REMARK  1 active torsions:
REMARK  status: ('A' for Active; 'I' for Inactive)
REMARK    1  A    between atoms: C8_8  and  N10_10 
ROOT
HETATM    1  C1  UNL     1     -36.954  14.363  -4.540  1.00 20.00     0.065 C 
HETATM    2  C4  UNL     1     -34.565  14.327  -3.831  1.00 20.00     0.051 C 
HETATM    3  C5  UNL     1     -33.942  15.540  -3.150  1.00 20.00     0.274 C 
HETATM    4  C6  UNL     1     -35.552  16.410  -4.578  1.00 20.00     0.292 C 
HETATM    5  C7  UNL     1     -35.612  14.899  -4.791  1.00 20.00     0.122 C 
HETATM    6  N9  UNL     1     -38.016  13.940  -4.341  1.00 20.00    -0.197 NA
HETATM    7  N10 UNL     1     -34.181  16.622  -4.106  1.00 20.00     0.094 N 
ENDROOT
BRANCH   7   8
HETATM    8  C8  UNL     1     -33.966  17.965  -3.529  1.00 20.00     0.223 A 
HETATM    9  C2  UNL     1     -32.748  18.249  -2.695  1.00 20.00     0.038 A 
HETATM   10  C3  UNL     1     -32.881  18.861  -4.059  1.00 20.00     0.038 A 
ENDBRANCH   7   8
TORSDOF 1
ENDMDL
MODEL 9
REMARK VINA RESULT:      -3.7      1.238      1.446
REMARK  1 active torsions:
REMARK  status: ('A' for Active; 'I' for Inactive)
REMARK    1  A    between atoms: C8_8  and  N10_10 
ROOT
HETATM    1  C1  UNL     1     -35.360  14.783  -6.190  1.00 20.00     0.065 C 
HETATM    2  C4  UNL     1     -34.778  14.264  -3.822  1.00 20.00     0.051 C 
HETATM    3  C5  UNL     1     -34.680  15.378  -2.787  1.00 20.00     0.274 C 
HETATM    4  C6  UNL     1     -34.049  16.360  -4.793  1.00 20.00     0.292 C 
HETATM    5  C7  UNL     1     -34.338  14.902  -5.143  1.00 20.00     0.122 C 
HETATM    6  N9  UNL     1     -36.168  14.689  -7.017  1.00 20.00    -0.197 NA
HETATM    7  N10 UNL     1     -33.700  16.296  -3.371  1.00 20.00     0.094 N 
ENDROOT
BRANCH   7   8
HETATM    8  C8  UNL     1     -33.682  17.620  -2.716  1.00 20.00     0.223 A 
HETATM    9  C2  UNL     1     -33.822  17.732  -1.224  1.00 20.00     0.038 A 
HETATM   10  C3  UNL     1     -32.507  18.042  -1.878  1.00 20.00     0.038 A 
ENDBRANCH   7   8
TORSDOF 1
ENDMDL
