MODEL 1
REMARK VINA RESULT:      -4.2      0.000      0.000
REMARK  1 active torsions:
REMARK  status: ('A' for Active; 'I' for Inactive)
REMARK    1  A    between atoms: C3_3  and  C7_7 
ROOT
HETATM    1  C1  UNL     1     -23.126  18.694   8.667  1.00 20.00     0.304 C 
HETATM    2  C2  UNL     1     -22.061  17.614   8.710  1.00 20.00     0.148 C 
HETATM    3  C3  UNL     1     -23.814  17.020  10.048  1.00 20.00     0.360 C 
HETATM    4  C4  UNL     1     -21.511  17.252   7.345  1.00 20.00     0.041 C 
HETATM    5  N8  UNL     1     -23.796  18.479   9.943  1.00 20.00     0.115 N 
HETATM    6  O9  UNL     1     -22.720  16.478   9.289  1.00 20.00    -0.350 OA
HETATM    7  H24 UNL     1     -23.211  18.862  10.686  1.00 20.00     0.319 HD
ENDROOT
BRANCH   3   8
HETATM    8  C7  UNL     1     -23.686  16.582  11.497  1.00 20.00     0.036 C 
HETATM    9  C5  UNL     1     -22.986  17.656  12.330  1.00 20.00     0.014 C 
HETATM   10  C6  UNL     1     -25.057  16.257  12.090  1.00 20.00     0.014 C 
ENDBRANCH   3   8
TORSDOF 1
ENDMDL
MODEL 2
REMARK VINA RESULT:      -4.2      1.620      2.049
REMARK  1 active torsions:
REMARK  status: ('A' for Active; 'I' for Inactive)
REMARK    1  A    between atoms: C3_3  and  C7_7 
ROOT
HETATM    1  C1  UNL     1     -22.751  17.151   8.938  1.00 20.00     0.304 C 
HETATM    2  C2  UNL     1     -24.051  17.926   8.834  1.00 20.00     0.148 C 
HETATM    3  C3  UNL     1     -23.381  17.838  11.016  1.00 20.00     0.360 C 
HETATM    4  C4  UNL     1     -24.068  18.930   7.699  1.00 20.00     0.041 C 
HETATM    5  N8  UNL     1     -22.811  16.685  10.318  1.00 20.00     0.115 N 
HETATM    6  O9  UNL     1     -24.169  18.608  10.092  1.00 20.00    -0.350 OA
HETATM    7  H24 UNL     1     -23.466  15.905  10.369  1.00 20.00     0.319 HD
ENDROOT
BRANCH   3   8
HETATM    8  C7  UNL     1     -24.258  17.390  12.172  1.00 20.00     0.036 C 
HETATM    9  C5  UNL     1     -25.463  18.317  12.332  1.00 20.00     0.014 C 
HETATM   10  C6  UNL     1     -24.719  15.945  11.975  1.00 20.00     0.014 C 
ENDBRANCH   3   8
TORSDOF 1
ENDMDL
MODEL 3
REMARK VINA RESULT:      -4.1      1.693      3.880
REMARK  1 active torsions:
REMARK  status: ('A' for Active; 'I' for Inactive)
REMARK    1  A    between atoms: C3_3  and  C7_7 
ROOT
HETATM    1  C1  UNL     1     -24.531  16.358  11.491  1.00 20.00     0.304 C 
HETATM    2  C2  UNL     1     -24.674  17.857  11.682  1.00 20.00     0.148 C 
HETATM    3  C3  UNL     1     -23.723  17.429   9.651  1.00 20.00     0.360 C 
HETATM    4  C4  UNL     1     -26.026  18.271  12.230  1.00 20.00     0.041 C 
HETATM    5  N8  UNL     1     -23.432  16.301  10.536  1.00 20.00     0.115 N 
HETATM    6  O9  UNL     1     -24.489  18.410  10.371  1.00 20.00    -0.350 OA
HETATM    7  H24 UNL     1     -22.560  16.482  11.034  1.00 20.00     0.319 HD
ENDROOT
BRANCH   3   8
HETATM    8  C7  UNL     1     -22.439  18.064   9.146  1.00 20.00     0.036 C 
HETATM    9  C5  UNL     1     -21.334  17.967  10.199  1.00 20.00     0.014 C 
HETATM   10  C6  UNL     1     -21.988  17.412   7.839  1.00 20.00     0.014 C 
ENDBRANCH   3   8
TORSDOF 1
ENDMDL
MODEL 4
REMARK VINA RESULT:      -4.1     15.963     16.911
REMARK  1 active torsions:
REMARK  status: ('A' for Active; 'I' for Inactive)
REMARK    1  A    between atoms: C3_3  and  C7_7 
ROOT
HETATM    1  C1  UNL     1     -34.316   4.375   3.814  1.00 20.00     0.304 C 
HETATM    2  C2  UNL     1     -33.975   5.389   4.889  1.00 20.00     0.148 C 
HETATM    3  C3  UNL     1     -33.643   6.314   2.828  1.00 20.00     0.360 C 
HETATM    4  C4  UNL     1     -34.999   5.457   6.005  1.00 20.00     0.041 C 
HETATM    5  N8  UNL     1     -33.510   4.862   2.702  1.00 20.00     0.115 N 
HETATM    6  O9  UNL     1     -33.920   6.646   4.199  1.00 20.00    -0.350 OA
HETATM    7  H24 UNL     1     -32.538   4.599   2.866  1.00 20.00     0.319 HD
ENDROOT
BRANCH   3   8
HETATM    8  C7  UNL     1     -32.368   7.012   2.388  1.00 20.00     0.036 C 
HETATM    9  C5  UNL     1     -32.661   8.042   1.296  1.00 20.00     0.014 C 
HETATM   10  C6  UNL     1     -31.677   7.679   3.578  1.00 20.00     0.014 C 
ENDBRANCH   3   8
TORSDOF 1
ENDMDL
MODEL 5
REMARK VINA RESULT:      -3.8     16.691     17.441
REMARK  1 active torsions:
REMARK  status: ('A' for Active; 'I' for Inactive)
REMARK    1  A    between atoms: C3_3  and  C7_7 
ROOT
HETATM    1  C1  UNL     1     -33.641  14.625  -4.813  1.00 20.00     0.304 C 
HETATM    2  C2  UNL     1     -34.763  14.325  -3.837  1.00 20.00     0.148 C 
HETATM    3  C3  UNL     1     -33.930  16.412  -3.431  1.00 20.00     0.360 C 
HETATM    4  C4  UNL     1     -35.982  13.704  -4.489  1.00 20.00     0.041 C 
HETATM    5  N8  UNL     1     -32.878  15.618  -4.067  1.00 20.00     0.115 N 
HETATM    6  O9  UNL     1     -35.106  15.600  -3.274  1.00 20.00    -0.350 OA
HETATM    7  H24 UNL     1     -32.338  15.139  -3.346  1.00 20.00     0.319 HD
ENDROOT
BRANCH   3   8
HETATM    8  C7  UNL     1     -33.480  16.914  -2.070  1.00 20.00     0.036 C 
HETATM    9  C5  UNL     1     -32.638  18.183  -2.210  1.00 20.00     0.014 C 
HETATM   10  C6  UNL     1     -34.682  17.170  -1.161  1.00 20.00     0.014 C 
ENDBRANCH   3   8
TORSDOF 1
ENDMDL
MODEL 6
REMARK VINA RESULT:      -3.7     18.820     19.552
REMARK  1 active torsions:
REMARK  status: ('A' for Active; 'I' for Inactive)
REMARK    1  A    between atoms: C3_3  and  C7_7 
ROOT
HETATM    1  C1  UNL     1     -33.958  15.205  -7.429  1.00 20.00     0.304 C 
HETATM    2  C2  UNL     1     -35.410  15.114  -6.996  1.00 20.00     0.148 C 
HETATM    3  C3  UNL     1     -34.097  15.580  -5.187  1.00 20.00     0.360 C 
HETATM    4  C4  UNL     1     -36.363  15.849  -7.918  1.00 20.00     0.041 C 
HETATM    5  N8  UNL     1     -33.274  14.891  -6.181  1.00 20.00     0.115 N 
HETATM    6  O9  UNL     1     -35.438  15.708  -5.690  1.00 20.00    -0.350 OA
HETATM    7  H24 UNL     1     -33.330  13.885  -6.024  1.00 20.00     0.319 HD
ENDROOT
BRANCH   3   8
HETATM    8  C7  UNL     1     -34.122  14.808  -3.879  1.00 20.00     0.036 C 
HETATM    9  C5  UNL     1     -34.490  15.726  -2.713  1.00 20.00     0.014 C 
HETATM   10  C6  UNL     1     -35.097  13.634  -3.960  1.00 20.00     0.014 C 
ENDBRANCH   3   8
TORSDOF 1
ENDMDL
MODEL 7
REMARK VINA RESULT:      -3.7     17.942     18.635
REMARK  1 active torsions:
REMARK  status: ('A' for Active; 'I' for Inactive)
REMARK    1  A    between atoms: C3_3  and  C7_7 
ROOT
HETATM    1  C1  UNL     1     -35.808  14.419  -5.718  1.00 20.00     0.304 C 
HETATM    2  C2  UNL     1     -34.699  15.401  -6.045  1.00 20.00     0.148 C 
HETATM    3  C3  UNL     1     -34.495  14.704  -3.879  1.00 20.00     0.360 C 
HETATM    4  C4  UNL     1     -34.033  15.141  -7.381  1.00 20.00     0.041 C 
HETATM    5  N8  UNL     1     -35.898  14.568  -4.272  1.00 20.00     0.115 N 
HETATM    6  O9  UNL     1     -33.746  15.239  -4.984  1.00 20.00    -0.350 OA
HETATM    7  H24 UNL     1     -36.391  15.437  -4.065  1.00 20.00     0.319 HD
ENDROOT
BRANCH   3   8
HETATM    8  C7  UNL     1     -34.357  15.629  -2.683  1.00 20.00     0.036 C 
HETATM    9  C5  UNL     1     -33.149  16.552  -2.845  1.00 20.00     0.014 C 
HETATM   10  C6  UNL     1     -35.631  16.450  -2.481  1.00 20.00     0.014 C 
ENDBRANCH   3   8
TORSDOF 1
ENDMDL
MODEL 8
REMARK VINA RESULT:      -3.7     15.662     16.345
REMARK  1 active torsions:
REMARK  status: ('A' for Active; 'I' for Inactive)
REMARK    1  A    between atoms: C3_3  and  C7_7 
ROOT
HETATM    1  C1  UNL     1     -32.224   7.688   4.077  1.00 20.00     0.304 C 
HETATM    2  C2  UNL     1     -32.513   6.893   2.817  1.00 20.00     0.148 C 
HETATM    3  C3  UNL     1     -34.253   6.674   4.281  1.00 20.00     0.360 C 
HETATM    4  C4  UNL     1     -32.201   7.648   1.540  1.00 20.00     0.041 C 
HETATM    5  N8  UNL     1     -33.047   6.982   5.050  1.00 20.00     0.115 N 
HETATM    6  O9  UNL     1     -33.918   6.605   2.884  1.00 20.00    -0.350 OA
HETATM    7  H24 UNL     1     -32.578   6.111   5.300  1.00 20.00     0.319 HD
ENDROOT
BRANCH   3   8
HETATM    8  C7  UNL     1     -34.851   5.349   4.721  1.00 20.00     0.036 C 
HETATM    9  C5  UNL     1     -34.247   4.190   3.928  1.00 20.00     0.014 C 
HETATM   10  C6  UNL     1     -34.646   5.133   6.221  1.00 20.00     0.014 C 
ENDBRANCH   3   8
TORSDOF 1
ENDMDL
MODEL 9
REMARK VINA RESULT:      -3.7     18.095     18.764
REMARK  1 active torsions:
REMARK  status: ('A' for Active; 'I' for Inactive)
REMARK    1  A    between atoms: C3_3  and  C7_7 
ROOT
HETATM    1  C1  UNL     1     -36.932  14.818  -4.818  1.00 20.00     0.304 C 
HETATM    2  C2  UNL     1     -35.778  15.424  -5.595  1.00 20.00     0.148 C 
HETATM    3  C3  UNL     1     -35.069  14.826  -3.507  1.00 20.00     0.360 C 
HETATM    4  C4  UNL     1     -35.667  14.906  -7.015  1.00 20.00     0.041 C 
HETATM    5  N8  UNL     1     -36.511  15.071  -3.446  1.00 20.00     0.115 N 
HETATM    6  O9  UNL     1     -34.607  15.060  -4.848  1.00 20.00    -0.350 OA
HETATM    7  H24 UNL     1     -36.675  16.055  -3.233  1.00 20.00     0.319 HD
ENDROOT
BRANCH   3   8
HETATM    8  C7  UNL     1     -34.325  15.743  -2.552  1.00 20.00     0.036 C 
HETATM    9  C5  UNL     1     -33.134  16.402  -3.247  1.00 20.00     0.014 C 
HETATM   10  C6  UNL     1     -35.263  16.806  -1.979  1.00 20.00     0.014 C 
ENDBRANCH   3   8
TORSDOF 1
ENDMDL
