MODEL 1
REMARK VINA RESULT:      -4.2      0.000      0.000
REMARK  1 active torsions:
REMARK  status: ('A' for Active; 'I' for Inactive)
REMARK    1  A    between atoms: C2_2  and  C7_7 
ROOT
HETATM    1  C1  UNL     1     -25.122  18.151  11.364  1.00 20.00     0.310 C 
HETATM    2  C2  UNL     1     -24.281  17.965   9.261  1.00 20.00     0.356 C 
HETATM    3  C3  UNL     1     -24.103  17.015  11.350  1.00 20.00     0.083 C 
HETATM    4  C4  UNL     1     -24.669  15.735  11.957  1.00 20.00     0.047 C 
HETATM    5  C5  UNL     1     -22.784  17.389  12.035  1.00 20.00     0.047 C 
HETATM    6  N8  UNL     1     -24.709  18.981  10.232  1.00 20.00     0.115 N 
HETATM    7  O9  UNL     1     -23.837  16.788   9.955  1.00 20.00    -0.345 OA
HETATM    8  H24 UNL     1     -25.494  19.519   9.871  1.00 20.00     0.319 HD
ENDROOT
BRANCH   2   9
HETATM    9  C7  UNL     1     -23.163  18.470   8.365  1.00 20.00     0.059 C 
HETATM   10  C6  UNL     1     -22.070  17.460   8.208  1.00 20.00     0.009 C 
ENDBRANCH   2   9
TORSDOF 1
ENDMDL
MODEL 2
REMARK VINA RESULT:      -4.1      1.662      2.307
REMARK  1 active torsions:
REMARK  status: ('A' for Active; 'I' for Inactive)
REMARK    1  A    between atoms: C2_2  and  C7_7 
ROOT
HETATM    1  C1  UNL     1     -24.362  16.495  10.785  1.00 20.00     0.310 C 
HETATM    2  C2  UNL     1     -22.295  17.351  10.388  1.00 20.00     0.356 C 
HETATM    3  C3  UNL     1     -24.417  18.006  10.992  1.00 20.00     0.083 C 
HETATM    4  C4  UNL     1     -25.045  18.375  12.332  1.00 20.00     0.047 C 
HETATM    5  C5  UNL     1     -25.134  18.736   9.850  1.00 20.00     0.047 C 
HETATM    6  N8  UNL     1     -23.218  16.324   9.889  1.00 20.00     0.115 N 
HETATM    7  O9  UNL     1     -23.039  18.419  10.996  1.00 20.00    -0.345 OA
HETATM    8  H24 UNL     1     -22.814  15.395   9.987  1.00 20.00     0.319 HD
ENDROOT
BRANCH   2   9
HETATM    9  C7  UNL     1     -21.420  17.917   9.282  1.00 20.00     0.059 C 
HETATM   10  C6  UNL     1     -21.848  17.441   7.929  1.00 20.00     0.009 C 
ENDBRANCH   2   9
TORSDOF 1
ENDMDL
MODEL 3
REMARK VINA RESULT:      -4.1      1.295      3.532
REMARK  1 active torsions:
REMARK  status: ('A' for Active; 'I' for Inactive)
REMARK    1  A    between atoms: C2_2  and  C7_7 
ROOT
HETATM    1  C1  UNL     1     -22.262  17.859  10.977  1.00 20.00     0.310 C 
HETATM    2  C2  UNL     1     -23.951  16.445  11.533  1.00 20.00     0.356 C 
HETATM    3  C3  UNL     1     -23.089  17.580   9.725  1.00 20.00     0.083 C 
HETATM    4  C4  UNL     1     -22.218  17.148   8.551  1.00 20.00     0.047 C 
HETATM    5  C5  UNL     1     -23.975  18.764   9.322  1.00 20.00     0.047 C 
HETATM    6  N8  UNL     1     -23.204  17.592  12.064  1.00 20.00     0.115 N 
HETATM    7  O9  UNL     1     -23.944  16.484  10.097  1.00 20.00    -0.345 OA
HETATM    8  H24 UNL     1     -22.711  17.339  12.918  1.00 20.00     0.319 HD
ENDROOT
BRANCH   2   9
HETATM    9  C7  UNL     1     -25.388  16.424  12.026  1.00 20.00     0.059 C 
HETATM   10  C6  UNL     1     -25.897  17.797  12.332  1.00 20.00     0.009 C 
ENDBRANCH   2   9
TORSDOF 1
ENDMDL
MODEL 4
REMARK VINA RESULT:      -3.7     23.615     24.208
REMARK  1 active torsions:
REMARK  status: ('A' for Active; 'I' for Inactive)
REMARK    1  A    between atoms: C2_2  and  C7_7 
ROOT
HETATM    1  C1  UNL     1     -42.730   5.308   0.794  1.00 20.00     0.310 C 
HETATM    2  C2  UNL     1     -43.349   7.392   0.135  1.00 20.00     0.356 C 
HETATM    3  C3  UNL     1     -42.511   5.423  -0.712  1.00 20.00     0.083 C 
HETATM    4  C4  UNL     1     -43.153   4.266  -1.472  1.00 20.00     0.047 C 
HETATM    5  C5  UNL     1     -41.031   5.551  -1.091  1.00 20.00     0.047 C 
HETATM    6  N8  UNL     1     -42.681   6.699   1.244  1.00 20.00     0.115 N 
HETATM    7  O9  UNL     1     -43.177   6.645  -1.079  1.00 20.00    -0.345 OA
HETATM    8  H24 UNL     1     -43.200   6.819   2.111  1.00 20.00     0.319 HD
ENDROOT
BRANCH   2   9
HETATM    9  C7  UNL     1     -42.813   8.800  -0.063  1.00 20.00     0.059 C 
HETATM   10  C6  UNL     1     -41.394   8.929   0.395  1.00 20.00     0.009 C 
ENDBRANCH   2   9
TORSDOF 1
ENDMDL
MODEL 5
REMARK VINA RESULT:      -3.7     23.348     23.975
REMARK  1 active torsions:
REMARK  status: ('A' for Active; 'I' for Inactive)
REMARK    1  A    between atoms: C2_2  and  C7_7 
ROOT
HETATM    1  C1  UNL     1     -42.564   7.093   0.956  1.00 20.00     0.310 C 
HETATM    2  C2  UNL     1     -41.298   5.772  -0.391  1.00 20.00     0.356 C 
HETATM    3  C3  UNL     1     -42.134   7.912  -0.258  1.00 20.00     0.083 C 
HETATM    4  C4  UNL     1     -41.510   9.244   0.145  1.00 20.00     0.047 C 
HETATM    5  C5  UNL     1     -43.275   8.141  -1.256  1.00 20.00     0.047 C 
HETATM    6  N8  UNL     1     -42.486   5.715   0.470  1.00 20.00     0.115 N 
HETATM    7  O9  UNL     1     -41.131   7.105  -0.899  1.00 20.00    -0.345 OA
HETATM    8  H24 UNL     1     -42.343   5.066   1.242  1.00 20.00     0.319 HD
ENDROOT
BRANCH   2   9
HETATM    9  C7  UNL     1     -41.394   4.801  -1.556  1.00 20.00     0.059 C 
HETATM   10  C6  UNL     1     -42.811   4.432  -1.865  1.00 20.00     0.009 C 
ENDBRANCH   2   9
TORSDOF 1
ENDMDL
MODEL 6
REMARK VINA RESULT:      -3.7     15.756     16.681
REMARK  1 active torsions:
REMARK  status: ('A' for Active; 'I' for Inactive)
REMARK    1  A    between atoms: C2_2  and  C7_7 
ROOT
HETATM    1  C1  UNL     1     -33.000   5.358   2.257  1.00 20.00     0.310 C 
HETATM    2  C2  UNL     1     -34.552   5.591   3.901  1.00 20.00     0.356 C 
HETATM    3  C3  UNL     1     -32.968   6.802   2.751  1.00 20.00     0.083 C 
HETATM    4  C4  UNL     1     -33.060   7.800   1.600  1.00 20.00     0.047 C 
HETATM    5  C5  UNL     1     -31.743   7.106   3.620  1.00 20.00     0.047 C 
HETATM    6  N8  UNL     1     -33.563   4.631   3.396  1.00 20.00     0.115 N 
HETATM    7  O9  UNL     1     -34.143   6.928   3.570  1.00 20.00    -0.345 OA
HETATM    8  H24 UNL     1     -34.015   3.771   3.091  1.00 20.00     0.319 HD
ENDROOT
BRANCH   2   9
HETATM    9  C7  UNL     1     -34.736   5.482   5.405  1.00 20.00     0.059 C 
HETATM   10  C6  UNL     1     -34.168   6.663   6.128  1.00 20.00     0.009 C 
ENDBRANCH   2   9
TORSDOF 1
ENDMDL
MODEL 7
REMARK VINA RESULT:      -3.7     17.020     18.052
REMARK  1 active torsions:
REMARK  status: ('A' for Active; 'I' for Inactive)
REMARK    1  A    between atoms: C2_2  and  C7_7 
ROOT
HETATM    1  C1  UNL     1     -34.144  15.117  -5.158  1.00 20.00     0.310 C 
HETATM    2  C2  UNL     1     -33.735  15.747  -3.013  1.00 20.00     0.356 C 
HETATM    3  C3  UNL     1     -35.447  15.017  -4.368  1.00 20.00     0.083 C 
HETATM    4  C4  UNL     1     -36.119  13.660  -4.547  1.00 20.00     0.047 C 
HETATM    5  C5  UNL     1     -36.431  16.145  -4.699  1.00 20.00     0.047 C 
HETATM    6  N8  UNL     1     -33.366  16.091  -4.392  1.00 20.00     0.115 N 
HETATM    7  O9  UNL     1     -35.045  15.158  -2.994  1.00 20.00    -0.345 OA
HETATM    8  H24 UNL     1     -32.368  15.959  -4.544  1.00 20.00     0.319 HD
ENDROOT
BRANCH   2   9
HETATM    9  C7  UNL     1     -33.718  16.960  -2.099  1.00 20.00     0.059 C 
HETATM   10  C6  UNL     1     -34.894  16.983  -1.174  1.00 20.00     0.009 C 
ENDBRANCH   2   9
TORSDOF 1
ENDMDL
MODEL 8
REMARK VINA RESULT:      -3.6     18.386     19.475
REMARK  1 active torsions:
REMARK  status: ('A' for Active; 'I' for Inactive)
REMARK    1  A    between atoms: C2_2  and  C7_7 
ROOT
HETATM    1  C1  UNL     1     -34.233  15.201  -7.229  1.00 20.00     0.310 C 
HETATM    2  C2  UNL     1     -34.016  14.929  -4.983  1.00 20.00     0.356 C 
HETATM    3  C3  UNL     1     -35.116  16.231  -6.530  1.00 20.00     0.083 C 
HETATM    4  C4  UNL     1     -36.543  16.217  -7.068  1.00 20.00     0.047 C 
HETATM    5  C5  UNL     1     -34.538  17.649  -6.593  1.00 20.00     0.047 C 
HETATM    6  N8  UNL     1     -33.222  14.890  -6.218  1.00 20.00     0.115 N 
HETATM    7  O9  UNL     1     -35.135  15.813  -5.154  1.00 20.00    -0.345 OA
HETATM    8  H24 UNL     1     -32.830  13.962  -6.368  1.00 20.00     0.319 HD
ENDROOT
BRANCH   2   9
HETATM    9  C7  UNL     1     -33.193  15.386  -3.791  1.00 20.00     0.059 C 
HETATM   10  C6  UNL     1     -34.048  15.958  -2.704  1.00 20.00     0.009 C 
ENDBRANCH   2   9
TORSDOF 1
ENDMDL
MODEL 9
REMARK VINA RESULT:      -3.6     18.340     19.239
REMARK  1 active torsions:
REMARK  status: ('A' for Active; 'I' for Inactive)
REMARK    1  A    between atoms: C2_2  and  C7_7 
ROOT
HETATM    1  C1  UNL     1     -33.210  14.704  -4.465  1.00 20.00     0.310 C 
HETATM    2  C2  UNL     1     -34.213  15.826  -6.168  1.00 20.00     0.356 C 
HETATM    3  C3  UNL     1     -34.662  14.970  -4.078  1.00 20.00     0.083 C 
HETATM    4  C4  UNL     1     -34.776  15.612  -2.699  1.00 20.00     0.047 C 
HETATM    5  C5  UNL     1     -35.537  13.715  -4.154  1.00 20.00     0.047 C 
HETATM    6  N8  UNL     1     -33.242  14.751  -5.927  1.00 20.00     0.115 N 
HETATM    7  O9  UNL     1     -35.131  15.906  -5.066  1.00 20.00    -0.345 OA
HETATM    8  H24 UNL     1     -32.328  14.997  -6.303  1.00 20.00     0.319 HD
ENDROOT
BRANCH   2   9
HETATM    9  C7  UNL     1     -34.992  15.612  -7.454  1.00 20.00     0.059 C 
HETATM   10  C6  UNL     1     -36.445  15.933  -7.290  1.00 20.00     0.009 C 
ENDBRANCH   2   9
TORSDOF 1
ENDMDL
