MODEL 1
REMARK VINA RESULT:      -5.0      0.000      0.000
REMARK  0 active torsions:
REMARK  status: ('A' for Active; 'I' for Inactive)
ROOT
HETATM    1  C1  UNL     1     -35.419  13.848  -4.163  1.00 20.00     0.107 C 
HETATM    2  C2  UNL     1     -35.457  15.545  -2.349  1.00 20.00     0.038 A 
HETATM    3  C3  UNL     1     -34.856  14.928  -3.426  1.00 20.00     0.086 A 
HETATM    4  C4  UNL     1     -34.653  16.596  -1.812  1.00 20.00    -0.043 A 
HETATM    5  C5  UNL     1     -33.466  16.726  -2.508  1.00 20.00    -0.010 A 
HETATM    6  C6  UNL     1     -34.986  17.460  -0.636  1.00 20.00     0.040 C 
HETATM    7  C7  UNL     1     -32.410  17.747  -2.222  1.00 20.00     0.046 C 
HETATM    8  C8  UNL     1     -34.095  18.710  -0.577  1.00 20.00     0.005 C 
HETATM    9  C9  UNL     1     -32.620  18.367  -0.831  1.00 20.00     0.005 C 
HETATM   10  N10 UNL     1     -35.877  12.968  -4.765  1.00 20.00    -0.191 NA
HETATM   11  S11 UNL     1     -33.328  15.612  -3.788  1.00 20.00    -0.083 SA
ENDROOT
TORSDOF 0
ENDMDL
MODEL 2
REMARK VINA RESULT:      -4.8     14.049     15.697
REMARK  0 active torsions:
REMARK  status: ('A' for Active; 'I' for Inactive)
ROOT
HETATM    1  C1  UNL     1     -24.456  19.087   6.189  1.00 20.00     0.107 C 
HETATM    2  C2  UNL     1     -25.426  19.226   8.472  1.00 20.00     0.038 A 
HETATM    3  C3  UNL     1     -24.421  18.873   7.596  1.00 20.00     0.086 A 
HETATM    4  C4  UNL     1     -25.109  18.884   9.822  1.00 20.00    -0.043 A 
HETATM    5  C5  UNL     1     -23.871  18.276   9.909  1.00 20.00    -0.010 A 
HETATM    6  C6  UNL     1     -25.975  19.103  11.023  1.00 20.00     0.040 C 
HETATM    7  C7  UNL     1     -23.226  17.818  11.179  1.00 20.00     0.046 C 
HETATM    8  C8  UNL     1     -25.179  18.972  12.330  1.00 20.00     0.005 C 
HETATM    9  C9  UNL     1     -24.260  17.742  12.313  1.00 20.00     0.005 C 
HETATM   10  N10 UNL     1     -24.483  19.263   5.042  1.00 20.00    -0.191 NA
HETATM   11  S11 UNL     1     -23.101  18.131   8.397  1.00 20.00    -0.083 SA
ENDROOT
TORSDOF 0
ENDMDL
MODEL 3
REMARK VINA RESULT:      -4.6      1.506      2.282
REMARK  0 active torsions:
REMARK  status: ('A' for Active; 'I' for Inactive)
ROOT
HETATM    1  C1  UNL     1     -33.989  15.078  -4.774  1.00 20.00     0.107 C 
HETATM    2  C2  UNL     1     -32.854  16.618  -3.189  1.00 20.00     0.038 A 
HETATM    3  C3  UNL     1     -33.937  15.861  -3.587  1.00 20.00     0.086 A 
HETATM    4  C4  UNL     1     -33.095  17.296  -1.956  1.00 20.00    -0.043 A 
HETATM    5  C5  UNL     1     -34.361  17.025  -1.473  1.00 20.00    -0.010 A 
HETATM    6  C6  UNL     1     -32.151  18.214  -1.245  1.00 20.00     0.040 C 
HETATM    7  C7  UNL     1     -34.923  17.554  -0.190  1.00 20.00     0.046 C 
HETATM    8  C8  UNL     1     -32.577  18.454   0.211  1.00 20.00     0.005 C 
HETATM    9  C9  UNL     1     -34.083  18.735   0.321  1.00 20.00     0.005 C 
HETATM   10  N10 UNL     1     -34.033  14.438  -5.742  1.00 20.00    -0.191 NA
HETATM   11  S11 UNL     1     -35.238  15.968  -2.478  1.00 20.00    -0.083 SA
ENDROOT
TORSDOF 0
ENDMDL
MODEL 4
REMARK VINA RESULT:      -4.4      2.912      4.940
REMARK  0 active torsions:
REMARK  status: ('A' for Active; 'I' for Inactive)
ROOT
HETATM    1  C1  UNL     1     -32.592  18.383  -2.318  1.00 20.00     0.107 C 
HETATM    2  C2  UNL     1     -33.373  16.124  -2.997  1.00 20.00     0.038 A 
HETATM    3  C3  UNL     1     -33.573  17.475  -2.809  1.00 20.00     0.086 A 
HETATM    4  C4  UNL     1     -34.540  15.471  -3.500  1.00 20.00    -0.043 A 
HETATM    5  C5  UNL     1     -35.582  16.364  -3.667  1.00 20.00    -0.010 A 
HETATM    6  C6  UNL     1     -34.684  14.012  -3.800  1.00 20.00     0.040 C 
HETATM    7  C7  UNL     1     -36.935  16.014  -4.202  1.00 20.00     0.046 C 
HETATM    8  C8  UNL     1     -35.918  13.729  -4.670  1.00 20.00     0.005 C 
HETATM    9  C9  UNL     1     -37.152  14.492  -4.168  1.00 20.00     0.005 C 
HETATM   10  N10 UNL     1     -31.793  19.123  -1.918  1.00 20.00    -0.191 NA
HETATM   11  S11 UNL     1     -35.161  17.956  -3.237  1.00 20.00    -0.083 SA
ENDROOT
TORSDOF 0
ENDMDL
MODEL 5
REMARK VINA RESULT:      -4.4      3.711      4.944
REMARK  0 active torsions:
REMARK  status: ('A' for Active; 'I' for Inactive)
ROOT
HETATM    1  C1  UNL     1     -35.481  18.552   2.447  1.00 20.00     0.107 C 
HETATM    2  C2  UNL     1     -35.534  17.244   0.335  1.00 20.00     0.038 A 
HETATM    3  C3  UNL     1     -34.943  18.149   1.191  1.00 20.00     0.086 A 
HETATM    4  C4  UNL     1     -34.762  17.040  -0.849  1.00 20.00    -0.043 A 
HETATM    5  C5  UNL     1     -33.614  17.809  -0.839  1.00 20.00    -0.010 A 
HETATM    6  C6  UNL     1     -35.112  16.145  -1.997  1.00 20.00     0.040 C 
HETATM    7  C7  UNL     1     -32.573  17.813  -1.915  1.00 20.00     0.046 C 
HETATM    8  C8  UNL     1     -33.899  15.878  -2.901  1.00 20.00     0.005 C 
HETATM    9  C9  UNL     1     -33.120  17.168  -3.198  1.00 20.00     0.005 C 
HETATM   10  N10 UNL     1     -35.918  18.880   3.471  1.00 20.00    -0.191 NA
HETATM   11  S11 UNL     1     -33.464  18.750   0.571  1.00 20.00    -0.083 SA
ENDROOT
TORSDOF 0
ENDMDL
MODEL 6
REMARK VINA RESULT:      -4.4      2.913      4.563
REMARK  0 active torsions:
REMARK  status: ('A' for Active; 'I' for Inactive)
ROOT
HETATM    1  C1  UNL     1     -34.217  18.512   0.096  1.00 20.00     0.107 C 
HETATM    2  C2  UNL     1     -35.183  16.739  -1.352  1.00 20.00     0.038 A 
HETATM    3  C3  UNL     1     -34.162  17.591  -0.989  1.00 20.00     0.086 A 
HETATM    4  C4  UNL     1     -34.838  15.933  -2.479  1.00 20.00    -0.043 A 
HETATM    5  C5  UNL     1     -33.562  16.218  -2.928  1.00 20.00    -0.010 A 
HETATM    6  C6  UNL     1     -35.711  14.918  -3.149  1.00 20.00     0.040 C 
HETATM    7  C7  UNL     1     -32.883  15.535  -4.074  1.00 20.00     0.046 C 
HETATM    8  C8  UNL     1     -34.902  13.988  -4.065  1.00 20.00     0.005 C 
HETATM    9  C9  UNL     1     -33.905  14.771  -4.931  1.00 20.00     0.005 C 
HETATM   10  N10 UNL     1     -34.260  19.262   0.981  1.00 20.00    -0.191 NA
HETATM   11  S11 UNL     1     -32.792  17.422  -2.003  1.00 20.00    -0.083 SA
ENDROOT
TORSDOF 0
ENDMDL
MODEL 7
REMARK VINA RESULT:      -4.2      1.926      2.360
REMARK  0 active torsions:
REMARK  status: ('A' for Active; 'I' for Inactive)
ROOT
HETATM    1  C1  UNL     1     -37.392  14.778  -4.170  1.00 20.00     0.107 C 
HETATM    2  C2  UNL     1     -35.101  15.424  -3.459  1.00 20.00     0.038 A 
HETATM    3  C3  UNL     1     -36.424  15.718  -3.714  1.00 20.00     0.086 A 
HETATM    4  C4  UNL     1     -34.371  16.569  -3.015  1.00 20.00    -0.043 A 
HETATM    5  C5  UNL     1     -35.179  17.689  -2.959  1.00 20.00    -0.010 A 
HETATM    6  C6  UNL     1     -32.916  16.618  -2.668  1.00 20.00     0.040 C 
HETATM    7  C7  UNL     1     -34.737  19.046  -2.510  1.00 20.00     0.046 C 
HETATM    8  C8  UNL     1     -32.562  17.887  -1.878  1.00 20.00     0.005 C 
HETATM    9  C9  UNL     1     -33.202  19.137  -2.498  1.00 20.00     0.005 C 
HETATM   10  N10 UNL     1     -38.183  14.013  -4.541  1.00 20.00    -0.191 NA
HETATM   11  S11 UNL     1     -36.786  17.366  -3.422  1.00 20.00    -0.083 SA
ENDROOT
TORSDOF 0
ENDMDL
MODEL 8
REMARK VINA RESULT:      -4.2      2.875      4.854
REMARK  0 active torsions:
REMARK  status: ('A' for Active; 'I' for Inactive)
ROOT
HETATM    1  C1  UNL     1     -35.290  16.997  -0.623  1.00 20.00     0.107 C 
HETATM    2  C2  UNL     1     -34.243  15.820  -2.544  1.00 20.00     0.038 A 
HETATM    3  C3  UNL     1     -35.256  16.567  -1.979  1.00 20.00     0.086 A 
HETATM    4  C4  UNL     1     -34.486  15.539  -3.923  1.00 20.00    -0.043 A 
HETATM    5  C5  UNL     1     -35.685  16.084  -4.343  1.00 20.00    -0.010 A 
HETATM    6  C6  UNL     1     -33.610  14.741  -4.837  1.00 20.00     0.040 C 
HETATM    7  C7  UNL     1     -36.227  15.997  -5.735  1.00 20.00     0.046 C 
HETATM    8  C8  UNL     1     -33.976  14.961  -6.312  1.00 20.00     0.005 C 
HETATM    9  C9  UNL     1     -35.495  14.906  -6.533  1.00 20.00     0.005 C 
HETATM   10  N10 UNL     1     -35.317  17.350   0.484  1.00 20.00    -0.191 NA
HETATM   11  S11 UNL     1     -36.496  16.926  -3.105  1.00 20.00    -0.083 SA
ENDROOT
TORSDOF 0
ENDMDL
MODEL 9
REMARK VINA RESULT:      -4.1      2.066      2.744
REMARK  0 active torsions:
REMARK  status: ('A' for Active; 'I' for Inactive)
ROOT
HETATM    1  C1  UNL     1     -35.851  15.052  -6.772  1.00 20.00     0.107 C 
HETATM    2  C2  UNL     1     -34.329  16.415  -5.359  1.00 20.00     0.038 A 
HETATM    3  C3  UNL     1     -35.396  15.557  -5.521  1.00 20.00     0.086 A 
HETATM    4  C4  UNL     1     -34.110  16.749  -3.988  1.00 20.00    -0.043 A 
HETATM    5  C5  UNL     1     -35.032  16.129  -3.167  1.00 20.00    -0.010 A 
HETATM    6  C6  UNL     1     -33.055  17.666  -3.452  1.00 20.00     0.040 C 
HETATM    7  C7  UNL     1     -35.069  16.245  -1.675  1.00 20.00     0.046 C 
HETATM    8  C8  UNL     1     -32.869  17.496  -1.937  1.00 20.00     0.005 C 
HETATM    9  C9  UNL     1     -34.217  17.436  -1.204  1.00 20.00     0.005 C 
HETATM   10  N10 UNL     1     -36.223  14.639  -7.792  1.00 20.00    -0.191 NA
HETATM   11  S11 UNL     1     -36.132  15.156  -4.028  1.00 20.00    -0.083 SA
ENDROOT
TORSDOF 0
ENDMDL
