MODEL 1
REMARK VINA RESULT:      -4.8      0.000      0.000
REMARK  2 active torsions:
REMARK  status: ('A' for Active; 'I' for Inactive)
REMARK    1  A    between atoms: C1_1  and  C9_9 
REMARK    2  A    between atoms: C8_8  and  C9_9 
ROOT
HETATM    1  C2  UNL     1     -33.274  17.343  -1.892  1.00 20.00     0.005 C 
HETATM    2  C3  UNL     1     -34.674  16.899  -1.441  1.00 20.00     0.005 C 
HETATM    3  C4  UNL     1     -34.754  17.413  -3.756  1.00 20.00     0.009 C 
HETATM    4  C5  UNL     1     -33.251  15.572  -3.667  1.00 20.00     0.010 C 
HETATM    5  C6  UNL     1     -33.302  17.088  -3.408  1.00 20.00    -0.014 C 
HETATM    6  C7  UNL     1     -35.318  16.406  -2.751  1.00 20.00    -0.010 C 
HETATM    7  C8  UNL     1     -34.627  15.084  -3.164  1.00 20.00    -0.004 C 
ENDROOT
BRANCH   7   8
HETATM    8  C9  UNL     1     -35.398  14.323  -4.236  1.00 20.00     0.074 C 
BRANCH   8   9
HETATM    9  C1  UNL     1     -36.887  14.504  -4.110  1.00 20.00     0.231 C 
HETATM   10  O10 UNL     1     -37.729  13.680  -4.453  1.00 20.00    -0.307 OA
ENDBRANCH   8   9
ENDBRANCH   7   8
TORSDOF 2
ENDMDL
MODEL 2
REMARK VINA RESULT:      -4.7     17.205     18.024
REMARK  2 active torsions:
REMARK  status: ('A' for Active; 'I' for Inactive)
REMARK    1  A    between atoms: C1_1  and  C9_9 
REMARK    2  A    between atoms: C8_8  and  C9_9 
ROOT
HETATM    1  C2  UNL     1     -25.405  16.425  12.274  1.00 20.00     0.005 C 
HETATM    2  C3  UNL     1     -25.623  17.942  12.169  1.00 20.00     0.005 C 
HETATM    3  C4  UNL     1     -23.290  17.517  12.232  1.00 20.00     0.009 C 
HETATM    4  C5  UNL     1     -23.973  16.458  10.215  1.00 20.00     0.010 C 
HETATM    5  C6  UNL     1     -23.975  16.243  11.739  1.00 20.00    -0.014 C 
HETATM    6  C7  UNL     1     -24.303  18.438  11.549  1.00 20.00    -0.010 C 
HETATM    7  C8  UNL     1     -24.253  17.971  10.074  1.00 20.00    -0.004 C 
ENDROOT
BRANCH   7   8
HETATM    8  C9  UNL     1     -23.179  18.685   9.263  1.00 20.00     0.074 C 
BRANCH   8   9
HETATM    9  C1  UNL     1     -22.441  17.751   8.340  1.00 20.00     0.231 C 
HETATM   10  O10 UNL     1     -22.377  17.870   7.121  1.00 20.00    -0.307 OA
ENDBRANCH   8   9
ENDBRANCH   7   8
TORSDOF 2
ENDMDL
MODEL 3
REMARK VINA RESULT:      -4.5     10.213     12.343
REMARK  2 active torsions:
REMARK  status: ('A' for Active; 'I' for Inactive)
REMARK    1  A    between atoms: C1_1  and  C9_9 
REMARK    2  A    between atoms: C8_8  and  C9_9 
ROOT
HETATM    1  C2  UNL     1     -41.821   4.714  -1.762  1.00 20.00     0.005 C 
HETATM    2  C3  UNL     1     -43.292   5.026  -1.446  1.00 20.00     0.005 C 
HETATM    3  C4  UNL     1     -41.979   5.567   0.454  1.00 20.00     0.009 C 
HETATM    4  C5  UNL     1     -41.171   7.071  -1.201  1.00 20.00     0.010 C 
HETATM    5  C6  UNL     1     -41.057   5.599  -0.764  1.00 20.00    -0.014 C 
HETATM    6  C7  UNL     1     -43.189   6.082  -0.330  1.00 20.00    -0.010 C 
HETATM    7  C8  UNL     1     -42.660   7.397  -0.953  1.00 20.00    -0.004 C 
ENDROOT
BRANCH   7   8
HETATM    8  C9  UNL     1     -42.843   8.601  -0.038  1.00 20.00     0.074 C 
BRANCH   8   9
HETATM    9  C1  UNL     1     -41.531   9.223   0.363  1.00 20.00     0.231 C 
HETATM   10  O10 UNL     1     -41.311  10.427   0.422  1.00 20.00    -0.307 OA
ENDBRANCH   8   9
ENDBRANCH   7   8
TORSDOF 2
ENDMDL
MODEL 4
REMARK VINA RESULT:      -4.5      0.933      1.448
REMARK  2 active torsions:
REMARK  status: ('A' for Active; 'I' for Inactive)
REMARK    1  A    between atoms: C1_1  and  C9_9 
REMARK    2  A    between atoms: C8_8  and  C9_9 
ROOT
HETATM    1  C2  UNL     1     -33.463  17.753  -3.764  1.00 20.00     0.005 C 
HETATM    2  C3  UNL     1     -33.053  16.730  -2.695  1.00 20.00     0.005 C 
HETATM    3  C4  UNL     1     -35.418  16.728  -2.875  1.00 20.00     0.009 C 
HETATM    4  C5  UNL     1     -34.716  15.982  -5.022  1.00 20.00     0.010 C 
HETATM    5  C6  UNL     1     -34.858  17.269  -4.190  1.00 20.00    -0.014 C 
HETATM    6  C7  UNL     1     -34.250  15.761  -2.667  1.00 20.00    -0.010 C 
HETATM    7  C8  UNL     1     -34.243  14.943  -3.981  1.00 20.00    -0.004 C 
ENDROOT
BRANCH   7   8
HETATM    8  C9  UNL     1     -35.156  13.724  -3.925  1.00 20.00     0.074 C 
BRANCH   8   9
HETATM    9  C1  UNL     1     -36.363  13.869  -4.812  1.00 20.00     0.231 C 
HETATM   10  O10 UNL     1     -37.522  13.670  -4.464  1.00 20.00    -0.307 OA
ENDBRANCH   8   9
ENDBRANCH   7   8
TORSDOF 2
ENDMDL
MODEL 5
REMARK VINA RESULT:      -4.5      0.940      1.735
REMARK  2 active torsions:
REMARK  status: ('A' for Active; 'I' for Inactive)
REMARK    1  A    between atoms: C1_1  and  C9_9 
REMARK    2  A    between atoms: C8_8  and  C9_9 
ROOT
HETATM    1  C2  UNL     1     -34.373  18.275  -2.613  1.00 20.00     0.005 C 
HETATM    2  C3  UNL     1     -34.451  17.980  -4.119  1.00 20.00     0.005 C 
HETATM    3  C4  UNL     1     -32.994  16.401  -3.114  1.00 20.00     0.009 C 
HETATM    4  C5  UNL     1     -35.086  15.929  -2.086  1.00 20.00     0.010 C 
HETATM    5  C6  UNL     1     -33.920  16.931  -2.020  1.00 20.00    -0.014 C 
HETATM    6  C7  UNL     1     -34.070  16.490  -4.199  1.00 20.00    -0.010 C 
HETATM    7  C8  UNL     1     -35.231  15.659  -3.600  1.00 20.00    -0.004 C 
ENDROOT
BRANCH   7   8
HETATM    8  C9  UNL     1     -35.132  14.176  -3.935  1.00 20.00     0.074 C 
BRANCH   8   9
HETATM    9  C1  UNL     1     -36.282  13.699  -4.781  1.00 20.00     0.231 C 
HETATM   10  O10 UNL     1     -37.459  13.707  -4.439  1.00 20.00    -0.307 OA
ENDBRANCH   8   9
ENDBRANCH   7   8
TORSDOF 2
ENDMDL
MODEL 6
REMARK VINA RESULT:      -4.5      1.151      1.926
REMARK  2 active torsions:
REMARK  status: ('A' for Active; 'I' for Inactive)
REMARK    1  A    between atoms: C1_1  and  C9_9 
REMARK    2  A    between atoms: C8_8  and  C9_9 
ROOT
HETATM    1  C2  UNL     1     -33.441  17.762  -2.889  1.00 20.00     0.005 C 
HETATM    2  C3  UNL     1     -33.060  16.294  -3.131  1.00 20.00     0.005 C 
HETATM    3  C4  UNL     1     -34.932  16.360  -1.675  1.00 20.00     0.009 C 
HETATM    4  C5  UNL     1     -35.779  17.317  -3.681  1.00 20.00     0.010 C 
HETATM    5  C6  UNL     1     -34.913  17.672  -2.458  1.00 20.00    -0.014 C 
HETATM    6  C7  UNL     1     -34.375  15.545  -2.845  1.00 20.00    -0.010 C 
HETATM    7  C8  UNL     1     -35.371  15.860  -3.988  1.00 20.00    -0.004 C 
ENDROOT
BRANCH   7   8
HETATM    8  C9  UNL     1     -36.568  14.917  -4.006  1.00 20.00     0.074 C 
BRANCH   8   9
HETATM    9  C1  UNL     1     -36.327  13.699  -4.858  1.00 20.00     0.231 C 
HETATM   10  O10 UNL     1     -35.866  12.637  -4.454  1.00 20.00    -0.307 OA
ENDBRANCH   8   9
ENDBRANCH   7   8
TORSDOF 2
ENDMDL
MODEL 7
REMARK VINA RESULT:      -4.4      3.099      4.671
REMARK  2 active torsions:
REMARK  status: ('A' for Active; 'I' for Inactive)
REMARK    1  A    between atoms: C1_1  and  C9_9 
REMARK    2  A    between atoms: C8_8  and  C9_9 
ROOT
HETATM    1  C2  UNL     1     -34.674  14.895  -3.373  1.00 20.00     0.005 C 
HETATM    2  C3  UNL     1     -33.293  15.276  -3.927  1.00 20.00     0.005 C 
HETATM    3  C4  UNL     1     -34.673  17.205  -3.945  1.00 20.00     0.009 C 
HETATM    4  C5  UNL     1     -34.503  16.690  -1.630  1.00 20.00     0.010 C 
HETATM    5  C6  UNL     1     -35.243  16.244  -2.903  1.00 20.00    -0.014 C 
HETATM    6  C7  UNL     1     -33.225  16.793  -3.670  1.00 20.00    -0.010 C 
HETATM    7  C8  UNL     1     -33.085  17.022  -2.146  1.00 20.00    -0.004 C 
ENDROOT
BRANCH   7   8
HETATM    8  C9  UNL     1     -32.661  18.443  -1.797  1.00 20.00     0.074 C 
BRANCH   8   9
HETATM    9  C1  UNL     1     -31.762  18.495  -0.590  1.00 20.00     0.231 C 
HETATM   10  O10 UNL     1     -30.547  18.334  -0.610  1.00 20.00    -0.307 OA
ENDBRANCH   8   9
ENDBRANCH   7   8
TORSDOF 2
ENDMDL
MODEL 8
REMARK VINA RESULT:      -4.4     10.734     12.120
REMARK  2 active torsions:
REMARK  status: ('A' for Active; 'I' for Inactive)
REMARK    1  A    between atoms: C1_1  and  C9_9 
REMARK    2  A    between atoms: C8_8  and  C9_9 
ROOT
HETATM    1  C2  UNL     1     -42.731   9.110  -0.033  1.00 20.00     0.005 C 
HETATM    2  C3  UNL     1     -41.304   8.773   0.427  1.00 20.00     0.005 C 
HETATM    3  C4  UNL     1     -42.722   6.951   0.971  1.00 20.00     0.009 C 
HETATM    4  C5  UNL     1     -42.816   7.012  -1.405  1.00 20.00     0.010 C 
HETATM    5  C6  UNL     1     -43.387   7.726  -0.166  1.00 20.00    -0.014 C 
HETATM    6  C7  UNL     1     -41.307   7.233   0.461  1.00 20.00    -0.010 C 
HETATM    7  C8  UNL     1     -41.357   6.715  -0.996  1.00 20.00    -0.004 C 
ENDROOT
BRANCH   7   8
HETATM    8  C9  UNL     1     -41.015   5.234  -1.110  1.00 20.00     0.074 C 
BRANCH   8   9
HETATM    9  C1  UNL     1     -42.059   4.460  -1.870  1.00 20.00     0.231 C 
HETATM   10  O10 UNL     1     -41.827   3.546  -2.653  1.00 20.00    -0.307 OA
ENDBRANCH   8   9
ENDBRANCH   7   8
TORSDOF 2
ENDMDL
MODEL 9
REMARK VINA RESULT:      -4.3     11.595     12.463
REMARK  2 active torsions:
REMARK  status: ('A' for Active; 'I' for Inactive)
REMARK    1  A    between atoms: C1_1  and  C9_9 
REMARK    2  A    between atoms: C8_8  and  C9_9 
ROOT
HETATM    1  C2  UNL     1     -34.422   5.192   6.029  1.00 20.00     0.005 C 
HETATM    2  C3  UNL     1     -34.171   4.063   5.017  1.00 20.00     0.005 C 
HETATM    3  C4  UNL     1     -35.509   5.725   3.979  1.00 20.00     0.009 C 
HETATM    4  C5  UNL     1     -33.477   6.876   4.429  1.00 20.00     0.010 C 
HETATM    5  C6  UNL     1     -34.759   6.393   5.130  1.00 20.00    -0.014 C 
HETATM    6  C7  UNL     1     -34.357   4.768   3.660  1.00 20.00    -0.010 C 
HETATM    7  C8  UNL     1     -33.162   5.728   3.444  1.00 20.00    -0.004 C 
ENDROOT
BRANCH   7   8
HETATM    8  C9  UNL     1     -33.047   6.216   2.005  1.00 20.00     0.074 C 
BRANCH   8   9
HETATM    9  C1  UNL     1     -32.457   7.598   1.913  1.00 20.00     0.231 C 
HETATM   10  O10 UNL     1     -32.791   8.453   1.100  1.00 20.00    -0.307 OA
ENDBRANCH   8   9
ENDBRANCH   7   8
TORSDOF 2
ENDMDL
