MODEL 1
REMARK VINA RESULT:      -4.9      0.000      0.000
REMARK  1 active torsions:
REMARK  status: ('A' for Active; 'I' for Inactive)
REMARK    1  A    between atoms: C3_3  and  C5_5 
ROOT
HETATM    1  C1  UNL     1     -32.930   7.515   3.780  1.00 20.00     0.030 A 
HETATM    2  C2  UNL     1     -33.695   6.645   4.582  1.00 20.00    -0.044 A 
HETATM    3  C3  UNL     1     -32.773   6.991   2.506  1.00 20.00     0.043 A 
HETATM    4  C4  UNL     1     -34.083   5.521   3.905  1.00 20.00    -0.010 A 
HETATM    5  C6  UNL     1     -34.196   6.632   5.978  1.00 20.00     0.040 C 
HETATM    6  C7  UNL     1     -34.891   4.579   4.713  1.00 20.00     0.047 C 
HETATM    7  C8  UNL     1     -34.659   5.150   6.148  1.00 20.00     0.010 C 
HETATM    8  S10 UNL     1     -33.560   5.461   2.318  1.00 20.00    -0.091 SA
ENDROOT
BRANCH   3   9
HETATM    9  C5  UNL     1     -32.074   7.545   1.391  1.00 20.00     0.277 C 
HETATM   10  O9  UNL     1     -32.539   8.428   0.642  1.00 20.00    -0.301 OA
ENDBRANCH   3   9
TORSDOF 1
ENDMDL
MODEL 2
REMARK VINA RESULT:      -4.7     15.915     16.130
REMARK  1 active torsions:
REMARK  status: ('A' for Active; 'I' for Inactive)
REMARK    1  A    between atoms: C3_3  and  C5_5 
ROOT
HETATM    1  C1  UNL     1     -23.624  16.770  10.296  1.00 20.00     0.030 A 
HETATM    2  C2  UNL     1     -24.665  17.289  11.092  1.00 20.00    -0.044 A 
HETATM    3  C3  UNL     1     -23.340  17.630   9.246  1.00 20.00     0.043 A 
HETATM    4  C4  UNL     1     -25.122  18.493  10.630  1.00 20.00    -0.010 A 
HETATM    5  C6  UNL     1     -25.398  16.868  12.311  1.00 20.00     0.040 C 
HETATM    6  C7  UNL     1     -26.218  19.073  11.440  1.00 20.00     0.047 C 
HETATM    7  C8  UNL     1     -26.616  17.845  12.317  1.00 20.00     0.010 C 
HETATM    8  S10 UNL     1     -24.342  19.041   9.256  1.00 20.00    -0.091 SA
ENDROOT
BRANCH   3   9
HETATM    9  C5  UNL     1     -22.365  17.489   8.213  1.00 20.00     0.277 C 
HETATM   10  O9  UNL     1     -22.465  18.002   7.080  1.00 20.00    -0.301 OA
ENDBRANCH   3   9
TORSDOF 1
ENDMDL
MODEL 3
REMARK VINA RESULT:      -4.6     11.399     11.838
REMARK  1 active torsions:
REMARK  status: ('A' for Active; 'I' for Inactive)
REMARK    1  A    between atoms: C3_3  and  C5_5 
ROOT
HETATM    1  C1  UNL     1     -35.799  15.430  -2.735  1.00 20.00     0.030 A 
HETATM    2  C2  UNL     1     -34.864  16.303  -2.142  1.00 20.00    -0.044 A 
HETATM    3  C3  UNL     1     -35.242  14.797  -3.835  1.00 20.00     0.043 A 
HETATM    4  C4  UNL     1     -33.663  16.300  -2.796  1.00 20.00    -0.010 A 
HETATM    5  C6  UNL     1     -34.843  17.229  -0.983  1.00 20.00     0.040 C 
HETATM    6  C7  UNL     1     -32.651  17.205  -2.203  1.00 20.00     0.047 C 
HETATM    7  C8  UNL     1     -33.543  18.054  -1.244  1.00 20.00     0.010 C 
HETATM    8  S10 UNL     1     -33.603  15.276  -4.116  1.00 20.00    -0.091 SA
ENDROOT
BRANCH   3   9
HETATM    9  C5  UNL     1     -35.838  13.843  -4.714  1.00 20.00     0.277 C 
HETATM   10  O9  UNL     1     -35.832  12.610  -4.517  1.00 20.00    -0.301 OA
ENDBRANCH   3   9
TORSDOF 1
ENDMDL
MODEL 4
REMARK VINA RESULT:      -4.4     11.452     12.737
REMARK  1 active torsions:
REMARK  status: ('A' for Active; 'I' for Inactive)
REMARK    1  A    between atoms: C3_3  and  C5_5 
ROOT
HETATM    1  C1  UNL     1     -34.649  15.151  -3.056  1.00 20.00     0.030 A 
HETATM    2  C2  UNL     1     -33.959  16.379  -3.126  1.00 20.00    -0.044 A 
HETATM    3  C3  UNL     1     -35.406  14.953  -4.200  1.00 20.00     0.043 A 
HETATM    4  C4  UNL     1     -34.210  17.050  -4.291  1.00 20.00    -0.010 A 
HETATM    5  C6  UNL     1     -33.023  17.135  -2.259  1.00 20.00     0.040 C 
HETATM    6  C7  UNL     1     -33.502  18.346  -4.404  1.00 20.00     0.047 C 
HETATM    7  C8  UNL     1     -33.016  18.544  -2.934  1.00 20.00     0.010 C 
HETATM    8  S10 UNL     1     -35.257  16.259  -5.327  1.00 20.00    -0.091 SA
ENDROOT
BRANCH   3   9
HETATM    9  C5  UNL     1     -36.248  13.851  -4.536  1.00 20.00     0.277 C 
HETATM   10  O9  UNL     1     -35.877  12.659  -4.531  1.00 20.00    -0.301 OA
ENDBRANCH   3   9
TORSDOF 1
ENDMDL
MODEL 5
REMARK VINA RESULT:      -4.4     11.455     12.306
REMARK  1 active torsions:
REMARK  status: ('A' for Active; 'I' for Inactive)
REMARK    1  A    between atoms: C3_3  and  C5_5 
ROOT
HETATM    1  C1  UNL     1     -34.380  14.995  -3.445  1.00 20.00     0.030 A 
HETATM    2  C2  UNL     1     -34.173  16.278  -2.898  1.00 20.00    -0.044 A 
HETATM    3  C3  UNL     1     -35.679  14.870  -3.912  1.00 20.00     0.043 A 
HETATM    4  C4  UNL     1     -35.293  17.060  -2.971  1.00 20.00    -0.010 A 
HETATM    5  C6  UNL     1     -33.047  17.006  -2.264  1.00 20.00     0.040 C 
HETATM    6  C7  UNL     1     -35.116  18.419  -2.407  1.00 20.00     0.047 C 
HETATM    7  C8  UNL     1     -33.766  18.246  -1.643  1.00 20.00     0.010 C 
HETATM    8  S10 UNL     1     -36.609  16.312  -3.679  1.00 20.00    -0.091 SA
ENDROOT
BRANCH   3   9
HETATM    9  C5  UNL     1     -36.302  13.746  -4.534  1.00 20.00     0.277 C 
HETATM   10  O9  UNL     1     -35.833  12.589  -4.520  1.00 20.00    -0.301 OA
ENDBRANCH   3   9
TORSDOF 1
ENDMDL
MODEL 6
REMARK VINA RESULT:      -4.2     11.524     12.060
REMARK  1 active torsions:
REMARK  status: ('A' for Active; 'I' for Inactive)
REMARK    1  A    between atoms: C3_3  and  C5_5 
ROOT
HETATM    1  C1  UNL     1     -32.918  16.256  -3.255  1.00 20.00     0.030 A 
HETATM    2  C2  UNL     1     -33.016  17.176  -2.191  1.00 20.00    -0.044 A 
HETATM    3  C3  UNL     1     -34.093  15.532  -3.380  1.00 20.00     0.043 A 
HETATM    4  C4  UNL     1     -34.230  17.119  -1.565  1.00 20.00    -0.010 A 
HETATM    5  C6  UNL     1     -32.139  18.200  -1.572  1.00 20.00     0.040 C 
HETATM    6  C7  UNL     1     -34.374  18.072  -0.440  1.00 20.00     0.047 C 
HETATM    7  C8  UNL     1     -32.891  18.516  -0.240  1.00 20.00     0.010 C 
HETATM    8  S10 UNL     1     -35.282  15.989  -2.208  1.00 20.00    -0.091 SA
ENDROOT
BRANCH   3   9
HETATM    9  C5  UNL     1     -34.416  14.507  -4.320  1.00 20.00     0.277 C 
HETATM   10  O9  UNL     1     -34.676  13.327  -4.008  1.00 20.00    -0.301 OA
ENDBRANCH   3   9
TORSDOF 1
ENDMDL
MODEL 7
REMARK VINA RESULT:      -4.1     11.539     12.143
REMARK  1 active torsions:
REMARK  status: ('A' for Active; 'I' for Inactive)
REMARK    1  A    between atoms: C3_3  and  C5_5 
ROOT
HETATM    1  C1  UNL     1     -35.280  16.712  -1.259  1.00 20.00     0.030 A 
HETATM    2  C2  UNL     1     -34.836  15.966  -2.369  1.00 20.00    -0.044 A 
HETATM    3  C3  UNL     1     -34.311  17.622  -0.866  1.00 20.00     0.043 A 
HETATM    4  C4  UNL     1     -33.580  16.328  -2.770  1.00 20.00    -0.010 A 
HETATM    5  C6  UNL     1     -35.383  14.885  -3.225  1.00 20.00     0.040 C 
HETATM    6  C7  UNL     1     -33.076  15.567  -3.936  1.00 20.00     0.047 C 
HETATM    7  C8  UNL     1     -34.115  14.403  -3.998  1.00 20.00     0.010 C 
HETATM    8  S10 UNL     1     -32.892  17.547  -1.856  1.00 20.00    -0.091 SA
ENDROOT
BRANCH   3   9
HETATM    9  C5  UNL     1     -34.350  18.564   0.206  1.00 20.00     0.277 C 
HETATM   10  O9  UNL     1     -34.032  18.300   1.384  1.00 20.00    -0.301 OA
ENDBRANCH   3   9
TORSDOF 1
ENDMDL
MODEL 8
REMARK VINA RESULT:      -4.0     11.425     11.934
REMARK  1 active torsions:
REMARK  status: ('A' for Active; 'I' for Inactive)
REMARK    1  A    between atoms: C3_3  and  C5_5 
ROOT
HETATM    1  C1  UNL     1     -35.149  15.690  -2.381  1.00 20.00     0.030 A 
HETATM    2  C2  UNL     1     -34.876  16.669  -1.404  1.00 20.00    -0.044 A 
HETATM    3  C3  UNL     1     -34.157  15.679  -3.350  1.00 20.00     0.043 A 
HETATM    4  C4  UNL     1     -33.716  17.348  -1.660  1.00 20.00    -0.010 A 
HETATM    5  C6  UNL     1     -35.522  17.156  -0.161  1.00 20.00     0.040 C 
HETATM    6  C7  UNL     1     -33.392  18.387  -0.655  1.00 20.00     0.047 C 
HETATM    7  C8  UNL     1     -34.747  18.483   0.114  1.00 20.00     0.010 C 
HETATM    8  S10 UNL     1     -32.923  16.854  -3.046  1.00 20.00    -0.091 SA
ENDROOT
BRANCH   3   9
HETATM    9  C5  UNL     1     -34.046  14.850  -4.506  1.00 20.00     0.277 C 
HETATM   10  O9  UNL     1     -33.342  13.821  -4.565  1.00 20.00    -0.301 OA
ENDBRANCH   3   9
TORSDOF 1
ENDMDL
MODEL 9
REMARK VINA RESULT:      -4.0     11.623     12.155
REMARK  1 active torsions:
REMARK  status: ('A' for Active; 'I' for Inactive)
REMARK    1  A    between atoms: C3_3  and  C5_5 
ROOT
HETATM    1  C1  UNL     1     -36.588  15.948  -3.224  1.00 20.00     0.030 A 
HETATM    2  C2  UNL     1     -35.200  15.711  -3.299  1.00 20.00    -0.044 A 
HETATM    3  C3  UNL     1     -37.276  15.065  -4.041  1.00 20.00     0.043 A 
HETATM    4  C4  UNL     1     -34.894  14.683  -4.147  1.00 20.00    -0.010 A 
HETATM    5  C6  UNL     1     -33.977  16.288  -2.689  1.00 20.00     0.040 C 
HETATM    6  C7  UNL     1     -33.444  14.400  -4.254  1.00 20.00     0.047 C 
HETATM    7  C8  UNL     1     -32.847  15.673  -3.574  1.00 20.00     0.010 C 
HETATM    8  S10 UNL     1     -36.222  13.973  -4.874  1.00 20.00    -0.091 SA
ENDROOT
BRANCH   3   9
HETATM    9  C5  UNL     1     -38.683  14.961  -4.260  1.00 20.00     0.277 C 
HETATM   10  O9  UNL     1     -39.274  13.892  -4.517  1.00 20.00    -0.301 OA
ENDBRANCH   3   9
TORSDOF 1
ENDMDL
