MODEL 1
REMARK VINA RESULT:      -4.4      0.000      0.000
REMARK  2 active torsions:
REMARK  status: ('A' for Active; 'I' for Inactive)
REMARK    1  A    between atoms: C1_1  and  C3_3 
REMARK    2  A    between atoms: C3_3  and  C5_5 
ROOT
HETATM    1  C3  UNL     1     -33.254   5.970   2.991  1.00 20.00     0.168 C 
HETATM    2  O6  UNL     1     -32.915   4.865   2.577  1.00 20.00    -0.292 OA
ENDROOT
BRANCH   1   3
HETATM    3  C1  UNL     1     -32.653   7.221   2.445  1.00 20.00     0.063 C 
HETATM    4  C2  UNL     1     -33.187   7.809   1.372  1.00 20.00     0.088 C 
HETATM    5 CL7  UNL     1     -32.544   9.247   0.694  1.00 20.00    -0.097 Cl
ENDBRANCH   1   3
BRANCH   1   6
HETATM    6  C5  UNL     1     -34.269   6.156   4.107  1.00 20.00     0.152 C 
HETATM    7  C4  UNL     1     -34.837   4.817   4.543  1.00 20.00     0.035 C 
HETATM    8 CL8  UNL     1     -33.465   6.959   5.481  1.00 20.00    -0.117 Cl
ENDBRANCH   1   6
TORSDOF 2
ENDMDL
MODEL 2
REMARK VINA RESULT:      -4.2      1.668      1.720
REMARK  2 active torsions:
REMARK  status: ('A' for Active; 'I' for Inactive)
REMARK    1  A    between atoms: C1_1  and  C3_3 
REMARK    2  A    between atoms: C3_3  and  C5_5 
ROOT
HETATM    1  C3  UNL     1     -33.463   6.521   4.107  1.00 20.00     0.168 C 
HETATM    2  O6  UNL     1     -33.038   7.268   4.985  1.00 20.00    -0.292 OA
ENDROOT
BRANCH   1   3
HETATM    3  C1  UNL     1     -32.916   6.564   2.720  1.00 20.00     0.063 C 
HETATM    4  C2  UNL     1     -32.634   7.736   2.146  1.00 20.00     0.088 C 
HETATM    5 CL7  UNL     1     -32.006   7.855   0.555  1.00 20.00    -0.097 Cl
ENDBRANCH   1   3
BRANCH   1   6
HETATM    6  C5  UNL     1     -34.594   5.534   4.343  1.00 20.00     0.152 C 
HETATM    7  C4  UNL     1     -34.254   4.179   3.746  1.00 20.00     0.035 C 
HETATM    8 CL8  UNL     1     -34.862   5.381   6.098  1.00 20.00    -0.117 Cl
ENDBRANCH   1   6
TORSDOF 2
ENDMDL
MODEL 3
REMARK VINA RESULT:      -3.8     10.775     11.860
REMARK  2 active torsions:
REMARK  status: ('A' for Active; 'I' for Inactive)
REMARK    1  A    between atoms: C1_1  and  C3_3 
REMARK    2  A    between atoms: C3_3  and  C5_5 
ROOT
HETATM    1  C3  UNL     1     -35.849  13.949  -4.771  1.00 20.00     0.168 C 
HETATM    2  O6  UNL     1     -35.913  12.739  -4.575  1.00 20.00    -0.292 OA
ENDROOT
BRANCH   1   3
HETATM    3  C1  UNL     1     -35.920  14.923  -3.643  1.00 20.00     0.063 C 
HETATM    4  C2  UNL     1     -34.810  15.283  -2.997  1.00 20.00     0.088 C 
HETATM    5 CL7  UNL     1     -34.822  16.396  -1.692  1.00 20.00    -0.097 Cl
ENDBRANCH   1   3
BRANCH   1   6
HETATM    6  C5  UNL     1     -35.737  14.554  -6.161  1.00 20.00     0.152 C 
HETATM    7  C4  UNL     1     -36.568  15.821  -6.262  1.00 20.00     0.035 C 
HETATM    8 CL8  UNL     1     -34.023  14.918  -6.488  1.00 20.00    -0.117 Cl
ENDBRANCH   1   6
TORSDOF 2
ENDMDL
MODEL 4
REMARK VINA RESULT:      -3.7     10.642     11.291
REMARK  2 active torsions:
REMARK  status: ('A' for Active; 'I' for Inactive)
REMARK    1  A    between atoms: C1_1  and  C3_3 
REMARK    2  A    between atoms: C3_3  and  C5_5 
ROOT
HETATM    1  C3  UNL     1     -35.111  13.892  -4.014  1.00 20.00     0.168 C 
HETATM    2  O6  UNL     1     -34.468  12.854  -3.883  1.00 20.00    -0.292 OA
ENDROOT
BRANCH   1   3
HETATM    3  C1  UNL     1     -34.761  15.124  -3.249  1.00 20.00     0.063 C 
HETATM    4  C2  UNL     1     -33.547  15.666  -3.371  1.00 20.00     0.088 C 
HETATM    5 CL7  UNL     1     -33.080  17.080  -2.520  1.00 20.00    -0.097 Cl
ENDBRANCH   1   3
BRANCH   1   6
HETATM    6  C5  UNL     1     -36.327  13.999  -4.920  1.00 20.00     0.152 C 
HETATM    7  C4  UNL     1     -37.399  14.861  -4.278  1.00 20.00     0.035 C 
HETATM    8 CL8  UNL     1     -35.819  14.710  -6.474  1.00 20.00    -0.117 Cl
ENDBRANCH   1   6
TORSDOF 2
ENDMDL
MODEL 5
REMARK VINA RESULT:      -3.7      1.201      1.411
REMARK  2 active torsions:
REMARK  status: ('A' for Active; 'I' for Inactive)
REMARK    1  A    between atoms: C1_1  and  C3_3 
REMARK    2  A    between atoms: C3_3  and  C5_5 
ROOT
HETATM    1  C3  UNL     1     -33.189   5.846   3.102  1.00 20.00     0.168 C 
HETATM    2  O6  UNL     1     -32.975   4.866   2.393  1.00 20.00    -0.292 OA
ENDROOT
BRANCH   1   3
HETATM    3  C1  UNL     1     -32.794   7.218   2.669  1.00 20.00     0.063 C 
HETATM    4  C2  UNL     1     -33.021   7.617   1.416  1.00 20.00     0.088 C 
HETATM    5 CL7  UNL     1     -32.591   9.179   0.853  1.00 20.00    -0.097 Cl
ENDBRANCH   1   3
BRANCH   1   6
HETATM    6  C5  UNL     1     -33.825   5.744   4.478  1.00 20.00     0.152 C 
HETATM    7  C4  UNL     1     -33.655   7.044   5.244  1.00 20.00     0.035 C 
HETATM    8 CL8  UNL     1     -35.557   5.372   4.280  1.00 20.00    -0.117 Cl
ENDBRANCH   1   6
TORSDOF 2
ENDMDL
MODEL 6
REMARK VINA RESULT:      -3.6     10.524     11.440
REMARK  2 active torsions:
REMARK  status: ('A' for Active; 'I' for Inactive)
REMARK    1  A    between atoms: C1_1  and  C3_3 
REMARK    2  A    between atoms: C3_3  and  C5_5 
ROOT
HETATM    1  C3  UNL     1     -35.743  13.776  -4.340  1.00 20.00     0.168 C 
HETATM    2  O6  UNL     1     -35.900  12.571  -4.518  1.00 20.00    -0.292 OA
ENDROOT
BRANCH   1   3
HETATM    3  C1  UNL     1     -36.781  14.764  -4.753  1.00 20.00     0.063 C 
HETATM    4  C2  UNL     1     -38.023  14.671  -4.274  1.00 20.00     0.088 C 
HETATM    5 CL7  UNL     1     -39.264  15.772  -4.709  1.00 20.00    -0.097 Cl
ENDBRANCH   1   3
BRANCH   1   6
HETATM    6  C5  UNL     1     -34.479  14.361  -3.731  1.00 20.00     0.152 C 
HETATM    7  C4  UNL     1     -33.589  14.953  -4.810  1.00 20.00     0.035 C 
HETATM    8 CL8  UNL     1     -34.941  15.620  -2.558  1.00 20.00    -0.117 Cl
ENDBRANCH   1   6
TORSDOF 2
ENDMDL
MODEL 7
REMARK VINA RESULT:      -3.5      1.599      3.844
REMARK  2 active torsions:
REMARK  status: ('A' for Active; 'I' for Inactive)
REMARK    1  A    between atoms: C1_1  and  C3_3 
REMARK    2  A    between atoms: C3_3  and  C5_5 
ROOT
HETATM    1  C3  UNL     1     -33.228   5.943   2.738  1.00 20.00     0.168 C 
HETATM    2  O6  UNL     1     -33.526   4.987   2.027  1.00 20.00    -0.292 OA
ENDROOT
BRANCH   1   3
HETATM    3  C1  UNL     1     -33.904   6.178   4.047  1.00 20.00     0.063 C 
HETATM    4  C2  UNL     1     -34.428   5.154   4.724  1.00 20.00     0.088 C 
HETATM    5 CL7  UNL     1     -35.220   5.355   6.232  1.00 20.00    -0.097 Cl
ENDBRANCH   1   3
BRANCH   1   6
HETATM    6  C5  UNL     1     -32.191   6.978   2.334  1.00 20.00     0.152 C 
HETATM    7  C4  UNL     1     -32.785   7.979   1.359  1.00 20.00     0.035 C 
HETATM    8 CL8  UNL     1     -31.620   7.816   3.800  1.00 20.00    -0.117 Cl
ENDBRANCH   1   6
TORSDOF 2
ENDMDL
MODEL 8
REMARK VINA RESULT:      -3.5     10.940     11.553
REMARK  2 active torsions:
REMARK  status: ('A' for Active; 'I' for Inactive)
REMARK    1  A    between atoms: C1_1  and  C3_3 
REMARK    2  A    between atoms: C3_3  and  C5_5 
ROOT
HETATM    1  C3  UNL     1     -33.986  14.777  -4.262  1.00 20.00     0.168 C 
HETATM    2  O6  UNL     1     -33.138  13.909  -4.449  1.00 20.00    -0.292 OA
ENDROOT
BRANCH   1   3
HETATM    3  C1  UNL     1     -33.913  15.692  -3.086  1.00 20.00     0.063 C 
HETATM    4  C2  UNL     1     -34.984  15.877  -2.312  1.00 20.00     0.088 C 
HETATM    5 CL7  UNL     1     -34.968  16.916  -0.948  1.00 20.00    -0.097 Cl
ENDBRANCH   1   3
BRANCH   1   6
HETATM    6  C5  UNL     1     -35.187  14.966  -5.173  1.00 20.00     0.152 C 
HETATM    7  C4  UNL     1     -34.759  14.971  -6.630  1.00 20.00     0.035 C 
HETATM    8 CL8  UNL     1     -36.340  13.639  -4.879  1.00 20.00    -0.117 Cl
ENDBRANCH   1   6
TORSDOF 2
ENDMDL
MODEL 9
REMARK VINA RESULT:      -3.5     10.816     11.571
REMARK  2 active torsions:
REMARK  status: ('A' for Active; 'I' for Inactive)
REMARK    1  A    between atoms: C1_1  and  C3_3 
REMARK    2  A    between atoms: C3_3  and  C5_5 
ROOT
HETATM    1  C3  UNL     1     -35.854  14.085  -4.344  1.00 20.00     0.168 C 
HETATM    2  O6  UNL     1     -36.043  12.888  -4.544  1.00 20.00    -0.292 OA
ENDROOT
BRANCH   1   3
HETATM    3  C1  UNL     1     -34.560  14.585  -3.796  1.00 20.00     0.063 C 
HETATM    4  C2  UNL     1     -34.482  15.811  -3.275  1.00 20.00     0.088 C 
HETATM    5 CL7  UNL     1     -33.026  16.448  -2.630  1.00 20.00    -0.097 Cl
ENDBRANCH   1   3
BRANCH   1   6
HETATM    6  C5  UNL     1     -36.918  15.140  -4.595  1.00 20.00     0.152 C 
HETATM    7  C4  UNL     1     -36.853  15.638  -6.028  1.00 20.00     0.035 C 
HETATM    8 CL8  UNL     1     -38.519  14.426  -4.267  1.00 20.00    -0.117 Cl
ENDBRANCH   1   6
TORSDOF 2
ENDMDL
