MODEL 1
REMARK VINA RESULT:      -4.5      0.000      0.000
REMARK  2 active torsions:
REMARK  status: ('A' for Active; 'I' for Inactive)
REMARK    1  A    between atoms: C4_4  and  C6_6 
REMARK    2  A    between atoms: C6_6  and  N7_7 
ROOT
HETATM    1  C1  UNL     1     -32.678   7.121   2.307  1.00 20.00     0.332 C 
HETATM    2  N7  UNL     1     -32.880   6.350   3.162  1.00 20.00    -0.242 NA
HETATM    3  O8  UNL     1     -32.464   7.887   1.441  1.00 20.00    -0.260 OA
ENDROOT
BRANCH   2   4
HETATM    4  C6  UNL     1     -33.942   6.768   4.101  1.00 20.00     0.112 C 
HETATM    5  C5  UNL     1     -33.264   7.224   5.399  1.00 20.00     0.035 C 
BRANCH   4   6
HETATM    6  C4  UNL     1     -34.906   5.652   4.314  1.00 20.00     0.010 A 
HETATM    7  C2  UNL     1     -34.427   4.228   4.318  1.00 20.00     0.007 A 
HETATM    8  C3  UNL     1     -34.885   4.870   5.597  1.00 20.00     0.007 A 
ENDBRANCH   4   6
ENDBRANCH   2   4
TORSDOF 2
ENDMDL
MODEL 2
REMARK VINA RESULT:      -4.4      1.126      1.751
REMARK  2 active torsions:
REMARK  status: ('A' for Active; 'I' for Inactive)
REMARK    1  A    between atoms: C4_4  and  C6_6 
REMARK    2  A    between atoms: C6_6  and  N7_7 
ROOT
HETATM    1  C1  UNL     1     -32.538   7.567   2.034  1.00 20.00     0.332 C 
HETATM    2  N7  UNL     1     -32.188   7.159   3.072  1.00 20.00    -0.242 NA
HETATM    3  O8  UNL     1     -32.880   7.989   0.991  1.00 20.00    -0.260 OA
ENDROOT
BRANCH   2   4
HETATM    4  C6  UNL     1     -32.962   5.992   3.543  1.00 20.00     0.112 C 
HETATM    5  C5  UNL     1     -33.336   5.153   2.315  1.00 20.00     0.035 C 
BRANCH   4   6
HETATM    6  C4  UNL     1     -34.151   6.445   4.318  1.00 20.00     0.010 A 
HETATM    7  C2  UNL     1     -34.937   5.464   5.142  1.00 20.00     0.007 A 
HETATM    8  C3  UNL     1     -34.096   6.510   5.818  1.00 20.00     0.007 A 
ENDBRANCH   4   6
ENDBRANCH   2   4
TORSDOF 2
ENDMDL
MODEL 3
REMARK VINA RESULT:      -4.3     11.694     12.321
REMARK  2 active torsions:
REMARK  status: ('A' for Active; 'I' for Inactive)
REMARK    1  A    between atoms: C4_4  and  C6_6 
REMARK    2  A    between atoms: C6_6  and  N7_7 
ROOT
HETATM    1  C1  UNL     1     -36.631  13.750  -4.580  1.00 20.00     0.332 C 
HETATM    2  N7  UNL     1     -35.477  13.654  -4.739  1.00 20.00    -0.242 NA
HETATM    3  O8  UNL     1     -37.793  13.830  -4.420  1.00 20.00    -0.260 OA
ENDROOT
BRANCH   2   4
HETATM    4  C6  UNL     1     -34.772  14.952  -4.775  1.00 20.00     0.112 C 
HETATM    5  C5  UNL     1     -33.966  15.011  -6.078  1.00 20.00     0.035 C 
BRANCH   4   6
HETATM    6  C4  UNL     1     -33.922  15.107  -3.562  1.00 20.00     0.010 A 
HETATM    7  C2  UNL     1     -33.241  16.416  -3.276  1.00 20.00     0.007 A 
HETATM    8  C3  UNL     1     -34.387  15.962  -2.416  1.00 20.00     0.007 A 
ENDBRANCH   4   6
ENDBRANCH   2   4
TORSDOF 2
ENDMDL
MODEL 4
REMARK VINA RESULT:      -4.2     11.627     12.278
REMARK  2 active torsions:
REMARK  status: ('A' for Active; 'I' for Inactive)
REMARK    1  A    between atoms: C4_4  and  C6_6 
REMARK    2  A    between atoms: C6_6  and  N7_7 
ROOT
HETATM    1  C1  UNL     1     -36.050  13.683  -4.599  1.00 20.00     0.332 C 
HETATM    2  N7  UNL     1     -36.210  14.835  -4.710  1.00 20.00    -0.242 NA
HETATM    3  O8  UNL     1     -35.905  12.521  -4.489  1.00 20.00    -0.260 OA
ENDROOT
BRANCH   2   4
HETATM    4  C6  UNL     1     -34.957  15.616  -4.665  1.00 20.00     0.112 C 
HETATM    5  C5  UNL     1     -34.121  15.228  -5.891  1.00 20.00     0.035 C 
BRANCH   4   6
HETATM    6  C4  UNL     1     -34.246  15.370  -3.379  1.00 20.00     0.010 A 
HETATM    7  C2  UNL     1     -33.297  16.398  -2.830  1.00 20.00     0.007 A 
HETATM    8  C3  UNL     1     -34.615  16.151  -2.150  1.00 20.00     0.007 A 
ENDBRANCH   4   6
ENDBRANCH   2   4
TORSDOF 2
ENDMDL
MODEL 5
REMARK VINA RESULT:      -4.0      2.489      3.864
REMARK  2 active torsions:
REMARK  status: ('A' for Active; 'I' for Inactive)
REMARK    1  A    between atoms: C4_4  and  C6_6 
REMARK    2  A    between atoms: C6_6  and  N7_7 
ROOT
HETATM    1  C1  UNL     1     -34.518   5.885   5.478  1.00 20.00     0.332 C 
HETATM    2  N7  UNL     1     -34.005   6.521   4.642  1.00 20.00    -0.242 NA
HETATM    3  O8  UNL     1     -35.031   5.256   6.329  1.00 20.00    -0.260 OA
ENDROOT
BRANCH   2   4
HETATM    4  C6  UNL     1     -33.975   5.856   3.324  1.00 20.00     0.112 C 
HETATM    5  C5  UNL     1     -34.068   4.343   3.562  1.00 20.00     0.035 C 
BRANCH   4   6
HETATM    6  C4  UNL     1     -32.747   6.249   2.579  1.00 20.00     0.010 A 
HETATM    7  C2  UNL     1     -32.696   7.557   1.840  1.00 20.00     0.007 A 
HETATM    8  C3  UNL     1     -31.880   7.367   3.088  1.00 20.00     0.007 A 
ENDBRANCH   4   6
ENDBRANCH   2   4
TORSDOF 2
ENDMDL
MODEL 6
REMARK VINA RESULT:      -3.8     15.755     16.450
REMARK  2 active torsions:
REMARK  status: ('A' for Active; 'I' for Inactive)
REMARK    1  A    between atoms: C4_4  and  C6_6 
REMARK    2  A    between atoms: C6_6  and  N7_7 
ROOT
HETATM    1  C1  UNL     1     -22.527  17.407   9.262  1.00 20.00     0.332 C 
HETATM    2  N7  UNL     1     -22.964  18.336   9.820  1.00 20.00    -0.242 NA
HETATM    3  O8  UNL     1     -22.083  16.482   8.688  1.00 20.00    -0.260 OA
ENDROOT
BRANCH   2   4
HETATM    4  C6  UNL     1     -23.561  18.013  11.133  1.00 20.00     0.112 C 
HETATM    5  C5  UNL     1     -22.420  17.626  12.082  1.00 20.00     0.035 C 
BRANCH   4   6
HETATM    6  C4  UNL     1     -24.578  16.935  10.982  1.00 20.00     0.010 A 
HETATM    7  C2  UNL     1     -24.495  15.693  11.825  1.00 20.00     0.007 A 
HETATM    8  C3  UNL     1     -25.590  16.693  12.067  1.00 20.00     0.007 A 
ENDBRANCH   4   6
ENDBRANCH   2   4
TORSDOF 2
ENDMDL
MODEL 7
REMARK VINA RESULT:      -3.8     11.692     12.182
REMARK  2 active torsions:
REMARK  status: ('A' for Active; 'I' for Inactive)
REMARK    1  A    between atoms: C4_4  and  C6_6 
REMARK    2  A    between atoms: C6_6  and  N7_7 
ROOT
HETATM    1  C1  UNL     1     -37.380  14.636  -4.232  1.00 20.00     0.332 C 
HETATM    2  N7  UNL     1     -36.494  15.381  -4.070  1.00 20.00    -0.242 NA
HETATM    3  O8  UNL     1     -38.278  13.897  -4.404  1.00 20.00    -0.260 OA
ENDROOT
BRANCH   2   4
HETATM    4  C6  UNL     1     -35.404  14.836  -3.235  1.00 20.00     0.112 C 
HETATM    5  C5  UNL     1     -34.900  15.966  -2.329  1.00 20.00     0.035 C 
BRANCH   4   6
HETATM    6  C4  UNL     1     -34.333  14.266  -4.098  1.00 20.00     0.010 A 
HETATM    7  C2  UNL     1     -33.918  14.974  -5.357  1.00 20.00     0.007 A 
HETATM    8  C3  UNL     1     -32.989  14.934  -4.176  1.00 20.00     0.007 A 
ENDBRANCH   4   6
ENDBRANCH   2   4
TORSDOF 2
ENDMDL
MODEL 8
REMARK VINA RESULT:      -3.8     11.358     12.157
REMARK  2 active torsions:
REMARK  status: ('A' for Active; 'I' for Inactive)
REMARK    1  A    between atoms: C4_4  and  C6_6 
REMARK    2  A    between atoms: C6_6  and  N7_7 
ROOT
HETATM    1  C1  UNL     1     -35.742  13.729  -4.198  1.00 20.00     0.332 C 
HETATM    2  N7  UNL     1     -35.561  14.746  -3.651  1.00 20.00    -0.242 NA
HETATM    3  O8  UNL     1     -35.935  12.702  -4.738  1.00 20.00    -0.260 OA
ENDROOT
BRANCH   2   4
HETATM    4  C6  UNL     1     -34.463  15.546  -4.233  1.00 20.00     0.112 C 
HETATM    5  C5  UNL     1     -33.224  14.647  -4.317  1.00 20.00     0.035 C 
BRANCH   4   6
HETATM    6  C4  UNL     1     -34.234  16.771  -3.417  1.00 20.00     0.010 A 
HETATM    7  C2  UNL     1     -34.364  16.720  -1.921  1.00 20.00     0.007 A 
HETATM    8  C3  UNL     1     -33.010  16.885  -2.552  1.00 20.00     0.007 A 
ENDBRANCH   4   6
ENDBRANCH   2   4
TORSDOF 2
ENDMDL
MODEL 9
REMARK VINA RESULT:      -3.8      8.976      9.477
REMARK  2 active torsions:
REMARK  status: ('A' for Active; 'I' for Inactive)
REMARK    1  A    between atoms: C4_4  and  C6_6 
REMARK    2  A    between atoms: C6_6  and  N7_7 
ROOT
HETATM    1  C1  UNL     1     -41.457   9.165   0.466  1.00 20.00     0.332 C 
HETATM    2  N7  UNL     1     -41.386   8.013   0.651  1.00 20.00    -0.242 NA
HETATM    3  O8  UNL     1     -41.514  10.326   0.287  1.00 20.00    -0.260 OA
ENDROOT
BRANCH   2   4
HETATM    4  C6  UNL     1     -42.517   7.250   0.085  1.00 20.00     0.112 C 
HETATM    5  C5  UNL     1     -43.055   6.328   1.187  1.00 20.00     0.035 C 
BRANCH   4   6
HETATM    6  C4  UNL     1     -42.078   6.506  -1.128  1.00 20.00     0.010 A 
HETATM    7  C2  UNL     1     -40.989   5.474  -1.031  1.00 20.00     0.007 A 
HETATM    8  C3  UNL     1     -42.409   5.048  -1.281  1.00 20.00     0.007 A 
ENDBRANCH   4   6
ENDBRANCH   2   4
TORSDOF 2
ENDMDL
