MODEL 1
REMARK VINA RESULT:      -5.0      0.000      0.000
REMARK  1 active torsions:
REMARK  status: ('A' for Active; 'I' for Inactive)
REMARK    1  A    between atoms: C11_11  and  N13_13 
ROOT
HETATM    1  C1  UNL     1     -36.246  13.849  -4.412  1.00 20.00     0.086 C 
HETATM    2  C11 UNL     1     -36.693  15.215  -4.154  1.00 20.00     0.357 C 
HETATM    3  N12 UNL     1     -35.895  12.763  -4.617  1.00 20.00    -0.196 NA
ENDROOT
BRANCH   2   4
HETATM    4  N13 UNL     1     -35.502  16.098  -3.899  1.00 20.00    -0.059 N 
HETATM    5  C8  UNL     1     -35.911  17.528  -3.653  1.00 20.00     0.236 C 
HETATM    6  C6  UNL     1     -34.664  18.395  -3.537  1.00 20.00     0.037 C 
HETATM    7  C10 UNL     1     -33.709  17.916  -2.432  1.00 20.00    -0.037 C 
HETATM    8  C4  UNL     1     -32.422  18.759  -2.410  1.00 20.00     0.010 C 
HETATM    9  C5  UNL     1     -34.262  18.196  -1.021  1.00 20.00     0.010 C 
HETATM   10  C7  UNL     1     -33.387  16.419  -2.648  1.00 20.00     0.037 C 
HETATM   11  C2  UNL     1     -31.851  18.579  -1.007  1.00 20.00     0.001 C 
HETATM   12  C3  UNL     1     -33.038  18.232  -0.110  1.00 20.00     0.001 C 
HETATM   13  C9  UNL     1     -34.632  15.553  -2.794  1.00 20.00     0.236 C 
HETATM   14  H32 UNL     1     -34.941  16.085  -4.763  1.00 20.00     0.281 HD
ENDBRANCH   2   4
TORSDOF 1
ENDMDL
MODEL 2
REMARK VINA RESULT:      -4.9      2.402      5.259
REMARK  1 active torsions:
REMARK  status: ('A' for Active; 'I' for Inactive)
REMARK    1  A    between atoms: C11_11  and  N13_13 
ROOT
HETATM    1  C1  UNL     1     -31.428  18.535  -0.437  1.00 20.00     0.086 C 
HETATM    2  C11 UNL     1     -32.801  18.738  -0.892  1.00 20.00     0.357 C 
HETATM    3  N12 UNL     1     -30.337  18.378  -0.076  1.00 20.00    -0.196 NA
ENDROOT
BRANCH   2   4
HETATM    4  N13 UNL     1     -33.304  17.488  -1.560  1.00 20.00    -0.059 N 
HETATM    5  C8  UNL     1     -34.792  17.322  -1.384  1.00 20.00     0.236 C 
HETATM    6  C6  UNL     1     -35.220  15.979  -1.960  1.00 20.00     0.037 C 
HETATM    7  C10 UNL     1     -34.838  15.820  -3.441  1.00 20.00    -0.037 C 
HETATM    8  C4  UNL     1     -35.202  14.417  -3.958  1.00 20.00     0.010 C 
HETATM    9  C5  UNL     1     -35.699  16.702  -4.364  1.00 20.00     0.010 C 
HETATM   10  C7  UNL     1     -33.326  16.097  -3.611  1.00 20.00     0.037 C 
HETATM   11  C2  UNL     1     -35.300  14.564  -5.473  1.00 20.00     0.001 C 
HETATM   12  C3  UNL     1     -35.636  16.031  -5.734  1.00 20.00     0.001 C 
HETATM   13  C9  UNL     1     -32.888  17.427  -3.008  1.00 20.00     0.236 C 
HETATM   14  H32 UNL     1     -32.849  16.700  -1.079  1.00 20.00     0.281 HD
ENDBRANCH   2   4
TORSDOF 1
ENDMDL
MODEL 3
REMARK VINA RESULT:      -4.9      1.307      1.404
REMARK  1 active torsions:
REMARK  status: ('A' for Active; 'I' for Inactive)
REMARK    1  A    between atoms: C11_11  and  N13_13 
ROOT
HETATM    1  C1  UNL     1     -36.870  14.166  -4.944  1.00 20.00     0.086 C 
HETATM    2  C11 UNL     1     -35.713  14.385  -5.807  1.00 20.00     0.357 C 
HETATM    3  N12 UNL     1     -37.792  13.991  -4.261  1.00 20.00    -0.196 NA
ENDROOT
BRANCH   2   4
HETATM    4  N13 UNL     1     -34.777  15.369  -5.161  1.00 20.00    -0.059 N 
HETATM    5  C8  UNL     1     -35.386  16.746  -5.080  1.00 20.00     0.236 C 
HETATM    6  C6  UNL     1     -34.349  17.724  -4.545  1.00 20.00     0.037 C 
HETATM    7  C10 UNL     1     -33.791  17.307  -3.174  1.00 20.00    -0.037 C 
HETATM    8  C4  UNL     1     -32.681  18.267  -2.713  1.00 20.00     0.010 C 
HETATM    9  C5  UNL     1     -34.821  17.491  -2.044  1.00 20.00     0.010 C 
HETATM   10  C7  UNL     1     -33.267  15.854  -3.257  1.00 20.00     0.037 C 
HETATM   11  C2  UNL     1     -32.614  18.102  -1.199  1.00 20.00     0.001 C 
HETATM   12  C3  UNL     1     -33.996  17.617  -0.766  1.00 20.00     0.001 C 
HETATM   13  C9  UNL     1     -34.292  14.877  -3.821  1.00 20.00     0.236 C 
HETATM   14  H32 UNL     1     -33.955  15.435  -5.778  1.00 20.00     0.281 HD
ENDBRANCH   2   4
TORSDOF 1
ENDMDL
MODEL 4
REMARK VINA RESULT:      -4.7      1.731      1.998
REMARK  1 active torsions:
REMARK  status: ('A' for Active; 'I' for Inactive)
REMARK    1  A    between atoms: C11_11  and  N13_13 
ROOT
HETATM    1  C1  UNL     1     -35.264  14.554  -6.249  1.00 20.00     0.086 C 
HETATM    2  C11 UNL     1     -34.051  15.328  -6.499  1.00 20.00     0.357 C 
HETATM    3  N12 UNL     1     -36.228  13.939  -6.054  1.00 20.00    -0.196 NA
ENDROOT
BRANCH   2   4
HETATM    4  N13 UNL     1     -33.776  16.232  -5.329  1.00 20.00    -0.059 N 
HETATM    5  C8  UNL     1     -34.837  17.294  -5.184  1.00 20.00     0.236 C 
HETATM    6  C6  UNL     1     -34.437  18.256  -4.074  1.00 20.00     0.037 C 
HETATM    7  C10 UNL     1     -34.206  17.548  -2.729  1.00 20.00    -0.037 C 
HETATM    8  C4  UNL     1     -33.713  18.539  -1.660  1.00 20.00     0.010 C 
HETATM    9  C5  UNL     1     -35.521  17.063  -2.091  1.00 20.00     0.010 C 
HETATM   10  C7  UNL     1     -33.192  16.397  -2.926  1.00 20.00     0.037 C 
HETATM   11  C2  UNL     1     -34.049  17.884  -0.324  1.00 20.00     0.001 C 
HETATM   12  C3  UNL     1     -35.224  16.946  -0.598  1.00 20.00     0.001 C 
HETATM   13  C9  UNL     1     -33.574  15.448  -4.057  1.00 20.00     0.236 C 
HETATM   14  H32 UNL     1     -32.889  16.712  -5.536  1.00 20.00     0.281 HD
ENDBRANCH   2   4
TORSDOF 1
ENDMDL
MODEL 5
REMARK VINA RESULT:      -4.6      1.915      2.805
REMARK  1 active torsions:
REMARK  status: ('A' for Active; 'I' for Inactive)
REMARK    1  A    between atoms: C11_11  and  N13_13 
ROOT
HETATM    1  C1  UNL     1     -34.718  15.205  -7.162  1.00 20.00     0.086 C 
HETATM    2  C11 UNL     1     -36.055  15.297  -6.581  1.00 20.00     0.357 C 
HETATM    3  N12 UNL     1     -33.658  15.130  -7.626  1.00 20.00    -0.196 NA
ENDROOT
BRANCH   2   4
HETATM    4  N13 UNL     1     -35.954  15.724  -5.142  1.00 20.00    -0.059 N 
HETATM    5  C8  UNL     1     -35.223  14.703  -4.308  1.00 20.00     0.236 C 
HETATM    6  C6  UNL     1     -35.269  15.122  -2.844  1.00 20.00     0.037 C 
HETATM    7  C10 UNL     1     -34.681  16.523  -2.609  1.00 20.00    -0.037 C 
HETATM    8  C4  UNL     1     -34.833  16.946  -1.137  1.00 20.00     0.010 C 
HETATM    9  C5  UNL     1     -33.148  16.545  -2.760  1.00 20.00     0.010 C 
HETATM   10  C7  UNL     1     -35.376  17.534  -3.550  1.00 20.00     0.037 C 
HETATM   11  C2  UNL     1     -33.775  18.024  -0.921  1.00 20.00     0.001 C 
HETATM   12  C3  UNL     1     -32.683  17.756  -1.955  1.00 20.00     0.001 C 
HETATM   13  C9  UNL     1     -35.357  17.103  -5.013  1.00 20.00     0.236 C 
HETATM   14  H32 UNL     1     -36.919  15.775  -4.786  1.00 20.00     0.281 HD
ENDBRANCH   2   4
TORSDOF 1
ENDMDL
MODEL 6
REMARK VINA RESULT:      -4.6      1.256      2.160
REMARK  1 active torsions:
REMARK  status: ('A' for Active; 'I' for Inactive)
REMARK    1  A    between atoms: C11_11  and  N13_13 
ROOT
HETATM    1  C1  UNL     1     -37.678  15.036  -4.558  1.00 20.00     0.086 C 
HETATM    2  C11 UNL     1     -37.000  16.309  -4.788  1.00 20.00     0.357 C 
HETATM    3  N12 UNL     1     -38.218  14.025  -4.379  1.00 20.00    -0.196 NA
ENDROOT
BRANCH   2   4
HETATM    4  N13 UNL     1     -36.393  16.799  -3.502  1.00 20.00    -0.059 N 
HETATM    5  C8  UNL     1     -35.524  15.748  -2.860  1.00 20.00     0.236 C 
HETATM    6  C6  UNL     1     -35.049  16.249  -1.502  1.00 20.00     0.037 C 
HETATM    7  C10 UNL     1     -34.292  17.584  -1.594  1.00 20.00    -0.037 C 
HETATM    8  C4  UNL     1     -33.912  18.101  -0.195  1.00 20.00     0.010 C 
HETATM    9  C5  UNL     1     -32.898  17.421  -2.230  1.00 20.00     0.010 C 
HETATM   10  C7  UNL     1     -35.163  18.615  -2.348  1.00 20.00     0.037 C 
HETATM   11  C2  UNL     1     -32.749  19.060  -0.426  1.00 20.00     0.001 C 
HETATM   12  C3  UNL     1     -32.087  18.613  -1.728  1.00 20.00     0.001 C 
HETATM   13  C9  UNL     1     -35.665  18.106  -3.695  1.00 20.00     0.236 C 
HETATM   14  H32 UNL     1     -37.179  16.979  -2.862  1.00 20.00     0.281 HD
ENDBRANCH   2   4
TORSDOF 1
ENDMDL
MODEL 7
REMARK VINA RESULT:      -4.5      2.620      5.128
REMARK  1 active torsions:
REMARK  status: ('A' for Active; 'I' for Inactive)
REMARK    1  A    between atoms: C11_11  and  N13_13 
ROOT
HETATM    1  C1  UNL     1     -33.419  18.494   1.228  1.00 20.00     0.086 C 
HETATM    2  C11 UNL     1     -33.601  18.877  -0.170  1.00 20.00     0.357 C 
HETATM    3  N12 UNL     1     -33.273  18.193   2.338  1.00 20.00    -0.196 NA
ENDROOT
BRANCH   2   4
HETATM    4  N13 UNL     1     -33.678  17.644  -1.027  1.00 20.00    -0.059 N 
HETATM    5  C8  UNL     1     -35.105  17.240  -1.296  1.00 20.00     0.236 C 
HETATM    6  C6  UNL     1     -35.121  15.916  -2.049  1.00 20.00     0.037 C 
HETATM    7  C10 UNL     1     -34.326  15.973  -3.365  1.00 20.00    -0.037 C 
HETATM    8  C4  UNL     1     -34.287  14.595  -4.047  1.00 20.00     0.010 C 
HETATM    9  C5  UNL     1     -35.042  16.810  -4.442  1.00 20.00     0.010 C 
HETATM   10  C7  UNL     1     -32.897  16.489  -3.077  1.00 20.00     0.037 C 
HETATM   11  C2  UNL     1     -33.991  14.884  -5.515  1.00 20.00     0.001 C 
HETATM   12  C3  UNL     1     -34.491  16.305  -5.774  1.00 20.00     0.001 C 
HETATM   13  C9  UNL     1     -32.878  17.799  -2.296  1.00 20.00     0.236 C 
HETATM   14  H32 UNL     1     -33.243  16.885  -0.483  1.00 20.00     0.281 HD
ENDBRANCH   2   4
TORSDOF 1
ENDMDL
MODEL 8
REMARK VINA RESULT:      -4.5      2.375      5.003
REMARK  1 active torsions:
REMARK  status: ('A' for Active; 'I' for Inactive)
REMARK    1  A    between atoms: C11_11  and  N13_13 
ROOT
HETATM    1  C1  UNL     1     -31.738  18.658  -0.693  1.00 20.00     0.086 C 
HETATM    2  C11 UNL     1     -33.067  19.261  -0.749  1.00 20.00     0.357 C 
HETATM    3  N12 UNL     1     -30.681  18.182  -0.647  1.00 20.00    -0.196 NA
ENDROOT
BRANCH   2   4
HETATM    4  N13 UNL     1     -33.903  18.552  -1.779  1.00 20.00    -0.059 N 
HETATM    5  C8  UNL     1     -33.179  18.434  -3.097  1.00 20.00     0.236 C 
HETATM    6  C6  UNL     1     -34.119  17.833  -4.134  1.00 20.00     0.037 C 
HETATM    7  C10 UNL     1     -34.678  16.466  -3.707  1.00 20.00    -0.037 C 
HETATM    8  C4  UNL     1     -35.693  15.938  -4.736  1.00 20.00     0.010 C 
HETATM    9  C5  UNL     1     -33.610  15.357  -3.760  1.00 20.00     0.010 C 
HETATM   10  C7  UNL     1     -35.323  16.591  -2.307  1.00 20.00     0.037 C 
HETATM   11  C2  UNL     1     -35.739  14.430  -4.515  1.00 20.00     0.001 C 
HETATM   12  C3  UNL     1     -34.392  14.053  -3.901  1.00 20.00     0.001 C 
HETATM   13  C9  UNL     1     -34.395  17.220  -1.274  1.00 20.00     0.236 C 
HETATM   14  H32 UNL     1     -34.731  19.144  -1.937  1.00 20.00     0.281 HD
ENDBRANCH   2   4
TORSDOF 1
ENDMDL
MODEL 9
REMARK VINA RESULT:      -4.4      2.395      5.375
REMARK  1 active torsions:
REMARK  status: ('A' for Active; 'I' for Inactive)
REMARK    1  A    between atoms: C11_11  and  N13_13 
ROOT
HETATM    1  C1  UNL     1     -31.784  18.707  -1.217  1.00 20.00     0.086 C 
HETATM    2  C11 UNL     1     -32.976  19.000  -2.007  1.00 20.00     0.357 C 
HETATM    3  N12 UNL     1     -30.836  18.477  -0.588  1.00 20.00    -0.196 NA
ENDROOT
BRANCH   2   4
HETATM    4  N13 UNL     1     -33.114  17.988  -3.111  1.00 20.00    -0.059 N 
HETATM    5  C8  UNL     1     -33.172  16.580  -2.573  1.00 20.00     0.236 C 
HETATM    6  C6  UNL     1     -33.174  15.597  -3.736  1.00 20.00     0.037 C 
HETATM    7  C10 UNL     1     -34.332  15.840  -4.718  1.00 20.00    -0.037 C 
HETATM    8  C4  UNL     1     -34.243  14.889  -5.924  1.00 20.00     0.010 C 
HETATM    9  C5  UNL     1     -35.695  15.432  -4.126  1.00 20.00     0.010 C 
HETATM   10  C7  UNL     1     -34.312  17.318  -5.175  1.00 20.00     0.037 C 
HETATM   11  C2  UNL     1     -35.657  14.834  -6.493  1.00 20.00     0.001 C 
HETATM   12  C3  UNL     1     -36.593  15.168  -5.332  1.00 20.00     0.001 C 
HETATM   13  C9  UNL     1     -34.280  18.305  -4.014  1.00 20.00     0.236 C 
HETATM   14  H32 UNL     1     -32.259  18.062  -3.680  1.00 20.00     0.281 HD
ENDBRANCH   2   4
TORSDOF 1
ENDMDL
