MODEL 1
REMARK VINA RESULT:      -4.2      0.000      0.000
REMARK  3 active torsions:
REMARK  status: ('A' for Active; 'I' for Inactive)
REMARK    1  A    between atoms: C4_4  and  C6_6 
REMARK    2  A    between atoms: C4_4  and  C7_7 
REMARK    3  A    between atoms: C5_5  and  C6_6 
ROOT
HETATM    1  C1  UNL     1     -37.055  14.509  -4.495  1.00 20.00     0.065 C 
HETATM    2  C6  UNL     1     -35.792  15.235  -4.739  1.00 20.00     0.107 C 
HETATM    3  N8  UNL     1     -38.049  13.941  -4.302  1.00 20.00    -0.197 NA
ENDROOT
BRANCH   2   4
HETATM    4  C4  UNL     1     -34.638  14.657  -3.895  1.00 20.00     0.024 C 
BRANCH   4   5
HETATM    5  C7  UNL     1     -34.048  15.620  -2.839  1.00 20.00    -0.021 C 
HETATM    6  C2  UNL     1     -33.300  16.758  -3.542  1.00 20.00     0.009 C 
HETATM    7  C3  UNL     1     -35.115  16.204  -1.914  1.00 20.00     0.009 C 
ENDBRANCH   4   5
ENDBRANCH   2   4
BRANCH   2   8
HETATM    8  C5  UNL     1     -35.461  15.255  -6.242  1.00 20.00     0.133 C 
HETATM    9 CL9  UNL     1     -33.756  14.883  -6.606  1.00 20.00    -0.129 Cl
ENDBRANCH   2   8
TORSDOF 3
ENDMDL
MODEL 2
REMARK VINA RESULT:      -4.2      1.278      1.842
REMARK  3 active torsions:
REMARK  status: ('A' for Active; 'I' for Inactive)
REMARK    1  A    between atoms: C4_4  and  C6_6 
REMARK    2  A    between atoms: C4_4  and  C7_7 
REMARK    3  A    between atoms: C5_5  and  C6_6 
ROOT
HETATM    1  C1  UNL     1     -36.566  14.502  -4.309  1.00 20.00     0.065 C 
HETATM    2  C6  UNL     1     -35.444  15.449  -4.153  1.00 20.00     0.107 C 
HETATM    3  N8  UNL     1     -37.449  13.759  -4.434  1.00 20.00    -0.197 NA
ENDROOT
BRANCH   2   4
HETATM    4  C4  UNL     1     -34.919  15.466  -2.702  1.00 20.00     0.024 C 
BRANCH   4   5
HETATM    5  C7  UNL     1     -34.639  16.870  -2.119  1.00 20.00    -0.021 C 
HETATM    6  C2  UNL     1     -35.204  16.958  -0.698  1.00 20.00     0.009 C 
HETATM    7  C3  UNL     1     -33.150  17.213  -2.101  1.00 20.00     0.009 C 
ENDBRANCH   4   5
ENDBRANCH   2   4
BRANCH   2   8
HETATM    8  C5  UNL     1     -34.332  15.144  -5.171  1.00 20.00     0.133 C 
HETATM    9 CL9  UNL     1     -32.870  14.426  -4.445  1.00 20.00    -0.129 Cl
ENDBRANCH   2   8
TORSDOF 3
ENDMDL
MODEL 3
REMARK VINA RESULT:      -4.1      1.336      1.872
REMARK  3 active torsions:
REMARK  status: ('A' for Active; 'I' for Inactive)
REMARK    1  A    between atoms: C4_4  and  C6_6 
REMARK    2  A    between atoms: C4_4  and  C7_7 
REMARK    3  A    between atoms: C5_5  and  C6_6 
ROOT
HETATM    1  C1  UNL     1     -35.707  13.877  -4.329  1.00 20.00     0.065 C 
HETATM    2  C6  UNL     1     -35.455  15.299  -4.022  1.00 20.00     0.107 C 
HETATM    3  N8  UNL     1     -35.908  12.760  -4.571  1.00 20.00    -0.197 NA
ENDROOT
BRANCH   2   4
HETATM    4  C4  UNL     1     -34.548  15.456  -2.784  1.00 20.00     0.024 C 
BRANCH   4   5
HETATM    5  C7  UNL     1     -34.461  16.888  -2.208  1.00 20.00    -0.021 C 
HETATM    6  C2  UNL     1     -35.168  16.940  -0.850  1.00 20.00     0.009 C 
HETATM    7  C3  UNL     1     -33.020  17.374  -2.053  1.00 20.00     0.009 C 
ENDBRANCH   4   5
ENDBRANCH   2   4
BRANCH   2   8
HETATM    8  C5  UNL     1     -34.890  16.028  -5.254  1.00 20.00     0.133 C 
HETATM    9 CL9  UNL     1     -33.927  14.981  -6.328  1.00 20.00    -0.129 Cl
ENDBRANCH   2   8
TORSDOF 3
ENDMDL
MODEL 4
REMARK VINA RESULT:      -3.9      1.927      3.196
REMARK  3 active torsions:
REMARK  status: ('A' for Active; 'I' for Inactive)
REMARK    1  A    between atoms: C4_4  and  C6_6 
REMARK    2  A    between atoms: C4_4  and  C7_7 
REMARK    3  A    between atoms: C5_5  and  C6_6 
ROOT
HETATM    1  C1  UNL     1     -36.034  14.015  -4.239  1.00 20.00     0.065 C 
HETATM    2  C6  UNL     1     -34.697  14.441  -3.778  1.00 20.00     0.107 C 
HETATM    3  N8  UNL     1     -37.084  13.679  -4.600  1.00 20.00    -0.197 NA
ENDROOT
BRANCH   2   4
HETATM    4  C4  UNL     1     -33.804  14.872  -4.960  1.00 20.00     0.024 C 
BRANCH   4   5
HETATM    5  C7  UNL     1     -34.550  15.524  -6.146  1.00 20.00    -0.021 C 
HETATM    6  C2  UNL     1     -34.569  17.046  -5.967  1.00 20.00     0.009 C 
HETATM    7  C3  UNL     1     -33.925  15.176  -7.497  1.00 20.00     0.009 C 
ENDBRANCH   4   5
ENDBRANCH   2   4
BRANCH   2   8
HETATM    8  C5  UNL     1     -34.818  15.540  -2.708  1.00 20.00     0.133 C 
HETATM    9 CL9  UNL     1     -33.349  16.535  -2.533  1.00 20.00    -0.129 Cl
ENDBRANCH   2   8
TORSDOF 3
ENDMDL
MODEL 5
REMARK VINA RESULT:      -3.8      2.165      2.421
REMARK  3 active torsions:
REMARK  status: ('A' for Active; 'I' for Inactive)
REMARK    1  A    between atoms: C4_4  and  C6_6 
REMARK    2  A    between atoms: C4_4  and  C7_7 
REMARK    3  A    between atoms: C5_5  and  C6_6 
ROOT
HETATM    1  C1  UNL     1     -36.061  13.878  -4.251  1.00 20.00     0.065 C 
HETATM    2  C6  UNL     1     -36.184  15.224  -3.657  1.00 20.00     0.107 C 
HETATM    3  N8  UNL     1     -35.968  12.819  -4.717  1.00 20.00    -0.197 NA
ENDROOT
BRANCH   2   4
HETATM    4  C4  UNL     1     -34.993  15.541  -2.729  1.00 20.00     0.024 C 
BRANCH   4   5
HETATM    5  C7  UNL     1     -33.772  16.190  -3.421  1.00 20.00    -0.021 C 
HETATM    6  C2  UNL     1     -33.017  17.065  -2.416  1.00 20.00     0.009 C 
HETATM    7  C3  UNL     1     -32.818  15.156  -4.019  1.00 20.00     0.009 C 
ENDBRANCH   4   5
ENDBRANCH   2   4
BRANCH   2   8
HETATM    8  C5  UNL     1     -36.364  16.287  -4.756  1.00 20.00     0.133 C 
HETATM    9 CL9  UNL     1     -36.892  17.875  -4.139  1.00 20.00    -0.129 Cl
ENDBRANCH   2   8
TORSDOF 3
ENDMDL
MODEL 6
REMARK VINA RESULT:      -3.8     11.936     12.558
REMARK  3 active torsions:
REMARK  status: ('A' for Active; 'I' for Inactive)
REMARK    1  A    between atoms: C4_4  and  C6_6 
REMARK    2  A    between atoms: C4_4  and  C7_7 
REMARK    3  A    between atoms: C5_5  and  C6_6 
ROOT
HETATM    1  C1  UNL     1     -32.698   7.295   2.025  1.00 20.00     0.065 C 
HETATM    2  C6  UNL     1     -32.918   6.228   3.022  1.00 20.00     0.107 C 
HETATM    3  N8  UNL     1     -32.523   8.134   1.242  1.00 20.00    -0.197 NA
ENDROOT
BRANCH   2   4
HETATM    4  C4  UNL     1     -34.065   6.587   3.989  1.00 20.00     0.024 C 
BRANCH   4   5
HETATM    5  C7  UNL     1     -33.821   6.212   5.468  1.00 20.00    -0.021 C 
HETATM    6  C2  UNL     1     -33.678   7.487   6.306  1.00 20.00     0.009 C 
HETATM    7  C3  UNL     1     -34.937   5.342   6.047  1.00 20.00     0.009 C 
ENDBRANCH   4   5
ENDBRANCH   2   4
BRANCH   2   8
HETATM    8  C5  UNL     1     -33.146   4.875   2.325  1.00 20.00     0.133 C 
HETATM    9 CL9  UNL     1     -33.953   3.664   3.356  1.00 20.00    -0.129 Cl
ENDBRANCH   2   8
TORSDOF 3
ENDMDL
MODEL 7
REMARK VINA RESULT:      -3.7     10.943     11.611
REMARK  3 active torsions:
REMARK  status: ('A' for Active; 'I' for Inactive)
REMARK    1  A    between atoms: C4_4  and  C6_6 
REMARK    2  A    between atoms: C4_4  and  C7_7 
REMARK    3  A    between atoms: C5_5  and  C6_6 
ROOT
HETATM    1  C1  UNL     1     -33.645   6.762   4.539  1.00 20.00     0.065 C 
HETATM    2  C6  UNL     1     -33.567   6.554   3.080  1.00 20.00     0.107 C 
HETATM    3  N8  UNL     1     -33.710   6.925   5.687  1.00 20.00    -0.197 NA
ENDROOT
BRANCH   2   4
HETATM    4  C4  UNL     1     -32.468   7.430   2.444  1.00 20.00     0.024 C 
BRANCH   4   5
HETATM    5  C7  UNL     1     -32.820   8.029   1.063  1.00 20.00    -0.021 C 
HETATM    6  C2  UNL     1     -33.093   9.530   1.209  1.00 20.00     0.009 C 
HETATM    7  C3  UNL     1     -31.718   7.808   0.027  1.00 20.00     0.009 C 
ENDBRANCH   4   5
ENDBRANCH   2   4
BRANCH   2   8
HETATM    8  C5  UNL     1     -33.382   5.061   2.754  1.00 20.00     0.133 C 
HETATM    9 CL9  UNL     1     -34.214   3.970   3.893  1.00 20.00    -0.129 Cl
ENDBRANCH   2   8
TORSDOF 3
ENDMDL
MODEL 8
REMARK VINA RESULT:      -3.6     11.486     12.121
REMARK  3 active torsions:
REMARK  status: ('A' for Active; 'I' for Inactive)
REMARK    1  A    between atoms: C4_4  and  C6_6 
REMARK    2  A    between atoms: C4_4  and  C7_7 
REMARK    3  A    between atoms: C5_5  and  C6_6 
ROOT
HETATM    1  C1  UNL     1     -33.094   5.234   2.387  1.00 20.00     0.065 C 
HETATM    2  C6  UNL     1     -33.363   6.670   2.600  1.00 20.00     0.107 C 
HETATM    3  N8  UNL     1     -32.884   4.105   2.217  1.00 20.00    -0.197 NA
ENDROOT
BRANCH   2   4
HETATM    4  C4  UNL     1     -33.523   6.997   4.100  1.00 20.00     0.024 C 
BRANCH   4   5
HETATM    5  C7  UNL     1     -34.147   5.872   4.956  1.00 20.00    -0.021 C 
HETATM    6  C2  UNL     1     -34.333   6.364   6.395  1.00 20.00     0.009 C 
HETATM    7  C3  UNL     1     -35.487   5.386   4.404  1.00 20.00     0.009 C 
ENDBRANCH   4   5
ENDBRANCH   2   4
BRANCH   2   8
HETATM    8  C5  UNL     1     -32.277   7.530   1.930  1.00 20.00     0.133 C 
HETATM    9 CL9  UNL     1     -32.922   8.742   0.792  1.00 20.00    -0.129 Cl
ENDBRANCH   2   8
TORSDOF 3
ENDMDL
MODEL 9
REMARK VINA RESULT:      -3.6      2.407      2.744
REMARK  3 active torsions:
REMARK  status: ('A' for Active; 'I' for Inactive)
REMARK    1  A    between atoms: C4_4  and  C6_6 
REMARK    2  A    between atoms: C4_4  and  C7_7 
REMARK    3  A    between atoms: C5_5  and  C6_6 
ROOT
HETATM    1  C1  UNL     1     -33.984  14.999  -5.986  1.00 20.00     0.065 C 
HETATM    2  C6  UNL     1     -33.873  14.923  -4.516  1.00 20.00     0.107 C 
HETATM    3  N8  UNL     1     -34.069  15.058  -7.142  1.00 20.00    -0.197 NA
ENDROOT
BRANCH   2   4
HETATM    4  C4  UNL     1     -34.150  16.290  -3.857  1.00 20.00     0.024 C 
BRANCH   4   5
HETATM    5  C7  UNL     1     -33.870  16.359  -2.339  1.00 20.00    -0.021 C 
HETATM    6  C2  UNL     1     -32.871  17.484  -2.050  1.00 20.00     0.009 C 
HETATM    7  C3  UNL     1     -35.139  16.578  -1.516  1.00 20.00     0.009 C 
ENDBRANCH   4   5
ENDBRANCH   2   4
BRANCH   2   8
HETATM    8  C5  UNL     1     -34.784  13.814  -3.960  1.00 20.00     0.133 C 
HETATM    9 CL9  UNL     1     -36.439  13.845  -4.625  1.00 20.00    -0.129 Cl
ENDBRANCH   2   8
TORSDOF 3
ENDMDL
