MODEL 1
REMARK VINA RESULT:      -4.2      0.000      0.000
REMARK  3 active torsions:
REMARK  status: ('A' for Active; 'I' for Inactive)
REMARK    1  A    between atoms: C3_3  and  C4_4 
REMARK    2  A    between atoms: C4_4  and  C6_6 
REMARK    3  A    between atoms: C5_5  and  C6_6 
ROOT
HETATM    1  C1  UNL     1     -33.844   5.289   3.444  1.00 20.00     0.065 C 
HETATM    2  C6  UNL     1     -33.657   6.708   3.809  1.00 20.00     0.106 C 
HETATM    3  N7  UNL     1     -33.992   4.173   3.158  1.00 20.00    -0.197 NA
ENDROOT
BRANCH   2   4
HETATM    4  C4  UNL     1     -32.387   7.291   3.162  1.00 20.00     0.020 C 
BRANCH   4   5
HETATM    5  C3  UNL     1     -32.440   7.269   1.630  1.00 20.00    -0.003 C 
HETATM    6  C2  UNL     1     -32.782   8.640   1.066  1.00 20.00     0.005 C 
ENDBRANCH   4   5
ENDBRANCH   2   4
BRANCH   2   7
HETATM    7  C5  UNL     1     -33.668   6.881   5.336  1.00 20.00     0.133 C 
HETATM    8 CL8  UNL     1     -34.665   5.667   6.184  1.00 20.00    -0.129 Cl
ENDBRANCH   2   7
TORSDOF 3
ENDMDL
MODEL 2
REMARK VINA RESULT:      -4.0     11.606     12.005
REMARK  3 active torsions:
REMARK  status: ('A' for Active; 'I' for Inactive)
REMARK    1  A    between atoms: C3_3  and  C4_4 
REMARK    2  A    between atoms: C4_4  and  C6_6 
REMARK    3  A    between atoms: C5_5  and  C6_6 
ROOT
HETATM    1  C1  UNL     1     -36.074  13.991  -4.281  1.00 20.00     0.065 C 
HETATM    2  C6  UNL     1     -34.699  14.412  -3.946  1.00 20.00     0.106 C 
HETATM    3  N7  UNL     1     -37.155  13.659  -4.545  1.00 20.00    -0.197 NA
ENDROOT
BRANCH   2   4
HETATM    4  C4  UNL     1     -34.694  15.496  -2.851  1.00 20.00     0.020 C 
BRANCH   4   5
HETATM    5  C3  UNL     1     -33.403  16.324  -2.845  1.00 20.00    -0.003 C 
HETATM    6  C2  UNL     1     -33.435  17.394  -1.764  1.00 20.00     0.005 C 
ENDBRANCH   4   5
ENDBRANCH   2   4
BRANCH   2   7
HETATM    7  C5  UNL     1     -33.945  14.855  -5.210  1.00 20.00     0.133 C 
HETATM    8 CL8  UNL     1     -34.831  16.060  -6.184  1.00 20.00    -0.129 Cl
ENDBRANCH   2   7
TORSDOF 3
ENDMDL
MODEL 3
REMARK VINA RESULT:      -3.7     15.920     16.579
REMARK  3 active torsions:
REMARK  status: ('A' for Active; 'I' for Inactive)
REMARK    1  A    between atoms: C3_3  and  C4_4 
REMARK    2  A    between atoms: C4_4  and  C6_6 
REMARK    3  A    between atoms: C5_5  and  C6_6 
ROOT
HETATM    1  C1  UNL     1     -22.277  17.607   8.138  1.00 20.00     0.065 C 
HETATM    2  C6  UNL     1     -22.907  18.474   9.154  1.00 20.00     0.106 C 
HETATM    3  N7  UNL     1     -21.781  16.927   7.338  1.00 20.00    -0.197 NA
ENDROOT
BRANCH   2   4
HETATM    4  C4  UNL     1     -22.850  17.834  10.553  1.00 20.00     0.020 C 
BRANCH   4   5
HETATM    5  C3  UNL     1     -24.242  17.587  11.148  1.00 20.00    -0.003 C 
HETATM    6  C2  UNL     1     -24.503  16.102  11.351  1.00 20.00     0.005 C 
ENDBRANCH   4   5
ENDBRANCH   2   4
BRANCH   2   7
HETATM    7  C5  UNL     1     -24.340  18.843   8.738  1.00 20.00     0.133 C 
HETATM    8 CL8  UNL     1     -24.508  19.198   6.997  1.00 20.00    -0.129 Cl
ENDBRANCH   2   7
TORSDOF 3
ENDMDL
MODEL 4
REMARK VINA RESULT:      -3.7     11.286     11.781
REMARK  3 active torsions:
REMARK  status: ('A' for Active; 'I' for Inactive)
REMARK    1  A    between atoms: C3_3  and  C4_4 
REMARK    2  A    between atoms: C4_4  and  C6_6 
REMARK    3  A    between atoms: C5_5  and  C6_6 
ROOT
HETATM    1  C1  UNL     1     -35.689  13.906  -4.299  1.00 20.00     0.065 C 
HETATM    2  C6  UNL     1     -35.476  15.338  -4.005  1.00 20.00     0.106 C 
HETATM    3  N7  UNL     1     -35.856  12.781  -4.532  1.00 20.00    -0.197 NA
ENDROOT
BRANCH   2   4
HETATM    4  C4  UNL     1     -34.615  15.530  -2.743  1.00 20.00     0.020 C 
BRANCH   4   5
HETATM    5  C3  UNL     1     -33.286  16.237  -3.036  1.00 20.00    -0.003 C 
HETATM    6  C2  UNL     1     -33.055  17.402  -2.084  1.00 20.00     0.005 C 
ENDBRANCH   4   5
ENDBRANCH   2   4
BRANCH   2   7
HETATM    7  C5  UNL     1     -36.820  16.078  -3.914  1.00 20.00     0.133 C 
HETATM    8 CL8  UNL     1     -36.848  17.354  -2.667  1.00 20.00    -0.129 Cl
ENDBRANCH   2   7
TORSDOF 3
ENDMDL
MODEL 5
REMARK VINA RESULT:      -3.7      1.826      2.203
REMARK  3 active torsions:
REMARK  status: ('A' for Active; 'I' for Inactive)
REMARK    1  A    between atoms: C3_3  and  C4_4 
REMARK    2  A    between atoms: C4_4  and  C6_6 
REMARK    3  A    between atoms: C5_5  and  C6_6 
ROOT
HETATM    1  C1  UNL     1     -33.445   6.759   4.765  1.00 20.00     0.065 C 
HETATM    2  C6  UNL     1     -32.769   6.542   3.470  1.00 20.00     0.106 C 
HETATM    3  N7  UNL     1     -33.976   6.928   5.783  1.00 20.00    -0.197 NA
ENDROOT
BRANCH   2   4
HETATM    4  C4  UNL     1     -32.639   7.856   2.677  1.00 20.00     0.020 C 
BRANCH   4   5
HETATM    5  C3  UNL     1     -32.502   7.624   1.167  1.00 20.00    -0.003 C 
HETATM    6  C2  UNL     1     -32.945   8.845   0.375  1.00 20.00     0.005 C 
ENDBRANCH   4   5
ENDBRANCH   2   4
BRANCH   2   7
HETATM    7  C5  UNL     1     -33.479   5.441   2.666  1.00 20.00     0.133 C 
HETATM    8 CL8  UNL     1     -34.236   4.188   3.687  1.00 20.00    -0.129 Cl
ENDBRANCH   2   7
TORSDOF 3
ENDMDL
MODEL 6
REMARK VINA RESULT:      -3.7      2.352      3.733
REMARK  3 active torsions:
REMARK  status: ('A' for Active; 'I' for Inactive)
REMARK    1  A    between atoms: C3_3  and  C4_4 
REMARK    2  A    between atoms: C4_4  and  C6_6 
REMARK    3  A    between atoms: C5_5  and  C6_6 
ROOT
HETATM    1  C1  UNL     1     -33.129   5.356   2.691  1.00 20.00     0.065 C 
HETATM    2  C6  UNL     1     -32.798   6.458   3.617  1.00 20.00     0.106 C 
HETATM    3  N7  UNL     1     -33.388   4.489   1.964  1.00 20.00    -0.197 NA
ENDROOT
BRANCH   2   4
HETATM    4  C4  UNL     1     -34.050   6.970   4.352  1.00 20.00     0.020 C 
BRANCH   4   5
HETATM    5  C3  UNL     1     -34.076   6.564   5.830  1.00 20.00    -0.003 C 
HETATM    6  C2  UNL     1     -34.767   5.223   6.026  1.00 20.00     0.005 C 
ENDBRANCH   4   5
ENDBRANCH   2   4
BRANCH   2   7
HETATM    7  C5  UNL     1     -32.053   7.581   2.878  1.00 20.00     0.133 C 
HETATM    8 CL8  UNL     1     -32.707   7.920   1.252  1.00 20.00    -0.129 Cl
ENDBRANCH   2   7
TORSDOF 3
ENDMDL
MODEL 7
REMARK VINA RESULT:      -3.7     16.557     17.001
REMARK  3 active torsions:
REMARK  status: ('A' for Active; 'I' for Inactive)
REMARK    1  A    between atoms: C3_3  and  C4_4 
REMARK    2  A    between atoms: C4_4  and  C6_6 
REMARK    3  A    between atoms: C5_5  and  C6_6 
ROOT
HETATM    1  C1  UNL     1     -23.086  18.408   9.532  1.00 20.00     0.065 C 
HETATM    2  C6  UNL     1     -24.127  17.674  10.279  1.00 20.00     0.106 C 
HETATM    3  N7  UNL     1     -22.268  18.984   8.944  1.00 20.00    -0.197 NA
ENDROOT
BRANCH   2   4
HETATM    4  C4  UNL     1     -25.259  18.613  10.736  1.00 20.00     0.020 C 
BRANCH   4   5
HETATM    5  C3  UNL     1     -25.662  18.386  12.198  1.00 20.00    -0.003 C 
HETATM    6  C2  UNL     1     -27.131  18.011  12.318  1.00 20.00     0.005 C 
ENDBRANCH   4   5
ENDBRANCH   2   4
BRANCH   2   7
HETATM    7  C5  UNL     1     -23.506  16.894  11.449  1.00 20.00     0.133 C 
HETATM    8 CL8  UNL     1     -22.155  17.752  12.239  1.00 20.00    -0.129 Cl
ENDBRANCH   2   7
TORSDOF 3
ENDMDL
MODEL 8
REMARK VINA RESULT:      -3.6     15.882     16.329
REMARK  3 active torsions:
REMARK  status: ('A' for Active; 'I' for Inactive)
REMARK    1  A    between atoms: C3_3  and  C4_4 
REMARK    2  A    between atoms: C4_4  and  C6_6 
REMARK    3  A    between atoms: C5_5  and  C6_6 
ROOT
HETATM    1  C1  UNL     1     -22.634  16.920   9.153  1.00 20.00     0.065 C 
HETATM    2  C6  UNL     1     -23.868  17.150   9.932  1.00 20.00     0.106 C 
HETATM    3  N7  UNL     1     -21.665  16.738   8.541  1.00 20.00    -0.197 NA
ENDROOT
BRANCH   2   4
HETATM    4  C4  UNL     1     -24.332  18.615   9.830  1.00 20.00     0.020 C 
BRANCH   4   5
HETATM    5  C3  UNL     1     -24.188  19.184   8.413  1.00 20.00    -0.003 C 
HETATM    6  C2  UNL     1     -25.439  18.933   7.585  1.00 20.00     0.005 C 
ENDBRANCH   4   5
ENDBRANCH   2   4
BRANCH   2   7
HETATM    7  C5  UNL     1     -23.681  16.697  11.389  1.00 20.00     0.133 C 
HETATM    8 CL8  UNL     1     -22.439  17.626  12.271  1.00 20.00    -0.129 Cl
ENDBRANCH   2   7
TORSDOF 3
ENDMDL
MODEL 9
REMARK VINA RESULT:      -3.5      2.190      3.651
REMARK  3 active torsions:
REMARK  status: ('A' for Active; 'I' for Inactive)
REMARK    1  A    between atoms: C3_3  and  C4_4 
REMARK    2  A    between atoms: C4_4  and  C6_6 
REMARK    3  A    between atoms: C5_5  and  C6_6 
ROOT
HETATM    1  C1  UNL     1     -32.817   7.393   2.020  1.00 20.00     0.065 C 
HETATM    2  C6  UNL     1     -33.408   6.490   3.028  1.00 20.00     0.106 C 
HETATM    3  N7  UNL     1     -32.353   8.103   1.227  1.00 20.00    -0.197 NA
ENDROOT
BRANCH   2   4
HETATM    4  C4  UNL     1     -32.891   6.810   4.443  1.00 20.00     0.020 C 
BRANCH   4   5
HETATM    5  C3  UNL     1     -34.024   7.097   5.436  1.00 20.00    -0.003 C 
HETATM    6  C2  UNL     1     -34.522   5.819   6.094  1.00 20.00     0.005 C 
ENDBRANCH   4   5
ENDBRANCH   2   4
BRANCH   2   7
HETATM    7  C5  UNL     1     -33.177   5.020   2.640  1.00 20.00     0.133 C 
HETATM    8 CL8  UNL     1     -34.145   3.869   3.600  1.00 20.00    -0.129 Cl
ENDBRANCH   2   7
TORSDOF 3
ENDMDL
