MODEL 1
REMARK VINA RESULT:      -4.3      0.000      0.000
REMARK  2 active torsions:
REMARK  status: ('A' for Active; 'I' for Inactive)
REMARK    1  A    between atoms: C9_9  and  C10_10 
REMARK    2  A    between atoms: C10_10  and  N12_12 
ROOT
HETATM    1  C1  UNL     1     -36.703  14.073  -4.373  1.00 20.00     0.061 C 
HETATM    2  C9  UNL     1     -35.243  14.265  -4.340  1.00 20.00     0.159 C 
HETATM    3  N11 UNL     1     -37.852  13.919  -4.397  1.00 20.00    -0.197 NA
ENDROOT
BRANCH   2   4
HETATM    4  C10 UNL     1     -34.807  15.468  -5.184  1.00 20.00     0.233 C 
HETATM    5  C8  UNL     1     -34.034  15.013  -6.419  1.00 20.00     0.044 C 
BRANCH   4   6
HETATM    6  N12 UNL     1     -33.994  16.387  -4.404  1.00 20.00     0.102 N 
HETATM    7  C4  UNL     1     -33.689  15.870  -3.073  1.00 20.00     0.274 C 
HETATM    8  C2  UNL     1     -33.047  17.070  -2.413  1.00 20.00     0.033 C 
HETATM    9  C3  UNL     1     -33.897  18.234  -2.900  1.00 20.00     0.043 C 
HETATM   10  C5  UNL     1     -34.506  17.763  -4.241  1.00 20.00     0.153 C 
HETATM   11  C6  UNL     1     -33.965  18.619  -5.397  1.00 20.00     0.049 C 
HETATM   12  C7  UNL     1     -36.039  17.897  -4.190  1.00 20.00     0.049 C 
ENDBRANCH   4   6
ENDBRANCH   2   4
TORSDOF 2
ENDMDL
MODEL 2
REMARK VINA RESULT:      -4.1      1.945      2.517
REMARK  2 active torsions:
REMARK  status: ('A' for Active; 'I' for Inactive)
REMARK    1  A    between atoms: C9_9  and  C10_10 
REMARK    2  A    between atoms: C10_10  and  N12_12 
ROOT
HETATM    1  C1  UNL     1     -35.295  13.750  -4.081  1.00 20.00     0.061 C 
HETATM    2  C9  UNL     1     -34.482  14.821  -3.482  1.00 20.00     0.159 C 
HETATM    3  N11 UNL     1     -35.934  12.904  -4.553  1.00 20.00    -0.197 NA
ENDROOT
BRANCH   2   4
HETATM    4  C10 UNL     1     -35.330  16.042  -3.109  1.00 20.00     0.233 C 
HETATM    5  C8  UNL     1     -36.243  16.443  -4.265  1.00 20.00     0.044 C 
BRANCH   4   6
HETATM    6  N12 UNL     1     -34.491  17.167  -2.730  1.00 20.00     0.102 N 
HETATM    7  C4  UNL     1     -33.073  16.817  -2.696  1.00 20.00     0.274 C 
HETATM    8  C2  UNL     1     -32.464  18.057  -2.079  1.00 20.00     0.033 C 
HETATM    9  C3  UNL     1     -33.461  18.435  -0.994  1.00 20.00     0.043 C 
HETATM   10  C5  UNL     1     -34.814  17.846  -1.458  1.00 20.00     0.153 C 
HETATM   11  C6  UNL     1     -35.809  18.978  -1.755  1.00 20.00     0.049 C 
HETATM   12  C7  UNL     1     -35.392  16.943  -0.354  1.00 20.00     0.049 C 
ENDBRANCH   4   6
ENDBRANCH   2   4
TORSDOF 2
ENDMDL
MODEL 3
REMARK VINA RESULT:      -4.1      1.782      4.481
REMARK  2 active torsions:
REMARK  status: ('A' for Active; 'I' for Inactive)
REMARK    1  A    between atoms: C9_9  and  C10_10 
REMARK    2  A    between atoms: C10_10  and  N12_12 
ROOT
HETATM    1  C1  UNL     1     -32.313  17.994  -1.578  1.00 20.00     0.061 C 
HETATM    2  C9  UNL     1     -33.445  17.196  -2.077  1.00 20.00     0.159 C 
HETATM    3  N11 UNL     1     -31.422  18.621  -1.182  1.00 20.00    -0.197 NA
ENDROOT
BRANCH   2   4
HETATM    4  C10 UNL     1     -33.443  17.096  -3.607  1.00 20.00     0.233 C 
HETATM    5  C8  UNL     1     -33.474  18.483  -4.242  1.00 20.00     0.044 C 
BRANCH   4   6
HETATM    6  N12 UNL     1     -34.571  16.311  -4.082  1.00 20.00     0.102 N 
HETATM    7  C4  UNL     1     -35.491  15.951  -3.007  1.00 20.00     0.274 C 
HETATM    8  C2  UNL     1     -36.421  14.984  -3.706  1.00 20.00     0.033 C 
HETATM    9  C3  UNL     1     -35.482  14.165  -4.579  1.00 20.00     0.043 C 
HETATM   10  C5  UNL     1     -34.260  15.078  -4.834  1.00 20.00     0.153 C 
HETATM   11  C6  UNL     1     -34.168  15.434  -6.326  1.00 20.00     0.049 C 
HETATM   12  C7  UNL     1     -32.972  14.350  -4.409  1.00 20.00     0.049 C 
ENDBRANCH   4   6
ENDBRANCH   2   4
TORSDOF 2
ENDMDL
MODEL 4
REMARK VINA RESULT:      -3.9      1.902      4.444
REMARK  2 active torsions:
REMARK  status: ('A' for Active; 'I' for Inactive)
REMARK    1  A    between atoms: C9_9  and  C10_10 
REMARK    2  A    between atoms: C10_10  and  N12_12 
ROOT
HETATM    1  C1  UNL     1     -32.565  17.814  -2.215  1.00 20.00     0.061 C 
HETATM    2  C9  UNL     1     -33.345  16.615  -2.562  1.00 20.00     0.159 C 
HETATM    3  N11 UNL     1     -31.949  18.758  -1.942  1.00 20.00    -0.197 NA
ENDROOT
BRANCH   2   4
HETATM    4  C10 UNL     1     -34.853  16.851  -2.415  1.00 20.00     0.233 C 
HETATM    5  C8  UNL     1     -35.252  16.908  -0.943  1.00 20.00     0.044 C 
BRANCH   4   6
HETATM    6  N12 UNL     1     -35.614  15.814  -3.092  1.00 20.00     0.102 N 
HETATM    7  C4  UNL     1     -34.773  14.704  -3.532  1.00 20.00     0.274 C 
HETATM    8  C2  UNL     1     -35.739  13.899  -4.374  1.00 20.00     0.033 C 
HETATM    9  C3  UNL     1     -36.519  14.965  -5.128  1.00 20.00     0.043 C 
HETATM   10  C5  UNL     1     -36.438  16.233  -4.245  1.00 20.00     0.153 C 
HETATM   11  C6  UNL     1     -37.836  16.606  -3.727  1.00 20.00     0.049 C 
HETATM   12  C7  UNL     1     -35.877  17.404  -5.070  1.00 20.00     0.049 C 
ENDBRANCH   4   6
ENDBRANCH   2   4
TORSDOF 2
ENDMDL
MODEL 5
REMARK VINA RESULT:      -3.8      1.571      2.748
REMARK  2 active torsions:
REMARK  status: ('A' for Active; 'I' for Inactive)
REMARK    1  A    between atoms: C9_9  and  C10_10 
REMARK    2  A    between atoms: C10_10  and  N12_12 
ROOT
HETATM    1  C1  UNL     1     -36.175  13.820  -4.816  1.00 20.00     0.061 C 
HETATM    2  C9  UNL     1     -36.584  15.183  -5.193  1.00 20.00     0.159 C 
HETATM    3  N11 UNL     1     -35.853  12.745  -4.521  1.00 20.00    -0.197 NA
ENDROOT
BRANCH   2   4
HETATM    4  C10 UNL     1     -36.663  16.112  -3.977  1.00 20.00     0.233 C 
HETATM    5  C8  UNL     1     -38.081  16.649  -3.795  1.00 20.00     0.044 C 
BRANCH   4   6
HETATM    6  N12 UNL     1     -35.729  17.219  -4.103  1.00 20.00     0.102 N 
HETATM    7  C4  UNL     1     -35.099  17.269  -5.420  1.00 20.00     0.274 C 
HETATM    8  C2  UNL     1     -34.046  18.336  -5.218  1.00 20.00     0.033 C 
HETATM    9  C3  UNL     1     -33.509  18.041  -3.826  1.00 20.00     0.043 C 
HETATM   10  C5  UNL     1     -34.657  17.310  -3.091  1.00 20.00     0.153 C 
HETATM   11  C6  UNL     1     -35.167  18.168  -1.923  1.00 20.00     0.049 C 
HETATM   12  C7  UNL     1     -34.148  15.965  -2.543  1.00 20.00     0.049 C 
ENDBRANCH   4   6
ENDBRANCH   2   4
TORSDOF 2
ENDMDL
MODEL 6
REMARK VINA RESULT:      -3.8      1.725      2.134
REMARK  2 active torsions:
REMARK  status: ('A' for Active; 'I' for Inactive)
REMARK    1  A    between atoms: C9_9  and  C10_10 
REMARK    2  A    between atoms: C10_10  and  N12_12 
ROOT
HETATM    1  C1  UNL     1     -35.823  14.512  -5.107  1.00 20.00     0.061 C 
HETATM    2  C9  UNL     1     -35.663  15.235  -3.834  1.00 20.00     0.159 C 
HETATM    3  N11 UNL     1     -35.951  13.942  -6.109  1.00 20.00    -0.197 NA
ENDROOT
BRANCH   2   4
HETATM    4  C10 UNL     1     -34.341  16.009  -3.779  1.00 20.00     0.233 C 
HETATM    5  C8  UNL     1     -33.158  15.085  -4.057  1.00 20.00     0.044 C 
BRANCH   4   6
HETATM    6  N12 UNL     1     -34.168  16.658  -2.490  1.00 20.00     0.102 N 
HETATM    7  C4  UNL     1     -35.241  16.334  -1.555  1.00 20.00     0.274 C 
HETATM    8  C2  UNL     1     -34.950  17.280  -0.410  1.00 20.00     0.033 C 
HETATM    9  C3  UNL     1     -34.546  18.567  -1.113  1.00 20.00     0.043 C 
HETATM   10  C5  UNL     1     -34.008  18.127  -2.495  1.00 20.00     0.153 C 
HETATM   11  C6  UNL     1     -32.510  18.448  -2.605  1.00 20.00     0.049 C 
HETATM   12  C7  UNL     1     -34.767  18.872  -3.607  1.00 20.00     0.049 C 
ENDBRANCH   4   6
ENDBRANCH   2   4
TORSDOF 2
ENDMDL
MODEL 7
REMARK VINA RESULT:      -3.7      2.119      4.065
REMARK  2 active torsions:
REMARK  status: ('A' for Active; 'I' for Inactive)
REMARK    1  A    between atoms: C9_9  and  C10_10 
REMARK    2  A    between atoms: C10_10  and  N12_12 
ROOT
HETATM    1  C1  UNL     1     -35.564  17.094  -0.672  1.00 20.00     0.061 C 
HETATM    2  C9  UNL     1     -35.425  16.858  -2.119  1.00 20.00     0.159 C 
HETATM    3  N11 UNL     1     -35.676  17.280   0.467  1.00 20.00    -0.197 NA
ENDROOT
BRANCH   2   4
HETATM    4  C10 UNL     1     -34.010  16.399  -2.489  1.00 20.00     0.233 C 
HETATM    5  C8  UNL     1     -32.963  17.356  -1.925  1.00 20.00     0.044 C 
BRANCH   4   6
HETATM    6  N12 UNL     1     -33.855  16.292  -3.931  1.00 20.00     0.102 N 
HETATM    7  C4  UNL     1     -34.806  17.130  -4.657  1.00 20.00     0.274 C 
HETATM    8  C2  UNL     1     -34.588  16.679  -6.084  1.00 20.00     0.033 C 
HETATM    9  C3  UNL     1     -34.429  15.172  -5.955  1.00 20.00     0.043 C 
HETATM   10  C5  UNL     1     -33.920  14.936  -4.513  1.00 20.00     0.153 C 
HETATM   11  C6  UNL     1     -32.497  14.356  -4.544  1.00 20.00     0.049 C 
HETATM   12  C7  UNL     1     -34.852  13.948  -3.790  1.00 20.00     0.049 C 
ENDBRANCH   4   6
ENDBRANCH   2   4
TORSDOF 2
ENDMDL
MODEL 8
REMARK VINA RESULT:      -3.7      1.618      3.398
REMARK  2 active torsions:
REMARK  status: ('A' for Active; 'I' for Inactive)
REMARK    1  A    between atoms: C9_9  and  C10_10 
REMARK    2  A    between atoms: C10_10  and  N12_12 
ROOT
HETATM    1  C1  UNL     1     -38.329  15.162  -4.378  1.00 20.00     0.061 C 
HETATM    2  C9  UNL     1     -37.699  16.492  -4.423  1.00 20.00     0.159 C 
HETATM    3  N11 UNL     1     -38.827  14.115  -4.344  1.00 20.00    -0.197 NA
ENDROOT
BRANCH   2   4
HETATM    4  C10 UNL     1     -36.337  16.503  -3.721  1.00 20.00     0.233 C 
HETATM    5  C8  UNL     1     -36.168  17.768  -2.883  1.00 20.00     0.044 C 
BRANCH   4   6
HETATM    6  N12 UNL     1     -35.252  16.400  -4.682  1.00 20.00     0.102 N 
HETATM    7  C4  UNL     1     -35.729  16.384  -6.062  1.00 20.00     0.274 C 
HETATM    8  C2  UNL     1     -34.464  16.056  -6.824  1.00 20.00     0.033 C 
HETATM    9  C3  UNL     1     -33.792  15.006  -5.952  1.00 20.00     0.043 C 
HETATM   10  C5  UNL     1     -34.318  15.266  -4.521  1.00 20.00     0.153 C 
HETATM   11  C6  UNL     1     -33.167  15.716  -3.608  1.00 20.00     0.049 C 
HETATM   12  C7  UNL     1     -34.936  13.975  -3.954  1.00 20.00     0.049 C 
ENDBRANCH   4   6
ENDBRANCH   2   4
TORSDOF 2
ENDMDL
MODEL 9
REMARK VINA RESULT:      -3.7      2.859      4.657
REMARK  2 active torsions:
REMARK  status: ('A' for Active; 'I' for Inactive)
REMARK    1  A    between atoms: C9_9  and  C10_10 
REMARK    2  A    between atoms: C10_10  and  N12_12 
ROOT
HETATM    1  C1  UNL     1     -34.859  17.757   1.128  1.00 20.00     0.061 C 
HETATM    2  C9  UNL     1     -35.656  17.419  -0.063  1.00 20.00     0.159 C 
HETATM    3  N11 UNL     1     -34.232  18.021   2.067  1.00 20.00    -0.197 NA
ENDROOT
BRANCH   2   4
HETATM    4  C10 UNL     1     -35.235  18.243  -1.285  1.00 20.00     0.233 C 
HETATM    5  C8  UNL     1     -36.379  19.136  -1.758  1.00 20.00     0.044 C 
BRANCH   4   6
HETATM    6  N12 UNL     1     -34.799  17.383  -2.372  1.00 20.00     0.102 N 
HETATM    7  C4  UNL     1     -35.077  15.972  -2.112  1.00 20.00     0.274 C 
HETATM    8  C2  UNL     1     -34.349  15.298  -3.254  1.00 20.00     0.033 C 
HETATM    9  C3  UNL     1     -33.057  16.093  -3.364  1.00 20.00     0.043 C 
HETATM   10  C5  UNL     1     -33.385  17.490  -2.786  1.00 20.00     0.153 C 
HETATM   11  C6  UNL     1     -33.286  18.555  -3.890  1.00 20.00     0.049 C 
HETATM   12  C7  UNL     1     -32.390  17.832  -1.663  1.00 20.00     0.049 C 
ENDBRANCH   4   6
ENDBRANCH   2   4
TORSDOF 2
ENDMDL
