MODEL 1
REMARK VINA RESULT:      -4.2      0.000      0.000
REMARK  3 active torsions:
REMARK  status: ('A' for Active; 'I' for Inactive)
REMARK    1  A    between atoms: C6_6  and  N10_10 
REMARK    2  A    between atoms: C7_7  and  C8_8 
REMARK    3  A    between atoms: C8_8  and  N10_10 
ROOT
HETATM    1  C1  UNL     1     -31.971  18.476  -1.186  1.00 20.00     0.013 C 
HETATM    2  C2  UNL     1     -32.582  17.822  -1.985  1.00 20.00    -0.087 C 
HETATM    3  C6  UNL     1     -33.324  17.025  -2.965  1.00 20.00     0.364 C 
ENDROOT
BRANCH   3   4
HETATM    4  N10 UNL     1     -34.118  15.988  -2.296  1.00 20.00     0.100 N 
HETATM    5  C5  UNL     1     -35.169  16.612  -1.482  1.00 20.00     0.311 C 
BRANCH   4   6
HETATM    6  C8  UNL     1     -34.684  15.066  -3.256  1.00 20.00     0.232 C 
HETATM    7  C4  UNL     1     -33.636  14.697  -4.302  1.00 20.00     0.044 C 
BRANCH   6   8
HETATM    8  C7  UNL     1     -35.930  15.663  -3.921  1.00 20.00     0.159 C 
HETATM    9  C3  UNL     1     -36.953  14.639  -4.187  1.00 20.00     0.061 C 
HETATM   10  N9  UNL     1     -37.760  13.832  -4.399  1.00 20.00    -0.197 NA
ENDBRANCH   6   8
ENDBRANCH   4   6
ENDBRANCH   3   4
TORSDOF 3
ENDMDL
MODEL 2
REMARK VINA RESULT:      -4.2     15.010     16.903
REMARK  3 active torsions:
REMARK  status: ('A' for Active; 'I' for Inactive)
REMARK    1  A    between atoms: C6_6  and  N10_10 
REMARK    2  A    between atoms: C7_7  and  C8_8 
REMARK    3  A    between atoms: C8_8  and  N10_10 
ROOT
HETATM    1  C1  UNL     1     -25.437  19.263   7.558  1.00 20.00     0.013 C 
HETATM    2  C2  UNL     1     -25.499  19.139   8.751  1.00 20.00    -0.087 C 
HETATM    3  C6  UNL     1     -25.580  18.989  10.206  1.00 20.00     0.364 C 
ENDROOT
BRANCH   3   4
HETATM    4  N10 UNL     1     -24.342  18.405  10.736  1.00 20.00     0.100 N 
HETATM    5  C5  UNL     1     -24.439  18.273  12.196  1.00 20.00     0.311 C 
BRANCH   4   6
HETATM    6  C8  UNL     1     -24.064  17.127  10.117  1.00 20.00     0.232 C 
HETATM    7  C4  UNL     1     -24.479  15.996  11.053  1.00 20.00     0.044 C 
BRANCH   6   8
HETATM    8  C7  UNL     1     -22.582  17.010   9.743  1.00 20.00     0.159 C 
HETATM    9  C3  UNL     1     -22.337  17.403   8.346  1.00 20.00     0.061 C 
HETATM   10  N9  UNL     1     -22.142  17.711   7.244  1.00 20.00    -0.197 NA
ENDBRANCH   6   8
ENDBRANCH   4   6
ENDBRANCH   3   4
TORSDOF 3
ENDMDL
MODEL 3
REMARK VINA RESULT:      -4.1      1.623      2.201
REMARK  3 active torsions:
REMARK  status: ('A' for Active; 'I' for Inactive)
REMARK    1  A    between atoms: C6_6  and  N10_10 
REMARK    2  A    between atoms: C7_7  and  C8_8 
REMARK    3  A    between atoms: C8_8  and  N10_10 
ROOT
HETATM    1  C1  UNL     1     -35.239  17.004  -0.784  1.00 20.00     0.013 C 
HETATM    2  C2  UNL     1     -34.530  16.722  -1.710  1.00 20.00    -0.087 C 
HETATM    3  C6  UNL     1     -33.659  16.377  -2.837  1.00 20.00     0.364 C 
ENDROOT
BRANCH   3   4
HETATM    4  N10 UNL     1     -34.451  16.145  -4.051  1.00 20.00     0.100 N 
HETATM    5  C5  UNL     1     -34.316  17.291  -4.960  1.00 20.00     0.311 C 
BRANCH   4   6
HETATM    6  C8  UNL     1     -34.054  14.916  -4.702  1.00 20.00     0.232 C 
HETATM    7  C4  UNL     1     -34.317  15.015  -6.202  1.00 20.00     0.044 C 
BRANCH   6   8
HETATM    8  C7  UNL     1     -34.788  13.713  -4.098  1.00 20.00     0.159 C 
HETATM    9  C3  UNL     1     -36.236  13.770  -4.356  1.00 20.00     0.061 C 
HETATM   10  N9  UNL     1     -37.379  13.812  -4.558  1.00 20.00    -0.197 NA
ENDBRANCH   6   8
ENDBRANCH   4   6
ENDBRANCH   3   4
TORSDOF 3
ENDMDL
MODEL 4
REMARK VINA RESULT:      -4.1     16.384     17.799
REMARK  3 active torsions:
REMARK  status: ('A' for Active; 'I' for Inactive)
REMARK    1  A    between atoms: C6_6  and  N10_10 
REMARK    2  A    between atoms: C7_7  and  C8_8 
REMARK    3  A    between atoms: C8_8  and  N10_10 
ROOT
HETATM    1  C1  UNL     1     -25.790  16.029  12.329  1.00 20.00     0.013 C 
HETATM    2  C2  UNL     1     -24.934  16.286  11.528  1.00 20.00    -0.087 C 
HETATM    3  C6  UNL     1     -23.890  16.595  10.547  1.00 20.00     0.364 C 
ENDROOT
BRANCH   3   4
HETATM    4  N10 UNL     1     -23.263  17.888  10.848  1.00 20.00     0.100 N 
HETATM    5  C5  UNL     1     -22.305  17.732  11.951  1.00 20.00     0.311 C 
BRANCH   4   6
HETATM    6  C8  UNL     1     -22.620  18.438   9.675  1.00 20.00     0.232 C 
HETATM    7  C4  UNL     1     -23.619  18.517   8.524  1.00 20.00     0.044 C 
BRANCH   6   8
HETATM    8  C7  UNL     1     -21.396  17.605   9.279  1.00 20.00     0.159 C 
HETATM    9  C3  UNL     1     -21.434  17.216   7.860  1.00 20.00     0.061 C 
HETATM   10  N9  UNL     1     -21.463  16.907   6.742  1.00 20.00    -0.197 NA
ENDBRANCH   6   8
ENDBRANCH   4   6
ENDBRANCH   3   4
TORSDOF 3
ENDMDL
MODEL 5
REMARK VINA RESULT:      -3.9      1.281      1.611
REMARK  3 active torsions:
REMARK  status: ('A' for Active; 'I' for Inactive)
REMARK    1  A    between atoms: C6_6  and  N10_10 
REMARK    2  A    between atoms: C7_7  and  C8_8 
REMARK    3  A    between atoms: C8_8  and  N10_10 
ROOT
HETATM    1  C1  UNL     1     -32.603  17.776  -1.871  1.00 20.00     0.013 C 
HETATM    2  C2  UNL     1     -33.629  17.154  -1.883  1.00 20.00    -0.087 C 
HETATM    3  C6  UNL     1     -34.882  16.394  -1.891  1.00 20.00     0.364 C 
ENDROOT
BRANCH   3   4
HETATM    4  N10 UNL     1     -35.423  16.302  -3.252  1.00 20.00     0.100 N 
HETATM    5  C5  UNL     1     -35.638  17.651  -3.795  1.00 20.00     0.311 C 
BRANCH   4   6
HETATM    6  C8  UNL     1     -34.548  15.532  -4.109  1.00 20.00     0.232 C 
HETATM    7  C4  UNL     1     -34.536  16.131  -5.512  1.00 20.00     0.044 C 
BRANCH   6   8
HETATM    8  C7  UNL     1     -34.975  14.060  -4.147  1.00 20.00     0.159 C 
HETATM    9  C3  UNL     1     -36.428  13.916  -4.334  1.00 20.00     0.061 C 
HETATM   10  N9  UNL     1     -37.574  13.800  -4.479  1.00 20.00    -0.197 NA
ENDBRANCH   6   8
ENDBRANCH   4   6
ENDBRANCH   3   4
TORSDOF 3
ENDMDL
MODEL 6
REMARK VINA RESULT:      -3.8      1.592      2.589
REMARK  3 active torsions:
REMARK  status: ('A' for Active; 'I' for Inactive)
REMARK    1  A    between atoms: C6_6  and  N10_10 
REMARK    2  A    between atoms: C7_7  and  C8_8 
REMARK    3  A    between atoms: C8_8  and  N10_10 
ROOT
HETATM    1  C1  UNL     1     -32.649  14.415  -4.540  1.00 20.00     0.013 C 
HETATM    2  C2  UNL     1     -33.093  15.242  -3.793  1.00 20.00    -0.087 C 
HETATM    3  C6  UNL     1     -33.631  16.253  -2.880  1.00 20.00     0.364 C 
ENDROOT
BRANCH   3   4
HETATM    4  N10 UNL     1     -35.054  16.009  -2.616  1.00 20.00     0.100 N 
HETATM    5  C5  UNL     1     -35.497  16.824  -1.477  1.00 20.00     0.311 C 
BRANCH   4   6
HETATM    6  C8  UNL     1     -35.854  16.280  -3.790  1.00 20.00     0.232 C 
HETATM    7  C4  UNL     1     -36.468  17.674  -3.689  1.00 20.00     0.044 C 
BRANCH   6   8
HETATM    8  C7  UNL     1     -36.943  15.217  -3.970  1.00 20.00     0.159 C 
HETATM    9  C3  UNL     1     -36.377  13.910  -4.341  1.00 20.00     0.061 C 
HETATM   10  N9  UNL     1     -35.932  12.879  -4.635  1.00 20.00    -0.197 NA
ENDBRANCH   6   8
ENDBRANCH   4   6
ENDBRANCH   3   4
TORSDOF 3
ENDMDL
MODEL 7
REMARK VINA RESULT:      -3.8      1.232      1.901
REMARK  3 active torsions:
REMARK  status: ('A' for Active; 'I' for Inactive)
REMARK    1  A    between atoms: C6_6  and  N10_10 
REMARK    2  A    between atoms: C7_7  and  C8_8 
REMARK    3  A    between atoms: C8_8  and  N10_10 
ROOT
HETATM    1  C1  UNL     1     -32.584  17.855  -1.966  1.00 20.00     0.013 C 
HETATM    2  C2  UNL     1     -33.271  16.937  -2.319  1.00 20.00    -0.087 C 
HETATM    3  C6  UNL     1     -34.112  15.815  -2.745  1.00 20.00     0.364 C 
ENDROOT
BRANCH   3   4
HETATM    4  N10 UNL     1     -33.915  15.533  -4.173  1.00 20.00     0.100 N 
HETATM    5  C5  UNL     1     -32.749  14.659  -4.352  1.00 20.00     0.311 C 
BRANCH   4   6
HETATM    6  C8  UNL     1     -35.101  14.942  -4.753  1.00 20.00     0.232 C 
HETATM    7  C4  UNL     1     -35.026  15.016  -6.275  1.00 20.00     0.044 C 
BRANCH   6   8
HETATM    8  C7  UNL     1     -36.368  15.632  -4.235  1.00 20.00     0.159 C 
HETATM    9  C3  UNL     1     -37.542  14.748  -4.309  1.00 20.00     0.061 C 
HETATM   10  N9  UNL     1     -38.470  14.052  -4.368  1.00 20.00    -0.197 NA
ENDBRANCH   6   8
ENDBRANCH   4   6
ENDBRANCH   3   4
TORSDOF 3
ENDMDL
MODEL 8
REMARK VINA RESULT:      -3.8     10.577     13.333
REMARK  3 active torsions:
REMARK  status: ('A' for Active; 'I' for Inactive)
REMARK    1  A    between atoms: C6_6  and  N10_10 
REMARK    2  A    between atoms: C7_7  and  C8_8 
REMARK    3  A    between atoms: C8_8  and  N10_10 
ROOT
HETATM    1  C1  UNL     1     -42.690   2.856  -2.897  1.00 20.00     0.013 C 
HETATM    2  C2  UNL     1     -42.948   3.923  -2.410  1.00 20.00    -0.087 C 
HETATM    3  C6  UNL     1     -43.267   5.225  -1.820  1.00 20.00     0.364 C 
ENDROOT
BRANCH   3   4
HETATM    4  N10 UNL     1     -42.396   5.501  -0.672  1.00 20.00     0.100 N 
HETATM    5  C5  UNL     1     -40.988   5.376  -1.072  1.00 20.00     0.311 C 
BRANCH   4   6
HETATM    6  C8  UNL     1     -42.664   6.811  -0.119  1.00 20.00     0.232 C 
HETATM    7  C4  UNL     1     -43.329   7.692  -1.173  1.00 20.00     0.044 C 
BRANCH   6   8
HETATM    8  C7  UNL     1     -41.377   7.461   0.402  1.00 20.00     0.159 C 
HETATM    9  C3  UNL     1     -41.453   8.930   0.367  1.00 20.00     0.061 C 
HETATM   10  N9  UNL     1     -41.509  10.089   0.339  1.00 20.00    -0.197 NA
ENDBRANCH   6   8
ENDBRANCH   4   6
ENDBRANCH   3   4
TORSDOF 3
ENDMDL
MODEL 9
REMARK VINA RESULT:      -3.8     15.486     17.023
REMARK  3 active torsions:
REMARK  status: ('A' for Active; 'I' for Inactive)
REMARK    1  A    between atoms: C6_6  and  N10_10 
REMARK    2  A    between atoms: C7_7  and  C8_8 
REMARK    3  A    between atoms: C8_8  and  N10_10 
ROOT
HETATM    1  C1  UNL     1     -27.480  17.899  12.247  1.00 20.00     0.013 C 
HETATM    2  C2  UNL     1     -26.310  18.134  12.120  1.00 20.00    -0.087 C 
HETATM    3  C6  UNL     1     -24.882  18.426  11.968  1.00 20.00     0.364 C 
ENDROOT
BRANCH   3   4
HETATM    4  N10 UNL     1     -24.178  17.279  11.383  1.00 20.00     0.100 N 
HETATM    5  C5  UNL     1     -24.797  16.028  11.842  1.00 20.00     0.311 C 
BRANCH   4   6
HETATM    6  C8  UNL     1     -24.172  17.356   9.938  1.00 20.00     0.232 C 
HETATM    7  C4  UNL     1     -22.881  16.752   9.392  1.00 20.00     0.044 C 
BRANCH   6   8
HETATM    8  C7  UNL     1     -24.340  18.804   9.465  1.00 20.00     0.159 C 
HETATM    9  C3  UNL     1     -24.217  18.920   8.003  1.00 20.00     0.061 C 
HETATM   10  N9  UNL     1     -24.119  19.014   6.850  1.00 20.00    -0.197 NA
ENDBRANCH   6   8
ENDBRANCH   4   6
ENDBRANCH   3   4
TORSDOF 3
ENDMDL
