MODEL 1
REMARK VINA RESULT:      -4.3      0.000      0.000
REMARK  3 active torsions:
REMARK  status: ('A' for Active; 'I' for Inactive)
REMARK    1  A    between atoms: C5_5  and  C7_7 
REMARK    2  A    between atoms: C6_6  and  C7_7 
REMARK    3  A    between atoms: C7_7  and  O8_8 
ROOT
HETATM    1  C1  UNL     1     -32.293   7.150   2.220  1.00 20.00     0.012 C 
HETATM    2  C2  UNL     1     -32.971   6.240   2.610  1.00 20.00    -0.115 C 
HETATM    3  C5  UNL     1     -33.802   5.117   3.079  1.00 20.00     0.130 C 
ENDROOT
BRANCH   3   4
HETATM    4  C7  UNL     1     -34.633   5.459   4.334  1.00 20.00     0.064 C 
HETATM    5  C4  UNL     1     -34.343   4.428   5.434  1.00 20.00     0.046 C 
BRANCH   4   6
HETATM    6  C6  UNL     1     -34.431   6.898   4.859  1.00 20.00     0.034 C 
HETATM    7  C3  UNL     1     -33.720   7.012   6.199  1.00 20.00     0.008 C 
ENDBRANCH   4   6
BRANCH   4   8
HETATM    8  O8  UNL     1     -36.025   5.336   4.007  1.00 20.00    -0.389 OA
HETATM    9  H20 UNL     1     -36.509   5.602   4.801  1.00 20.00     0.210 HD
ENDBRANCH   4   8
ENDBRANCH   3   4
TORSDOF 3
ENDMDL
MODEL 2
REMARK VINA RESULT:      -4.1     16.173     16.938
REMARK  3 active torsions:
REMARK  status: ('A' for Active; 'I' for Inactive)
REMARK    1  A    between atoms: C5_5  and  C7_7 
REMARK    2  A    between atoms: C6_6  and  C7_7 
REMARK    3  A    between atoms: C7_7  and  O8_8 
ROOT
HETATM    1  C1  UNL     1     -23.966  19.164   8.723  1.00 20.00     0.012 C 
HETATM    2  C2  UNL     1     -23.892  18.137   9.340  1.00 20.00    -0.115 C 
HETATM    3  C5  UNL     1     -23.805  16.872  10.090  1.00 20.00     0.130 C 
ENDROOT
BRANCH   3   4
HETATM    4  C7  UNL     1     -23.549  17.076  11.598  1.00 20.00     0.064 C 
HETATM    5  C4  UNL     1     -22.180  17.742  11.798  1.00 20.00     0.046 C 
BRANCH   4   6
HETATM    6  C6  UNL     1     -24.657  17.863  12.332  1.00 20.00     0.034 C 
HETATM    7  C3  UNL     1     -26.035  17.218  12.322  1.00 20.00     0.008 C 
ENDBRANCH   4   6
BRANCH   4   8
HETATM    8  O8  UNL     1     -23.478  15.788  12.227  1.00 20.00    -0.389 OA
HETATM    9  H20 UNL     1     -24.128  15.234  11.772  1.00 20.00     0.210 HD
ENDBRANCH   4   8
ENDBRANCH   3   4
TORSDOF 3
ENDMDL
MODEL 3
REMARK VINA RESULT:      -4.1     11.705     12.996
REMARK  3 active torsions:
REMARK  status: ('A' for Active; 'I' for Inactive)
REMARK    1  A    between atoms: C5_5  and  C7_7 
REMARK    2  A    between atoms: C6_6  and  C7_7 
REMARK    3  A    between atoms: C7_7  and  O8_8 
ROOT
HETATM    1  C1  UNL     1     -35.087  16.532  -1.618  1.00 20.00     0.012 C 
HETATM    2  C2  UNL     1     -34.248  16.221  -2.418  1.00 20.00    -0.115 C 
HETATM    3  C5  UNL     1     -33.211  15.847  -3.395  1.00 20.00     0.130 C 
ENDROOT
BRANCH   3   4
HETATM    4  C7  UNL     1     -33.746  14.963  -4.541  1.00 20.00     0.064 C 
HETATM    5  C4  UNL     1     -34.720  13.922  -3.970  1.00 20.00     0.046 C 
BRANCH   4   6
HETATM    6  C6  UNL     1     -34.397  15.749  -5.701  1.00 20.00     0.034 C 
HETATM    7  C3  UNL     1     -34.083  15.235  -7.098  1.00 20.00     0.008 C 
ENDBRANCH   4   6
BRANCH   4   8
HETATM    8  O8  UNL     1     -32.647  14.235  -5.108  1.00 20.00    -0.389 OA
HETATM    9  H20 UNL     1     -32.990  13.354  -5.313  1.00 20.00     0.210 HD
ENDBRANCH   4   8
ENDBRANCH   3   4
TORSDOF 3
ENDMDL
MODEL 4
REMARK VINA RESULT:      -4.0     11.686     12.545
REMARK  3 active torsions:
REMARK  status: ('A' for Active; 'I' for Inactive)
REMARK    1  A    between atoms: C5_5  and  C7_7 
REMARK    2  A    between atoms: C6_6  and  C7_7 
REMARK    3  A    between atoms: C7_7  and  O8_8 
ROOT
HETATM    1  C1  UNL     1     -34.979  16.255  -1.961  1.00 20.00     0.012 C 
HETATM    2  C2  UNL     1     -34.759  15.446  -2.820  1.00 20.00    -0.115 C 
HETATM    3  C5  UNL     1     -34.478  14.455  -3.874  1.00 20.00     0.130 C 
ENDROOT
BRANCH   3   4
HETATM    4  C7  UNL     1     -35.727  14.073  -4.697  1.00 20.00     0.064 C 
HETATM    5  C4  UNL     1     -36.974  14.693  -4.050  1.00 20.00     0.046 C 
BRANCH   4   6
HETATM    6  C6  UNL     1     -35.640  14.443  -6.194  1.00 20.00     0.034 C 
HETATM    7  C3  UNL     1     -34.322  15.055  -6.643  1.00 20.00     0.008 C 
ENDBRANCH   4   6
BRANCH   4   8
HETATM    8  O8  UNL     1     -35.894  12.649  -4.637  1.00 20.00    -0.389 OA
HETATM    9  H20 UNL     1     -35.062  12.270  -4.953  1.00 20.00     0.210 HD
ENDBRANCH   4   8
ENDBRANCH   3   4
TORSDOF 3
ENDMDL
MODEL 5
REMARK VINA RESULT:      -4.0     15.929     16.832
REMARK  3 active torsions:
REMARK  status: ('A' for Active; 'I' for Inactive)
REMARK    1  A    between atoms: C5_5  and  C7_7 
REMARK    2  A    between atoms: C6_6  and  C7_7 
REMARK    3  A    between atoms: C7_7  and  O8_8 
ROOT
HETATM    1  C1  UNL     1     -24.906  18.890   7.480  1.00 20.00     0.012 C 
HETATM    2  C2  UNL     1     -24.048  18.827   8.317  1.00 20.00    -0.115 C 
HETATM    3  C5  UNL     1     -22.990  18.758   9.340  1.00 20.00     0.130 C 
ENDROOT
BRANCH   3   4
HETATM    4  C7  UNL     1     -22.995  17.433  10.131  1.00 20.00     0.064 C 
HETATM    5  C4  UNL     1     -22.247  17.628  11.458  1.00 20.00     0.046 C 
BRANCH   4   6
HETATM    6  C6  UNL     1     -24.401  16.841  10.373  1.00 20.00     0.034 C 
HETATM    7  C3  UNL     1     -24.526  15.920  11.577  1.00 20.00     0.008 C 
ENDBRANCH   4   6
BRANCH   4   8
HETATM    8  O8  UNL     1     -22.263  16.451   9.383  1.00 20.00    -0.389 OA
HETATM    9  H20 UNL     1     -22.474  16.614   8.453  1.00 20.00     0.210 HD
ENDBRANCH   4   8
ENDBRANCH   3   4
TORSDOF 3
ENDMDL
MODEL 6
REMARK VINA RESULT:      -3.9      8.757      9.358
REMARK  3 active torsions:
REMARK  status: ('A' for Active; 'I' for Inactive)
REMARK    1  A    between atoms: C5_5  and  C7_7 
REMARK    2  A    between atoms: C6_6  and  C7_7 
REMARK    3  A    between atoms: C7_7  and  O8_8 
ROOT
HETATM    1  C1  UNL     1     -41.241   9.684   0.293  1.00 20.00     0.012 C 
HETATM    2  C2  UNL     1     -42.063   8.820   0.430  1.00 20.00    -0.115 C 
HETATM    3  C5  UNL     1     -43.079   7.767   0.601  1.00 20.00     0.130 C 
ENDROOT
BRANCH   3   4
HETATM    4  C7  UNL     1     -42.485   6.343   0.595  1.00 20.00     0.064 C 
HETATM    5  C4  UNL     1     -43.267   5.460   1.579  1.00 20.00     0.046 C 
BRANCH   4   6
HETATM    6  C6  UNL     1     -42.417   5.686  -0.801  1.00 20.00     0.034 C 
HETATM    7  C3  UNL     1     -41.042   5.192  -1.226  1.00 20.00     0.008 C 
ENDBRANCH   4   6
BRANCH   4   8
HETATM    8  O8  UNL     1     -41.136   6.409   1.081  1.00 20.00    -0.389 OA
HETATM    9  H20 UNL     1     -40.669   7.012   0.486  1.00 20.00     0.210 HD
ENDBRANCH   4   8
ENDBRANCH   3   4
TORSDOF 3
ENDMDL
MODEL 7
REMARK VINA RESULT:      -3.8     11.682     12.692
REMARK  3 active torsions:
REMARK  status: ('A' for Active; 'I' for Inactive)
REMARK    1  A    between atoms: C5_5  and  C7_7 
REMARK    2  A    between atoms: C6_6  and  C7_7 
REMARK    3  A    between atoms: C7_7  and  O8_8 
ROOT
HETATM    1  C1  UNL     1     -37.239  14.428  -4.322  1.00 20.00     0.012 C 
HETATM    2  C2  UNL     1     -36.070  14.202  -4.170  1.00 20.00    -0.115 C 
HETATM    3  C5  UNL     1     -34.637  13.917  -3.975  1.00 20.00     0.130 C 
ENDROOT
BRANCH   3   4
HETATM    4  C7  UNL     1     -33.715  14.943  -4.667  1.00 20.00     0.064 C 
HETATM    5  C4  UNL     1     -34.055  15.008  -6.163  1.00 20.00     0.046 C 
BRANCH   4   6
HETATM    6  C6  UNL     1     -33.740  16.351  -4.033  1.00 20.00     0.034 C 
HETATM    7  C3  UNL     1     -33.671  16.388  -2.514  1.00 20.00     0.008 C 
ENDBRANCH   4   6
BRANCH   4   8
HETATM    8  O8  UNL     1     -32.361  14.477  -4.571  1.00 20.00    -0.389 OA
HETATM    9  H20 UNL     1     -31.954  14.986  -3.856  1.00 20.00     0.210 HD
ENDBRANCH   4   8
ENDBRANCH   3   4
TORSDOF 3
ENDMDL
MODEL 8
REMARK VINA RESULT:      -3.8     16.075     16.862
REMARK  3 active torsions:
REMARK  status: ('A' for Active; 'I' for Inactive)
REMARK    1  A    between atoms: C5_5  and  C7_7 
REMARK    2  A    between atoms: C6_6  and  C7_7 
REMARK    3  A    between atoms: C7_7  and  O8_8 
ROOT
HETATM    1  C1  UNL     1     -21.941  17.485   7.928  1.00 20.00     0.012 C 
HETATM    2  C2  UNL     1     -22.818  18.027   8.543  1.00 20.00    -0.115 C 
HETATM    3  C5  UNL     1     -23.894  18.700   9.291  1.00 20.00     0.130 C 
ENDROOT
BRANCH   3   4
HETATM    4  C7  UNL     1     -24.203  18.030  10.646  1.00 20.00     0.064 C 
HETATM    5  C4  UNL     1     -25.529  18.577  11.195  1.00 20.00     0.046 C 
BRANCH   4   6
HETATM    6  C6  UNL     1     -24.219  16.486  10.605  1.00 20.00     0.034 C 
HETATM    7  C3  UNL     1     -24.763  15.803  11.850  1.00 20.00     0.008 C 
ENDBRANCH   4   6
BRANCH   4   8
HETATM    8  O8  UNL     1     -23.181  18.403  11.583  1.00 20.00    -0.389 OA
HETATM    9  H20 UNL     1     -23.288  19.353  11.728  1.00 20.00     0.210 HD
ENDBRANCH   4   8
ENDBRANCH   3   4
TORSDOF 3
ENDMDL
MODEL 9
REMARK VINA RESULT:      -3.8     16.288     17.051
REMARK  3 active torsions:
REMARK  status: ('A' for Active; 'I' for Inactive)
REMARK    1  A    between atoms: C5_5  and  C7_7 
REMARK    2  A    between atoms: C6_6  and  C7_7 
REMARK    3  A    between atoms: C7_7  and  O8_8 
ROOT
HETATM    1  C1  UNL     1     -25.091  19.195   6.992  1.00 20.00     0.012 C 
HETATM    2  C2  UNL     1     -25.025  19.052   8.182  1.00 20.00    -0.115 C 
HETATM    3  C5  UNL     1     -24.952  18.884   9.644  1.00 20.00     0.130 C 
ENDROOT
BRANCH   3   4
HETATM    4  C7  UNL     1     -23.675  18.154  10.109  1.00 20.00     0.064 C 
HETATM    5  C4  UNL     1     -23.918  16.637  10.088  1.00 20.00     0.046 C 
BRANCH   4   6
HETATM    6  C6  UNL     1     -22.405  18.519   9.308  1.00 20.00     0.034 C 
HETATM    7  C3  UNL     1     -21.805  17.392   8.481  1.00 20.00     0.008 C 
ENDBRANCH   4   6
BRANCH   4   8
HETATM    8  O8  UNL     1     -23.415  18.513  11.473  1.00 20.00    -0.389 OA
HETATM    9  H20 UNL     1     -23.654  17.739  12.002  1.00 20.00     0.210 HD
ENDBRANCH   4   8
ENDBRANCH   3   4
TORSDOF 3
ENDMDL
