MODEL 1
REMARK VINA RESULT:      -3.8      0.000      0.000
REMARK  1 active torsions:
REMARK  status: ('A' for Active; 'I' for Inactive)
REMARK    1  A    between atoms: C1_1  and  C2_2 
ROOT
HETATM    1  C2  UNL     1     -34.799   5.223   4.384  1.00 20.00     0.294 C 
HETATM    2  F4  UNL     1     -34.423   3.977   3.991  1.00 20.00    -0.230 F 
HETATM    3 CL5  UNL     1     -33.682   6.414   3.694  1.00 20.00    -0.087 Cl
ENDROOT
BRANCH   1   4
HETATM    4  C1  UNL     1     -34.795   5.278   5.895  1.00 20.00     0.275 C 
HETATM    5  F3  UNL     1     -34.486   6.539   6.299  1.00 20.00    -0.251 F 
ENDBRANCH   1   4
TORSDOF 1
ENDMDL
MODEL 2
REMARK VINA RESULT:      -3.7      1.659      1.784
REMARK  1 active torsions:
REMARK  status: ('A' for Active; 'I' for Inactive)
REMARK    1  A    between atoms: C1_1  and  C2_2 
ROOT
HETATM    1  C2  UNL     1     -34.963   5.412   4.863  1.00 20.00     0.294 C 
HETATM    2  F4  UNL     1     -35.196   4.962   6.124  1.00 20.00    -0.230 F 
HETATM    3 CL5  UNL     1     -34.251   4.103   3.900  1.00 20.00    -0.087 Cl
ENDROOT
BRANCH   1   4
HETATM    4  C1  UNL     1     -34.036   6.605   4.936  1.00 20.00     0.275 C 
HETATM    5  F3  UNL     1     -34.061   7.118   6.194  1.00 20.00    -0.251 F 
ENDBRANCH   1   4
TORSDOF 1
ENDMDL
MODEL 3
REMARK VINA RESULT:      -3.7      1.265      2.514
REMARK  1 active torsions:
REMARK  status: ('A' for Active; 'I' for Inactive)
REMARK    1  A    between atoms: C1_1  and  C2_2 
ROOT
HETATM    1  C2  UNL     1     -34.418   5.283   5.693  1.00 20.00     0.294 C 
HETATM    2  F4  UNL     1     -35.470   5.141   6.543  1.00 20.00    -0.230 F 
HETATM    3 CL5  UNL     1     -33.817   6.949   5.785  1.00 20.00    -0.087 Cl
ENDROOT
BRANCH   1   4
HETATM    4  C1  UNL     1     -34.875   4.942   4.293  1.00 20.00     0.275 C 
HETATM    5  F3  UNL     1     -34.271   3.791   3.890  1.00 20.00    -0.251 F 
ENDBRANCH   1   4
TORSDOF 1
ENDMDL
MODEL 4
REMARK VINA RESULT:      -3.7      2.056      2.749
REMARK  1 active torsions:
REMARK  status: ('A' for Active; 'I' for Inactive)
REMARK    1  A    between atoms: C1_1  and  C2_2 
ROOT
HETATM    1  C2  UNL     1     -34.922   4.988   4.459  1.00 20.00     0.294 C 
HETATM    2  F4  UNL     1     -36.123   5.475   4.047  1.00 20.00    -0.230 F 
HETATM    3 CL5  UNL     1     -34.586   5.575   6.098  1.00 20.00    -0.087 Cl
ENDROOT
BRANCH   1   4
HETATM    4  C1  UNL     1     -33.855   5.439   3.486  1.00 20.00     0.275 C 
HETATM    5  F3  UNL     1     -33.491   4.391   2.700  1.00 20.00    -0.251 F 
ENDBRANCH   1   4
TORSDOF 1
ENDMDL
MODEL 5
REMARK VINA RESULT:      -3.6      1.837      2.348
REMARK  1 active torsions:
REMARK  status: ('A' for Active; 'I' for Inactive)
REMARK    1  A    between atoms: C1_1  and  C2_2 
ROOT
HETATM    1  C2  UNL     1     -34.380   6.160   4.369  1.00 20.00     0.294 C 
HETATM    2  F4  UNL     1     -33.357   6.134   3.474  1.00 20.00    -0.230 F 
HETATM    3 CL5  UNL     1     -33.805   6.868   5.889  1.00 20.00    -0.087 Cl
ENDROOT
BRANCH   1   4
HETATM    4  C1  UNL     1     -34.881   4.749   4.576  1.00 20.00     0.275 C 
HETATM    5  F3  UNL     1     -34.169   3.898   3.790  1.00 20.00    -0.251 F 
ENDBRANCH   1   4
TORSDOF 1
ENDMDL
MODEL 6
REMARK VINA RESULT:      -3.5      1.771      2.779
REMARK  1 active torsions:
REMARK  status: ('A' for Active; 'I' for Inactive)
REMARK    1  A    between atoms: C1_1  and  C2_2 
ROOT
HETATM    1  C2  UNL     1     -34.461   6.031   4.508  1.00 20.00     0.294 C 
HETATM    2  F4  UNL     1     -33.440   6.921   4.625  1.00 20.00    -0.230 F 
HETATM    3 CL5  UNL     1     -34.749   5.265   6.081  1.00 20.00    -0.087 Cl
ENDROOT
BRANCH   1   4
HETATM    4  C1  UNL     1     -34.094   5.005   3.458  1.00 20.00     0.275 C 
HETATM    5  F3  UNL     1     -34.202   3.758   3.990  1.00 20.00    -0.251 F 
ENDBRANCH   1   4
TORSDOF 1
ENDMDL
MODEL 7
REMARK VINA RESULT:      -3.5      1.986      2.440
REMARK  1 active torsions:
REMARK  status: ('A' for Active; 'I' for Inactive)
REMARK    1  A    between atoms: C1_1  and  C2_2 
ROOT
HETATM    1  C2  UNL     1     -33.515   5.463   2.632  1.00 20.00     0.294 C 
HETATM    2  F4  UNL     1     -32.696   4.416   2.348  1.00 20.00    -0.230 F 
HETATM    3 CL5  UNL     1     -32.530   6.901   2.957  1.00 20.00    -0.087 Cl
ENDROOT
BRANCH   1   4
HETATM    4  C1  UNL     1     -34.370   5.102   3.827  1.00 20.00     0.275 C 
HETATM    5  F3  UNL     1     -34.227   3.778   4.099  1.00 20.00    -0.251 F 
ENDBRANCH   1   4
TORSDOF 1
ENDMDL
MODEL 8
REMARK VINA RESULT:      -3.4      1.935      3.037
REMARK  1 active torsions:
REMARK  status: ('A' for Active; 'I' for Inactive)
REMARK    1  A    between atoms: C1_1  and  C2_2 
ROOT
HETATM    1  C2  UNL     1     -34.142   6.484   4.414  1.00 20.00     0.294 C 
HETATM    2  F4  UNL     1     -33.501   6.899   5.539  1.00 20.00    -0.230 F 
HETATM    3 CL5  UNL     1     -34.856   4.888   4.705  1.00 20.00    -0.087 Cl
ENDROOT
BRANCH   1   4
HETATM    4  C1  UNL     1     -33.147   6.441   3.276  1.00 20.00     0.275 C 
HETATM    5  F3  UNL     1     -33.257   5.251   2.627  1.00 20.00    -0.251 F 
ENDBRANCH   1   4
TORSDOF 1
ENDMDL
MODEL 9
REMARK VINA RESULT:      -3.3      1.644      1.910
REMARK  1 active torsions:
REMARK  status: ('A' for Active; 'I' for Inactive)
REMARK    1  A    between atoms: C1_1  and  C2_2 
ROOT
HETATM    1  C2  UNL     1     -33.928   5.769   4.121  1.00 20.00     0.294 C 
HETATM    2  F4  UNL     1     -34.200   7.094   3.975  1.00 20.00    -0.230 F 
HETATM    3 CL5  UNL     1     -33.436   5.100   2.554  1.00 20.00    -0.087 Cl
ENDROOT
BRANCH   1   4
HETATM    4  C1  UNL     1     -35.163   5.075   4.650  1.00 20.00     0.275 C 
HETATM    5  F3  UNL     1     -35.165   5.131   6.008  1.00 20.00    -0.251 F 
ENDBRANCH   1   4
TORSDOF 1
ENDMDL
