MODEL 1
REMARK VINA RESULT:      -5.2      0.000      0.000
REMARK  3 active torsions:
REMARK  status: ('A' for Active; 'I' for Inactive)
REMARK    1  A    between atoms: C2_2  and  C3_3 
REMARK    2  A    between atoms: C2_2  and  C4_4 
REMARK    3  A    between atoms: C3_3  and  N5_5 
ROOT
HETATM    1  C1  UNL     1     -32.507   7.767   1.671  1.00 20.00     0.332 C 
HETATM    2  N5  UNL     1     -32.283   7.209   2.680  1.00 20.00    -0.247 NA
HETATM    3  O6  UNL     1     -32.728   8.327   0.661  1.00 20.00    -0.260 OA
ENDROOT
BRANCH   2   4
HETATM    4  C3  UNL     1     -33.191   6.099   2.971  1.00 20.00     0.162 C 
BRANCH   4   5
HETATM    5  C2  UNL     1     -33.951   6.410   4.254  1.00 20.00     0.139 C 
BRANCH   5   6
HETATM    6  C4  UNL     1     -34.901   5.294   4.632  1.00 20.00     0.389 C 
HETATM    7  F7  UNL     1     -35.074   5.228   5.968  1.00 20.00    -0.171 F 
HETATM    8  F8  UNL     1     -36.113   5.493   4.070  1.00 20.00    -0.171 F 
HETATM    9  F9  UNL     1     -34.444   4.095   4.208  1.00 20.00    -0.171 F 
ENDBRANCH   5   6
ENDBRANCH   4   5
ENDBRANCH   2   4
TORSDOF 3
ENDMDL
MODEL 2
REMARK VINA RESULT:      -4.9      1.943      2.328
REMARK  3 active torsions:
REMARK  status: ('A' for Active; 'I' for Inactive)
REMARK    1  A    between atoms: C2_2  and  C3_3 
REMARK    2  A    between atoms: C2_2  and  C4_4 
REMARK    3  A    between atoms: C3_3  and  N5_5 
ROOT
HETATM    1  C1  UNL     1     -32.961   6.063   2.743  1.00 20.00     0.332 C 
HETATM    2  N5  UNL     1     -33.608   5.105   2.539  1.00 20.00    -0.247 NA
HETATM    3  O6  UNL     1     -32.312   7.023   2.945  1.00 20.00    -0.260 OA
ENDROOT
BRANCH   2   4
HETATM    4  C3  UNL     1     -34.100   4.440   3.746  1.00 20.00     0.162 C 
BRANCH   4   5
HETATM    5  C2  UNL     1     -35.027   5.392   4.489  1.00 20.00     0.139 C 
BRANCH   5   6
HETATM    6  C4  UNL     1     -34.560   5.645   5.905  1.00 20.00     0.389 C 
HETATM    7  F7  UNL     1     -35.602   5.848   6.738  1.00 20.00    -0.171 F 
HETATM    8  F8  UNL     1     -33.862   4.586   6.371  1.00 20.00    -0.171 F 
HETATM    9  F9  UNL     1     -33.754   6.728   5.971  1.00 20.00    -0.171 F 
ENDBRANCH   5   6
ENDBRANCH   4   5
ENDBRANCH   2   4
TORSDOF 3
ENDMDL
MODEL 3
REMARK VINA RESULT:      -4.5      3.428      4.133
REMARK  3 active torsions:
REMARK  status: ('A' for Active; 'I' for Inactive)
REMARK    1  A    between atoms: C2_2  and  C3_3 
REMARK    2  A    between atoms: C2_2  and  C4_4 
REMARK    3  A    between atoms: C3_3  and  N5_5 
ROOT
HETATM    1  C1  UNL     1     -34.792   5.114   5.191  1.00 20.00     0.332 C 
HETATM    2  N5  UNL     1     -34.444   5.977   5.908  1.00 20.00    -0.247 NA
HETATM    3  O6  UNL     1     -35.142   4.249   4.476  1.00 20.00    -0.260 OA
ENDROOT
BRANCH   2   4
HETATM    4  C3  UNL     1     -33.504   6.922   5.302  1.00 20.00     0.162 C 
BRANCH   4   5
HETATM    5  C2  UNL     1     -33.860   7.095   3.832  1.00 20.00     0.139 C 
BRANCH   5   6
HETATM    6  C4  UNL     1     -32.658   6.900   2.934  1.00 20.00     0.389 C 
HETATM    7  F7  UNL     1     -32.488   5.599   2.617  1.00 20.00    -0.171 F 
HETATM    8  F8  UNL     1     -32.811   7.587   1.781  1.00 20.00    -0.171 F 
HETATM    9  F9  UNL     1     -31.526   7.338   3.525  1.00 20.00    -0.171 F 
ENDBRANCH   5   6
ENDBRANCH   4   5
ENDBRANCH   2   4
TORSDOF 3
ENDMDL
MODEL 4
REMARK VINA RESULT:      -4.4      3.668      4.306
REMARK  3 active torsions:
REMARK  status: ('A' for Active; 'I' for Inactive)
REMARK    1  A    between atoms: C2_2  and  C3_3 
REMARK    2  A    between atoms: C2_2  and  C4_4 
REMARK    3  A    between atoms: C3_3  and  N5_5 
ROOT
HETATM    1  C1  UNL     1     -34.846   5.184   5.470  1.00 20.00     0.332 C 
HETATM    2  N5  UNL     1     -34.857   4.488   4.525  1.00 20.00    -0.247 NA
HETATM    3  O6  UNL     1     -34.836   5.879   6.419  1.00 20.00    -0.260 OA
ENDROOT
BRANCH   2   4
HETATM    4  C3  UNL     1     -34.114   5.014   3.379  1.00 20.00     0.162 C 
BRANCH   4   5
HETATM    5  C2  UNL     1     -33.796   6.482   3.631  1.00 20.00     0.139 C 
BRANCH   5   6
HETATM    6  C4  UNL     1     -32.645   6.965   2.777  1.00 20.00     0.389 C 
HETATM    7  F7  UNL     1     -33.038   7.937   1.927  1.00 20.00    -0.171 F 
HETATM    8  F8  UNL     1     -31.660   7.470   3.551  1.00 20.00    -0.171 F 
HETATM    9  F9  UNL     1     -32.117   5.958   2.047  1.00 20.00    -0.171 F 
ENDBRANCH   5   6
ENDBRANCH   4   5
ENDBRANCH   2   4
TORSDOF 3
ENDMDL
MODEL 5
REMARK VINA RESULT:      -4.4      3.278      3.826
REMARK  3 active torsions:
REMARK  status: ('A' for Active; 'I' for Inactive)
REMARK    1  A    between atoms: C2_2  and  C3_3 
REMARK    2  A    between atoms: C2_2  and  C4_4 
REMARK    3  A    between atoms: C3_3  and  N5_5 
ROOT
HETATM    1  C1  UNL     1     -34.189   6.354   5.952  1.00 20.00     0.332 C 
HETATM    2  N5  UNL     1     -34.955   5.480   5.784  1.00 20.00    -0.247 NA
HETATM    3  O6  UNL     1     -33.422   7.229   6.124  1.00 20.00    -0.260 OA
ENDROOT
BRANCH   2   4
HETATM    4  C3  UNL     1     -35.255   5.203   4.378  1.00 20.00     0.162 C 
BRANCH   4   5
HETATM    5  C2  UNL     1     -34.153   4.322   3.805  1.00 20.00     0.139 C 
BRANCH   5   6
HETATM    6  C4  UNL     1     -33.445   4.987   2.645  1.00 20.00     0.389 C 
HETATM    7  F7  UNL     1     -34.319   5.378   1.694  1.00 20.00    -0.171 F 
HETATM    8  F8  UNL     1     -32.776   6.084   3.063  1.00 20.00    -0.171 F 
HETATM    9  F9  UNL     1     -32.549   4.154   2.072  1.00 20.00    -0.171 F 
ENDBRANCH   5   6
ENDBRANCH   4   5
ENDBRANCH   2   4
TORSDOF 3
ENDMDL
MODEL 6
REMARK VINA RESULT:      -4.3     11.338     12.013
REMARK  3 active torsions:
REMARK  status: ('A' for Active; 'I' for Inactive)
REMARK    1  A    between atoms: C2_2  and  C3_3 
REMARK    2  A    between atoms: C2_2  and  C4_4 
REMARK    3  A    between atoms: C3_3  and  N5_5 
ROOT
HETATM    1  C1  UNL     1     -36.309  13.620  -4.522  1.00 20.00     0.332 C 
HETATM    2  N5  UNL     1     -35.136  13.564  -4.561  1.00 20.00    -0.247 NA
HETATM    3  O6  UNL     1     -37.483  13.673  -4.481  1.00 20.00    -0.260 OA
ENDROOT
BRANCH   2   4
HETATM    4  C3  UNL     1     -34.485  14.814  -4.957  1.00 20.00     0.162 C 
BRANCH   4   5
HETATM    5  C2  UNL     1     -33.425  15.165  -3.922  1.00 20.00     0.139 C 
BRANCH   5   6
HETATM    6  C4  UNL     1     -33.946  16.139  -2.888  1.00 20.00     0.389 C 
HETATM    7  F7  UNL     1     -34.781  15.533  -2.019  1.00 20.00    -0.171 F 
HETATM    8  F8  UNL     1     -32.926  16.667  -2.177  1.00 20.00    -0.171 F 
HETATM    9  F9  UNL     1     -34.614  17.161  -3.467  1.00 20.00    -0.171 F 
ENDBRANCH   5   6
ENDBRANCH   4   5
ENDBRANCH   2   4
TORSDOF 3
ENDMDL
MODEL 7
REMARK VINA RESULT:      -4.3      1.708      2.221
REMARK  3 active torsions:
REMARK  status: ('A' for Active; 'I' for Inactive)
REMARK    1  A    between atoms: C2_2  and  C3_3 
REMARK    2  A    between atoms: C2_2  and  C4_4 
REMARK    3  A    between atoms: C3_3  and  N5_5 
ROOT
HETATM    1  C1  UNL     1     -32.944   5.630   2.621  1.00 20.00     0.332 C 
HETATM    2  N5  UNL     1     -32.804   6.715   3.049  1.00 20.00    -0.247 NA
HETATM    3  O6  UNL     1     -33.082   4.544   2.191  1.00 20.00    -0.260 OA
ENDROOT
BRANCH   2   4
HETATM    4  C3  UNL     1     -33.891   7.165   3.920  1.00 20.00     0.162 C 
BRANCH   4   5
HETATM    5  C2  UNL     1     -33.803   6.415   5.243  1.00 20.00     0.139 C 
BRANCH   5   6
HETATM    6  C4  UNL     1     -34.849   5.327   5.346  1.00 20.00     0.389 C 
HETATM    7  F7  UNL     1     -35.832   5.502   4.437  1.00 20.00    -0.171 F 
HETATM    8  F8  UNL     1     -34.296   4.115   5.123  1.00 20.00    -0.171 F 
HETATM    9  F9  UNL     1     -35.413   5.301   6.573  1.00 20.00    -0.171 F 
ENDBRANCH   5   6
ENDBRANCH   4   5
ENDBRANCH   2   4
TORSDOF 3
ENDMDL
MODEL 8
REMARK VINA RESULT:      -4.3     11.368     11.989
REMARK  3 active torsions:
REMARK  status: ('A' for Active; 'I' for Inactive)
REMARK    1  A    between atoms: C2_2  and  C3_3 
REMARK    2  A    between atoms: C2_2  and  C4_4 
REMARK    3  A    between atoms: C3_3  and  N5_5 
ROOT
HETATM    1  C1  UNL     1     -36.315  13.650  -4.586  1.00 20.00     0.332 C 
HETATM    2  N5  UNL     1     -35.147  13.612  -4.698  1.00 20.00    -0.247 NA
HETATM    3  O6  UNL     1     -37.485  13.686  -4.474  1.00 20.00    -0.260 OA
ENDROOT
BRANCH   2   4
HETATM    4  C3  UNL     1     -34.521  14.910  -4.954  1.00 20.00     0.162 C 
BRANCH   4   5
HETATM    5  C2  UNL     1     -33.491  15.183  -3.867  1.00 20.00     0.139 C 
BRANCH   5   6
HETATM    6  C4  UNL     1     -34.010  16.150  -2.826  1.00 20.00     0.389 C 
HETATM    7  F7  UNL     1     -33.003  16.679  -2.101  1.00 20.00    -0.171 F 
HETATM    8  F8  UNL     1     -34.672  17.170  -3.416  1.00 20.00    -0.171 F 
HETATM    9  F9  UNL     1     -34.866  15.544  -1.975  1.00 20.00    -0.171 F 
ENDBRANCH   5   6
ENDBRANCH   4   5
ENDBRANCH   2   4
TORSDOF 3
ENDMDL
MODEL 9
REMARK VINA RESULT:      -4.3     11.332     12.007
REMARK  3 active torsions:
REMARK  status: ('A' for Active; 'I' for Inactive)
REMARK    1  A    between atoms: C2_2  and  C3_3 
REMARK    2  A    between atoms: C2_2  and  C4_4 
REMARK    3  A    between atoms: C3_3  and  N5_5 
ROOT
HETATM    1  C1  UNL     1     -36.239  13.628  -4.506  1.00 20.00     0.332 C 
HETATM    2  N5  UNL     1     -35.066  13.581  -4.531  1.00 20.00    -0.247 NA
HETATM    3  O6  UNL     1     -37.414  13.673  -4.481  1.00 20.00    -0.260 OA
ENDROOT
BRANCH   2   4
HETATM    4  C3  UNL     1     -34.419  14.833  -4.925  1.00 20.00     0.162 C 
BRANCH   4   5
HETATM    5  C2  UNL     1     -33.379  15.201  -3.875  1.00 20.00     0.139 C 
BRANCH   5   6
HETATM    6  C4  UNL     1     -33.923  16.183  -2.861  1.00 20.00     0.389 C 
HETATM    7  F7  UNL     1     -34.599  17.185  -3.460  1.00 20.00    -0.171 F 
HETATM    8  F8  UNL     1     -34.773  15.565  -2.012  1.00 20.00    -0.171 F 
HETATM    9  F9  UNL     1     -32.932  16.729  -2.124  1.00 20.00    -0.171 F 
ENDBRANCH   5   6
ENDBRANCH   4   5
ENDBRANCH   2   4
TORSDOF 3
ENDMDL
