MODEL 1
REMARK VINA RESULT:      -4.6      0.000      0.000
REMARK  1 active torsions:
REMARK  status: ('A' for Active; 'I' for Inactive)
REMARK    1  A    between atoms: C1_1  and  C2_2 
ROOT
HETATM    1  C2  UNL     1     -34.822   5.456   4.458  1.00 20.00     0.299 C 
HETATM    2  F4  UNL     1     -36.103   5.719   4.082  1.00 20.00    -0.203 F 
HETATM    3 CL6  UNL     1     -33.826   6.888   4.078  1.00 20.00    -0.061 Cl
HETATM    4 CL7  UNL     1     -34.784   5.178   6.219  1.00 20.00    -0.061 Cl
ENDROOT
BRANCH   1   5
HETATM    5  C1  UNL     1     -34.314   4.247   3.684  1.00 20.00     0.336 C 
HETATM    6  F3  UNL     1     -33.735   3.375   4.554  1.00 20.00    -0.227 F 
HETATM    7 CL5  UNL     1     -33.090   4.693   2.467  1.00 20.00    -0.083 Cl
ENDBRANCH   1   5
TORSDOF 1
ENDMDL
MODEL 2
REMARK VINA RESULT:      -4.6      1.634      2.679
REMARK  1 active torsions:
REMARK  status: ('A' for Active; 'I' for Inactive)
REMARK    1  A    between atoms: C1_1  and  C2_2 
ROOT
HETATM    1  C2  UNL     1     -34.793   5.352   4.438  1.00 20.00     0.299 C 
HETATM    2  F4  UNL     1     -36.072   5.525   4.006  1.00 20.00    -0.203 F 
HETATM    3 CL6  UNL     1     -34.832   5.100   6.205  1.00 20.00    -0.061 Cl
HETATM    4 CL7  UNL     1     -34.115   3.897   3.662  1.00 20.00    -0.061 Cl
ENDROOT
BRANCH   1   5
HETATM    5  C1  UNL     1     -33.983   6.599   4.108  1.00 20.00     0.336 C 
HETATM    6  F3  UNL     1     -32.997   6.266   3.230  1.00 20.00    -0.227 F 
HETATM    7 CL5  UNL     1     -33.209   7.302   5.551  1.00 20.00    -0.083 Cl
ENDBRANCH   1   5
TORSDOF 1
ENDMDL
MODEL 3
REMARK VINA RESULT:      -4.3      1.706      2.890
REMARK  1 active torsions:
REMARK  status: ('A' for Active; 'I' for Inactive)
REMARK    1  A    between atoms: C1_1  and  C2_2 
ROOT
HETATM    1  C2  UNL     1     -34.549   5.398   4.268  1.00 20.00     0.299 C 
HETATM    2  F4  UNL     1     -35.874   5.580   4.013  1.00 20.00    -0.203 F 
HETATM    3 CL6  UNL     1     -34.092   3.770   3.697  1.00 20.00    -0.061 Cl
HETATM    4 CL7  UNL     1     -33.616   6.612   3.355  1.00 20.00    -0.061 Cl
ENDROOT
BRANCH   1   5
HETATM    5  C1  UNL     1     -34.310   5.511   5.768  1.00 20.00     0.336 C 
HETATM    6  F3  UNL     1     -35.453   5.169   6.425  1.00 20.00    -0.227 F 
HETATM    7 CL5  UNL     1     -33.877   7.168   6.257  1.00 20.00    -0.083 Cl
ENDBRANCH   1   5
TORSDOF 1
ENDMDL
MODEL 4
REMARK VINA RESULT:      -4.2      1.738      1.822
REMARK  1 active torsions:
REMARK  status: ('A' for Active; 'I' for Inactive)
REMARK    1  A    between atoms: C1_1  and  C2_2 
ROOT
HETATM    1  C2  UNL     1     -34.415   5.553   4.196  1.00 20.00     0.299 C 
HETATM    2  F4  UNL     1     -35.758   5.655   3.999  1.00 20.00    -0.203 F 
HETATM    3 CL6  UNL     1     -33.944   6.740   5.443  1.00 20.00    -0.061 Cl
HETATM    4 CL7  UNL     1     -34.043   3.914   4.790  1.00 20.00    -0.061 Cl
ENDROOT
BRANCH   1   5
HETATM    5  C1  UNL     1     -33.695   5.858   2.888  1.00 20.00     0.336 C 
HETATM    6  F3  UNL     1     -33.147   4.709   2.407  1.00 20.00    -0.227 F 
HETATM    7 CL5  UNL     1     -32.378   7.039   3.105  1.00 20.00    -0.083 Cl
ENDBRANCH   1   5
TORSDOF 1
ENDMDL
MODEL 5
REMARK VINA RESULT:      -4.1      1.601      2.482
REMARK  1 active torsions:
REMARK  status: ('A' for Active; 'I' for Inactive)
REMARK    1  A    between atoms: C1_1  and  C2_2 
ROOT
HETATM    1  C2  UNL     1     -34.656   5.327   4.468  1.00 20.00     0.299 C 
HETATM    2  F4  UNL     1     -35.914   5.597   4.022  1.00 20.00    -0.203 F 
HETATM    3 CL6  UNL     1     -34.715   5.190   6.247  1.00 20.00    -0.061 Cl
HETATM    4 CL7  UNL     1     -34.127   3.767   3.787  1.00 20.00    -0.061 Cl
ENDROOT
BRANCH   1   5
HETATM    5  C1  UNL     1     -33.728   6.465   4.063  1.00 20.00     0.336 C 
HETATM    6  F3  UNL     1     -34.466   7.594   3.882  1.00 20.00    -0.227 F 
HETATM    7 CL5  UNL     1     -32.873   6.125   2.538  1.00 20.00    -0.083 Cl
ENDBRANCH   1   5
TORSDOF 1
ENDMDL
MODEL 6
REMARK VINA RESULT:      -4.0      1.776      2.133
REMARK  1 active torsions:
REMARK  status: ('A' for Active; 'I' for Inactive)
REMARK    1  A    between atoms: C1_1  and  C2_2 
ROOT
HETATM    1  C2  UNL     1     -34.387   5.364   4.160  1.00 20.00     0.299 C 
HETATM    2  F4  UNL     1     -34.170   4.086   4.577  1.00 20.00    -0.203 F 
HETATM    3 CL6  UNL     1     -36.135   5.562   3.862  1.00 20.00    -0.061 Cl
HETATM    4 CL7  UNL     1     -33.892   6.484   5.456  1.00 20.00    -0.061 Cl
ENDROOT
BRANCH   1   5
HETATM    5  C1  UNL     1     -33.608   5.607   2.874  1.00 20.00     0.336 C 
HETATM    6  F3  UNL     1     -32.909   4.482   2.560  1.00 20.00    -0.227 F 
HETATM    7 CL5  UNL     1     -32.440   6.943   3.037  1.00 20.00    -0.083 Cl
ENDBRANCH   1   5
TORSDOF 1
ENDMDL
MODEL 7
REMARK VINA RESULT:      -3.8      2.740      3.514
REMARK  1 active torsions:
REMARK  status: ('A' for Active; 'I' for Inactive)
REMARK    1  A    between atoms: C1_1  and  C2_2 
ROOT
HETATM    1  C2  UNL     1     -32.815   6.682   2.969  1.00 20.00     0.299 C 
HETATM    2  F4  UNL     1     -31.556   6.926   3.426  1.00 20.00    -0.203 F 
HETATM    3 CL6  UNL     1     -33.133   7.784   1.601  1.00 20.00    -0.061 Cl
HETATM    4 CL7  UNL     1     -32.900   5.000   2.385  1.00 20.00    -0.061 Cl
ENDROOT
BRANCH   1   5
HETATM    5  C1  UNL     1     -33.812   6.943   4.091  1.00 20.00     0.336 C 
HETATM    6  F3  UNL     1     -33.128   7.154   5.249  1.00 20.00    -0.227 F 
HETATM    7 CL5  UNL     1     -34.908   5.562   4.351  1.00 20.00    -0.083 Cl
ENDBRANCH   1   5
TORSDOF 1
ENDMDL
MODEL 8
REMARK VINA RESULT:      -3.8      1.547      2.583
REMARK  1 active torsions:
REMARK  status: ('A' for Active; 'I' for Inactive)
REMARK    1  A    between atoms: C1_1  and  C2_2 
ROOT
HETATM    1  C2  UNL     1     -33.957   6.500   4.059  1.00 20.00     0.299 C 
HETATM    2  F4  UNL     1     -34.780   7.454   3.544  1.00 20.00    -0.203 F 
HETATM    3 CL6  UNL     1     -32.758   6.067   2.810  1.00 20.00    -0.061 Cl
HETATM    4 CL7  UNL     1     -33.101   7.178   5.468  1.00 20.00    -0.061 Cl
ENDROOT
BRANCH   1   5
HETATM    5  C1  UNL     1     -34.784   5.277   4.434  1.00 20.00     0.336 C 
HETATM    6  F3  UNL     1     -36.070   5.472   4.033  1.00 20.00    -0.227 F 
HETATM    7 CL5  UNL     1     -34.801   4.990   6.193  1.00 20.00    -0.083 Cl
ENDBRANCH   1   5
TORSDOF 1
ENDMDL
MODEL 9
REMARK VINA RESULT:      -3.7      8.523      9.163
REMARK  1 active torsions:
REMARK  status: ('A' for Active; 'I' for Inactive)
REMARK    1  A    between atoms: C1_1  and  C2_2 
ROOT
HETATM    1  C2  UNL     1     -41.577   7.812   0.289  1.00 20.00     0.299 C 
HETATM    2  F4  UNL     1     -40.648   7.245   1.106  1.00 20.00    -0.203 F 
HETATM    3 CL6  UNL     1     -43.196   7.415   0.929  1.00 20.00    -0.061 Cl
HETATM    4 CL7  UNL     1     -41.364   9.582   0.317  1.00 20.00    -0.061 Cl
ENDROOT
BRANCH   1   5
HETATM    5  C1  UNL     1     -41.419   7.245  -1.116  1.00 20.00     0.336 C 
HETATM    6  F3  UNL     1     -42.613   7.331  -1.764  1.00 20.00    -0.227 F 
HETATM    7 CL5  UNL     1     -40.931   5.532  -1.099  1.00 20.00    -0.083 Cl
ENDBRANCH   1   5
TORSDOF 1
ENDMDL
