MODEL 1
REMARK VINA RESULT:      -4.6      0.000      0.000
REMARK  2 active torsions:
REMARK  status: ('A' for Active; 'I' for Inactive)
REMARK    1  A    between atoms: C1_1  and  C3_3 
REMARK    2  A    between atoms: C3_3  and  C4_4 
ROOT
HETATM    1  C1  UNL     1     -33.776   6.350   4.393  1.00 20.00     0.162 C 
HETATM    2  C2  UNL     1     -34.727   5.607   4.967  1.00 20.00     0.301 C 
HETATM    3  F5  UNL     1     -33.102   7.224   5.177  1.00 20.00    -0.205 F 
HETATM    4  F6  UNL     1     -35.010   5.742   6.279  1.00 20.00    -0.170 F 
HETATM    5  F7  UNL     1     -35.409   4.709   4.225  1.00 20.00    -0.170 F 
ENDROOT
BRANCH   1   6
HETATM    6  C3  UNL     1     -33.393   6.269   2.946  1.00 20.00     0.086 C 
BRANCH   6   7
HETATM    7  C4  UNL     1     -32.271   7.253   2.619  1.00 20.00     0.086 C 
HETATM    8  I8  UNL     1     -32.762   8.405   0.883  1.00 20.00    -0.090 I 
ENDBRANCH   6   7
ENDBRANCH   1   6
TORSDOF 2
ENDMDL
MODEL 2
REMARK VINA RESULT:      -4.5      0.976      1.733
REMARK  2 active torsions:
REMARK  status: ('A' for Active; 'I' for Inactive)
REMARK    1  A    between atoms: C1_1  and  C3_3 
REMARK    2  A    between atoms: C3_3  and  C4_4 
ROOT
HETATM    1  C1  UNL     1     -34.022   6.095   4.169  1.00 20.00     0.162 C 
HETATM    2  C2  UNL     1     -34.470   6.023   5.426  1.00 20.00     0.301 C 
HETATM    3  F5  UNL     1     -34.421   5.134   3.304  1.00 20.00    -0.205 F 
HETATM    4  F6  UNL     1     -35.276   5.013   5.815  1.00 20.00    -0.170 F 
HETATM    5  F7  UNL     1     -34.113   6.972   6.317  1.00 20.00    -0.170 F 
ENDROOT
BRANCH   1   6
HETATM    6  C3  UNL     1     -33.125   7.178   3.649  1.00 20.00     0.086 C 
BRANCH   6   7
HETATM    7  C4  UNL     1     -32.556   6.808   2.280  1.00 20.00     0.086 C 
HETATM    8  I8  UNL     1     -32.785   8.432   0.905  1.00 20.00    -0.090 I 
ENDBRANCH   6   7
ENDBRANCH   1   6
TORSDOF 2
ENDMDL
MODEL 3
REMARK VINA RESULT:      -3.9      1.323      1.691
REMARK  2 active torsions:
REMARK  status: ('A' for Active; 'I' for Inactive)
REMARK    1  A    between atoms: C1_1  and  C3_3 
REMARK    2  A    between atoms: C3_3  and  C4_4 
ROOT
HETATM    1  C1  UNL     1     -33.559   6.334   3.754  1.00 20.00     0.162 C 
HETATM    2  C2  UNL     1     -33.911   5.087   3.426  1.00 20.00     0.301 C 
HETATM    3  F5  UNL     1     -34.224   6.928   4.774  1.00 20.00    -0.205 F 
HETATM    4  F6  UNL     1     -34.906   4.456   4.083  1.00 20.00    -0.170 F 
HETATM    5  F7  UNL     1     -33.261   4.451   2.429  1.00 20.00    -0.170 F 
ENDROOT
BRANCH   1   6
HETATM    6  C3  UNL     1     -32.469   7.113   3.082  1.00 20.00     0.086 C 
BRANCH   6   7
HETATM    7  C4  UNL     1     -32.578   7.008   1.561  1.00 20.00     0.086 C 
HETATM    8  I8  UNL     1     -32.937   8.933   0.697  1.00 20.00    -0.090 I 
ENDBRANCH   6   7
ENDBRANCH   1   6
TORSDOF 2
ENDMDL
MODEL 4
REMARK VINA RESULT:      -3.7      3.934      4.905
REMARK  2 active torsions:
REMARK  status: ('A' for Active; 'I' for Inactive)
REMARK    1  A    between atoms: C1_1  and  C3_3 
REMARK    2  A    between atoms: C3_3  and  C4_4 
ROOT
HETATM    1  C1  UNL     1     -32.415   7.940   1.243  1.00 20.00     0.162 C 
HETATM    2  C2  UNL     1     -33.142   8.958   0.774  1.00 20.00     0.301 C 
HETATM    3  F5  UNL     1     -31.479   7.405   0.424  1.00 20.00    -0.205 F 
HETATM    4  F6  UNL     1     -32.955   9.419  -0.480  1.00 20.00    -0.170 F 
HETATM    5  F7  UNL     1     -34.073   9.533   1.564  1.00 20.00    -0.170 F 
ENDROOT
BRANCH   1   6
HETATM    6  C3  UNL     1     -32.553   7.362   2.620  1.00 20.00     0.086 C 
BRANCH   6   7
HETATM    7  C4  UNL     1     -33.052   5.919   2.561  1.00 20.00     0.086 C 
HETATM    8  I8  UNL     1     -34.456   5.543   4.132  1.00 20.00    -0.090 I 
ENDBRANCH   6   7
ENDBRANCH   1   6
TORSDOF 2
ENDMDL
MODEL 5
REMARK VINA RESULT:      -3.6      2.866      3.888
REMARK  2 active torsions:
REMARK  status: ('A' for Active; 'I' for Inactive)
REMARK    1  A    between atoms: C1_1  and  C3_3 
REMARK    2  A    between atoms: C3_3  and  C4_4 
ROOT
HETATM    1  C1  UNL     1     -34.233   4.511   3.603  1.00 20.00     0.162 C 
HETATM    2  C2  UNL     1     -33.420   5.076   2.704  1.00 20.00     0.301 C 
HETATM    3  F5  UNL     1     -34.084   3.188   3.842  1.00 20.00    -0.205 F 
HETATM    4  F6  UNL     1     -32.497   4.340   2.051  1.00 20.00    -0.170 F 
HETATM    5  F7  UNL     1     -33.522   6.397   2.449  1.00 20.00    -0.170 F 
ENDROOT
BRANCH   1   6
HETATM    6  C3  UNL     1     -35.285   5.249   4.375  1.00 20.00     0.086 C 
BRANCH   6   7
HETATM    7  C4  UNL     1     -34.849   5.472   5.822  1.00 20.00     0.086 C 
HETATM    8  I8  UNL     1     -33.603   7.205   5.975  1.00 20.00    -0.090 I 
ENDBRANCH   6   7
ENDBRANCH   1   6
TORSDOF 2
ENDMDL
MODEL 6
REMARK VINA RESULT:      -3.6      9.115      9.705
REMARK  2 active torsions:
REMARK  status: ('A' for Active; 'I' for Inactive)
REMARK    1  A    between atoms: C1_1  and  C3_3 
REMARK    2  A    between atoms: C3_3  and  C4_4 
ROOT
HETATM    1  C1  UNL     1     -41.085   6.783  -0.391  1.00 20.00     0.162 C 
HETATM    2  C2  UNL     1     -41.394   7.991  -0.873  1.00 20.00     0.301 C 
HETATM    3  F5  UNL     1     -40.391   6.729   0.770  1.00 20.00    -0.205 F 
HETATM    4  F6  UNL     1     -41.009   9.111  -0.228  1.00 20.00    -0.170 F 
HETATM    5  F7  UNL     1     -42.103   8.091  -2.018  1.00 20.00    -0.170 F 
ENDROOT
BRANCH   1   6
HETATM    6  C3  UNL     1     -41.471   5.488  -1.038  1.00 20.00     0.086 C 
BRANCH   6   7
HETATM    7  C4  UNL     1     -42.947   5.174  -0.801  1.00 20.00     0.086 C 
HETATM    8  I8  UNL     1     -43.417   5.292   1.284  1.00 20.00    -0.090 I 
ENDBRANCH   6   7
ENDBRANCH   1   6
TORSDOF 2
ENDMDL
MODEL 7
REMARK VINA RESULT:      -3.5      3.199      4.088
REMARK  2 active torsions:
REMARK  status: ('A' for Active; 'I' for Inactive)
REMARK    1  A    between atoms: C1_1  and  C3_3 
REMARK    2  A    between atoms: C3_3  and  C4_4 
ROOT
HETATM    1  C1  UNL     1     -32.536   6.980   2.678  1.00 20.00     0.162 C 
HETATM    2  C2  UNL     1     -32.741   7.760   1.613  1.00 20.00     0.301 C 
HETATM    3  F5  UNL     1     -31.901   7.523   3.743  1.00 20.00    -0.205 F 
HETATM    4  F6  UNL     1     -32.309   9.038   1.601  1.00 20.00    -0.170 F 
HETATM    5  F7  UNL     1     -33.388   7.265   0.537  1.00 20.00    -0.170 F 
ENDROOT
BRANCH   1   6
HETATM    6  C3  UNL     1     -32.979   5.551   2.780  1.00 20.00     0.086 C 
BRANCH   6   7
HETATM    7  C4  UNL     1     -34.428   5.459   3.258  1.00 20.00     0.086 C 
HETATM    8  I8  UNL     1     -34.517   5.455   5.397  1.00 20.00    -0.090 I 
ENDBRANCH   6   7
ENDBRANCH   1   6
TORSDOF 2
ENDMDL
MODEL 8
REMARK VINA RESULT:      -3.5     11.465     12.011
REMARK  2 active torsions:
REMARK  status: ('A' for Active; 'I' for Inactive)
REMARK    1  A    between atoms: C1_1  and  C3_3 
REMARK    2  A    between atoms: C3_3  and  C4_4 
ROOT
HETATM    1  C1  UNL     1     -34.098  15.604  -2.905  1.00 20.00     0.162 C 
HETATM    2  C2  UNL     1     -34.066  14.640  -3.830  1.00 20.00     0.301 C 
HETATM    3  F5  UNL     1     -35.073  15.546  -1.969  1.00 20.00    -0.205 F 
HETATM    4  F6  UNL     1     -34.990  13.657  -3.834  1.00 20.00    -0.170 F 
HETATM    5  F7  UNL     1     -33.098  14.649  -4.771  1.00 20.00    -0.170 F 
ENDROOT
BRANCH   1   6
HETATM    6  C3  UNL     1     -33.115  16.733  -2.823  1.00 20.00     0.086 C 
BRANCH   6   7
HETATM    7  C4  UNL     1     -33.574  17.788  -1.818  1.00 20.00     0.086 C 
HETATM    8  I8  UNL     1     -31.907  18.556  -0.717  1.00 20.00    -0.090 I 
ENDBRANCH   6   7
ENDBRANCH   1   6
TORSDOF 2
ENDMDL
MODEL 9
REMARK VINA RESULT:      -3.5     15.906     16.546
REMARK  2 active torsions:
REMARK  status: ('A' for Active; 'I' for Inactive)
REMARK    1  A    between atoms: C1_1  and  C3_3 
REMARK    2  A    between atoms: C3_3  and  C4_4 
ROOT
HETATM    1  C1  UNL     1     -24.012  16.946  12.004  1.00 20.00     0.162 C 
HETATM    2  C2  UNL     1     -25.230  17.457  12.201  1.00 20.00     0.301 C 
HETATM    3  F5  UNL     1     -23.900  15.599  11.926  1.00 20.00    -0.205 F 
HETATM    4  F6  UNL     1     -26.304  16.651  12.332  1.00 20.00    -0.170 F 
HETATM    5  F7  UNL     1     -25.390  18.796  12.266  1.00 20.00    -0.170 F 
ENDROOT
BRANCH   1   6
HETATM    6  C3  UNL     1     -22.764  17.762  11.848  1.00 20.00     0.086 C 
BRANCH   6   7
HETATM    7  C4  UNL     1     -22.197  17.632  10.435  1.00 20.00     0.086 C 
HETATM    8  I8  UNL     1     -23.551  18.459   8.999  1.00 20.00    -0.090 I 
ENDBRANCH   6   7
ENDBRANCH   1   6
TORSDOF 2
ENDMDL
