MODEL 1
REMARK VINA RESULT:      -4.5      0.000      0.000
REMARK  1 active torsions:
REMARK  status: ('A' for Active; 'I' for Inactive)
REMARK    1  A    between atoms: C2_2  and  C4_4 
ROOT
HETATM    1  C3  UNL     1     -35.764  15.213  -3.442  1.00 20.00     0.102 C 
HETATM    2  C4  UNL     1     -34.630  16.038  -4.112  1.00 20.00     0.035 C 
HETATM    3  C5  UNL     1     -35.329  13.985  -4.268  1.00 20.00     0.295 C 
HETATM    4  C6  UNL     1     -34.635  14.959  -5.274  1.00 20.00     0.254 C 
HETATM    5  C7  UNL     1     -35.035  17.468  -4.454  1.00 20.00     0.025 C 
HETATM    6  F8  UNL     1     -36.335  13.231  -4.764  1.00 20.00    -0.201 F 
HETATM    7  F9  UNL     1     -34.490  13.134  -3.633  1.00 20.00    -0.201 F 
HETATM    8  F10 UNL     1     -33.399  14.544  -5.660  1.00 20.00    -0.218 F 
HETATM    9 CL11 UNL     1     -35.582  15.319  -6.759  1.00 20.00    -0.075 Cl
ENDROOT
BRANCH   2  10
HETATM   10  C2  UNL     1     -33.356  16.039  -3.329  1.00 20.00    -0.023 C 
HETATM   11  C1  UNL     1     -33.036  16.970  -2.423  1.00 20.00     0.008 C 
ENDBRANCH   2  10
TORSDOF 1
ENDMDL
MODEL 2
REMARK VINA RESULT:      -4.5      1.490      1.988
REMARK  1 active torsions:
REMARK  status: ('A' for Active; 'I' for Inactive)
REMARK    1  A    between atoms: C2_2  and  C4_4 
ROOT
HETATM    1  C3  UNL     1     -34.609  14.280  -3.827  1.00 20.00     0.102 C 
HETATM    2  C4  UNL     1     -34.509  15.753  -3.338  1.00 20.00     0.035 C 
HETATM    3  C5  UNL     1     -34.702  14.793  -5.279  1.00 20.00     0.295 C 
HETATM    4  C6  UNL     1     -35.164  16.176  -4.718  1.00 20.00     0.254 C 
HETATM    5  C7  UNL     1     -35.289  16.024  -2.056  1.00 20.00     0.025 C 
HETATM    6  F8  UNL     1     -35.585  14.143  -6.070  1.00 20.00    -0.201 F 
HETATM    7  F9  UNL     1     -33.530  14.818  -5.954  1.00 20.00    -0.201 F 
HETATM    8  F10 UNL     1     -34.560  17.232  -5.325  1.00 20.00    -0.218 F 
HETATM    9 CL11 UNL     1     -36.939  16.460  -4.761  1.00 20.00    -0.075 Cl
ENDROOT
BRANCH   2  10
HETATM   10  C2  UNL     1     -33.102  16.235  -3.193  1.00 20.00    -0.023 C 
HETATM   11  C1  UNL     1     -32.745  17.293  -2.456  1.00 20.00     0.008 C 
ENDBRANCH   2  10
TORSDOF 1
ENDMDL
MODEL 3
REMARK VINA RESULT:      -4.4      1.761      2.575
REMARK  1 active torsions:
REMARK  status: ('A' for Active; 'I' for Inactive)
REMARK    1  A    between atoms: C2_2  and  C4_4 
ROOT
HETATM    1  C3  UNL     1     -34.420  16.559  -4.919  1.00 20.00     0.102 C 
HETATM    2  C4  UNL     1     -34.142  16.006  -3.493  1.00 20.00     0.035 C 
HETATM    3  C5  UNL     1     -34.724  15.123  -5.392  1.00 20.00     0.295 C 
HETATM    4  C6  UNL     1     -33.910  14.591  -4.168  1.00 20.00     0.254 C 
HETATM    5  C7  UNL     1     -32.961  16.676  -2.798  1.00 20.00     0.025 C 
HETATM    6  F8  UNL     1     -34.247  14.799  -6.614  1.00 20.00    -0.201 F 
HETATM    7  F9  UNL     1     -36.035  14.784  -5.391  1.00 20.00    -0.201 F 
HETATM    8  F10 UNL     1     -34.517  13.557  -3.527  1.00 20.00    -0.218 F 
HETATM    9 CL11 UNL     1     -32.222  14.095  -4.536  1.00 20.00    -0.075 Cl
ENDROOT
BRANCH   2  10
HETATM   10  C2  UNL     1     -35.343  16.033  -2.602  1.00 20.00    -0.023 C 
HETATM   11  C1  UNL     1     -35.360  16.591  -1.386  1.00 20.00     0.008 C 
ENDBRANCH   2  10
TORSDOF 1
ENDMDL
MODEL 4
REMARK VINA RESULT:      -4.4     11.264     12.496
REMARK  1 active torsions:
REMARK  status: ('A' for Active; 'I' for Inactive)
REMARK    1  A    between atoms: C2_2  and  C4_4 
ROOT
HETATM    1  C3  UNL     1     -43.398   6.735   0.718  1.00 20.00     0.102 C 
HETATM    2  C4  UNL     1     -42.591   7.210  -0.523  1.00 20.00     0.035 C 
HETATM    3  C5  UNL     1     -42.658   5.384   0.655  1.00 20.00     0.295 C 
HETATM    4  C6  UNL     1     -42.330   5.679  -0.844  1.00 20.00     0.254 C 
HETATM    5  C7  UNL     1     -43.417   8.024  -1.513  1.00 20.00     0.025 C 
HETATM    6  F8  UNL     1     -43.417   4.292   0.897  1.00 20.00    -0.201 F 
HETATM    7  F9  UNL     1     -41.576   5.284   1.462  1.00 20.00    -0.201 F 
HETATM    8  F10 UNL     1     -41.046   5.388  -1.183  1.00 20.00    -0.218 F 
HETATM    9 CL11 UNL     1     -43.409   4.868  -2.032  1.00 20.00    -0.075 Cl
ENDROOT
BRANCH   2  10
HETATM   10  C2  UNL     1     -41.340   7.949  -0.170  1.00 20.00    -0.023 C 
HETATM   11  C1  UNL     1     -41.321   9.189   0.332  1.00 20.00     0.008 C 
ENDBRANCH   2  10
TORSDOF 1
ENDMDL
MODEL 5
REMARK VINA RESULT:      -4.3      2.308      3.578
REMARK  1 active torsions:
REMARK  status: ('A' for Active; 'I' for Inactive)
REMARK    1  A    between atoms: C2_2  and  C4_4 
ROOT
HETATM    1  C3  UNL     1     -32.944  15.200  -3.957  1.00 20.00     0.102 C 
HETATM    2  C4  UNL     1     -34.295  15.161  -4.726  1.00 20.00     0.035 C 
HETATM    3  C5  UNL     1     -33.500  16.344  -3.084  1.00 20.00     0.295 C 
HETATM    4  C6  UNL     1     -34.546  16.637  -4.208  1.00 20.00     0.254 C 
HETATM    5  C7  UNL     1     -34.136  14.940  -6.226  1.00 20.00     0.025 C 
HETATM    6  F8  UNL     1     -32.628  17.338  -2.804  1.00 20.00    -0.201 F 
HETATM    7  F9  UNL     1     -34.031  15.956  -1.901  1.00 20.00    -0.201 F 
HETATM    8  F10 UNL     1     -35.800  16.859  -3.731  1.00 20.00    -0.218 F 
HETATM    9 CL11 UNL     1     -34.125  18.002  -5.300  1.00 20.00    -0.075 Cl
ENDROOT
BRANCH   2  10
HETATM   10  C2  UNL     1     -35.269  14.176  -4.163  1.00 20.00    -0.023 C 
HETATM   11  C1  UNL     1     -36.381  13.780  -4.793  1.00 20.00     0.008 C 
ENDBRANCH   2  10
TORSDOF 1
ENDMDL
MODEL 6
REMARK VINA RESULT:      -4.3      1.768      2.289
REMARK  1 active torsions:
REMARK  status: ('A' for Active; 'I' for Inactive)
REMARK    1  A    between atoms: C2_2  and  C4_4 
ROOT
HETATM    1  C3  UNL     1     -34.820  14.381  -4.050  1.00 20.00     0.102 C 
HETATM    2  C4  UNL     1     -35.173  15.787  -3.489  1.00 20.00     0.035 C 
HETATM    3  C5  UNL     1     -33.565  14.985  -4.711  1.00 20.00     0.295 C 
HETATM    4  C6  UNL     1     -34.244  16.390  -4.622  1.00 20.00     0.254 C 
HETATM    5  C7  UNL     1     -36.664  16.105  -3.534  1.00 20.00     0.025 C 
HETATM    6  F8  UNL     1     -33.287  14.533  -5.954  1.00 20.00    -0.201 F 
HETATM    7  F9  UNL     1     -32.423  14.861  -3.995  1.00 20.00    -0.201 F 
HETATM    8  F10 UNL     1     -33.402  17.369  -4.195  1.00 20.00    -0.218 F 
HETATM    9 CL11 UNL     1     -35.020  16.957  -6.141  1.00 20.00    -0.075 Cl
ENDROOT
BRANCH   2  10
HETATM   10  C2  UNL     1     -34.640  16.028  -2.113  1.00 20.00    -0.023 C 
HETATM   11  C1  UNL     1     -35.217  16.837  -1.217  1.00 20.00     0.008 C 
ENDBRANCH   2  10
TORSDOF 1
ENDMDL
MODEL 7
REMARK VINA RESULT:      -4.2      2.138      3.218
REMARK  1 active torsions:
REMARK  status: ('A' for Active; 'I' for Inactive)
REMARK    1  A    between atoms: C2_2  and  C4_4 
ROOT
HETATM    1  C3  UNL     1     -34.477  15.577  -5.193  1.00 20.00     0.102 C 
HETATM    2  C4  UNL     1     -35.282  16.430  -4.173  1.00 20.00     0.035 C 
HETATM    3  C5  UNL     1     -33.929  14.735  -4.023  1.00 20.00     0.295 C 
HETATM    4  C6  UNL     1     -34.271  15.921  -3.064  1.00 20.00     0.254 C 
HETATM    5  C7  UNL     1     -35.302  17.918  -4.503  1.00 20.00     0.025 C 
HETATM    6  F8  UNL     1     -32.623  14.395  -4.111  1.00 20.00    -0.201 F 
HETATM    7  F9  UNL     1     -34.606  13.590  -3.773  1.00 20.00    -0.201 F 
HETATM    8  F10 UNL     1     -34.862  15.523  -1.905  1.00 20.00    -0.218 F 
HETATM    9 CL11 UNL     1     -32.881  16.978  -2.636  1.00 20.00    -0.075 Cl
ENDROOT
BRANCH   2  10
HETATM   10  C2  UNL     1     -36.676  15.935  -3.956  1.00 20.00    -0.023 C 
HETATM   11  C1  UNL     1     -37.469  15.479  -4.934  1.00 20.00     0.008 C 
ENDBRANCH   2  10
TORSDOF 1
ENDMDL
MODEL 8
REMARK VINA RESULT:      -4.1     10.853     12.421
REMARK  1 active torsions:
REMARK  status: ('A' for Active; 'I' for Inactive)
REMARK    1  A    between atoms: C2_2  and  C4_4 
ROOT
HETATM    1  C3  UNL     1     -40.815   6.589  -0.564  1.00 20.00     0.102 C 
HETATM    2  C4  UNL     1     -42.251   6.094  -0.230  1.00 20.00     0.035 C 
HETATM    3  C5  UNL     1     -41.128   7.915   0.159  1.00 20.00     0.295 C 
HETATM    4  C6  UNL     1     -42.649   7.616  -0.039  1.00 20.00     0.254 C 
HETATM    5  C7  UNL     1     -42.906   5.313  -1.364  1.00 20.00     0.025 C 
HETATM    6  F8  UNL     1     -40.654   9.030  -0.440  1.00 20.00    -0.201 F 
HETATM    7  F9  UNL     1     -40.725   7.974   1.450  1.00 20.00    -0.201 F 
HETATM    8  F10 UNL     1     -43.396   7.867   1.069  1.00 20.00    -0.218 F 
HETATM    9 CL11 UNL     1     -43.417   8.470  -1.423  1.00 20.00    -0.075 Cl
ENDROOT
BRANCH   2  10
HETATM   10  C2  UNL     1     -42.327   5.312   1.042  1.00 20.00    -0.023 C 
HETATM   11  C1  UNL     1     -43.417   4.651   1.450  1.00 20.00     0.008 C 
ENDBRANCH   2  10
TORSDOF 1
ENDMDL
MODEL 9
REMARK VINA RESULT:      -4.1      2.110      3.458
REMARK  1 active torsions:
REMARK  status: ('A' for Active; 'I' for Inactive)
REMARK    1  A    between atoms: C2_2  and  C4_4 
ROOT
HETATM    1  C3  UNL     1     -34.247  16.553  -5.035  1.00 20.00     0.102 C 
HETATM    2  C4  UNL     1     -35.549  15.742  -4.784  1.00 20.00     0.035 C 
HETATM    3  C5  UNL     1     -33.480  15.557  -4.142  1.00 20.00     0.295 C 
HETATM    4  C6  UNL     1     -34.843  15.153  -3.492  1.00 20.00     0.254 C 
HETATM    5  C7  UNL     1     -36.785  16.615  -4.595  1.00 20.00     0.025 C 
HETATM    6  F8  UNL     1     -32.562  16.104  -3.315  1.00 20.00    -0.201 F 
HETATM    7  F9  UNL     1     -32.851  14.559  -4.806  1.00 20.00    -0.201 F 
HETATM    8  F10 UNL     1     -34.988  13.810  -3.336  1.00 20.00    -0.218 F 
HETATM    9 CL11 UNL     1     -35.190  15.931  -1.909  1.00 20.00    -0.075 Cl
ENDROOT
BRANCH   2  10
HETATM   10  C2  UNL     1     -35.810  14.702  -5.826  1.00 20.00    -0.023 C 
HETATM   11  C1  UNL     1     -35.635  14.897  -7.138  1.00 20.00     0.008 C 
ENDBRANCH   2  10
TORSDOF 1
ENDMDL
