MODEL 1
REMARK VINA RESULT:      -4.3      0.000      0.000
REMARK  1 active torsions:
REMARK  status: ('A' for Active; 'I' for Inactive)
REMARK    1  A    between atoms: C2_2  and  C3_3 
ROOT
HETATM    1  C1  UNL     1     -34.772   5.238   6.074  1.00 20.00     0.071 C 
HETATM    2  C3  UNL     1     -34.758   5.396   4.560  1.00 20.00     0.187 C 
HETATM    3  F4  UNL     1     -36.037   5.595   4.138  1.00 20.00    -0.225 F 
HETATM    4 CL6  UNL     1     -33.811   6.856   4.138  1.00 20.00    -0.082 Cl
ENDROOT
BRANCH   2   5
HETATM    5  C2  UNL     1     -34.176   4.200   3.811  1.00 20.00     0.174 C 
HETATM    6 CL5  UNL     1     -33.150   4.699   2.441  1.00 20.00    -0.126 Cl
ENDBRANCH   2   5
TORSDOF 1
ENDMDL
MODEL 2
REMARK VINA RESULT:      -4.2      1.489      1.979
REMARK  1 active torsions:
REMARK  status: ('A' for Active; 'I' for Inactive)
REMARK    1  A    between atoms: C2_2  and  C3_3 
ROOT
HETATM    1  C1  UNL     1     -34.181   4.123   3.837  1.00 20.00     0.071 C 
HETATM    2  C3  UNL     1     -34.697   5.418   4.448  1.00 20.00     0.187 C 
HETATM    3  F4  UNL     1     -35.984   5.601   4.040  1.00 20.00    -0.225 F 
HETATM    4 CL6  UNL     1     -34.709   5.252   6.232  1.00 20.00    -0.082 Cl
ENDROOT
BRANCH   2   5
HETATM    5  C2  UNL     1     -33.883   6.654   4.075  1.00 20.00     0.174 C 
HETATM    6 CL5  UNL     1     -32.823   6.362   2.672  1.00 20.00    -0.126 Cl
ENDBRANCH   2   5
TORSDOF 1
ENDMDL
MODEL 3
REMARK VINA RESULT:      -3.8      1.419      2.772
REMARK  1 active torsions:
REMARK  status: ('A' for Active; 'I' for Inactive)
REMARK    1  A    between atoms: C2_2  and  C3_3 
ROOT
HETATM    1  C1  UNL     1     -33.909   6.458   3.572  1.00 20.00     0.071 C 
HETATM    2  C3  UNL     1     -34.721   5.441   4.361  1.00 20.00     0.187 C 
HETATM    3  F4  UNL     1     -36.023   5.541   3.975  1.00 20.00    -0.225 F 
HETATM    4 CL6  UNL     1     -34.152   3.795   3.943  1.00 20.00    -0.082 Cl
ENDROOT
BRANCH   2   5
HETATM    5  C2  UNL     1     -34.644   5.617   5.875  1.00 20.00     0.174 C 
HETATM    6 CL5  UNL     1     -33.817   7.129   6.334  1.00 20.00    -0.126 Cl
ENDBRANCH   2   5
TORSDOF 1
ENDMDL
MODEL 4
REMARK VINA RESULT:      -3.4      8.500      8.712
REMARK  1 active torsions:
REMARK  status: ('A' for Active; 'I' for Inactive)
REMARK    1  A    between atoms: C2_2  and  C3_3 
ROOT
HETATM    1  C1  UNL     1     -41.548   9.182   0.319  1.00 20.00     0.071 C 
HETATM    2  C3  UNL     1     -41.628   7.662   0.284  1.00 20.00     0.187 C 
HETATM    3  F4  UNL     1     -40.604   7.163   1.031  1.00 20.00    -0.225 F 
HETATM    4 CL6  UNL     1     -43.163   7.145   1.048  1.00 20.00    -0.082 Cl
ENDROOT
BRANCH   2   5
HETATM    5  C2  UNL     1     -41.550   7.063  -1.117  1.00 20.00     0.174 C 
HETATM    6 CL5  UNL     1     -40.912   5.398  -1.103  1.00 20.00    -0.126 Cl
ENDBRANCH   2   5
TORSDOF 1
ENDMDL
MODEL 5
REMARK VINA RESULT:      -3.3      8.258      8.702
REMARK  1 active torsions:
REMARK  status: ('A' for Active; 'I' for Inactive)
REMARK    1  A    between atoms: C2_2  and  C3_3 
ROOT
HETATM    1  C1  UNL     1     -42.683   6.334   0.741  1.00 20.00     0.071 C 
HETATM    2  C3  UNL     1     -41.399   6.733   0.027  1.00 20.00     0.187 C 
HETATM    3  F4  UNL     1     -40.419   6.883   0.961  1.00 20.00    -0.225 F 
HETATM    4 CL6  UNL     1     -40.909   5.404  -1.069  1.00 20.00    -0.082 Cl
ENDROOT
BRANCH   2   5
HETATM    5  C2  UNL     1     -41.507   8.022  -0.783  1.00 20.00     0.174 C 
HETATM    6 CL5  UNL     1     -41.395   9.473   0.247  1.00 20.00    -0.126 Cl
ENDBRANCH   2   5
TORSDOF 1
ENDMDL
MODEL 6
REMARK VINA RESULT:      -3.3      8.640      8.980
REMARK  1 active torsions:
REMARK  status: ('A' for Active; 'I' for Inactive)
REMARK    1  A    between atoms: C2_2  and  C3_3 
ROOT
HETATM    1  C1  UNL     1     -41.342   7.315  -1.196  1.00 20.00     0.071 C 
HETATM    2  C3  UNL     1     -41.608   7.787   0.227  1.00 20.00     0.187 C 
HETATM    3  F4  UNL     1     -40.696   7.198   1.050  1.00 20.00    -0.225 F 
HETATM    4 CL6  UNL     1     -41.352   9.557   0.307  1.00 20.00    -0.082 Cl
ENDROOT
BRANCH   2   5
HETATM    5  C2  UNL     1     -43.009   7.469   0.740  1.00 20.00     0.174 C 
HETATM    6 CL5  UNL     1     -43.104   5.848   1.478  1.00 20.00    -0.126 Cl
ENDBRANCH   2   5
TORSDOF 1
ENDMDL
MODEL 7
REMARK VINA RESULT:      -3.1      2.273      3.050
REMARK  1 active torsions:
REMARK  status: ('A' for Active; 'I' for Inactive)
REMARK    1  A    between atoms: C2_2  and  C3_3 
ROOT
HETATM    1  C1  UNL     1     -32.367   7.068   3.203  1.00 20.00     0.071 C 
HETATM    2  C3  UNL     1     -33.653   6.598   3.870  1.00 20.00     0.187 C 
HETATM    3  F4  UNL     1     -34.676   7.378   3.423  1.00 20.00    -0.225 F 
HETATM    4 CL6  UNL     1     -33.987   4.914   3.362  1.00 20.00    -0.082 Cl
ENDROOT
BRANCH   2   5
HETATM    5  C2  UNL     1     -33.623   6.655   5.395  1.00 20.00     0.174 C 
HETATM    6 CL5  UNL     1     -34.686   5.429   6.134  1.00 20.00    -0.126 Cl
ENDBRANCH   2   5
TORSDOF 1
ENDMDL
MODEL 8
REMARK VINA RESULT:      -3.1     17.042     17.614
REMARK  1 active torsions:
REMARK  status: ('A' for Active; 'I' for Inactive)
REMARK    1  A    between atoms: C2_2  and  C3_3 
ROOT
HETATM    1  C1  UNL     1     -22.683  17.514  12.151  1.00 20.00     0.071 C 
HETATM    2  C3  UNL     1     -23.719  17.056  11.133  1.00 20.00     0.187 C 
HETATM    3  F4  UNL     1     -23.065  16.647  10.011  1.00 20.00    -0.225 F 
HETATM    4 CL6  UNL     1     -24.599  15.644  11.797  1.00 20.00    -0.082 Cl
ENDROOT
BRANCH   2   5
HETATM    5  C2  UNL     1     -24.733  18.129  10.747  1.00 20.00     0.174 C 
HETATM    6 CL5  UNL     1     -25.598  18.778  12.164  1.00 20.00    -0.126 Cl
ENDBRANCH   2   5
TORSDOF 1
ENDMDL
MODEL 9
REMARK VINA RESULT:      -3.1      1.668      2.782
REMARK  1 active torsions:
REMARK  status: ('A' for Active; 'I' for Inactive)
REMARK    1  A    between atoms: C2_2  and  C3_3 
ROOT
HETATM    1  C1  UNL     1     -35.830   5.405   3.901  1.00 20.00     0.071 C 
HETATM    2  C3  UNL     1     -34.330   5.265   4.119  1.00 20.00     0.187 C 
HETATM    3  F4  UNL     1     -34.121   4.292   5.049  1.00 20.00    -0.225 F 
HETATM    4 CL6  UNL     1     -33.569   4.730   2.589  1.00 20.00    -0.082 Cl
ENDROOT
BRANCH   2   5
HETATM    5  C2  UNL     1     -33.645   6.546   4.587  1.00 20.00     0.174 C 
HETATM    6 CL5  UNL     1     -34.059   6.953   6.273  1.00 20.00    -0.126 Cl
ENDBRANCH   2   5
TORSDOF 1
ENDMDL
