MODEL 1
REMARK VINA RESULT:      -4.3      0.000      0.000
REMARK  0 active torsions:
REMARK  status: ('A' for Active; 'I' for Inactive)
ROOT
HETATM    1  C1  UNL     1     -33.365   6.081   3.158  1.00 20.00     0.219 C 
HETATM    2  C2  UNL     1     -34.039   5.984   4.312  1.00 20.00     0.153 C 
HETATM    3  F3  UNL     1     -33.644   5.213   2.157  1.00 20.00    -0.190 F 
HETATM    4 CL4  UNL     1     -32.141   7.264   2.863  1.00 20.00    -0.049 Cl
HETATM    5 CL5  UNL     1     -33.704   7.081   5.610  1.00 20.00    -0.067 Cl
HETATM    6 CL6  UNL     1     -35.264   4.799   4.603  1.00 20.00    -0.067 Cl
ENDROOT
TORSDOF 0
ENDMDL
MODEL 2
REMARK VINA RESULT:      -4.2      1.986      3.467
REMARK  0 active torsions:
REMARK  status: ('A' for Active; 'I' for Inactive)
ROOT
HETATM    1  C1  UNL     1     -34.024   6.241   4.619  1.00 20.00     0.219 C 
HETATM    2  C2  UNL     1     -33.298   6.155   3.497  1.00 20.00     0.153 C 
HETATM    3  F3  UNL     1     -33.890   7.332   5.410  1.00 20.00    -0.190 F 
HETATM    4 CL4  UNL     1     -35.140   5.025   5.131  1.00 20.00    -0.049 Cl
HETATM    5 CL5  UNL     1     -33.450   4.770   2.467  1.00 20.00    -0.067 Cl
HETATM    6 CL6  UNL     1     -32.183   7.375   2.988  1.00 20.00    -0.067 Cl
ENDROOT
TORSDOF 0
ENDMDL
MODEL 3
REMARK VINA RESULT:      -4.0      0.567      2.572
REMARK  0 active torsions:
REMARK  status: ('A' for Active; 'I' for Inactive)
ROOT
HETATM    1  C1  UNL     1     -33.993   5.435   3.553  1.00 20.00     0.219 C 
HETATM    2  C2  UNL     1     -33.326   6.526   3.951  1.00 20.00     0.153 C 
HETATM    3  F3  UNL     1     -33.772   4.943   2.310  1.00 20.00    -0.190 F 
HETATM    4 CL4  UNL     1     -35.138   4.601   4.542  1.00 20.00    -0.049 Cl
HETATM    5 CL5  UNL     1     -33.588   7.176   5.536  1.00 20.00    -0.067 Cl
HETATM    6 CL6  UNL     1     -32.179   7.357   2.958  1.00 20.00    -0.067 Cl
ENDROOT
TORSDOF 0
ENDMDL
MODEL 4
REMARK VINA RESULT:      -4.0      1.545      2.288
REMARK  0 active torsions:
REMARK  status: ('A' for Active; 'I' for Inactive)
ROOT
HETATM    1  C1  UNL     1     -33.220   6.273   3.537  1.00 20.00     0.219 C 
HETATM    2  C2  UNL     1     -34.043   6.143   4.585  1.00 20.00     0.153 C 
HETATM    3  F3  UNL     1     -32.262   7.231   3.565  1.00 20.00    -0.190 F 
HETATM    4 CL4  UNL     1     -33.304   5.280   2.126  1.00 20.00    -0.049 Cl
HETATM    5 CL5  UNL     1     -35.277   4.926   4.575  1.00 20.00    -0.067 Cl
HETATM    6 CL6  UNL     1     -33.954   7.139   5.995  1.00 20.00    -0.067 Cl
ENDROOT
TORSDOF 0
ENDMDL
MODEL 5
REMARK VINA RESULT:      -3.9      1.761      2.650
REMARK  0 active torsions:
REMARK  status: ('A' for Active; 'I' for Inactive)
ROOT
HETATM    1  C1  UNL     1     -34.266   5.799   4.625  1.00 20.00     0.219 C 
HETATM    2  C2  UNL     1     -33.517   5.888   3.518  1.00 20.00     0.153 C 
HETATM    3  F3  UNL     1     -35.155   4.783   4.740  1.00 20.00    -0.190 F 
HETATM    4 CL4  UNL     1     -34.167   6.917   5.938  1.00 20.00    -0.049 Cl
HETATM    5 CL5  UNL     1     -32.371   7.176   3.345  1.00 20.00    -0.067 Cl
HETATM    6 CL6  UNL     1     -33.618   4.765   2.207  1.00 20.00    -0.067 Cl
ENDROOT
TORSDOF 0
ENDMDL
MODEL 6
REMARK VINA RESULT:      -3.9      1.999      2.319
REMARK  0 active torsions:
REMARK  status: ('A' for Active; 'I' for Inactive)
ROOT
HETATM    1  C1  UNL     1     -33.372   6.668   4.101  1.00 20.00     0.219 C 
HETATM    2  C2  UNL     1     -33.942   5.507   3.755  1.00 20.00     0.153 C 
HETATM    3  F3  UNL     1     -33.826   7.327   5.193  1.00 20.00    -0.190 F 
HETATM    4 CL4  UNL     1     -32.069   7.390   3.225  1.00 20.00    -0.049 Cl
HETATM    5 CL5  UNL     1     -33.381   4.642   2.363  1.00 20.00    -0.067 Cl
HETATM    6 CL6  UNL     1     -35.245   4.787   4.635  1.00 20.00    -0.067 Cl
ENDROOT
TORSDOF 0
ENDMDL
MODEL 7
REMARK VINA RESULT:      -3.8      1.729      2.355
REMARK  0 active torsions:
REMARK  status: ('A' for Active; 'I' for Inactive)
ROOT
HETATM    1  C1  UNL     1     -34.115   5.219   3.767  1.00 20.00     0.219 C 
HETATM    2  C2  UNL     1     -33.622   6.344   4.302  1.00 20.00     0.153 C 
HETATM    3  F3  UNL     1     -35.053   4.519   4.450  1.00 20.00    -0.190 F 
HETATM    4 CL4  UNL     1     -33.620   4.593   2.235  1.00 20.00    -0.049 Cl
HETATM    5 CL5  UNL     1     -32.422   7.259   3.451  1.00 20.00    -0.067 Cl
HETATM    6 CL6  UNL     1     -34.122   6.967   5.836  1.00 20.00    -0.067 Cl
ENDROOT
TORSDOF 0
ENDMDL
MODEL 8
REMARK VINA RESULT:      -3.8      1.711      2.725
REMARK  0 active torsions:
REMARK  status: ('A' for Active; 'I' for Inactive)
ROOT
HETATM    1  C1  UNL     1     -33.400   6.659   4.547  1.00 20.00     0.219 C 
HETATM    2  C2  UNL     1     -33.930   5.652   3.841  1.00 20.00     0.153 C 
HETATM    3  F3  UNL     1     -32.353   7.347   4.032  1.00 20.00    -0.190 F 
HETATM    4 CL4  UNL     1     -33.979   7.144   6.101  1.00 20.00    -0.049 Cl
HETATM    5 CL5  UNL     1     -35.270   4.755   4.475  1.00 20.00    -0.067 Cl
HETATM    6 CL6  UNL     1     -33.348   5.171   2.285  1.00 20.00    -0.067 Cl
ENDROOT
TORSDOF 0
ENDMDL
MODEL 9
REMARK VINA RESULT:      -3.1      9.178      9.685
REMARK  0 active torsions:
REMARK  status: ('A' for Active; 'I' for Inactive)
ROOT
HETATM    1  C1  UNL     1     -42.552   6.503   0.768  1.00 20.00     0.219 C 
HETATM    2  C2  UNL     1     -41.625   6.764  -0.163  1.00 20.00     0.153 C 
HETATM    3  F3  UNL     1     -43.191   7.534   1.371  1.00 20.00    -0.190 F 
HETATM    4 CL4  UNL     1     -42.990   4.905   1.257  1.00 20.00    -0.049 Cl
HETATM    5 CL5  UNL     1     -40.793   5.465  -0.951  1.00 20.00    -0.067 Cl
HETATM    6 CL6  UNL     1     -41.191   8.366  -0.651  1.00 20.00    -0.067 Cl
ENDROOT
TORSDOF 0
ENDMDL
