MODEL 1
REMARK VINA RESULT:      -5.3      0.000      0.000
REMARK  0 active torsions:
REMARK  status: ('A' for Active; 'I' for Inactive)
ROOT
HETATM    1  C1  UNL     1     -43.258   7.111   0.949  1.00 20.00     0.059 C 
HETATM    2  C2  UNL     1     -42.805   8.242   0.385  1.00 20.00     0.059 C 
HETATM    3  C3  UNL     1     -42.536   5.926   0.394  1.00 20.00     0.332 C 
HETATM    4  C4  UNL     1     -41.732   7.937  -0.609  1.00 20.00     0.332 C 
HETATM    5  C5  UNL     1     -41.269   6.579  -0.119  1.00 20.00     0.379 C 
HETATM    6  F6  UNL     1     -42.263   4.956   1.289  1.00 20.00    -0.195 F 
HETATM    7  F7  UNL     1     -43.233   5.369  -0.625  1.00 20.00    -0.195 F 
HETATM    8  F8  UNL     1     -42.243   7.845  -1.860  1.00 20.00    -0.195 F 
HETATM    9  F9  UNL     1     -40.716   8.822  -0.639  1.00 20.00    -0.195 F 
HETATM   10  F10 UNL     1     -40.643   5.859  -1.061  1.00 20.00    -0.192 F 
HETATM   11  F11 UNL     1     -40.401   6.748   0.913  1.00 20.00    -0.192 F 
ENDROOT
TORSDOF 0
ENDMDL
MODEL 2
REMARK VINA RESULT:      -5.2      8.146      9.583
REMARK  0 active torsions:
REMARK  status: ('A' for Active; 'I' for Inactive)
ROOT
HETATM    1  C1  UNL     1     -33.241   5.248   3.161  1.00 20.00     0.059 C 
HETATM    2  C2  UNL     1     -34.177   4.507   3.774  1.00 20.00     0.059 C 
HETATM    3  C3  UNL     1     -33.290   6.660   3.651  1.00 20.00     0.332 C 
HETATM    4  C4  UNL     1     -34.954   5.341   4.740  1.00 20.00     0.332 C 
HETATM    5  C5  UNL     1     -33.979   6.473   4.988  1.00 20.00     0.379 C 
HETATM    6  F6  UNL     1     -32.089   7.255   3.794  1.00 20.00    -0.195 F 
HETATM    7  F7  UNL     1     -34.043   7.431   2.830  1.00 20.00    -0.195 F 
HETATM    8  F8  UNL     1     -36.092   5.806   4.171  1.00 20.00    -0.195 F 
HETATM    9  F9  UNL     1     -35.290   4.718   5.887  1.00 20.00    -0.195 F 
HETATM   10  F10 UNL     1     -34.563   7.589   5.446  1.00 20.00    -0.192 F 
HETATM   11  F11 UNL     1     -33.063   6.080   5.913  1.00 20.00    -0.192 F 
ENDROOT
TORSDOF 0
ENDMDL
MODEL 3
REMARK VINA RESULT:      -5.2      8.054      9.460
REMARK  0 active torsions:
REMARK  status: ('A' for Active; 'I' for Inactive)
ROOT
HETATM    1  C1  UNL     1     -33.390   6.852   3.972  1.00 20.00     0.059 C 
HETATM    2  C2  UNL     1     -33.785   6.890   5.254  1.00 20.00     0.059 C 
HETATM    3  C3  UNL     1     -33.744   5.538   3.355  1.00 20.00     0.332 C 
HETATM    4  C4  UNL     1     -34.447   5.606   5.635  1.00 20.00     0.332 C 
HETATM    5  C5  UNL     1     -34.861   5.085   4.274  1.00 20.00     0.379 C 
HETATM    6  F6  UNL     1     -34.157   5.603   2.074  1.00 20.00    -0.195 F 
HETATM    7  F7  UNL     1     -32.699   4.678   3.414  1.00 20.00    -0.195 F 
HETATM    8  F8  UNL     1     -33.564   4.762   6.222  1.00 20.00    -0.195 F 
HETATM    9  F9  UNL     1     -35.506   5.734   6.458  1.00 20.00    -0.195 F 
HETATM   10  F10 UNL     1     -35.064   3.760   4.251  1.00 20.00    -0.192 F 
HETATM   11  F11 UNL     1     -36.022   5.685   3.900  1.00 20.00    -0.192 F 
ENDROOT
TORSDOF 0
ENDMDL
MODEL 4
REMARK VINA RESULT:      -5.1      1.310      2.966
REMARK  0 active torsions:
REMARK  status: ('A' for Active; 'I' for Inactive)
ROOT
HETATM    1  C1  UNL     1     -42.884   6.466   1.165  1.00 20.00     0.059 C 
HETATM    2  C2  UNL     1     -42.718   5.350   0.438  1.00 20.00     0.059 C 
HETATM    3  C3  UNL     1     -42.201   7.622   0.510  1.00 20.00     0.332 C 
HETATM    4  C4  UNL     1     -41.905   5.638  -0.783  1.00 20.00     0.332 C 
HETATM    5  C5  UNL     1     -42.121   7.131  -0.922  1.00 20.00     0.379 C 
HETATM    6  F6  UNL     1     -42.862   8.794   0.592  1.00 20.00    -0.195 F 
HETATM    7  F7  UNL     1     -40.960   7.805   1.022  1.00 20.00    -0.195 F 
HETATM    8  F8  UNL     1     -40.596   5.361  -0.569  1.00 20.00    -0.195 F 
HETATM    9  F9  UNL     1     -42.292   4.978  -1.892  1.00 20.00    -0.195 F 
HETATM   10  F10 UNL     1     -41.168   7.741  -1.641  1.00 20.00    -0.192 F 
HETATM   11  F11 UNL     1     -43.309   7.356  -1.541  1.00 20.00    -0.192 F 
ENDROOT
TORSDOF 0
ENDMDL
MODEL 5
REMARK VINA RESULT:      -5.0      8.003      8.998
REMARK  0 active torsions:
REMARK  status: ('A' for Active; 'I' for Inactive)
ROOT
HETATM    1  C1  UNL     1     -34.313   5.982   5.412  1.00 20.00     0.059 C 
HETATM    2  C2  UNL     1     -33.389   6.870   5.014  1.00 20.00     0.059 C 
HETATM    3  C3  UNL     1     -34.853   5.230   4.239  1.00 20.00     0.332 C 
HETATM    4  C4  UNL     1     -33.209   6.809   3.533  1.00 20.00     0.332 C 
HETATM    5  C5  UNL     1     -33.729   5.416   3.240  1.00 20.00     0.379 C 
HETATM    6  F6  UNL     1     -35.100   3.924   4.465  1.00 20.00    -0.195 F 
HETATM    7  F7  UNL     1     -35.996   5.799   3.784  1.00 20.00    -0.195 F 
HETATM    8  F8  UNL     1     -33.971   7.743   2.914  1.00 20.00    -0.195 F 
HETATM    9  F9  UNL     1     -31.940   6.962   3.106  1.00 20.00    -0.195 F 
HETATM   10  F10 UNL     1     -34.115   5.249   1.967  1.00 20.00    -0.192 F 
HETATM   11  F11 UNL     1     -32.748   4.510   3.494  1.00 20.00    -0.192 F 
ENDROOT
TORSDOF 0
ENDMDL
MODEL 6
REMARK VINA RESULT:      -4.9      1.474      2.873
REMARK  0 active torsions:
REMARK  status: ('A' for Active; 'I' for Inactive)
ROOT
HETATM    1  C1  UNL     1     -43.417   6.971  -1.130  1.00 20.00     0.059 C 
HETATM    2  C2  UNL     1     -42.723   5.833  -1.285  1.00 20.00     0.059 C 
HETATM    3  C3  UNL     1     -42.780   7.834  -0.089  1.00 20.00     0.332 C 
HETATM    4  C4  UNL     1     -41.546   5.809  -0.365  1.00 20.00     0.332 C 
HETATM    5  C5  UNL     1     -41.366   7.290  -0.096  1.00 20.00     0.379 C 
HETATM    6  F6  UNL     1     -42.801   9.155  -0.354  1.00 20.00    -0.195 F 
HETATM    7  F7  UNL     1     -43.360   7.641   1.120  1.00 20.00    -0.195 F 
HETATM    8  F8  UNL     1     -41.840   5.148   0.781  1.00 20.00    -0.195 F 
HETATM    9  F9  UNL     1     -40.429   5.262  -0.884  1.00 20.00    -0.195 F 
HETATM   10  F10 UNL     1     -40.691   7.547   1.033  1.00 20.00    -0.192 F 
HETATM   11  F11 UNL     1     -40.675   7.850  -1.124  1.00 20.00    -0.192 F 
ENDROOT
TORSDOF 0
ENDMDL
MODEL 7
REMARK VINA RESULT:      -4.8      0.804      3.098
REMARK  0 active torsions:
REMARK  status: ('A' for Active; 'I' for Inactive)
ROOT
HETATM    1  C1  UNL     1     -42.678   7.720   0.723  1.00 20.00     0.059 C 
HETATM    2  C2  UNL     1     -43.417   6.611   0.880  1.00 20.00     0.059 C 
HETATM    3  C3  UNL     1     -41.352   7.382   0.123  1.00 20.00     0.332 C 
HETATM    4  C4  UNL     1     -42.668   5.410   0.403  1.00 20.00     0.332 C 
HETATM    5  C5  UNL     1     -41.669   6.054  -0.536  1.00 20.00     0.379 C 
HETATM    6  F6  UNL     1     -40.887   8.277  -0.771  1.00 20.00    -0.195 F 
HETATM    7  F7  UNL     1     -40.411   7.225   1.085  1.00 20.00    -0.195 F 
HETATM    8  F8  UNL     1     -42.031   4.797   1.431  1.00 20.00    -0.195 F 
HETATM    9  F9  UNL     1     -43.416   4.486  -0.230  1.00 20.00    -0.195 F 
HETATM   10  F10 UNL     1     -40.584   5.299  -0.759  1.00 20.00    -0.192 F 
HETATM   11  F11 UNL     1     -42.264   6.280  -1.737  1.00 20.00    -0.192 F 
ENDROOT
TORSDOF 0
ENDMDL
MODEL 8
REMARK VINA RESULT:      -4.8      1.420      1.900
REMARK  0 active torsions:
REMARK  status: ('A' for Active; 'I' for Inactive)
ROOT
HETATM    1  C1  UNL     1     -43.247   5.488   0.156  1.00 20.00     0.059 C 
HETATM    2  C2  UNL     1     -42.813   6.358   1.081  1.00 20.00     0.059 C 
HETATM    3  C3  UNL     1     -42.615   5.775  -1.167  1.00 20.00     0.332 C 
HETATM    4  C4  UNL     1     -41.844   7.322   0.479  1.00 20.00     0.332 C 
HETATM    5  C5  UNL     1     -41.380   6.539  -0.732  1.00 20.00     0.379 C 
HETATM    6  F6  UNL     1     -42.290   4.686  -1.892  1.00 20.00    -0.195 F 
HETATM    7  F7  UNL     1     -43.417   6.559  -1.927  1.00 20.00    -0.195 F 
HETATM    8  F8  UNL     1     -42.469   8.463   0.100  1.00 20.00    -0.195 F 
HETATM    9  F9  UNL     1     -40.810   7.660   1.274  1.00 20.00    -0.195 F 
HETATM   10  F10 UNL     1     -40.864   7.311  -1.699  1.00 20.00    -0.192 F 
HETATM   11  F11 UNL     1     -40.417   5.657  -0.353  1.00 20.00    -0.192 F 
ENDROOT
TORSDOF 0
ENDMDL
MODEL 9
REMARK VINA RESULT:      -4.8     10.566     11.878
REMARK  0 active torsions:
REMARK  status: ('A' for Active; 'I' for Inactive)
ROOT
HETATM    1  C1  UNL     1     -35.148  16.307  -5.317  1.00 20.00     0.059 C 
HETATM    2  C2  UNL     1     -34.968  16.721  -4.053  1.00 20.00     0.059 C 
HETATM    3  C3  UNL     1     -34.874  14.842  -5.430  1.00 20.00     0.332 C 
HETATM    4  C4  UNL     1     -34.553  15.580  -3.183  1.00 20.00     0.332 C 
HETATM    5  C5  UNL     1     -35.066  14.405  -3.992  1.00 20.00     0.379 C 
HETATM    6  F6  UNL     1     -35.695  14.172  -6.262  1.00 20.00    -0.195 F 
HETATM    7  F7  UNL     1     -33.599  14.618  -5.831  1.00 20.00    -0.195 F 
HETATM    8  F8  UNL     1     -33.204  15.527  -3.065  1.00 20.00    -0.195 F 
HETATM    9  F9  UNL     1     -35.078  15.591  -1.942  1.00 20.00    -0.195 F 
HETATM   10  F10 UNL     1     -34.451  13.250  -3.700  1.00 20.00    -0.192 F 
HETATM   11  F11 UNL     1     -36.392  14.238  -3.746  1.00 20.00    -0.192 F 
ENDROOT
TORSDOF 0
ENDMDL
