MODEL 1
REMARK VINA RESULT:      -5.4      0.000      0.000
REMARK  0 active torsions:
REMARK  status: ('A' for Active; 'I' for Inactive)
ROOT
HETATM    1  C1  UNL     1     -33.538   5.020   2.791  1.00 20.00     0.006 C 
HETATM    2  C2  UNL     1     -33.395   6.474   3.256  1.00 20.00     0.006 C 
HETATM    3  C3  UNL     1     -34.176   4.264   3.954  1.00 20.00     0.079 C 
HETATM    4  C4  UNL     1     -33.953   6.523   4.675  1.00 20.00     0.079 C 
HETATM    5  C5  UNL     1     -34.902   5.346   4.720  1.00 20.00     0.243 C 
HETATM    6  F6  UNL     1     -35.190   4.973   5.979  1.00 20.00    -0.206 F 
HETATM    7  F7  UNL     1     -36.064   5.657   4.103  1.00 20.00    -0.206 F 
ENDROOT
TORSDOF 0
ENDMDL
MODEL 2
REMARK VINA RESULT:      -5.4      1.226      2.088
REMARK  0 active torsions:
REMARK  status: ('A' for Active; 'I' for Inactive)
ROOT
HETATM    1  C1  UNL     1     -33.688   7.142   4.783  1.00 20.00     0.006 C 
HETATM    2  C2  UNL     1     -34.221   6.590   6.109  1.00 20.00     0.006 C 
HETATM    3  C3  UNL     1     -33.701   5.973   3.801  1.00 20.00     0.079 C 
HETATM    4  C4  UNL     1     -34.529   5.116   5.862  1.00 20.00     0.079 C 
HETATM    5  C5  UNL     1     -34.754   5.050   4.369  1.00 20.00     0.243 C 
HETATM    6  F6  UNL     1     -34.643   3.797   3.893  1.00 20.00    -0.206 F 
HETATM    7  F7  UNL     1     -35.990   5.503   4.060  1.00 20.00    -0.206 F 
ENDROOT
TORSDOF 0
ENDMDL
MODEL 3
REMARK VINA RESULT:      -4.9      1.338      2.585
REMARK  0 active torsions:
REMARK  status: ('A' for Active; 'I' for Inactive)
ROOT
HETATM    1  C1  UNL     1     -34.128   6.804   5.753  1.00 20.00     0.006 C 
HETATM    2  C2  UNL     1     -34.549   5.422   6.264  1.00 20.00     0.006 C 
HETATM    3  C3  UNL     1     -33.796   6.626   4.273  1.00 20.00     0.079 C 
HETATM    4  C4  UNL     1     -34.450   4.479   5.068  1.00 20.00     0.079 C 
HETATM    5  C5  UNL     1     -34.592   5.403   3.880  1.00 20.00     0.243 C 
HETATM    6  F6  UNL     1     -34.139   4.843   2.745  1.00 20.00    -0.206 F 
HETATM    7  F7  UNL     1     -35.891   5.729   3.692  1.00 20.00    -0.206 F 
ENDROOT
TORSDOF 0
ENDMDL
MODEL 4
REMARK VINA RESULT:      -4.6      1.896      2.846
REMARK  0 active torsions:
REMARK  status: ('A' for Active; 'I' for Inactive)
ROOT
HETATM    1  C1  UNL     1     -34.811   5.589   5.893  1.00 20.00     0.006 C 
HETATM    2  C2  UNL     1     -34.988   4.748   4.624  1.00 20.00     0.006 C 
HETATM    3  C3  UNL     1     -33.644   6.533   5.616  1.00 20.00     0.079 C 
HETATM    4  C4  UNL     1     -33.919   5.226   3.645  1.00 20.00     0.079 C 
HETATM    5  C5  UNL     1     -33.624   6.634   4.108  1.00 20.00     0.243 C 
HETATM    6  F6  UNL     1     -32.446   7.086   3.644  1.00 20.00    -0.206 F 
HETATM    7  F7  UNL     1     -34.590   7.480   3.683  1.00 20.00    -0.206 F 
ENDROOT
TORSDOF 0
ENDMDL
MODEL 5
REMARK VINA RESULT:      -4.6      1.292      2.117
REMARK  0 active torsions:
REMARK  status: ('A' for Active; 'I' for Inactive)
ROOT
HETATM    1  C1  UNL     1     -33.305   6.522   4.020  1.00 20.00     0.006 C 
HETATM    2  C2  UNL     1     -34.095   5.354   3.419  1.00 20.00     0.006 C 
HETATM    3  C3  UNL     1     -33.964   6.834   5.362  1.00 20.00     0.079 C 
HETATM    4  C4  UNL     1     -35.191   5.019   4.427  1.00 20.00     0.079 C 
HETATM    5  C5  UNL     1     -34.632   5.531   5.736  1.00 20.00     0.243 C 
HETATM    6  F6  UNL     1     -35.588   5.697   6.666  1.00 20.00    -0.206 F 
HETATM    7  F7  UNL     1     -33.721   4.661   6.228  1.00 20.00    -0.206 F 
ENDROOT
TORSDOF 0
ENDMDL
MODEL 6
REMARK VINA RESULT:      -4.3      1.689      2.573
REMARK  0 active torsions:
REMARK  status: ('A' for Active; 'I' for Inactive)
ROOT
HETATM    1  C1  UNL     1     -34.877   5.479   5.796  1.00 20.00     0.006 C 
HETATM    2  C2  UNL     1     -33.807   6.555   5.581  1.00 20.00     0.006 C 
HETATM    3  C3  UNL     1     -35.286   5.003   4.404  1.00 20.00     0.079 C 
HETATM    4  C4  UNL     1     -33.623   6.675   4.070  1.00 20.00     0.079 C 
HETATM    5  C5  UNL     1     -34.080   5.329   3.553  1.00 20.00     0.243 C 
HETATM    6  F6  UNL     1     -34.376   5.363   2.242  1.00 20.00    -0.206 F 
HETATM    7  F7  UNL     1     -33.112   4.403   3.737  1.00 20.00    -0.206 F 
ENDROOT
TORSDOF 0
ENDMDL
MODEL 7
REMARK VINA RESULT:      -3.9      2.038      2.739
REMARK  0 active torsions:
REMARK  status: ('A' for Active; 'I' for Inactive)
ROOT
HETATM    1  C1  UNL     1     -35.186   4.972   5.184  1.00 20.00     0.006 C 
HETATM    2  C2  UNL     1     -34.262   5.759   6.120  1.00 20.00     0.006 C 
HETATM    3  C3  UNL     1     -35.132   5.687   3.836  1.00 20.00     0.079 C 
HETATM    4  C4  UNL     1     -33.697   6.910   5.291  1.00 20.00     0.079 C 
HETATM    5  C5  UNL     1     -33.801   6.402   3.870  1.00 20.00     0.243 C 
HETATM    6  F6  UNL     1     -33.734   7.397   2.969  1.00 20.00    -0.206 F 
HETATM    7  F7  UNL     1     -32.797   5.535   3.607  1.00 20.00    -0.206 F 
ENDROOT
TORSDOF 0
ENDMDL
MODEL 8
REMARK VINA RESULT:      -3.9      1.630      2.170
REMARK  0 active torsions:
REMARK  status: ('A' for Active; 'I' for Inactive)
ROOT
HETATM    1  C1  UNL     1     -34.916   4.585   4.420  1.00 20.00     0.006 C 
HETATM    2  C2  UNL     1     -34.101   4.915   3.165  1.00 20.00     0.006 C 
HETATM    3  C3  UNL     1     -34.398   5.511   5.518  1.00 20.00     0.079 C 
HETATM    4  C4  UNL     1     -33.131   6.023   3.568  1.00 20.00     0.079 C 
HETATM    5  C5  UNL     1     -33.814   6.674   4.750  1.00 20.00     0.243 C 
HETATM    6  F6  UNL     1     -32.960   7.398   5.494  1.00 20.00    -0.206 F 
HETATM    7  F7  UNL     1     -34.799   7.499   4.328  1.00 20.00    -0.206 F 
ENDROOT
TORSDOF 0
ENDMDL
MODEL 9
REMARK VINA RESULT:      -3.9      8.211      8.794
REMARK  0 active torsions:
REMARK  status: ('A' for Active; 'I' for Inactive)
ROOT
HETATM    1  C1  UNL     1     -41.163   5.930  -0.793  1.00 20.00     0.006 C 
HETATM    2  C2  UNL     1     -42.034   5.494   0.390  1.00 20.00     0.006 C 
HETATM    3  C3  UNL     1     -41.381   7.433  -0.948  1.00 20.00     0.079 C 
HETATM    4  C4  UNL     1     -42.734   6.754   0.890  1.00 20.00     0.079 C 
HETATM    5  C5  UNL     1     -41.821   7.868   0.431  1.00 20.00     0.243 C 
HETATM    6  F6  UNL     1     -42.442   9.060   0.415  1.00 20.00    -0.206 F 
HETATM    7  F7  UNL     1     -40.752   7.968   1.253  1.00 20.00    -0.206 F 
ENDROOT
TORSDOF 0
ENDMDL
