MODEL 1
REMARK VINA RESULT:      -4.3      0.000      0.000
REMARK  0 active torsions:
REMARK  status: ('A' for Active; 'I' for Inactive)
ROOT
HETATM    1  C1  UNL     1     -26.028  19.248   9.803  1.00 20.00     0.101 C 
HETATM    2  C2  UNL     1     -24.345  18.185  10.930  1.00 20.00     0.055 C 
HETATM    3  C3  UNL     1     -23.983  18.468   8.568  1.00 20.00     0.145 C 
HETATM    4  C4  UNL     1     -23.597  18.290  12.042  1.00 20.00     0.112 C 
HETATM    5  C5  UNL     1     -25.275  19.251   8.496  1.00 20.00     0.092 C 
HETATM    6  C6  UNL     1     -23.907  17.437   9.684  1.00 20.00     0.105 C 
HETATM    7  C7  UNL     1     -26.162  18.676   7.401  1.00 20.00     0.023 C 
HETATM    8  C8  UNL     1     -22.535  16.764   9.722  1.00 20.00     0.025 C 
HETATM    9  N9  UNL     1     -25.599  18.757  10.924  1.00 20.00    -0.267 NA
HETATM   10  O10 UNL     1     -23.099  18.615   7.725  1.00 20.00    -0.296 OA
HETATM   11 CL11 UNL     1     -22.050  17.587  12.188  1.00 20.00    -0.095 Cl
ENDROOT
TORSDOF 0
ENDMDL
MODEL 2
REMARK VINA RESULT:      -4.1     16.452     17.790
REMARK  0 active torsions:
REMARK  status: ('A' for Active; 'I' for Inactive)
ROOT
HETATM    1  C1  UNL     1     -34.420  16.677  -6.510  1.00 20.00     0.101 C 
HETATM    2  C2  UNL     1     -34.011  17.286  -4.343  1.00 20.00     0.055 C 
HETATM    3  C3  UNL     1     -34.432  14.942  -4.691  1.00 20.00     0.145 C 
HETATM    4  C4  UNL     1     -33.161  18.015  -3.600  1.00 20.00     0.112 C 
HETATM    5  C5  UNL     1     -34.494  15.207  -6.179  1.00 20.00     0.092 C 
HETATM    6  C6  UNL     1     -34.815  16.116  -3.803  1.00 20.00     0.105 C 
HETATM    7  C7  UNL     1     -35.780  14.626  -6.750  1.00 20.00     0.023 C 
HETATM    8  C8  UNL     1     -34.638  15.772  -2.325  1.00 20.00     0.025 C 
HETATM    9  N9  UNL     1     -34.198  17.634  -5.663  1.00 20.00    -0.267 NA
HETATM   10  O10 UNL     1     -34.163  13.824  -4.252  1.00 20.00    -0.296 OA
HETATM   11 CL11 UNL     1     -32.881  17.711  -1.945  1.00 20.00    -0.095 Cl
ENDROOT
TORSDOF 0
ENDMDL
MODEL 3
REMARK VINA RESULT:      -4.0     16.158     17.741
REMARK  0 active torsions:
REMARK  status: ('A' for Active; 'I' for Inactive)
ROOT
HETATM    1  C1  UNL     1     -33.380  16.642  -2.663  1.00 20.00     0.101 C 
HETATM    2  C2  UNL     1     -34.356  15.326  -4.261  1.00 20.00     0.055 C 
HETATM    3  C3  UNL     1     -35.882  16.581  -2.888  1.00 20.00     0.145 C 
HETATM    4  C4  UNL     1     -34.262  15.014  -5.564  1.00 20.00     0.112 C 
HETATM    5  C5  UNL     1     -34.694  17.235  -2.218  1.00 20.00     0.092 C 
HETATM    6  C6  UNL     1     -35.632  15.190  -3.449  1.00 20.00     0.105 C 
HETATM    7  C7  UNL     1     -34.820  17.102  -0.707  1.00 20.00     0.023 C 
HETATM    8  C8  UNL     1     -36.866  14.657  -4.176  1.00 20.00     0.025 C 
HETATM    9  N9  UNL     1     -33.225  15.762  -3.604  1.00 20.00    -0.267 NA
HETATM   10  O10 UNL     1     -36.987  17.124  -2.897  1.00 20.00    -0.296 OA
HETATM   11 CL11 UNL     1     -35.578  14.421  -6.473  1.00 20.00    -0.095 Cl
ENDROOT
TORSDOF 0
ENDMDL
MODEL 4
REMARK VINA RESULT:      -4.0     16.602     18.077
REMARK  0 active torsions:
REMARK  status: ('A' for Active; 'I' for Inactive)
ROOT
HETATM    1  C1  UNL     1     -34.841  14.818  -3.296  1.00 20.00     0.101 C 
HETATM    2  C2  UNL     1     -34.714  15.563  -5.455  1.00 20.00     0.055 C 
HETATM    3  C3  UNL     1     -33.783  17.041  -3.801  1.00 20.00     0.145 C 
HETATM    4  C4  UNL     1     -34.371  15.154  -6.689  1.00 20.00     0.112 C 
HETATM    5  C5  UNL     1     -34.067  15.992  -2.749  1.00 20.00     0.092 C 
HETATM    6  C6  UNL     1     -34.701  17.016  -5.013  1.00 20.00     0.105 C 
HETATM    7  C7  UNL     1     -34.845  16.616  -1.600  1.00 20.00     0.023 C 
HETATM    8  C8  UNL     1     -34.277  18.055  -6.050  1.00 20.00     0.025 C 
HETATM    9  N9  UNL     1     -35.139  14.622  -4.543  1.00 20.00    -0.267 NA
HETATM   10  O10 UNL     1     -32.914  17.896  -3.631  1.00 20.00    -0.296 OA
HETATM   11 CL11 UNL     1     -33.873  16.227  -7.917  1.00 20.00    -0.095 Cl
ENDROOT
TORSDOF 0
ENDMDL
MODEL 5
REMARK VINA RESULT:      -4.0     16.108     17.347
REMARK  0 active torsions:
REMARK  status: ('A' for Active; 'I' for Inactive)
ROOT
HETATM    1  C1  UNL     1     -35.032  15.244  -5.024  1.00 20.00     0.101 C 
HETATM    2  C2  UNL     1     -36.197  16.283  -3.352  1.00 20.00     0.055 C 
HETATM    3  C3  UNL     1     -33.809  16.226  -3.060  1.00 20.00     0.145 C 
HETATM    4  C4  UNL     1     -37.173  17.186  -3.157  1.00 20.00     0.112 C 
HETATM    5  C5  UNL     1     -33.689  15.580  -4.423  1.00 20.00     0.092 C 
HETATM    6  C6  UNL     1     -35.118  15.971  -2.329  1.00 20.00     0.105 C 
HETATM    7  C7  UNL     1     -32.853  14.313  -4.317  1.00 20.00     0.023 C 
HETATM    8  C8  UNL     1     -35.171  16.734  -1.007  1.00 20.00     0.025 C 
HETATM    9  N9  UNL     1     -36.186  15.568  -4.530  1.00 20.00    -0.267 NA
HETATM   10  O10 UNL     1     -32.869  16.846  -2.563  1.00 20.00    -0.296 OA
HETATM   11 CL11 UNL     1     -37.319  18.100  -1.724  1.00 20.00    -0.095 Cl
ENDROOT
TORSDOF 0
ENDMDL
MODEL 6
REMARK VINA RESULT:      -3.9     16.262     18.003
REMARK  0 active torsions:
REMARK  status: ('A' for Active; 'I' for Inactive)
ROOT
HETATM    1  C1  UNL     1     -36.275  15.925  -5.676  1.00 20.00     0.101 C 
HETATM    2  C2  UNL     1     -34.794  17.317  -4.625  1.00 20.00     0.055 C 
HETATM    3  C3  UNL     1     -34.270  14.972  -4.497  1.00 20.00     0.145 C 
HETATM    4  C4  UNL     1     -34.103  18.452  -4.819  1.00 20.00     0.112 C 
HETATM    5  C5  UNL     1     -35.455  14.691  -5.395  1.00 20.00     0.092 C 
HETATM    6  C6  UNL     1     -34.378  16.230  -3.650  1.00 20.00     0.105 C 
HETATM    7  C7  UNL     1     -36.342  13.631  -4.756  1.00 20.00     0.023 C 
HETATM    8  C8  UNL     1     -33.100  16.467  -2.847  1.00 20.00     0.025 C 
HETATM    9  N9  UNL     1     -35.970  17.135  -5.321  1.00 20.00    -0.267 NA
HETATM   10  O10 UNL     1     -33.330  14.183  -4.417  1.00 20.00    -0.296 OA
HETATM   11 CL11 UNL     1     -32.659  18.813  -3.984  1.00 20.00    -0.095 Cl
ENDROOT
TORSDOF 0
ENDMDL
MODEL 7
REMARK VINA RESULT:      -3.8     18.352     19.571
REMARK  0 active torsions:
REMARK  status: ('A' for Active; 'I' for Inactive)
ROOT
HETATM    1  C1  UNL     1     -36.279  13.655  -4.719  1.00 20.00     0.101 C 
HETATM    2  C2  UNL     1     -37.971  15.128  -4.274  1.00 20.00     0.055 C 
HETATM    3  C3  UNL     1     -35.827  16.128  -4.710  1.00 20.00     0.145 C 
HETATM    4  C4  UNL     1     -39.247  15.393  -4.605  1.00 20.00     0.112 C 
HETATM    5  C5  UNL     1     -35.280  14.749  -5.006  1.00 20.00     0.092 C 
HETATM    6  C6  UNL     1     -37.001  16.170  -3.745  1.00 20.00     0.105 C 
HETATM    7  C7  UNL     1     -34.021  14.509  -4.183  1.00 20.00     0.023 C 
HETATM    8  C8  UNL     1     -37.531  17.595  -3.581  1.00 20.00     0.025 C 
HETATM    9  N9  UNL     1     -37.519  13.831  -4.382  1.00 20.00    -0.267 NA
HETATM   10  O10 UNL     1     -35.293  17.138  -5.167  1.00 20.00    -0.296 OA
HETATM   11 CL11 UNL     1     -39.936  16.948  -4.471  1.00 20.00    -0.095 Cl
ENDROOT
TORSDOF 0
ENDMDL
MODEL 8
REMARK VINA RESULT:      -3.8     15.923     17.273
REMARK  0 active torsions:
REMARK  status: ('A' for Active; 'I' for Inactive)
ROOT
HETATM    1  C1  UNL     1     -35.393  14.638  -4.651  1.00 20.00     0.101 C 
HETATM    2  C2  UNL     1     -34.663  15.798  -2.819  1.00 20.00     0.055 C 
HETATM    3  C3  UNL     1     -34.194  16.828  -4.942  1.00 20.00     0.145 C 
HETATM    4  C4  UNL     1     -35.075  16.218  -1.610  1.00 20.00     0.112 C 
HETATM    5  C5  UNL     1     -34.966  15.716  -5.616  1.00 20.00     0.092 C 
HETATM    6  C6  UNL     1     -33.553  16.463  -3.612  1.00 20.00     0.105 C 
HETATM    7  C7  UNL     1     -34.117  15.097  -6.718  1.00 20.00     0.023 C 
HETATM    8  C8  UNL     1     -32.872  17.675  -2.976  1.00 20.00     0.025 C 
HETATM    9  N9  UNL     1     -35.253  14.677  -3.362  1.00 20.00    -0.267 NA
HETATM   10  O10 UNL     1     -34.042  17.921  -5.487  1.00 20.00    -0.296 OA
HETATM   11 CL11 UNL     1     -34.392  17.564  -0.815  1.00 20.00    -0.095 Cl
ENDROOT
TORSDOF 0
ENDMDL
MODEL 9
REMARK VINA RESULT:      -3.8     15.585     17.440
REMARK  0 active torsions:
REMARK  status: ('A' for Active; 'I' for Inactive)
ROOT
HETATM    1  C1  UNL     1     -33.603  18.383  -3.848  1.00 20.00     0.101 C 
HETATM    2  C2  UNL     1     -34.355  16.545  -4.983  1.00 20.00     0.055 C 
HETATM    3  C3  UNL     1     -34.438  16.377  -2.585  1.00 20.00     0.145 C 
HETATM    4  C4  UNL     1     -35.156  16.197  -6.005  1.00 20.00     0.112 C 
HETATM    5  C5  UNL     1     -33.964  17.811  -2.500  1.00 20.00     0.092 C 
HETATM    6  C6  UNL     1     -34.006  15.620  -3.830  1.00 20.00     0.105 C 
HETATM    7  C7  UNL     1     -32.757  17.899  -1.576  1.00 20.00     0.023 C 
HETATM    8  C8  UNL     1     -34.605  14.215  -3.859  1.00 20.00     0.025 C 
HETATM    9  N9  UNL     1     -33.783  17.799  -4.992  1.00 20.00    -0.267 NA
HETATM   10  O10 UNL     1     -35.063  15.856  -1.661  1.00 20.00    -0.296 OA
HETATM   11 CL11 UNL     1     -35.885  14.659  -6.130  1.00 20.00    -0.095 Cl
ENDROOT
TORSDOF 0
ENDMDL
