MODEL 1
REMARK VINA RESULT:      -4.3      0.000      0.000
REMARK  0 active torsions:
REMARK  status: ('A' for Active; 'I' for Inactive)
ROOT
HETATM    1  C1  UNL     1     -25.466  19.053   9.507  1.00 20.00    -0.011 C 
HETATM    2  C2  UNL     1     -24.727  18.839   8.409  1.00 20.00    -0.015 C 
HETATM    3  C3  UNL     1     -24.992  18.727  10.895  1.00 20.00     0.036 C 
HETATM    4  C4  UNL     1     -23.338  18.267   8.454  1.00 20.00     0.047 C 
HETATM    5  C5  UNL     1     -22.745  18.232   9.869  1.00 20.00     0.014 C 
HETATM    6  C6  UNL     1     -23.763  17.786  10.941  1.00 20.00    -0.044 C 
HETATM    7  C7  UNL     1     -23.109  17.873  12.331  1.00 20.00     0.015 C 
HETATM    8  C8  UNL     1     -24.194  16.325  10.707  1.00 20.00     0.015 C 
HETATM    9 BR9  UNL     1     -25.362  19.244   6.697  1.00 20.00    -0.056 Br
ENDROOT
TORSDOF 0
ENDMDL
MODEL 2
REMARK VINA RESULT:      -4.1     15.145     16.724
REMARK  0 active torsions:
REMARK  status: ('A' for Active; 'I' for Inactive)
ROOT
HETATM    1  C1  UNL     1     -33.779  15.044  -4.034  1.00 20.00    -0.011 C 
HETATM    2  C2  UNL     1     -35.082  14.973  -3.725  1.00 20.00    -0.015 C 
HETATM    3  C3  UNL     1     -32.828  16.005  -3.377  1.00 20.00     0.036 C 
HETATM    4  C4  UNL     1     -35.724  15.833  -2.674  1.00 20.00     0.047 C 
HETATM    5  C5  UNL     1     -34.706  16.576  -1.797  1.00 20.00     0.014 C 
HETATM    6  C6  UNL     1     -33.521  17.152  -2.602  1.00 20.00    -0.044 C 
HETATM    7  C7  UNL     1     -32.511  17.793  -1.633  1.00 20.00     0.015 C 
HETATM    8  C8  UNL     1     -34.006  18.244  -3.576  1.00 20.00     0.015 C 
HETATM    9 BR9  UNL     1     -36.234  13.774  -4.580  1.00 20.00    -0.056 Br
ENDROOT
TORSDOF 0
ENDMDL
MODEL 3
REMARK VINA RESULT:      -4.1      2.088      3.270
REMARK  0 active torsions:
REMARK  status: ('A' for Active; 'I' for Inactive)
ROOT
HETATM    1  C1  UNL     1     -24.651  19.036   9.487  1.00 20.00    -0.011 C 
HETATM    2  C2  UNL     1     -24.788  18.237  10.555  1.00 20.00    -0.015 C 
HETATM    3  C3  UNL     1     -23.630  18.802   8.409  1.00 20.00     0.036 C 
HETATM    4  C4  UNL     1     -23.947  17.012  10.776  1.00 20.00     0.047 C 
HETATM    5  C5  UNL     1     -23.137  16.604   9.538  1.00 20.00     0.014 C 
HETATM    6  C6  UNL     1     -22.510  17.807   8.801  1.00 20.00    -0.044 C 
HETATM    7  C7  UNL     1     -21.802  17.313   7.528  1.00 20.00     0.015 C 
HETATM    8  C8  UNL     1     -21.461  18.503   9.692  1.00 20.00     0.015 C 
HETATM    9 BR9  UNL     1     -26.060  18.576  11.883  1.00 20.00    -0.056 Br
ENDROOT
TORSDOF 0
ENDMDL
MODEL 4
REMARK VINA RESULT:      -4.1     15.612     17.190
REMARK  0 active torsions:
REMARK  status: ('A' for Active; 'I' for Inactive)
ROOT
HETATM    1  C1  UNL     1     -34.891  16.490  -2.119  1.00 20.00    -0.011 C 
HETATM    2  C2  UNL     1     -33.610  16.669  -2.474  1.00 20.00    -0.015 C 
HETATM    3  C3  UNL     1     -35.800  15.499  -2.790  1.00 20.00     0.036 C 
HETATM    4  C4  UNL     1     -32.944  15.883  -3.568  1.00 20.00     0.047 C 
HETATM    5  C5  UNL     1     -33.767  14.673  -4.029  1.00 20.00     0.014 C 
HETATM    6  C6  UNL     1     -35.276  14.978  -4.151  1.00 20.00    -0.044 C 
HETATM    7  C7  UNL     1     -36.028  13.689  -4.524  1.00 20.00     0.015 C 
HETATM    8  C8  UNL     1     -35.532  16.018  -5.260  1.00 20.00     0.015 C 
HETATM    9 BR9  UNL     1     -32.518  17.926  -1.623  1.00 20.00    -0.056 Br
ENDROOT
TORSDOF 0
ENDMDL
MODEL 5
REMARK VINA RESULT:      -4.0     15.806     16.816
REMARK  0 active torsions:
REMARK  status: ('A' for Active; 'I' for Inactive)
ROOT
HETATM    1  C1  UNL     1     -33.138   7.392   3.777  1.00 20.00    -0.011 C 
HETATM    2  C2  UNL     1     -32.948   6.773   2.602  1.00 20.00    -0.015 C 
HETATM    3  C3  UNL     1     -33.762   6.722   4.969  1.00 20.00     0.036 C 
HETATM    4  C4  UNL     1     -33.322   5.338   2.361  1.00 20.00     0.047 C 
HETATM    5  C5  UNL     1     -33.659   4.577   3.650  1.00 20.00     0.014 C 
HETATM    6  C6  UNL     1     -34.508   5.406   4.638  1.00 20.00    -0.044 C 
HETATM    7  C7  UNL     1     -34.714   4.601   5.933  1.00 20.00     0.015 C 
HETATM    8  C8  UNL     1     -35.895   5.711   4.040  1.00 20.00     0.015 C 
HETATM    9 BR9  UNL     1     -32.184   7.650   1.138  1.00 20.00    -0.056 Br
ENDROOT
TORSDOF 0
ENDMDL
MODEL 6
REMARK VINA RESULT:      -4.0     14.883     16.280
REMARK  0 active torsions:
REMARK  status: ('A' for Active; 'I' for Inactive)
ROOT
HETATM    1  C1  UNL     1     -35.156  16.512  -1.482  1.00 20.00    -0.011 C 
HETATM    2  C2  UNL     1     -34.210  17.437  -1.264  1.00 20.00    -0.015 C 
HETATM    3  C3  UNL     1     -35.103  15.533  -2.622  1.00 20.00     0.036 C 
HETATM    4  C4  UNL     1     -32.987  17.580  -2.125  1.00 20.00     0.047 C 
HETATM    5  C5  UNL     1     -32.780  16.396  -3.080  1.00 20.00     0.014 C 
HETATM    6  C6  UNL     1     -34.091  15.908  -3.733  1.00 20.00    -0.044 C 
HETATM    7  C7  UNL     1     -33.801  14.667  -4.594  1.00 20.00     0.015 C 
HETATM    8  C8  UNL     1     -34.680  16.998  -4.650  1.00 20.00     0.015 C 
HETATM    9 BR9  UNL     1     -34.325  18.648   0.157  1.00 20.00    -0.056 Br
ENDROOT
TORSDOF 0
ENDMDL
MODEL 7
REMARK VINA RESULT:      -4.0      1.936      2.612
REMARK  0 active torsions:
REMARK  status: ('A' for Active; 'I' for Inactive)
ROOT
HETATM    1  C1  UNL     1     -23.898  18.184   9.150  1.00 20.00    -0.011 C 
HETATM    2  C2  UNL     1     -22.730  17.762   9.656  1.00 20.00    -0.015 C 
HETATM    3  C3  UNL     1     -25.076  18.562  10.001  1.00 20.00     0.036 C 
HETATM    4  C4  UNL     1     -22.471  17.643  11.132  1.00 20.00     0.047 C 
HETATM    5  C5  UNL     1     -23.548  18.320  11.990  1.00 20.00     0.014 C 
HETATM    6  C6  UNL     1     -24.980  18.075  11.469  1.00 20.00    -0.044 C 
HETATM    7  C7  UNL     1     -25.979  18.866  12.332  1.00 20.00     0.015 C 
HETATM    8  C8  UNL     1     -25.346  16.581  11.565  1.00 20.00     0.015 C 
HETATM    9 BR9  UNL     1     -21.293  17.285   8.559  1.00 20.00    -0.056 Br
ENDROOT
TORSDOF 0
ENDMDL
MODEL 8
REMARK VINA RESULT:      -4.0     23.528     24.335
REMARK  0 active torsions:
REMARK  status: ('A' for Active; 'I' for Inactive)
ROOT
HETATM    1  C1  UNL     1     -43.417   5.961  -1.918  1.00 20.00    -0.011 C 
HETATM    2  C2  UNL     1     -42.549   4.941  -1.859  1.00 20.00    -0.015 C 
HETATM    3  C3  UNL     1     -43.163   7.298  -1.280  1.00 20.00     0.036 C 
HETATM    4  C4  UNL     1     -41.220   5.035  -1.164  1.00 20.00     0.047 C 
HETATM    5  C5  UNL     1     -40.832   6.473  -0.793  1.00 20.00     0.014 C 
HETATM    6  C6  UNL     1     -42.016   7.296  -0.240  1.00 20.00    -0.044 C 
HETATM    7  C7  UNL     1     -41.557   8.743   0.012  1.00 20.00     0.015 C 
HETATM    8  C8  UNL     1     -42.505   6.710   1.100  1.00 20.00     0.015 C 
HETATM    9 BR9  UNL     1     -42.913   3.288  -2.653  1.00 20.00    -0.056 Br
ENDROOT
TORSDOF 0
ENDMDL
MODEL 9
REMARK VINA RESULT:      -3.9     14.478     15.731
REMARK  0 active torsions:
REMARK  status: ('A' for Active; 'I' for Inactive)
ROOT
HETATM    1  C1  UNL     1     -32.838  16.778  -2.699  1.00 20.00    -0.011 C 
HETATM    2  C2  UNL     1     -33.817  15.924  -3.030  1.00 20.00    -0.015 C 
HETATM    3  C3  UNL     1     -32.971  17.799  -1.604  1.00 20.00     0.036 C 
HETATM    4  C4  UNL     1     -35.144  15.885  -2.326  1.00 20.00     0.047 C 
HETATM    5  C5  UNL     1     -35.161  16.697  -1.024  1.00 20.00     0.014 C 
HETATM    6  C6  UNL     1     -34.428  18.051  -1.145  1.00 20.00    -0.044 C 
HETATM    7  C7  UNL     1     -34.415  18.747   0.227  1.00 20.00     0.015 C 
HETATM    8  C8  UNL     1     -35.154  18.974  -2.143  1.00 20.00     0.015 C 
HETATM    9 BR9  UNL     1     -33.616  14.680  -4.411  1.00 20.00    -0.056 Br
ENDROOT
TORSDOF 0
ENDMDL
