MODEL 1
REMARK VINA RESULT:      -5.0      0.000      0.000
REMARK  0 active torsions:
REMARK  status: ('A' for Active; 'I' for Inactive)
ROOT
HETATM    1  C1  UNL     1     -32.810  15.281  -3.902  1.00 20.00     0.009 C 
HETATM    2  C2  UNL     1     -34.459  16.122  -2.203  1.00 20.00     0.009 C 
HETATM    3  C3  UNL     1     -33.695  17.620  -4.062  1.00 20.00     0.013 C 
HETATM    4  C4  UNL     1     -34.392  15.889  -5.742  1.00 20.00     0.014 C 
HETATM    5  C5  UNL     1     -36.043  16.732  -4.038  1.00 20.00     0.014 C 
HETATM    6  C6  UNL     1     -33.264  16.507  -3.092  1.00 20.00    -0.013 C 
HETATM    7  C7  UNL     1     -33.970  14.764  -4.776  1.00 20.00    -0.009 C 
HETATM    8  C8  UNL     1     -35.623  15.608  -3.072  1.00 20.00    -0.009 C 
HETATM    9  C9  UNL     1     -35.141  14.359  -3.850  1.00 20.00    -0.010 C 
HETATM   10  C10 UNL     1     -34.862  17.133  -4.952  1.00 20.00    -0.043 C 
HETATM   11  C11 UNL     1     -36.274  13.654  -4.600  1.00 20.00     0.010 C 
HETATM   12  C12 UNL     1     -35.290  18.243  -5.917  1.00 20.00     0.015 C 
ENDROOT
TORSDOF 0
ENDMDL
MODEL 2
REMARK VINA RESULT:      -5.0      0.807      2.669
REMARK  0 active torsions:
REMARK  status: ('A' for Active; 'I' for Inactive)
ROOT
HETATM    1  C1  UNL     1     -34.333  15.666  -5.793  1.00 20.00     0.009 C 
HETATM    2  C2  UNL     1     -34.932  14.053  -3.961  1.00 20.00     0.009 C 
HETATM    3  C3  UNL     1     -32.908  15.514  -3.738  1.00 20.00     0.013 C 
HETATM    4  C4  UNL     1     -34.329  17.544  -4.141  1.00 20.00     0.014 C 
HETATM    5  C5  UNL     1     -34.928  15.927  -2.306  1.00 20.00     0.014 C 
HETATM    6  C6  UNL     1     -33.771  14.711  -4.725  1.00 20.00    -0.013 C 
HETATM    7  C7  UNL     1     -35.206  16.749  -5.128  1.00 20.00    -0.009 C 
HETATM    8  C8  UNL     1     -35.806  15.132  -3.291  1.00 20.00    -0.009 C 
HETATM    9  C9  UNL     1     -36.378  16.055  -4.395  1.00 20.00    -0.010 C 
HETATM   10  C10 UNL     1     -33.756  16.609  -3.050  1.00 20.00    -0.043 C 
HETATM   11  C11 UNL     1     -37.413  17.047  -3.859  1.00 20.00     0.010 C 
HETATM   12  C12 UNL     1     -32.895  17.406  -2.066  1.00 20.00     0.015 C 
ENDROOT
TORSDOF 0
ENDMDL
MODEL 3
REMARK VINA RESULT:      -4.9      0.448      2.571
REMARK  0 active torsions:
REMARK  status: ('A' for Active; 'I' for Inactive)
ROOT
HETATM    1  C1  UNL     1     -35.316  14.297  -4.140  1.00 20.00     0.009 C 
HETATM    2  C2  UNL     1     -32.946  15.121  -3.995  1.00 20.00     0.009 C 
HETATM    3  C3  UNL     1     -34.436  15.898  -5.855  1.00 20.00     0.013 C 
HETATM    4  C4  UNL     1     -36.138  16.658  -4.174  1.00 20.00     0.014 C 
HETATM    5  C5  UNL     1     -33.764  17.485  -4.029  1.00 20.00     0.014 C 
HETATM    6  C6  UNL     1     -34.075  14.706  -4.954  1.00 20.00    -0.013 C 
HETATM    7  C7  UNL     1     -35.782  15.472  -3.258  1.00 20.00    -0.009 C 
HETATM    8  C8  UNL     1     -33.406  16.299  -3.112  1.00 20.00    -0.009 C 
HETATM    9  C9  UNL     1     -34.635  15.844  -2.288  1.00 20.00    -0.010 C 
HETATM   10  C10 UNL     1     -34.905  17.097  -4.998  1.00 20.00    -0.043 C 
HETATM   11  C11 UNL     1     -35.058  16.873  -1.237  1.00 20.00     0.010 C 
HETATM   12  C12 UNL     1     -35.263  18.283  -5.898  1.00 20.00     0.015 C 
ENDROOT
TORSDOF 0
ENDMDL
MODEL 4
REMARK VINA RESULT:      -4.9      1.079      3.217
REMARK  0 active torsions:
REMARK  status: ('A' for Active; 'I' for Inactive)
ROOT
HETATM    1  C1  UNL     1     -36.975  15.142  -4.036  1.00 20.00     0.009 C 
HETATM    2  C2  UNL     1     -35.246  13.319  -4.069  1.00 20.00     0.009 C 
HETATM    3  C3  UNL     1     -35.874  14.494  -6.192  1.00 20.00     0.013 C 
HETATM    4  C4  UNL     1     -35.352  16.704  -5.123  1.00 20.00     0.014 C 
HETATM    5  C5  UNL     1     -33.620  14.877  -5.156  1.00 20.00     0.014 C 
HETATM    6  C6  UNL     1     -36.403  13.967  -4.848  1.00 20.00    -0.013 C 
HETATM    7  C7  UNL     1     -35.874  16.187  -3.768  1.00 20.00    -0.009 C 
HETATM    8  C8  UNL     1     -34.140  14.358  -3.801  1.00 20.00    -0.009 C 
HETATM    9  C9  UNL     1     -34.741  15.510  -2.959  1.00 20.00    -0.010 C 
HETATM   10  C10 UNL     1     -34.763  15.543  -5.957  1.00 20.00    -0.043 C 
HETATM   11  C11 UNL     1     -33.684  16.504  -2.474  1.00 20.00     0.010 C 
HETATM   12  C12 UNL     1     -34.237  16.066  -7.297  1.00 20.00     0.015 C 
ENDROOT
TORSDOF 0
ENDMDL
MODEL 5
REMARK VINA RESULT:      -4.7      0.969      2.848
REMARK  0 active torsions:
REMARK  status: ('A' for Active; 'I' for Inactive)
ROOT
HETATM    1  C1  UNL     1     -35.596  13.833  -4.113  1.00 20.00     0.009 C 
HETATM    2  C2  UNL     1     -36.673  16.032  -4.675  1.00 20.00     0.009 C 
HETATM    3  C3  UNL     1     -35.165  15.845  -2.682  1.00 20.00     0.013 C 
HETATM    4  C4  UNL     1     -33.346  14.923  -4.147  1.00 20.00     0.014 C 
HETATM    5  C5  UNL     1     -34.425  17.127  -4.710  1.00 20.00     0.014 C 
HETATM    6  C6  UNL     1     -36.219  15.113  -3.529  1.00 20.00    -0.013 C 
HETATM    7  C7  UNL     1     -34.393  14.190  -5.008  1.00 20.00    -0.009 C 
HETATM    8  C8  UNL     1     -35.473  16.396  -5.571  1.00 20.00    -0.009 C 
HETATM    9  C9  UNL     1     -34.890  15.090  -6.164  1.00 20.00    -0.010 C 
HETATM   10  C10 UNL     1     -33.944  16.220  -3.554  1.00 20.00    -0.043 C 
HETATM   11  C11 UNL     1     -33.812  15.348  -7.219  1.00 20.00     0.010 C 
HETATM   12  C12 UNL     1     -32.895  16.950  -2.709  1.00 20.00     0.015 C 
ENDROOT
TORSDOF 0
ENDMDL
MODEL 6
REMARK VINA RESULT:      -4.5      1.367      2.082
REMARK  0 active torsions:
REMARK  status: ('A' for Active; 'I' for Inactive)
ROOT
HETATM    1  C1  UNL     1     -32.929  17.559  -1.952  1.00 20.00     0.009 C 
HETATM    2  C2  UNL     1     -35.139  16.659  -1.167  1.00 20.00     0.009 C 
HETATM    3  C3  UNL     1     -35.032  18.856  -2.368  1.00 20.00     0.013 C 
HETATM    4  C4  UNL     1     -33.830  17.754  -4.277  1.00 20.00     0.014 C 
HETATM    5  C5  UNL     1     -36.046  16.852  -3.490  1.00 20.00     0.014 C 
HETATM    6  C6  UNL     1     -34.305  17.934  -1.375  1.00 20.00    -0.013 C 
HETATM    7  C7  UNL     1     -33.099  16.819  -3.293  1.00 20.00    -0.009 C 
HETATM    8  C8  UNL     1     -35.317  15.916  -2.506  1.00 20.00    -0.009 C 
HETATM    9  C9  UNL     1     -33.917  15.529  -3.042  1.00 20.00    -0.010 C 
HETATM   10  C10 UNL     1     -35.223  18.140  -3.725  1.00 20.00    -0.043 C 
HETATM   11  C11 UNL     1     -33.983  14.621  -4.272  1.00 20.00     0.010 C 
HETATM   12  C12 UNL     1     -35.948  19.060  -4.712  1.00 20.00     0.015 C 
ENDROOT
TORSDOF 0
ENDMDL
MODEL 7
REMARK VINA RESULT:      -4.5      1.376      3.335
REMARK  0 active torsions:
REMARK  status: ('A' for Active; 'I' for Inactive)
ROOT
HETATM    1  C1  UNL     1     -33.521  17.651  -1.501  1.00 20.00     0.009 C 
HETATM    2  C2  UNL     1     -33.520  18.415  -3.895  1.00 20.00     0.009 C 
HETATM    3  C3  UNL     1     -33.016  16.024  -3.339  1.00 20.00     0.013 C 
HETATM    4  C4  UNL     1     -35.176  15.864  -2.069  1.00 20.00     0.014 C 
HETATM    5  C5  UNL     1     -35.174  16.629  -4.468  1.00 20.00     0.014 C 
HETATM    6  C6  UNL     1     -32.849  17.480  -2.875  1.00 20.00    -0.013 C 
HETATM    7  C7  UNL     1     -35.024  17.325  -1.602  1.00 20.00    -0.009 C 
HETATM    8  C8  UNL     1     -35.024  18.090  -4.003  1.00 20.00    -0.009 C 
HETATM    9  C9  UNL     1     -35.672  18.301  -2.613  1.00 20.00    -0.010 C 
HETATM   10  C10 UNL     1     -34.515  15.666  -3.454  1.00 20.00    -0.043 C 
HETATM   11  C11 UNL     1     -37.198  18.190  -2.649  1.00 20.00     0.010 C 
HETATM   12  C12 UNL     1     -34.679  14.215  -3.917  1.00 20.00     0.015 C 
ENDROOT
TORSDOF 0
ENDMDL
MODEL 8
REMARK VINA RESULT:      -4.5      1.046      3.121
REMARK  0 active torsions:
REMARK  status: ('A' for Active; 'I' for Inactive)
ROOT
HETATM    1  C1  UNL     1     -33.532  14.734  -5.548  1.00 20.00     0.009 C 
HETATM    2  C2  UNL     1     -34.542  16.990  -5.997  1.00 20.00     0.009 C 
HETATM    3  C3  UNL     1     -35.968  14.931  -6.101  1.00 20.00     0.013 C 
HETATM    4  C4  UNL     1     -35.246  14.315  -3.776  1.00 20.00     0.014 C 
HETATM    5  C5  UNL     1     -36.259  16.576  -4.226  1.00 20.00     0.014 C 
HETATM    6  C6  UNL     1     -34.569  15.502  -6.385  1.00 20.00    -0.013 C 
HETATM    7  C7  UNL     1     -33.842  14.890  -4.046  1.00 20.00    -0.009 C 
HETATM    8  C8  UNL     1     -34.856  17.152  -4.496  1.00 20.00    -0.009 C 
HETATM    9  C9  UNL     1     -33.778  16.393  -3.684  1.00 20.00    -0.010 C 
HETATM   10  C10 UNL     1     -36.312  15.076  -4.600  1.00 20.00    -0.043 C 
HETATM   11  C11 UNL     1     -33.884  16.645  -2.178  1.00 20.00     0.010 C 
HETATM   12  C12 UNL     1     -37.706  14.508  -4.319  1.00 20.00     0.015 C 
ENDROOT
TORSDOF 0
ENDMDL
MODEL 9
REMARK VINA RESULT:      -4.4      1.293      2.236
REMARK  0 active torsions:
REMARK  status: ('A' for Active; 'I' for Inactive)
ROOT
HETATM    1  C1  UNL     1     -35.181  13.304  -4.058  1.00 20.00     0.009 C 
HETATM    2  C2  UNL     1     -34.804  15.537  -2.970  1.00 20.00     0.009 C 
HETATM    3  C3  UNL     1     -33.634  14.970  -5.113  1.00 20.00     0.013 C 
HETATM    4  C4  UNL     1     -35.846  14.446  -6.181  1.00 20.00     0.014 C 
HETATM    5  C5  UNL     1     -35.467  16.685  -5.091  1.00 20.00     0.014 C 
HETATM    6  C6  UNL     1     -34.144  14.406  -3.777  1.00 20.00    -0.013 C 
HETATM    7  C7  UNL     1     -36.372  13.885  -4.845  1.00 20.00    -0.009 C 
HETATM    8  C8  UNL     1     -35.993  16.125  -3.755  1.00 20.00    -0.009 C 
HETATM    9  C9  UNL     1     -37.028  14.998  -3.994  1.00 20.00    -0.010 C 
HETATM   10  C10 UNL     1     -34.807  15.564  -5.927  1.00 20.00    -0.043 C 
HETATM   11  C11 UNL     1     -38.336  15.513  -4.599  1.00 20.00     0.010 C 
HETATM   12  C12 UNL     1     -34.296  16.126  -7.258  1.00 20.00     0.015 C 
ENDROOT
TORSDOF 0
ENDMDL
