MODEL 1
REMARK VINA RESULT:      -4.0      0.000      0.000
REMARK  1 active torsions:
REMARK  status: ('A' for Active; 'I' for Inactive)
REMARK    1  A    between atoms: C5_5  and  N7_7 
ROOT
HETATM    1  C1  UNL     1     -23.095  17.013   9.595  1.00 20.00     0.160 C 
HETATM    2  N7  UNL     1     -23.863  16.487  10.307  1.00 20.00    -0.237 NA
HETATM    3  S9  UNL     1     -22.049  17.695   8.607  1.00 20.00    -0.055 SA
ENDROOT
BRANCH   2   4
HETATM    4  C5  UNL     1     -24.363  17.334  11.399  1.00 20.00     0.152 C 
HETATM    5  C3  UNL     1     -25.092  18.535  10.792  1.00 20.00     0.065 C 
HETATM    6  C2  UNL     1     -26.141  18.858  11.828  1.00 20.00     0.031 C 
HETATM    7  C4  UNL     1     -26.509  17.483  12.329  1.00 20.00     0.171 C 
HETATM    8  O8  UNL     1     -25.306  16.705  12.295  1.00 20.00    -0.359 OA
HETATM    9  C6  UNL     1     -23.162  17.759  12.244  1.00 20.00     0.073 C 
ENDBRANCH   2   4
TORSDOF 1
ENDMDL
MODEL 2
REMARK VINA RESULT:      -3.8      2.472      3.049
REMARK  1 active torsions:
REMARK  status: ('A' for Active; 'I' for Inactive)
REMARK    1  A    between atoms: C5_5  and  N7_7 
ROOT
HETATM    1  C1  UNL     1     -24.134  19.122   8.254  1.00 20.00     0.160 C 
HETATM    2  N7  UNL     1     -23.235  19.098   9.005  1.00 20.00    -0.237 NA
HETATM    3  S9  UNL     1     -25.347  19.191   7.225  1.00 20.00    -0.055 SA
ENDROOT
BRANCH   2   4
HETATM    4  C5  UNL     1     -23.018  17.799   9.658  1.00 20.00     0.152 C 
HETATM    5  C3  UNL     1     -22.671  18.042  11.128  1.00 20.00     0.065 C 
HETATM    6  C2  UNL     1     -23.212  16.813  11.816  1.00 20.00     0.031 C 
HETATM    7  C4  UNL     1     -24.456  16.534  11.009  1.00 20.00     0.171 C 
HETATM    8  O8  UNL     1     -24.153  16.904   9.658  1.00 20.00    -0.359 OA
HETATM    9  C6  UNL     1     -21.890  17.087   8.912  1.00 20.00     0.073 C 
ENDBRANCH   2   4
TORSDOF 1
ENDMDL
MODEL 3
REMARK VINA RESULT:      -3.8     19.676     20.152
REMARK  1 active torsions:
REMARK  status: ('A' for Active; 'I' for Inactive)
REMARK    1  A    between atoms: C5_5  and  N7_7 
ROOT
HETATM    1  C1  UNL     1     -38.672  14.753  -4.196  1.00 20.00     0.160 C 
HETATM    2  N7  UNL     1     -37.823  13.979  -4.424  1.00 20.00    -0.237 NA
HETATM    3  S9  UNL     1     -39.851  15.777  -3.884  1.00 20.00    -0.055 SA
ENDROOT
BRANCH   2   4
HETATM    4  C5  UNL     1     -36.497  14.573  -4.646  1.00 20.00     0.152 C 
HETATM    5  C3  UNL     1     -36.092  15.350  -3.392  1.00 20.00     0.065 C 
HETATM    6  C2  UNL     1     -34.587  15.239  -3.391  1.00 20.00     0.031 C 
HETATM    7  C4  UNL     1     -34.383  13.848  -3.940  1.00 20.00     0.171 C 
HETATM    8  O8  UNL     1     -35.427  13.634  -4.899  1.00 20.00    -0.359 OA
HETATM    9  C6  UNL     1     -36.594  15.477  -5.875  1.00 20.00     0.073 C 
ENDBRANCH   2   4
TORSDOF 1
ENDMDL
MODEL 4
REMARK VINA RESULT:      -3.8      2.781      4.097
REMARK  1 active torsions:
REMARK  status: ('A' for Active; 'I' for Inactive)
REMARK    1  A    between atoms: C5_5  and  N7_7 
ROOT
HETATM    1  C1  UNL     1     -24.790  16.707  11.248  1.00 20.00     0.160 C 
HETATM    2  N7  UNL     1     -24.059  16.237  10.463  1.00 20.00    -0.237 NA
HETATM    3  S9  UNL     1     -25.792  17.310  12.329  1.00 20.00    -0.055 SA
ENDROOT
BRANCH   2   4
HETATM    4  C5  UNL     1     -23.386  17.213   9.594  1.00 20.00     0.152 C 
HETATM    5  C3  UNL     1     -22.366  17.991  10.429  1.00 20.00     0.065 C 
HETATM    6  C2  UNL     1     -21.293  18.334   9.425  1.00 20.00     0.031 C 
HETATM    7  C4  UNL     1     -21.293  17.107   8.546  1.00 20.00     0.171 C 
HETATM    8  O8  UNL     1     -22.651  16.656   8.481  1.00 20.00    -0.359 OA
HETATM    9  C6  UNL     1     -24.460  18.127   9.004  1.00 20.00     0.073 C 
ENDBRANCH   2   4
TORSDOF 1
ENDMDL
MODEL 5
REMARK VINA RESULT:      -3.8     20.174     20.511
REMARK  1 active torsions:
REMARK  status: ('A' for Active; 'I' for Inactive)
REMARK    1  A    between atoms: C5_5  and  N7_7 
ROOT
HETATM    1  C1  UNL     1     -35.273  14.739  -6.759  1.00 20.00     0.160 C 
HETATM    2  N7  UNL     1     -36.055  14.029  -6.251  1.00 20.00    -0.237 NA
HETATM    3  S9  UNL     1     -34.208  15.679  -7.478  1.00 20.00    -0.055 SA
ENDROOT
BRANCH   2   4
HETATM    4  C5  UNL     1     -36.559  14.503  -4.955  1.00 20.00     0.152 C 
HETATM    5  C3  UNL     1     -36.976  15.969  -5.098  1.00 20.00     0.065 C 
HETATM    6  C2  UNL     1     -38.096  16.106  -4.096  1.00 20.00     0.031 C 
HETATM    7  C4  UNL     1     -38.762  14.755  -4.196  1.00 20.00     0.171 C 
HETATM    8  O8  UNL     1     -37.717  13.806  -4.443  1.00 20.00    -0.359 OA
HETATM    9  C6  UNL     1     -35.441  14.323  -3.928  1.00 20.00     0.073 C 
ENDBRANCH   2   4
TORSDOF 1
ENDMDL
MODEL 6
REMARK VINA RESULT:      -3.7      2.564      3.575
REMARK  1 active torsions:
REMARK  status: ('A' for Active; 'I' for Inactive)
REMARK    1  A    between atoms: C5_5  and  N7_7 
ROOT
HETATM    1  C1  UNL     1     -25.310  16.827  11.653  1.00 20.00     0.160 C 
HETATM    2  N7  UNL     1     -24.335  16.402  11.161  1.00 20.00    -0.237 NA
HETATM    3  S9  UNL     1     -26.645  17.370  12.331  1.00 20.00    -0.055 SA
ENDROOT
BRANCH   2   4
HETATM    4  C5  UNL     1     -23.468  17.417  10.547  1.00 20.00     0.152 C 
HETATM    5  C3  UNL     1     -22.797  16.807   9.314  1.00 20.00     0.065 C 
HETATM    6  C2  UNL     1     -22.609  17.996   8.403  1.00 20.00     0.031 C 
HETATM    7  C4  UNL     1     -23.848  18.805   8.697  1.00 20.00     0.171 C 
HETATM    8  O8  UNL     1     -24.135  18.614  10.088  1.00 20.00    -0.359 OA
HETATM    9  C6  UNL     1     -22.447  17.853  11.598  1.00 20.00     0.073 C 
ENDBRANCH   2   4
TORSDOF 1
ENDMDL
MODEL 7
REMARK VINA RESULT:      -3.6     18.705     19.144
REMARK  1 active torsions:
REMARK  status: ('A' for Active; 'I' for Inactive)
REMARK    1  A    between atoms: C5_5  and  N7_7 
ROOT
HETATM    1  C1  UNL     1     -34.799  15.105  -6.802  1.00 20.00     0.160 C 
HETATM    2  N7  UNL     1     -34.012  14.770  -6.001  1.00 20.00    -0.237 NA
HETATM    3  S9  UNL     1     -35.845  15.547  -7.918  1.00 20.00    -0.055 SA
ENDROOT
BRANCH   2   4
HETATM    4  C5  UNL     1     -34.412  15.021  -4.609  1.00 20.00     0.152 C 
HETATM    5  C3  UNL     1     -33.160  15.342  -3.790  1.00 20.00     0.065 C 
HETATM    6  C2  UNL     1     -33.679  16.273  -2.721  1.00 20.00     0.031 C 
HETATM    7  C4  UNL     1     -34.731  17.048  -3.476  1.00 20.00     0.171 C 
HETATM    8  O8  UNL     1     -35.316  16.132  -4.410  1.00 20.00    -0.359 OA
HETATM    9  C6  UNL     1     -35.126  13.770  -4.098  1.00 20.00     0.073 C 
ENDBRANCH   2   4
TORSDOF 1
ENDMDL
MODEL 8
REMARK VINA RESULT:      -3.6     19.348     19.781
REMARK  1 active torsions:
REMARK  status: ('A' for Active; 'I' for Inactive)
REMARK    1  A    between atoms: C5_5  and  N7_7 
ROOT
HETATM    1  C1  UNL     1     -35.131  14.802  -6.886  1.00 20.00     0.160 C 
HETATM    2  N7  UNL     1     -35.844  14.210  -6.168  1.00 20.00    -0.237 NA
HETATM    3  S9  UNL     1     -34.170  15.581  -7.888  1.00 20.00    -0.055 SA
ENDROOT
BRANCH   2   4
HETATM    4  C5  UNL     1     -35.970  14.784  -4.821  1.00 20.00     0.152 C 
HETATM    5  C3  UNL     1     -34.836  14.239  -3.949  1.00 20.00     0.065 C 
HETATM    6  C2  UNL     1     -34.586  15.362  -2.972  1.00 20.00     0.031 C 
HETATM    7  C4  UNL     1     -34.827  16.577  -3.834  1.00 20.00     0.171 C 
HETATM    8  O8  UNL     1     -35.876  16.224  -4.745  1.00 20.00    -0.359 OA
HETATM    9  C6  UNL     1     -37.346  14.399  -4.279  1.00 20.00     0.073 C 
ENDBRANCH   2   4
TORSDOF 1
ENDMDL
MODEL 9
REMARK VINA RESULT:      -3.5     18.518     19.034
REMARK  1 active torsions:
REMARK  status: ('A' for Active; 'I' for Inactive)
REMARK    1  A    between atoms: C5_5  and  N7_7 
ROOT
HETATM    1  C1  UNL     1     -34.259  15.982  -2.634  1.00 20.00     0.160 C 
HETATM    2  N7  UNL     1     -33.646  15.440  -3.473  1.00 20.00    -0.237 NA
HETATM    3  S9  UNL     1     -35.060  16.723  -1.475  1.00 20.00    -0.055 SA
ENDROOT
BRANCH   2   4
HETATM    4  C5  UNL     1     -34.444  15.005  -4.628  1.00 20.00     0.152 C 
HETATM    5  C3  UNL     1     -35.137  16.227  -5.233  1.00 20.00     0.065 C 
HETATM    6  C2  UNL     1     -35.243  15.872  -6.697  1.00 20.00     0.031 C 
HETATM    7  C4  UNL     1     -33.960  15.109  -6.919  1.00 20.00     0.171 C 
HETATM    8  O8  UNL     1     -33.699  14.393  -5.706  1.00 20.00    -0.359 OA
HETATM    9  C6  UNL     1     -35.447  13.963  -4.134  1.00 20.00     0.073 C 
ENDBRANCH   2   4
TORSDOF 1
ENDMDL
