MODEL 1
REMARK VINA RESULT:      -4.8      0.000      0.000
REMARK  2 active torsions:
REMARK  status: ('A' for Active; 'I' for Inactive)
REMARK    1  A    between atoms: C1_1  and  C5_5 
REMARK    2  A    between atoms: C5_5  and  C7_7 
ROOT
HETATM    1  C2  UNL     1     -33.877  15.721  -3.138  1.00 20.00     0.002 C 
HETATM    2  C3  UNL     1     -35.405  15.596  -3.006  1.00 20.00     0.020 C 
HETATM    3  C4  UNL     1     -33.915  14.542  -4.125  1.00 20.00     0.020 C 
HETATM    4  C5  UNL     1     -35.426  14.846  -4.376  1.00 20.00     0.048 C 
ENDROOT
BRANCH   4   5
HETATM    5  C1  UNL     1     -36.352  13.600  -4.435  1.00 20.00     0.181 C 
HETATM    6  O8  UNL     1     -35.758  12.487  -4.440  1.00 20.00    -0.647 OA
HETATM    7  O9  UNL     1     -37.588  13.860  -4.471  1.00 20.00    -0.647 OA
ENDBRANCH   4   5
BRANCH   4   8
HETATM    8  C7  UNL     1     -35.671  15.769  -5.571  1.00 20.00     0.016 C 
HETATM    9  C6  UNL     1     -35.606  15.028  -6.867  1.00 20.00     0.006 C 
ENDBRANCH   4   8
TORSDOF 2
ENDMDL
MODEL 2
REMARK VINA RESULT:      -4.4      0.644      2.798
REMARK  2 active torsions:
REMARK  status: ('A' for Active; 'I' for Inactive)
REMARK    1  A    between atoms: C1_1  and  C5_5 
REMARK    2  A    between atoms: C5_5  and  C7_7 
ROOT
HETATM    1  C2  UNL     1     -35.307  16.303  -6.555  1.00 20.00     0.002 C 
HETATM    2  C3  UNL     1     -34.985  14.800  -6.490  1.00 20.00     0.020 C 
HETATM    3  C4  UNL     1     -36.250  16.103  -5.356  1.00 20.00     0.020 C 
HETATM    4  C5  UNL     1     -35.469  14.797  -5.005  1.00 20.00     0.048 C 
ENDROOT
BRANCH   4   5
HETATM    5  C1  UNL     1     -36.352  13.585  -4.599  1.00 20.00     0.181 C 
HETATM    6  O8  UNL     1     -37.588  13.825  -4.514  1.00 20.00    -0.647 OA
HETATM    7  O9  UNL     1     -35.719  12.510  -4.404  1.00 20.00    -0.647 OA
ENDBRANCH   4   5
BRANCH   4   8
HETATM    8  C7  UNL     1     -34.339  15.016  -3.997  1.00 20.00     0.016 C 
HETATM    9  C6  UNL     1     -34.857  15.491  -2.678  1.00 20.00     0.006 C 
ENDBRANCH   4   8
TORSDOF 2
ENDMDL
MODEL 3
REMARK VINA RESULT:      -4.4      0.663      2.600
REMARK  2 active torsions:
REMARK  status: ('A' for Active; 'I' for Inactive)
REMARK    1  A    between atoms: C1_1  and  C5_5 
REMARK    2  A    between atoms: C5_5  and  C7_7 
ROOT
HETATM    1  C2  UNL     1     -35.347  16.296  -6.637  1.00 20.00     0.002 C 
HETATM    2  C3  UNL     1     -34.996  14.803  -6.522  1.00 20.00     0.020 C 
HETATM    3  C4  UNL     1     -36.300  16.113  -5.443  1.00 20.00     0.020 C 
HETATM    4  C5  UNL     1     -35.497  14.836  -5.043  1.00 20.00     0.048 C 
ENDROOT
BRANCH   4   5
HETATM    5  C1  UNL     1     -36.360  13.619  -4.609  1.00 20.00     0.181 C 
HETATM    6  O8  UNL     1     -35.723  12.543  -4.432  1.00 20.00    -0.647 OA
HETATM    7  O9  UNL     1     -37.593  13.860  -4.489  1.00 20.00    -0.647 OA
ENDBRANCH   4   5
BRANCH   4   8
HETATM    8  C7  UNL     1     -34.384  15.109  -4.029  1.00 20.00     0.016 C 
HETATM    9  C6  UNL     1     -34.933  15.488  -2.692  1.00 20.00     0.006 C 
ENDBRANCH   4   8
TORSDOF 2
ENDMDL
MODEL 4
REMARK VINA RESULT:      -4.2      1.343      1.721
REMARK  2 active torsions:
REMARK  status: ('A' for Active; 'I' for Inactive)
REMARK    1  A    between atoms: C1_1  and  C5_5 
REMARK    2  A    between atoms: C5_5  and  C7_7 
ROOT
HETATM    1  C2  UNL     1     -33.858  16.758  -2.201  1.00 20.00     0.002 C 
HETATM    2  C3  UNL     1     -34.994  15.735  -2.374  1.00 20.00     0.020 C 
HETATM    3  C4  UNL     1     -33.087  16.014  -3.305  1.00 20.00     0.020 C 
HETATM    4  C5  UNL     1     -34.442  15.417  -3.800  1.00 20.00     0.048 C 
ENDROOT
BRANCH   4   5
HETATM    5  C1  UNL     1     -34.405  13.909  -4.173  1.00 20.00     0.181 C 
HETATM    6  O8  UNL     1     -33.252  13.426  -4.349  1.00 20.00    -0.647 OA
HETATM    7  O9  UNL     1     -35.537  13.355  -4.255  1.00 20.00    -0.647 OA
ENDBRANCH   4   5
BRANCH   4   8
HETATM    8  C7  UNL     1     -35.103  16.240  -4.907  1.00 20.00     0.016 C 
HETATM    9  C6  UNL     1     -34.525  15.931  -6.249  1.00 20.00     0.006 C 
ENDBRANCH   4   8
TORSDOF 2
ENDMDL
MODEL 5
REMARK VINA RESULT:      -4.0      1.057      1.379
REMARK  2 active torsions:
REMARK  status: ('A' for Active; 'I' for Inactive)
REMARK    1  A    between atoms: C1_1  and  C5_5 
REMARK    2  A    between atoms: C5_5  and  C7_7 
ROOT
HETATM    1  C2  UNL     1     -34.042  15.758  -2.800  1.00 20.00     0.002 C 
HETATM    2  C3  UNL     1     -35.571  15.670  -2.942  1.00 20.00     0.020 C 
HETATM    3  C4  UNL     1     -33.923  14.859  -4.043  1.00 20.00     0.020 C 
HETATM    4  C5  UNL     1     -35.373  15.281  -4.442  1.00 20.00     0.048 C 
ENDROOT
BRANCH   4   5
HETATM    5  C1  UNL     1     -36.281  14.129  -4.953  1.00 20.00     0.181 C 
HETATM    6  O8  UNL     1     -37.210  13.788  -4.169  1.00 20.00    -0.647 OA
HETATM    7  O9  UNL     1     -35.975  13.678  -6.092  1.00 20.00    -0.647 OA
ENDBRANCH   4   5
BRANCH   4   8
HETATM    8  C7  UNL     1     -35.418  16.479  -5.393  1.00 20.00     0.016 C 
HETATM    9  C6  UNL     1     -36.822  16.895  -5.695  1.00 20.00     0.006 C 
ENDBRANCH   4   8
TORSDOF 2
ENDMDL
MODEL 6
REMARK VINA RESULT:      -3.9     10.082     11.525
REMARK  2 active torsions:
REMARK  status: ('A' for Active; 'I' for Inactive)
REMARK    1  A    between atoms: C1_1  and  C5_5 
REMARK    2  A    between atoms: C5_5  and  C7_7 
ROOT
HETATM    1  C2  UNL     1     -41.715   8.979   0.354  1.00 20.00     0.002 C 
HETATM    2  C3  UNL     1     -41.077   7.611   0.655  1.00 20.00     0.020 C 
HETATM    3  C4  UNL     1     -42.497   8.308  -0.788  1.00 20.00     0.020 C 
HETATM    4  C5  UNL     1     -42.273   6.932  -0.086  1.00 20.00     0.048 C 
ENDROOT
BRANCH   4   5
HETATM    5  C1  UNL     1     -41.886   5.761  -1.031  1.00 20.00     0.181 C 
HETATM    6  O8  UNL     1     -42.848   5.236  -1.658  1.00 20.00    -0.647 OA
HETATM    7  O9  UNL     1     -40.655   5.481  -1.052  1.00 20.00    -0.647 OA
ENDBRANCH   4   5
BRANCH   4   8
HETATM    8  C7  UNL     1     -43.417   6.530   0.847  1.00 20.00     0.016 C 
HETATM    9  C6  UNL     1     -43.150   5.224   1.522  1.00 20.00     0.006 C 
ENDBRANCH   4   8
TORSDOF 2
ENDMDL
MODEL 7
REMARK VINA RESULT:      -3.9      2.073      2.930
REMARK  2 active torsions:
REMARK  status: ('A' for Active; 'I' for Inactive)
REMARK    1  A    between atoms: C1_1  and  C5_5 
REMARK    2  A    between atoms: C5_5  and  C7_7 
ROOT
HETATM    1  C2  UNL     1     -34.020  16.385  -2.386  1.00 20.00     0.002 C 
HETATM    2  C3  UNL     1     -33.123  15.742  -3.459  1.00 20.00     0.020 C 
HETATM    3  C4  UNL     1     -35.143  16.451  -3.435  1.00 20.00     0.020 C 
HETATM    4  C5  UNL     1     -34.413  15.328  -4.237  1.00 20.00     0.048 C 
ENDROOT
BRANCH   4   5
HETATM    5  C1  UNL     1     -34.356  15.541  -5.775  1.00 20.00     0.181 C 
HETATM    6  O8  UNL     1     -34.973  16.557  -6.200  1.00 20.00    -0.647 OA
HETATM    7  O9  UNL     1     -33.697  14.669  -6.407  1.00 20.00    -0.647 OA
ENDBRANCH   4   5
BRANCH   4   8
HETATM    8  C7  UNL     1     -34.903  13.919  -3.896  1.00 20.00     0.016 C 
HETATM    9  C6  UNL     1     -36.211  13.613  -4.552  1.00 20.00     0.006 C 
ENDBRANCH   4   8
TORSDOF 2
ENDMDL
MODEL 8
REMARK VINA RESULT:      -3.8      1.386      2.467
REMARK  2 active torsions:
REMARK  status: ('A' for Active; 'I' for Inactive)
REMARK    1  A    between atoms: C1_1  and  C5_5 
REMARK    2  A    between atoms: C5_5  and  C7_7 
ROOT
HETATM    1  C2  UNL     1     -36.679  17.087  -4.236  1.00 20.00     0.002 C 
HETATM    2  C3  UNL     1     -35.784  16.430  -5.300  1.00 20.00     0.020 C 
HETATM    3  C4  UNL     1     -37.064  15.676  -3.759  1.00 20.00     0.020 C 
HETATM    4  C5  UNL     1     -35.763  15.133  -4.430  1.00 20.00     0.048 C 
ENDROOT
BRANCH   4   5
HETATM    5  C1  UNL     1     -35.929  13.805  -5.219  1.00 20.00     0.181 C 
HETATM    6  O8  UNL     1     -35.996  12.763  -4.510  1.00 20.00    -0.647 OA
HETATM    7  O9  UNL     1     -35.976  13.935  -6.474  1.00 20.00    -0.647 OA
ENDBRANCH   4   5
BRANCH   4   8
HETATM    8  C7  UNL     1     -34.570  15.059  -3.475  1.00 20.00     0.016 C 
HETATM    9  C6  UNL     1     -33.301  14.737  -4.197  1.00 20.00     0.006 C 
ENDBRANCH   4   8
TORSDOF 2
ENDMDL
MODEL 9
REMARK VINA RESULT:      -3.7      1.526      3.039
REMARK  2 active torsions:
REMARK  status: ('A' for Active; 'I' for Inactive)
REMARK    1  A    between atoms: C1_1  and  C5_5 
REMARK    2  A    between atoms: C5_5  and  C7_7 
ROOT
HETATM    1  C2  UNL     1     -37.540  15.808  -4.732  1.00 20.00     0.002 C 
HETATM    2  C3  UNL     1     -36.082  16.082  -5.141  1.00 20.00     0.020 C 
HETATM    3  C4  UNL     1     -37.078  14.449  -4.178  1.00 20.00     0.020 C 
HETATM    4  C5  UNL     1     -35.626  15.017  -4.093  1.00 20.00     0.048 C 
ENDROOT
BRANCH   4   5
HETATM    5  C1  UNL     1     -34.507  14.052  -4.573  1.00 20.00     0.181 C 
HETATM    6  O8  UNL     1     -34.410  12.975  -3.924  1.00 20.00    -0.647 OA
HETATM    7  O9  UNL     1     -33.833  14.469  -5.557  1.00 20.00    -0.647 OA
ENDBRANCH   4   5
BRANCH   4   8
HETATM    8  C7  UNL     1     -35.285  15.616  -2.726  1.00 20.00     0.016 C 
HETATM    9  C6  UNL     1     -33.856  16.045  -2.650  1.00 20.00     0.006 C 
ENDBRANCH   4   8
TORSDOF 2
ENDMDL
