MODEL 1
REMARK VINA RESULT:      -4.0      0.000      0.000
REMARK  1 active torsions:
REMARK  status: ('A' for Active; 'I' for Inactive)
REMARK    1  A    between atoms: C3_3  and  C4_4 
ROOT
HETATM    1  C1  UNL     1     -33.918   6.687   4.612  1.00 20.00     0.175 C 
HETATM    2  C2  UNL     1     -34.689   5.446   6.065  1.00 20.00     0.175 C 
HETATM    3  C3  UNL     1     -34.826   5.454   4.539  1.00 20.00     0.047 C 
HETATM    4  O5  UNL     1     -34.045   6.743   6.053  1.00 20.00    -0.390 OA
ENDROOT
BRANCH   3   5
HETATM    5  C4  UNL     1     -34.282   4.251   3.801  1.00 20.00     0.123 C 
HETATM    6 CL6  UNL     1     -33.223   4.763   2.470  1.00 20.00    -0.130 Cl
ENDBRANCH   3   5
TORSDOF 1
ENDMDL
MODEL 2
REMARK VINA RESULT:      -3.9      1.061      1.524
REMARK  1 active torsions:
REMARK  status: ('A' for Active; 'I' for Inactive)
REMARK    1  A    between atoms: C3_3  and  C4_4 
ROOT
HETATM    1  C1  UNL     1     -34.010   6.500   5.900  1.00 20.00     0.175 C 
HETATM    2  C2  UNL     1     -34.932   5.069   4.738  1.00 20.00     0.175 C 
HETATM    3  C3  UNL     1     -34.365   6.454   4.409  1.00 20.00     0.047 C 
HETATM    4  O5  UNL     1     -34.781   5.302   6.160  1.00 20.00    -0.390 OA
ENDROOT
BRANCH   3   5
HETATM    5  C4  UNL     1     -33.209   6.501   3.434  1.00 20.00     0.123 C 
HETATM    6 CL6  UNL     1     -33.147   5.010   2.469  1.00 20.00    -0.130 Cl
ENDBRANCH   3   5
TORSDOF 1
ENDMDL
MODEL 3
REMARK VINA RESULT:      -3.6      2.448      3.037
REMARK  1 active torsions:
REMARK  status: ('A' for Active; 'I' for Inactive)
REMARK    1  A    between atoms: C3_3  and  C4_4 
ROOT
HETATM    1  C1  UNL     1     -34.101   4.043   3.626  1.00 20.00     0.175 C 
HETATM    2  C2  UNL     1     -33.804   6.073   3.428  1.00 20.00     0.175 C 
HETATM    3  C3  UNL     1     -34.839   5.255   4.207  1.00 20.00     0.047 C 
HETATM    4  O5  UNL     1     -33.330   4.890   2.740  1.00 20.00    -0.390 OA
ENDROOT
BRANCH   3   5
HETATM    5  C4  UNL     1     -34.826   5.400   5.713  1.00 20.00     0.123 C 
HETATM    6 CL6  UNL     1     -33.960   6.877   6.190  1.00 20.00    -0.130 Cl
ENDBRANCH   3   5
TORSDOF 1
ENDMDL
MODEL 4
REMARK VINA RESULT:      -3.6      2.468      2.857
REMARK  1 active torsions:
REMARK  status: ('A' for Active; 'I' for Inactive)
REMARK    1  A    between atoms: C3_3  and  C4_4 
ROOT
HETATM    1  C1  UNL     1     -33.304   5.007   2.551  1.00 20.00     0.175 C 
HETATM    2  C2  UNL     1     -33.456   6.700   3.718  1.00 20.00     0.175 C 
HETATM    3  C3  UNL     1     -34.407   5.521   3.483  1.00 20.00     0.047 C 
HETATM    4  O5  UNL     1     -32.588   6.263   2.644  1.00 20.00    -0.390 OA
ENDROOT
BRANCH   3   5
HETATM    5  C4  UNL     1     -34.736   4.663   4.685  1.00 20.00     0.123 C 
HETATM    6 CL6  UNL     1     -34.640   5.620   6.179  1.00 20.00    -0.130 Cl
ENDBRANCH   3   5
TORSDOF 1
ENDMDL
MODEL 5
REMARK VINA RESULT:      -3.4      1.730      2.466
REMARK  1 active torsions:
REMARK  status: ('A' for Active; 'I' for Inactive)
REMARK    1  A    between atoms: C3_3  and  C4_4 
ROOT
HETATM    1  C1  UNL     1     -34.791   5.371   5.604  1.00 20.00     0.175 C 
HETATM    2  C2  UNL     1     -34.318   5.000   3.632  1.00 20.00     0.175 C 
HETATM    3  C3  UNL     1     -34.417   6.298   4.441  1.00 20.00     0.047 C 
HETATM    4  O5  UNL     1     -34.911   4.237   4.711  1.00 20.00    -0.390 OA
ENDROOT
BRANCH   3   5
HETATM    5  C4  UNL     1     -33.144   7.101   4.594  1.00 20.00     0.123 C 
HETATM    6 CL6  UNL     1     -32.248   7.150   3.061  1.00 20.00    -0.130 Cl
ENDBRANCH   3   5
TORSDOF 1
ENDMDL
MODEL 6
REMARK VINA RESULT:      -3.2     17.723     18.123
REMARK  1 active torsions:
REMARK  status: ('A' for Active; 'I' for Inactive)
REMARK    1  A    between atoms: C3_3  and  C4_4 
ROOT
HETATM    1  C1  UNL     1     -21.430  17.990   9.608  1.00 20.00     0.175 C 
HETATM    2  C2  UNL     1     -23.277  18.816   9.215  1.00 20.00     0.175 C 
HETATM    3  C3  UNL     1     -22.852  17.422   9.690  1.00 20.00     0.047 C 
HETATM    4  O5  UNL     1     -21.903  19.182   8.936  1.00 20.00    -0.390 OA
ENDROOT
BRANCH   3   5
HETATM    5  C4  UNL     1     -23.334  16.994  11.059  1.00 20.00     0.123 C 
HETATM    6 CL6  UNL     1     -22.393  17.800  12.332  1.00 20.00    -0.130 Cl
ENDBRANCH   3   5
TORSDOF 1
ENDMDL
MODEL 7
REMARK VINA RESULT:      -3.1     17.561     17.728
REMARK  1 active torsions:
REMARK  status: ('A' for Active; 'I' for Inactive)
REMARK    1  A    between atoms: C3_3  and  C4_4 
ROOT
HETATM    1  C1  UNL     1     -23.651  18.675   8.505  1.00 20.00     0.175 C 
HETATM    2  C2  UNL     1     -22.026  17.431   8.257  1.00 20.00     0.175 C 
HETATM    3  C3  UNL     1     -22.598  18.145   9.486  1.00 20.00     0.047 C 
HETATM    4  O5  UNL     1     -22.905  18.167   7.372  1.00 20.00    -0.390 OA
ENDROOT
BRANCH   3   5
HETATM    5  C4  UNL     1     -23.099  17.266  10.611  1.00 20.00     0.123 C 
HETATM    6 CL6  UNL     1     -22.339  17.729  12.149  1.00 20.00    -0.130 Cl
ENDBRANCH   3   5
TORSDOF 1
ENDMDL
MODEL 8
REMARK VINA RESULT:      -3.0      9.237      9.524
REMARK  1 active torsions:
REMARK  status: ('A' for Active; 'I' for Inactive)
REMARK    1  A    between atoms: C3_3  and  C4_4 
ROOT
HETATM    1  C1  UNL     1     -41.538   9.177   0.346  1.00 20.00     0.175 C 
HETATM    2  C2  UNL     1     -42.956   8.223  -0.805  1.00 20.00     0.175 C 
HETATM    3  C3  UNL     1     -41.471   7.940  -0.559  1.00 20.00     0.047 C 
HETATM    4  O5  UNL     1     -42.864   9.503  -0.134  1.00 20.00    -0.390 OA
ENDROOT
BRANCH   3   5
HETATM    5  C4  UNL     1     -41.130   6.627   0.110  1.00 20.00     0.123 C 
HETATM    6 CL6  UNL     1     -40.920   5.346  -1.103  1.00 20.00    -0.130 Cl
ENDBRANCH   3   5
TORSDOF 1
ENDMDL
MODEL 9
REMARK VINA RESULT:      -3.0     12.832     13.132
REMARK  1 active torsions:
REMARK  status: ('A' for Active; 'I' for Inactive)
REMARK    1  A    between atoms: C3_3  and  C4_4 
ROOT
HETATM    1  C1  UNL     1     -34.877  14.757  -5.598  1.00 20.00     0.175 C 
HETATM    2  C2  UNL     1     -36.260  13.612  -4.585  1.00 20.00     0.175 C 
HETATM    3  C3  UNL     1     -34.967  14.302  -4.136  1.00 20.00     0.047 C 
HETATM    4  O5  UNL     1     -35.965  13.880  -5.977  1.00 20.00    -0.390 OA
ENDROOT
BRANCH   3   5
HETATM    5  C4  UNL     1     -35.103  15.389  -3.093  1.00 20.00     0.123 C 
HETATM    6 CL6  UNL     1     -33.525  16.133  -2.759  1.00 20.00    -0.130 Cl
ENDBRANCH   3   5
TORSDOF 1
ENDMDL
