MODEL 1
REMARK VINA RESULT:      -4.6      0.000      0.000
REMARK  0 active torsions:
REMARK  status: ('A' for Active; 'I' for Inactive)
ROOT
HETATM    1  C1  UNL     1     -34.056   6.017   4.414  1.00 20.00    -0.054 C 
HETATM    2  C2  UNL     1     -33.401   6.131   3.242  1.00 20.00     0.091 C 
HETATM    3  C3  UNL     1     -35.091   4.943   4.631  1.00 20.00     0.046 C 
HETATM    4  C4  UNL     1     -33.852   6.921   5.597  1.00 20.00     0.046 C 
HETATM    5  C5  UNL     1     -32.331   7.123   2.922  1.00 20.00     0.082 C 
HETATM    6  F6  UNL     1     -33.709   5.251   2.257  1.00 20.00    -0.211 F 
ENDROOT
TORSDOF 0
ENDMDL
MODEL 2
REMARK VINA RESULT:      -4.5      1.625      3.209
REMARK  0 active torsions:
REMARK  status: ('A' for Active; 'I' for Inactive)
ROOT
HETATM    1  C1  UNL     1     -33.362   6.058   3.401  1.00 20.00    -0.054 C 
HETATM    2  C2  UNL     1     -34.069   6.156   4.544  1.00 20.00     0.091 C 
HETATM    3  C3  UNL     1     -32.429   7.156   2.962  1.00 20.00     0.046 C 
HETATM    4  C4  UNL     1     -33.429   4.893   2.454  1.00 20.00     0.046 C 
HETATM    5  C5  UNL     1     -34.991   5.122   5.103  1.00 20.00     0.082 C 
HETATM    6  F6  UNL     1     -33.919   7.281   5.287  1.00 20.00    -0.211 F 
ENDROOT
TORSDOF 0
ENDMDL
MODEL 3
REMARK VINA RESULT:      -4.4      1.359      2.048
REMARK  0 active torsions:
REMARK  status: ('A' for Active; 'I' for Inactive)
ROOT
HETATM    1  C1  UNL     1     -34.099   6.091   4.689  1.00 20.00    -0.054 C 
HETATM    2  C2  UNL     1     -33.243   6.306   3.671  1.00 20.00     0.091 C 
HETATM    3  C3  UNL     1     -34.038   6.915   5.949  1.00 20.00     0.046 C 
HETATM    4  C4  UNL     1     -35.167   5.034   4.698  1.00 20.00     0.046 C 
HETATM    5  C5  UNL     1     -33.230   5.585   2.362  1.00 20.00     0.082 C 
HETATM    6  F6  UNL     1     -32.316   7.285   3.818  1.00 20.00    -0.211 F 
ENDROOT
TORSDOF 0
ENDMDL
MODEL 4
REMARK VINA RESULT:      -4.2      1.353      1.440
REMARK  0 active torsions:
REMARK  status: ('A' for Active; 'I' for Inactive)
ROOT
HETATM    1  C1  UNL     1     -34.161   5.801   4.935  1.00 20.00    -0.054 C 
HETATM    2  C2  UNL     1     -33.997   5.123   3.782  1.00 20.00     0.091 C 
HETATM    3  C3  UNL     1     -34.908   5.200   6.097  1.00 20.00     0.046 C 
HETATM    4  C4  UNL     1     -33.649   7.192   5.187  1.00 20.00     0.046 C 
HETATM    5  C5  UNL     1     -33.244   5.593   2.581  1.00 20.00     0.082 C 
HETATM    6  F6  UNL     1     -34.535   3.881   3.696  1.00 20.00    -0.211 F 
ENDROOT
TORSDOF 0
ENDMDL
MODEL 5
REMARK VINA RESULT:      -4.2      1.380      2.539
REMARK  0 active torsions:
REMARK  status: ('A' for Active; 'I' for Inactive)
ROOT
HETATM    1  C1  UNL     1     -33.477   5.859   3.441  1.00 20.00    -0.054 C 
HETATM    2  C2  UNL     1     -34.132   5.788   4.616  1.00 20.00     0.091 C 
HETATM    3  C3  UNL     1     -33.604   4.770   2.407  1.00 20.00     0.046 C 
HETATM    4  C4  UNL     1     -32.565   6.984   3.039  1.00 20.00     0.046 C 
HETATM    5  C5  UNL     1     -34.119   6.818   5.698  1.00 20.00     0.082 C 
HETATM    6  F6  UNL     1     -34.905   4.697   4.845  1.00 20.00    -0.211 F 
ENDROOT
TORSDOF 0
ENDMDL
MODEL 6
REMARK VINA RESULT:      -4.1      1.612      2.548
REMARK  0 active torsions:
REMARK  status: ('A' for Active; 'I' for Inactive)
ROOT
HETATM    1  C1  UNL     1     -33.971   5.652   3.909  1.00 20.00    -0.054 C 
HETATM    2  C2  UNL     1     -33.440   6.652   4.638  1.00 20.00     0.091 C 
HETATM    3  C3  UNL     1     -33.428   5.303   2.548  1.00 20.00     0.046 C 
HETATM    4  C4  UNL     1     -35.134   4.804   4.342  1.00 20.00     0.046 C 
HETATM    5  C5  UNL     1     -33.863   7.064   6.011  1.00 20.00     0.082 C 
HETATM    6  F6  UNL     1     -32.403   7.344   4.105  1.00 20.00    -0.211 F 
ENDROOT
TORSDOF 0
ENDMDL
MODEL 7
REMARK VINA RESULT:      -4.0      0.669      2.359
REMARK  0 active torsions:
REMARK  status: ('A' for Active; 'I' for Inactive)
ROOT
HETATM    1  C1  UNL     1     -33.310   6.522   3.775  1.00 20.00    -0.054 C 
HETATM    2  C2  UNL     1     -33.914   5.354   3.480  1.00 20.00     0.091 C 
HETATM    3  C3  UNL     1     -32.431   7.224   2.773  1.00 20.00     0.046 C 
HETATM    4  C4  UNL     1     -33.424   7.232   5.095  1.00 20.00     0.046 C 
HETATM    5  C5  UNL     1     -34.836   4.588   4.371  1.00 20.00     0.082 C 
HETATM    6  F6  UNL     1     -33.699   4.823   2.251  1.00 20.00    -0.211 F 
ENDROOT
TORSDOF 0
ENDMDL
MODEL 8
REMARK VINA RESULT:      -3.7      1.877      2.916
REMARK  0 active torsions:
REMARK  status: ('A' for Active; 'I' for Inactive)
ROOT
HETATM    1  C1  UNL     1     -33.855   6.450   4.933  1.00 20.00    -0.054 C 
HETATM    2  C2  UNL     1     -34.519   5.279   4.991  1.00 20.00     0.091 C 
HETATM    3  C3  UNL     1     -33.809   7.383   6.115  1.00 20.00     0.046 C 
HETATM    4  C4  UNL     1     -33.119   6.956   3.723  1.00 20.00     0.046 C 
HETATM    5  C5  UNL     1     -34.602   4.257   3.904  1.00 20.00     0.082 C 
HETATM    6  F6  UNL     1     -35.155   4.968   6.147  1.00 20.00    -0.211 F 
ENDROOT
TORSDOF 0
ENDMDL
MODEL 9
REMARK VINA RESULT:      -3.5     11.750     12.028
REMARK  0 active torsions:
REMARK  status: ('A' for Active; 'I' for Inactive)
ROOT
HETATM    1  C1  UNL     1     -34.217  15.008  -3.589  1.00 20.00    -0.054 C 
HETATM    2  C2  UNL     1     -34.064  15.939  -2.627  1.00 20.00     0.091 C 
HETATM    3  C3  UNL     1     -33.056  14.559  -4.436  1.00 20.00     0.046 C 
HETATM    4  C4  UNL     1     -35.520  14.340  -3.929  1.00 20.00     0.046 C 
HETATM    5  C5  UNL     1     -35.125  16.434  -1.700  1.00 20.00     0.082 C 
HETATM    6  F6  UNL     1     -32.828  16.469  -2.450  1.00 20.00    -0.211 F 
ENDROOT
TORSDOF 0
ENDMDL
