MODEL 1
REMARK VINA RESULT:      -4.8      0.000      0.000
REMARK  2 active torsions:
REMARK  status: ('A' for Active; 'I' for Inactive)
REMARK    1  A    between atoms: C1_1  and  C3_3 
REMARK    2  A    between atoms: C4_4  and  O10_10 
ROOT
HETATM    1  C3  UNL     1     -34.938  14.790  -3.669  1.00 20.00     0.048 A 
HETATM    2  C4  UNL     1     -36.119  14.037  -4.228  1.00 20.00     0.135 A 
HETATM    3  C5  UNL     1     -35.503  15.166  -5.029  1.00 20.00    -0.012 A 
HETATM    4  C8  UNL     1     -34.660  14.838  -6.237  1.00 20.00     0.018 C 
HETATM    5  C9  UNL     1     -36.326  16.420  -5.196  1.00 20.00     0.018 C 
ENDROOT
BRANCH   1   6
HETATM    6  C1  UNL     1     -35.134  15.654  -2.513  1.00 20.00    -0.017 C 
HETATM    7  C2  UNL     1     -34.299  16.599  -2.040  1.00 20.00    -0.091 C 
HETATM    8  C6  UNL     1     -34.653  17.410  -0.825  1.00 20.00     0.042 C 
HETATM    9  C7  UNL     1     -32.972  16.928  -2.660  1.00 20.00     0.042 C 
ENDBRANCH   1   6
BRANCH   2  10
HETATM   10  O10 UNL     1     -35.853  12.695  -4.669  1.00 20.00    -0.394 OA
HETATM   11  H26 UNL     1     -34.900  12.570  -4.572  1.00 20.00     0.210 HD
ENDBRANCH   2  10
TORSDOF 2
ENDMDL
MODEL 2
REMARK VINA RESULT:      -4.8     17.060     18.616
REMARK  2 active torsions:
REMARK  status: ('A' for Active; 'I' for Inactive)
REMARK    1  A    between atoms: C1_1  and  C3_3 
REMARK    2  A    between atoms: C4_4  and  O10_10 
ROOT
HETATM    1  C3  UNL     1     -24.278  16.939  10.528  1.00 20.00     0.048 A 
HETATM    2  C4  UNL     1     -24.290  16.127  11.799  1.00 20.00     0.135 A 
HETATM    3  C5  UNL     1     -24.154  17.635  11.873  1.00 20.00    -0.012 A 
HETATM    4  C8  UNL     1     -25.331  18.459  12.332  1.00 20.00     0.018 C 
HETATM    5  C9  UNL     1     -22.824  18.183  12.332  1.00 20.00     0.018 C 
ENDROOT
BRANCH   1   6
HETATM    6  C1  UNL     1     -23.135  16.832   9.632  1.00 20.00    -0.017 C 
HETATM    7  C2  UNL     1     -22.835  17.620   8.581  1.00 20.00    -0.091 C 
HETATM    8  C6  UNL     1     -21.607  17.372   7.751  1.00 20.00     0.042 C 
HETATM    9  C7  UNL     1     -23.673  18.788   8.147  1.00 20.00     0.042 C 
ENDBRANCH   1   6
BRANCH   2  10
HETATM   10  O10 UNL     1     -25.559  15.562  12.168  1.00 20.00    -0.394 OA
HETATM   11  H26 UNL     1     -25.358  14.836  12.773  1.00 20.00     0.210 HD
ENDBRANCH   2  10
TORSDOF 2
ENDMDL
MODEL 3
REMARK VINA RESULT:      -4.6      1.675      1.897
REMARK  2 active torsions:
REMARK  status: ('A' for Active; 'I' for Inactive)
REMARK    1  A    between atoms: C1_1  and  C3_3 
REMARK    2  A    between atoms: C4_4  and  O10_10 
ROOT
HETATM    1  C3  UNL     1     -34.083  15.697  -3.921  1.00 20.00     0.048 A 
HETATM    2  C4  UNL     1     -33.415  14.358  -4.109  1.00 20.00     0.135 A 
HETATM    3  C5  UNL     1     -34.632  14.713  -4.940  1.00 20.00    -0.012 A 
HETATM    4  C8  UNL     1     -34.453  15.061  -6.397  1.00 20.00     0.018 C 
HETATM    5  C9  UNL     1     -35.903  13.949  -4.659  1.00 20.00     0.018 C 
ENDROOT
BRANCH   1   6
HETATM    6  C1  UNL     1     -34.794  15.963  -2.678  1.00 20.00    -0.017 C 
HETATM    7  C2  UNL     1     -34.434  16.798  -1.684  1.00 20.00    -0.091 C 
HETATM    8  C6  UNL     1     -35.288  16.959  -0.457  1.00 20.00     0.042 C 
HETATM    9  C7  UNL     1     -33.182  17.626  -1.702  1.00 20.00     0.042 C 
ENDBRANCH   1   6
BRANCH   2  10
HETATM   10  O10 UNL     1     -32.138  14.383  -4.768  1.00 20.00    -0.394 OA
HETATM   11  H26 UNL     1     -31.997  15.301  -5.034  1.00 20.00     0.210 HD
ENDBRANCH   2  10
TORSDOF 2
ENDMDL
MODEL 4
REMARK VINA RESULT:      -4.3     16.519     18.312
REMARK  2 active torsions:
REMARK  status: ('A' for Active; 'I' for Inactive)
REMARK    1  A    between atoms: C1_1  and  C3_3 
REMARK    2  A    between atoms: C4_4  and  O10_10 
ROOT
HETATM    1  C3  UNL     1     -24.038  17.132  10.397  1.00 20.00     0.048 A 
HETATM    2  C4  UNL     1     -23.458  17.706  11.664  1.00 20.00     0.135 A 
HETATM    3  C5  UNL     1     -24.851  17.111  11.680  1.00 20.00    -0.012 A 
HETATM    4  C8  UNL     1     -25.074  15.769  12.332  1.00 20.00     0.018 C 
HETATM    5  C9  UNL     1     -26.004  18.067  11.870  1.00 20.00     0.018 C 
ENDROOT
BRANCH   1   6
HETATM    6  C1  UNL     1     -24.382  18.033   9.306  1.00 20.00    -0.017 C 
HETATM    7  C2  UNL     1     -23.664  18.299   8.198  1.00 20.00    -0.091 C 
HETATM    8  C6  UNL     1     -24.165  19.263   7.160  1.00 20.00     0.042 C 
HETATM    9  C7  UNL     1     -22.329  17.677   7.899  1.00 20.00     0.042 C 
ENDBRANCH   1   6
BRANCH   2  10
HETATM   10  O10 UNL     1     -22.408  16.937  12.276  1.00 20.00    -0.394 OA
HETATM   11  H26 UNL     1     -21.682  17.556  12.426  1.00 20.00     0.210 HD
ENDBRANCH   2  10
TORSDOF 2
ENDMDL
MODEL 5
REMARK VINA RESULT:      -4.2      1.450      2.160
REMARK  2 active torsions:
REMARK  status: ('A' for Active; 'I' for Inactive)
REMARK    1  A    between atoms: C1_1  and  C3_3 
REMARK    2  A    between atoms: C4_4  and  O10_10 
ROOT
HETATM    1  C3  UNL     1     -34.980  15.401  -2.963  1.00 20.00     0.048 A 
HETATM    2  C4  UNL     1     -36.089  15.945  -3.828  1.00 20.00     0.135 A 
HETATM    3  C5  UNL     1     -35.226  14.810  -4.341  1.00 20.00    -0.012 A 
HETATM    4  C8  UNL     1     -35.799  13.415  -4.398  1.00 20.00     0.018 C 
HETATM    5  C9  UNL     1     -34.291  15.120  -5.485  1.00 20.00     0.018 C 
ENDROOT
BRANCH   1   6
HETATM    6  C1  UNL     1     -33.814  16.235  -2.703  1.00 20.00    -0.017 C 
HETATM    7  C2  UNL     1     -33.659  17.156  -1.732  1.00 20.00    -0.091 C 
HETATM    8  C6  UNL     1     -32.382  17.937  -1.600  1.00 20.00     0.042 C 
HETATM    9  C7  UNL     1     -34.715  17.484  -0.716  1.00 20.00     0.042 C 
ENDBRANCH   1   6
BRANCH   2  10
HETATM   10  O10 UNL     1     -37.425  15.619  -3.410  1.00 20.00    -0.394 OA
HETATM   11  H26 UNL     1     -37.792  16.432  -3.041  1.00 20.00     0.210 HD
ENDBRANCH   2  10
TORSDOF 2
ENDMDL
MODEL 6
REMARK VINA RESULT:      -4.1     10.233     11.854
REMARK  2 active torsions:
REMARK  status: ('A' for Active; 'I' for Inactive)
REMARK    1  A    between atoms: C1_1  and  C3_3 
REMARK    2  A    between atoms: C4_4  and  O10_10 
ROOT
HETATM    1  C3  UNL     1     -41.555   6.459  -1.159  1.00 20.00     0.048 A 
HETATM    2  C4  UNL     1     -40.875   5.160  -0.810  1.00 20.00     0.135 A 
HETATM    3  C5  UNL     1     -42.323   5.377  -0.418  1.00 20.00    -0.012 A 
HETATM    4  C8  UNL     1     -43.409   4.659  -1.182  1.00 20.00     0.018 C 
HETATM    5  C9  UNL     1     -42.622   5.523   1.054  1.00 20.00     0.018 C 
ENDROOT
BRANCH   1   6
HETATM    6  C1  UNL     1     -41.139   7.679  -0.481  1.00 20.00    -0.017 C 
HETATM    7  C2  UNL     1     -41.890   8.760  -0.196  1.00 20.00    -0.091 C 
HETATM    8  C6  UNL     1     -41.302   9.948   0.515  1.00 20.00     0.042 C 
HETATM    9  C7  UNL     1     -43.344   8.884  -0.548  1.00 20.00     0.042 C 
ENDBRANCH   1   6
BRANCH   2  10
HETATM   10  O10 UNL     1     -40.617   4.273  -1.911  1.00 20.00    -0.394 OA
HETATM   11  H26 UNL     1     -41.483   4.027  -2.260  1.00 20.00     0.210 HD
ENDBRANCH   2  10
TORSDOF 2
ENDMDL
MODEL 7
REMARK VINA RESULT:      -4.1      1.352      1.556
REMARK  2 active torsions:
REMARK  status: ('A' for Active; 'I' for Inactive)
REMARK    1  A    between atoms: C1_1  and  C3_3 
REMARK    2  A    between atoms: C4_4  and  O10_10 
ROOT
HETATM    1  C3  UNL     1     -34.837  15.004  -3.078  1.00 20.00     0.048 A 
HETATM    2  C4  UNL     1     -35.313  14.082  -4.172  1.00 20.00     0.135 A 
HETATM    3  C5  UNL     1     -34.152  15.019  -4.434  1.00 20.00    -0.012 A 
HETATM    4  C8  UNL     1     -32.753  14.458  -4.504  1.00 20.00     0.018 C 
HETATM    5  C9  UNL     1     -34.390  16.155  -5.400  1.00 20.00     0.018 C 
ENDROOT
BRANCH   1   6
HETATM    6  C1  UNL     1     -35.693  16.105  -2.660  1.00 20.00    -0.017 C 
HETATM    7  C2  UNL     1     -35.359  17.166  -1.900  1.00 20.00    -0.091 C 
HETATM    8  C6  UNL     1     -36.370  18.224  -1.556  1.00 20.00     0.042 C 
HETATM    9  C7  UNL     1     -33.985  17.392  -1.338  1.00 20.00     0.042 C 
ENDBRANCH   1   6
BRANCH   2  10
HETATM   10  O10 UNL     1     -35.008  12.689  -3.992  1.00 20.00    -0.394 OA
HETATM   11  H26 UNL     1     -34.821  12.344  -4.875  1.00 20.00     0.210 HD
ENDBRANCH   2  10
TORSDOF 2
ENDMDL
MODEL 8
REMARK VINA RESULT:      -4.0      1.516      2.452
REMARK  2 active torsions:
REMARK  status: ('A' for Active; 'I' for Inactive)
REMARK    1  A    between atoms: C1_1  and  C3_3 
REMARK    2  A    between atoms: C4_4  and  O10_10 
ROOT
HETATM    1  C3  UNL     1     -34.978  15.703  -2.782  1.00 20.00     0.048 A 
HETATM    2  C4  UNL     1     -35.311  16.001  -4.222  1.00 20.00     0.135 A 
HETATM    3  C5  UNL     1     -34.468  14.789  -3.883  1.00 20.00    -0.012 A 
HETATM    4  C8  UNL     1     -35.082  13.414  -3.975  1.00 20.00     0.018 C 
HETATM    5  C9  UNL     1     -33.016  14.824  -4.296  1.00 20.00     0.018 C 
ENDROOT
BRANCH   1   6
HETATM    6  C1  UNL     1     -34.073  16.592  -2.068  1.00 20.00    -0.017 C 
HETATM    7  C2  UNL     1     -34.341  17.341  -0.981  1.00 20.00    -0.091 C 
HETATM    8  C6  UNL     1     -33.286  18.214  -0.359  1.00 20.00     0.042 C 
HETATM    9  C7  UNL     1     -35.680  17.379  -0.302  1.00 20.00     0.042 C 
ENDBRANCH   1   6
BRANCH   2  10
HETATM   10  O10 UNL     1     -36.675  15.766  -4.610  1.00 20.00    -0.394 OA
HETATM   11  H26 UNL     1     -36.976  15.021  -4.076  1.00 20.00     0.210 HD
ENDBRANCH   2  10
TORSDOF 2
ENDMDL
MODEL 9
REMARK VINA RESULT:      -3.9      2.691      4.620
REMARK  2 active torsions:
REMARK  status: ('A' for Active; 'I' for Inactive)
REMARK    1  A    between atoms: C1_1  and  C3_3 
REMARK    2  A    between atoms: C4_4  and  O10_10 
ROOT
HETATM    1  C3  UNL     1     -35.271  16.573  -1.350  1.00 20.00     0.048 A 
HETATM    2  C4  UNL     1     -34.915  17.375  -0.123  1.00 20.00     0.135 A 
HETATM    3  C5  UNL     1     -35.717  18.021  -1.235  1.00 20.00    -0.012 A 
HETATM    4  C8  UNL     1     -37.191  18.272  -1.031  1.00 20.00     0.018 C 
HETATM    5  C9  UNL     1     -35.032  19.099  -2.039  1.00 20.00     0.018 C 
ENDROOT
BRANCH   1   6
HETATM    6  C1  UNL     1     -34.212  16.187  -2.272  1.00 20.00    -0.017 C 
HETATM    7  C2  UNL     1     -34.293  15.329  -3.308  1.00 20.00    -0.091 C 
HETATM    8  C6  UNL     1     -33.097  15.037  -4.170  1.00 20.00     0.042 C 
HETATM    9  C7  UNL     1     -35.549  14.601  -3.693  1.00 20.00     0.042 C 
ENDBRANCH   1   6
BRANCH   2  10
HETATM   10  O10 UNL     1     -35.621  17.024   1.079  1.00 20.00    -0.394 OA
HETATM   11  H26 UNL     1     -34.943  16.777   1.720  1.00 20.00     0.210 HD
ENDBRANCH   2  10
TORSDOF 2
ENDMDL
