MODEL 1
REMARK VINA RESULT:      -6.1      0.000      0.000
REMARK  1 active torsions:
REMARK  status: ('A' for Active; 'I' for Inactive)
REMARK    1  A    between atoms: C2_2  and  C4_4 
ROOT
HETATM    1  C1  UNL     1     -33.250   6.283   3.167  1.00 20.00     0.116 C 
HETATM    2  C2  UNL     1     -33.884   6.162   4.347  1.00 20.00     0.151 C 
HETATM    3  C3  UNL     1     -32.211   7.294   2.802  1.00 20.00     0.084 C 
HETATM    4  F5  UNL     1     -33.573   5.402   2.187  1.00 20.00    -0.209 F 
HETATM    5 CL9  UNL     1     -33.561   7.227   5.678  1.00 20.00    -0.076 Cl
ENDROOT
BRANCH   2   6
HETATM    6  C4  UNL     1     -34.919   5.127   4.651  1.00 20.00     0.430 C 
HETATM    7  F6  UNL     1     -34.529   3.892   4.241  1.00 20.00    -0.165 F 
HETATM    8  F7  UNL     1     -35.204   5.018   5.974  1.00 20.00    -0.165 F 
HETATM    9  F8  UNL     1     -36.096   5.393   4.026  1.00 20.00    -0.165 F 
ENDBRANCH   2   6
TORSDOF 1
ENDMDL
MODEL 2
REMARK VINA RESULT:      -4.9      2.407      3.926
REMARK  1 active torsions:
REMARK  status: ('A' for Active; 'I' for Inactive)
REMARK    1  A    between atoms: C2_2  and  C4_4 
ROOT
HETATM    1  C1  UNL     1     -34.090   6.118   4.460  1.00 20.00     0.116 C 
HETATM    2  C2  UNL     1     -33.380   6.039   3.321  1.00 20.00     0.151 C 
HETATM    3  C3  UNL     1     -34.913   5.037   5.086  1.00 20.00     0.084 C 
HETATM    4  F5  UNL     1     -34.073   7.297   5.130  1.00 20.00    -0.209 F 
HETATM    5 CL9  UNL     1     -33.322   4.586   2.373  1.00 20.00    -0.076 Cl
ENDROOT
BRANCH   2   6
HETATM    6  C4  UNL     1     -32.575   7.158   2.743  1.00 20.00     0.430 C 
HETATM    7  F6  UNL     1     -31.908   6.772   1.625  1.00 20.00    -0.165 F 
HETATM    8  F7  UNL     1     -33.320   8.237   2.391  1.00 20.00    -0.165 F 
HETATM    9  F8  UNL     1     -31.640   7.609   3.620  1.00 20.00    -0.165 F 
ENDBRANCH   2   6
TORSDOF 1
ENDMDL
MODEL 3
REMARK VINA RESULT:      -4.9      2.411      3.931
REMARK  1 active torsions:
REMARK  status: ('A' for Active; 'I' for Inactive)
REMARK    1  A    between atoms: C2_2  and  C4_4 
ROOT
HETATM    1  C1  UNL     1     -34.084   6.111   4.446  1.00 20.00     0.116 C 
HETATM    2  C2  UNL     1     -33.374   6.034   3.306  1.00 20.00     0.151 C 
HETATM    3  C3  UNL     1     -34.907   5.029   5.070  1.00 20.00     0.084 C 
HETATM    4  F5  UNL     1     -34.065   7.288   5.119  1.00 20.00    -0.209 F 
HETATM    5 CL9  UNL     1     -33.318   4.584   2.354  1.00 20.00    -0.076 Cl
ENDROOT
BRANCH   2   6
HETATM    6  C4  UNL     1     -32.569   7.154   2.732  1.00 20.00     0.430 C 
HETATM    7  F6  UNL     1     -31.633   7.601   3.609  1.00 20.00    -0.165 F 
HETATM    8  F7  UNL     1     -31.901   6.818   1.598  1.00 20.00    -0.165 F 
HETATM    9  F8  UNL     1     -33.348   8.222   2.414  1.00 20.00    -0.165 F 
ENDBRANCH   2   6
TORSDOF 1
ENDMDL
MODEL 4
REMARK VINA RESULT:      -4.9      1.785      1.933
REMARK  1 active torsions:
REMARK  status: ('A' for Active; 'I' for Inactive)
REMARK    1  A    between atoms: C2_2  and  C4_4 
ROOT
HETATM    1  C1  UNL     1     -33.131   6.887   4.144  1.00 20.00     0.116 C 
HETATM    2  C2  UNL     1     -33.712   5.739   3.751  1.00 20.00     0.151 C 
HETATM    3  C3  UNL     1     -32.027   7.620   3.451  1.00 20.00     0.084 C 
HETATM    4  F5  UNL     1     -33.578   7.458   5.289  1.00 20.00    -0.209 F 
HETATM    5 CL9  UNL     1     -33.229   4.911   2.305  1.00 20.00    -0.076 Cl
ENDROOT
BRANCH   2   6
HETATM    6  C4  UNL     1     -34.814   5.052   4.490  1.00 20.00     0.430 C 
HETATM    7  F6  UNL     1     -34.844   3.720   4.223  1.00 20.00    -0.165 F 
HETATM    8  F7  UNL     1     -34.720   5.169   5.839  1.00 20.00    -0.165 F 
HETATM    9  F8  UNL     1     -36.034   5.546   4.147  1.00 20.00    -0.165 F 
ENDBRANCH   2   6
TORSDOF 1
ENDMDL
MODEL 5
REMARK VINA RESULT:      -4.9      2.509      3.876
REMARK  1 active torsions:
REMARK  status: ('A' for Active; 'I' for Inactive)
REMARK    1  A    between atoms: C2_2  and  C4_4 
ROOT
HETATM    1  C1  UNL     1     -33.986   6.263   4.912  1.00 20.00     0.116 C 
HETATM    2  C2  UNL     1     -33.493   6.086   3.674  1.00 20.00     0.151 C 
HETATM    3  C3  UNL     1     -34.858   5.318   5.677  1.00 20.00     0.084 C 
HETATM    4  F5  UNL     1     -33.671   7.414   5.556  1.00 20.00    -0.209 F 
HETATM    5 CL9  UNL     1     -33.823   4.657   2.747  1.00 20.00    -0.076 Cl
ENDROOT
BRANCH   2   6
HETATM    6  C4  UNL     1     -32.624   7.071   2.959  1.00 20.00     0.430 C 
HETATM    7  F6  UNL     1     -33.352   8.082   2.418  1.00 20.00    -0.165 F 
HETATM    8  F7  UNL     1     -31.694   7.654   3.757  1.00 20.00    -0.165 F 
HETATM    9  F8  UNL     1     -31.942   6.490   1.937  1.00 20.00    -0.165 F 
ENDBRANCH   2   6
TORSDOF 1
ENDMDL
MODEL 6
REMARK VINA RESULT:      -4.8      2.187      2.524
REMARK  1 active torsions:
REMARK  status: ('A' for Active; 'I' for Inactive)
REMARK    1  A    between atoms: C2_2  and  C4_4 
ROOT
HETATM    1  C1  UNL     1     -33.042   6.697   3.657  1.00 20.00     0.116 C 
HETATM    2  C2  UNL     1     -33.984   6.205   4.481  1.00 20.00     0.151 C 
HETATM    3  C3  UNL     1     -32.877   6.402   2.200  1.00 20.00     0.084 C 
HETATM    4  F5  UNL     1     -32.134   7.556   4.183  1.00 20.00    -0.209 F 
HETATM    5 CL9  UNL     1     -35.202   5.099   3.930  1.00 20.00    -0.076 Cl
ENDROOT
BRANCH   2   6
HETATM    6  C4  UNL     1     -34.098   6.538   5.934  1.00 20.00     0.430 C 
HETATM    7  F6  UNL     1     -35.123   5.870   6.523  1.00 20.00    -0.165 F 
HETATM    8  F7  UNL     1     -32.984   6.238   6.649  1.00 20.00    -0.165 F 
HETATM    9  F8  UNL     1     -34.332   7.863   6.129  1.00 20.00    -0.165 F 
ENDBRANCH   2   6
TORSDOF 1
ENDMDL
MODEL 7
REMARK VINA RESULT:      -4.8      2.191      2.523
REMARK  1 active torsions:
REMARK  status: ('A' for Active; 'I' for Inactive)
REMARK    1  A    between atoms: C2_2  and  C4_4 
ROOT
HETATM    1  C1  UNL     1     -33.045   6.693   3.666  1.00 20.00     0.116 C 
HETATM    2  C2  UNL     1     -33.988   6.204   4.490  1.00 20.00     0.151 C 
HETATM    3  C3  UNL     1     -32.872   6.386   2.212  1.00 20.00     0.084 C 
HETATM    4  F5  UNL     1     -32.142   7.560   4.188  1.00 20.00    -0.209 F 
HETATM    5 CL9  UNL     1     -35.199   5.088   3.943  1.00 20.00    -0.076 Cl
ENDROOT
BRANCH   2   6
HETATM    6  C4  UNL     1     -34.110   6.549   5.939  1.00 20.00     0.430 C 
HETATM    7  F6  UNL     1     -32.986   6.224   6.629  1.00 20.00    -0.165 F 
HETATM    8  F7  UNL     1     -34.328   7.870   6.167  1.00 20.00    -0.165 F 
HETATM    9  F8  UNL     1     -35.138   5.884   6.530  1.00 20.00    -0.165 F 
ENDBRANCH   2   6
TORSDOF 1
ENDMDL
MODEL 8
REMARK VINA RESULT:      -4.7      1.627      2.128
REMARK  1 active torsions:
REMARK  status: ('A' for Active; 'I' for Inactive)
REMARK    1  A    between atoms: C2_2  and  C4_4 
ROOT
HETATM    1  C1  UNL     1     -33.787   4.823   3.478  1.00 20.00     0.116 C 
HETATM    2  C2  UNL     1     -33.767   5.834   4.364  1.00 20.00     0.151 C 
HETATM    3  C3  UNL     1     -33.138   4.794   2.130  1.00 20.00     0.084 C 
HETATM    4  F5  UNL     1     -34.462   3.698   3.822  1.00 20.00    -0.209 F 
HETATM    5 CL9  UNL     1     -32.938   7.324   4.042  1.00 20.00    -0.076 Cl
ENDROOT
BRANCH   2   6
HETATM    6  C4  UNL     1     -34.437   5.803   5.700  1.00 20.00     0.430 C 
HETATM    7  F6  UNL     1     -35.773   5.580   5.587  1.00 20.00    -0.165 F 
HETATM    8  F7  UNL     1     -33.957   4.839   6.527  1.00 20.00    -0.165 F 
HETATM    9  F8  UNL     1     -34.292   6.982   6.362  1.00 20.00    -0.165 F 
ENDBRANCH   2   6
TORSDOF 1
ENDMDL
MODEL 9
REMARK VINA RESULT:      -4.7      1.614      3.390
REMARK  1 active torsions:
REMARK  status: ('A' for Active; 'I' for Inactive)
REMARK    1  A    between atoms: C2_2  and  C4_4 
ROOT
HETATM    1  C1  UNL     1     -34.331   5.469   3.901  1.00 20.00     0.116 C 
HETATM    2  C2  UNL     1     -33.484   6.499   4.077  1.00 20.00     0.151 C 
HETATM    3  C3  UNL     1     -35.283   4.905   4.908  1.00 20.00     0.084 C 
HETATM    4  F5  UNL     1     -34.340   4.863   2.688  1.00 20.00    -0.209 F 
HETATM    5 CL9  UNL     1     -33.378   7.356   5.582  1.00 20.00    -0.076 Cl
ENDROOT
BRANCH   2   6
HETATM    6  C4  UNL     1     -32.553   7.019   3.030  1.00 20.00     0.430 C 
HETATM    7  F6  UNL     1     -32.024   6.014   2.284  1.00 20.00    -0.165 F 
HETATM    8  F7  UNL     1     -33.142   7.874   2.155  1.00 20.00    -0.165 F 
HETATM    9  F8  UNL     1     -31.506   7.692   3.577  1.00 20.00    -0.165 F 
ENDBRANCH   2   6
TORSDOF 1
ENDMDL
