MODEL 1
REMARK VINA RESULT:      -4.9      0.000      0.000
REMARK  1 active torsions:
REMARK  status: ('A' for Active; 'I' for Inactive)
REMARK    1  A    between atoms: C2_2  and  C3_3 
ROOT
HETATM    1  C3  UNL     1     -34.691   5.265   4.230  1.00 20.00     0.351 C 
HETATM    2  F5  UNL     1     -35.947   5.473   3.752  1.00 20.00    -0.185 F 
HETATM    3  F6  UNL     1     -34.478   3.924   4.168  1.00 20.00    -0.185 F 
HETATM    4 BR7  UNL     1     -33.409   6.176   3.083  1.00 20.00    -0.003 Br
ENDROOT
BRANCH   1   5
HETATM    5  C2  UNL     1     -34.514   5.765   5.622  1.00 20.00     0.167 C 
HETATM    6  C1  UNL     1     -33.831   6.868   5.948  1.00 20.00     0.059 C 
HETATM    7  F4  UNL     1     -35.110   5.078   6.625  1.00 20.00    -0.204 F 
ENDBRANCH   1   5
TORSDOF 1
ENDMDL
MODEL 2
REMARK VINA RESULT:      -4.9      1.797      2.817
REMARK  1 active torsions:
REMARK  status: ('A' for Active; 'I' for Inactive)
REMARK    1  A    between atoms: C2_2  and  C3_3 
ROOT
HETATM    1  C3  UNL     1     -34.535   5.338   4.355  1.00 20.00     0.351 C 
HETATM    2  F5  UNL     1     -34.451   4.055   4.798  1.00 20.00    -0.185 F 
HETATM    3  F6  UNL     1     -35.832   5.535   4.002  1.00 20.00    -0.185 F 
HETATM    4 BR7  UNL     1     -34.068   6.549   5.806  1.00 20.00    -0.003 Br
ENDROOT
BRANCH   1   5
HETATM    5  C2  UNL     1     -33.627   5.610   3.206  1.00 20.00     0.167 C 
HETATM    6  C1  UNL     1     -32.943   6.747   3.036  1.00 20.00     0.059 C 
HETATM    7  F4  UNL     1     -33.453   4.632   2.286  1.00 20.00    -0.204 F 
ENDBRANCH   1   5
TORSDOF 1
ENDMDL
MODEL 3
REMARK VINA RESULT:      -4.8      1.957      2.949
REMARK  1 active torsions:
REMARK  status: ('A' for Active; 'I' for Inactive)
REMARK    1  A    between atoms: C2_2  and  C3_3 
ROOT
HETATM    1  C3  UNL     1     -34.597   5.376   4.443  1.00 20.00     0.351 C 
HETATM    2  F5  UNL     1     -34.482   4.079   4.835  1.00 20.00    -0.185 F 
HETATM    3  F6  UNL     1     -35.898   5.554   4.094  1.00 20.00    -0.185 F 
HETATM    4 BR7  UNL     1     -34.165   6.539   5.943  1.00 20.00    -0.003 Br
ENDROOT
BRANCH   1   5
HETATM    5  C2  UNL     1     -33.694   5.717   3.308  1.00 20.00     0.167 C 
HETATM    6  C1  UNL     1     -33.253   4.838   2.403  1.00 20.00     0.059 C 
HETATM    7  F4  UNL     1     -33.318   7.010   3.161  1.00 20.00    -0.204 F 
ENDBRANCH   1   5
TORSDOF 1
ENDMDL
MODEL 4
REMARK VINA RESULT:      -4.5      2.018      2.804
REMARK  1 active torsions:
REMARK  status: ('A' for Active; 'I' for Inactive)
REMARK    1  A    between atoms: C2_2  and  C3_3 
ROOT
HETATM    1  C3  UNL     1     -34.815   5.691   4.264  1.00 20.00     0.351 C 
HETATM    2  F5  UNL     1     -36.131   5.697   3.923  1.00 20.00    -0.185 F 
HETATM    3  F6  UNL     1     -34.365   6.958   4.066  1.00 20.00    -0.185 F 
HETATM    4 BR7  UNL     1     -34.642   5.231   6.147  1.00 20.00    -0.003 Br
ENDROOT
BRANCH   1   5
HETATM    5  C2  UNL     1     -34.018   4.717   3.467  1.00 20.00     0.167 C 
HETATM    6  C1  UNL     1     -33.235   5.046   2.434  1.00 20.00     0.059 C 
HETATM    7  F4  UNL     1     -34.060   3.413   3.830  1.00 20.00    -0.204 F 
ENDBRANCH   1   5
TORSDOF 1
ENDMDL
MODEL 5
REMARK VINA RESULT:      -4.1      1.907      2.348
REMARK  1 active torsions:
REMARK  status: ('A' for Active; 'I' for Inactive)
REMARK    1  A    between atoms: C2_2  and  C3_3 
ROOT
HETATM    1  C3  UNL     1     -33.483   5.211   2.650  1.00 20.00     0.351 C 
HETATM    2  F5  UNL     1     -34.261   5.319   1.541  1.00 20.00    -0.185 F 
HETATM    3  F6  UNL     1     -32.519   4.301   2.352  1.00 20.00    -0.185 F 
HETATM    4 BR7  UNL     1     -32.653   6.932   3.022  1.00 20.00    -0.003 Br
ENDROOT
BRANCH   1   5
HETATM    5  C2  UNL     1     -34.253   4.791   3.855  1.00 20.00     0.167 C 
HETATM    6  C1  UNL     1     -35.138   5.564   4.493  1.00 20.00     0.059 C 
HETATM    7  F4  UNL     1     -34.073   3.532   4.318  1.00 20.00    -0.204 F 
ENDBRANCH   1   5
TORSDOF 1
ENDMDL
MODEL 6
REMARK VINA RESULT:      -4.1      2.872      3.288
REMARK  1 active torsions:
REMARK  status: ('A' for Active; 'I' for Inactive)
REMARK    1  A    between atoms: C2_2  and  C3_3 
ROOT
HETATM    1  C3  UNL     1     -33.474   5.350   2.741  1.00 20.00     0.351 C 
HETATM    2  F5  UNL     1     -32.567   4.339   2.658  1.00 20.00    -0.185 F 
HETATM    3  F6  UNL     1     -34.178   5.325   1.580  1.00 20.00    -0.185 F 
HETATM    4 BR7  UNL     1     -34.676   5.011   4.234  1.00 20.00    -0.003 Br
ENDROOT
BRANCH   1   5
HETATM    5  C2  UNL     1     -32.836   6.680   2.944  1.00 20.00     0.167 C 
HETATM    6  C1  UNL     1     -32.442   7.489   1.954  1.00 20.00     0.059 C 
HETATM    7  F4  UNL     1     -32.671   7.120   4.214  1.00 20.00    -0.204 F 
ENDBRANCH   1   5
TORSDOF 1
ENDMDL
MODEL 7
REMARK VINA RESULT:      -4.1      2.612      3.224
REMARK  1 active torsions:
REMARK  status: ('A' for Active; 'I' for Inactive)
REMARK    1  A    between atoms: C2_2  and  C3_3 
ROOT
HETATM    1  C3  UNL     1     -33.857   6.479   4.152  1.00 20.00     0.351 C 
HETATM    2  F5  UNL     1     -34.796   7.449   3.985  1.00 20.00    -0.185 F 
HETATM    3  F6  UNL     1     -33.080   6.877   5.193  1.00 20.00    -0.185 F 
HETATM    4 BR7  UNL     1     -34.739   4.805   4.607  1.00 20.00    -0.003 Br
ENDROOT
BRANCH   1   5
HETATM    5  C2  UNL     1     -33.033   6.260   2.931  1.00 20.00     0.167 C 
HETATM    6  C1  UNL     1     -32.431   7.234   2.240  1.00 20.00     0.059 C 
HETATM    7  F4  UNL     1     -32.850   4.987   2.507  1.00 20.00    -0.204 F 
ENDBRANCH   1   5
TORSDOF 1
ENDMDL
MODEL 8
REMARK VINA RESULT:      -4.0      2.367      2.693
REMARK  1 active torsions:
REMARK  status: ('A' for Active; 'I' for Inactive)
REMARK    1  A    between atoms: C2_2  and  C3_3 
ROOT
HETATM    1  C3  UNL     1     -33.352   6.654   3.609  1.00 20.00     0.351 C 
HETATM    2  F5  UNL     1     -32.101   7.126   3.854  1.00 20.00    -0.185 F 
HETATM    3  F6  UNL     1     -33.976   7.599   2.859  1.00 20.00    -0.185 F 
HETATM    4 BR7  UNL     1     -33.225   5.001   2.589  1.00 20.00    -0.003 Br
ENDROOT
BRANCH   1   5
HETATM    5  C2  UNL     1     -34.118   6.377   4.857  1.00 20.00     0.167 C 
HETATM    6  C1  UNL     1     -34.932   5.330   5.028  1.00 20.00     0.059 C 
HETATM    7  F4  UNL     1     -33.956   7.222   5.903  1.00 20.00    -0.204 F 
ENDBRANCH   1   5
TORSDOF 1
ENDMDL
MODEL 9
REMARK VINA RESULT:      -4.0      1.806      2.432
REMARK  1 active torsions:
REMARK  status: ('A' for Active; 'I' for Inactive)
REMARK    1  A    between atoms: C2_2  and  C3_3 
ROOT
HETATM    1  C3  UNL     1     -33.856   6.503   4.061  1.00 20.00     0.351 C 
HETATM    2  F5  UNL     1     -32.867   6.957   4.876  1.00 20.00    -0.185 F 
HETATM    3  F6  UNL     1     -34.434   7.604   3.514  1.00 20.00    -0.185 F 
HETATM    4 BR7  UNL     1     -33.075   5.414   2.649  1.00 20.00    -0.003 Br
ENDROOT
BRANCH   1   5
HETATM    5  C2  UNL     1     -34.865   5.680   4.785  1.00 20.00     0.167 C 
HETATM    6  C1  UNL     1     -34.724   5.244   6.041  1.00 20.00     0.059 C 
HETATM    7  F4  UNL     1     -36.019   5.380   4.144  1.00 20.00    -0.204 F 
ENDBRANCH   1   5
TORSDOF 1
ENDMDL
