MODEL 1
REMARK VINA RESULT:      -3.6      0.000      0.000
REMARK  0 active torsions:
REMARK  status: ('A' for Active; 'I' for Inactive)
ROOT
HETATM    1  C1  UNL     1     -34.745   4.749   4.234  1.00 20.00     0.238 C 
HETATM    2  C2  UNL     1     -34.673   5.415   5.384  1.00 20.00     0.189 C 
HETATM    3  F3  UNL     1     -34.092   5.171   3.134  1.00 20.00    -0.216 F 
HETATM    4  F4  UNL     1     -35.354   4.937   6.450  1.00 20.00    -0.196 F 
HETATM    5 BR5  UNL     1     -33.678   6.970   5.592  1.00 20.00    -0.015 Br
ENDROOT
TORSDOF 0
ENDMDL
MODEL 2
REMARK VINA RESULT:      -3.6      2.363      2.363
REMARK  0 active torsions:
REMARK  status: ('A' for Active; 'I' for Inactive)
ROOT
HETATM    1  C1  UNL     1     -33.074   6.772   3.447  1.00 20.00     0.238 C 
HETATM    2  C2  UNL     1     -33.855   6.492   4.489  1.00 20.00     0.189 C 
HETATM    3  F3  UNL     1     -33.081   6.009   2.337  1.00 20.00    -0.216 F 
HETATM    4  F4  UNL     1     -33.798   7.298   5.573  1.00 20.00    -0.196 F 
HETATM    5 BR5  UNL     1     -35.019   5.044   4.520  1.00 20.00    -0.015 Br
ENDROOT
TORSDOF 0
ENDMDL
MODEL 3
REMARK VINA RESULT:      -3.5      1.900      1.942
REMARK  0 active torsions:
REMARK  status: ('A' for Active; 'I' for Inactive)
ROOT
HETATM    1  C1  UNL     1     -34.835   5.301   5.045  1.00 20.00     0.238 C 
HETATM    2  C2  UNL     1     -34.063   6.364   4.827  1.00 20.00     0.189 C 
HETATM    3  F3  UNL     1     -34.970   4.329   4.122  1.00 20.00    -0.216 F 
HETATM    4  F4  UNL     1     -33.972   7.304   5.796  1.00 20.00    -0.196 F 
HETATM    5 BR5  UNL     1     -33.107   6.616   3.254  1.00 20.00    -0.015 Br
ENDROOT
TORSDOF 0
ENDMDL
MODEL 4
REMARK VINA RESULT:      -3.5      1.956      2.979
REMARK  0 active torsions:
REMARK  status: ('A' for Active; 'I' for Inactive)
ROOT
HETATM    1  C1  UNL     1     -34.481   5.017   3.847  1.00 20.00     0.238 C 
HETATM    2  C2  UNL     1     -33.533   5.247   2.941  1.00 20.00     0.189 C 
HETATM    3  F3  UNL     1     -34.877   5.972   4.710  1.00 20.00    -0.216 F 
HETATM    4  F4  UNL     1     -33.182   4.244   2.105  1.00 20.00    -0.196 F 
HETATM    5 BR5  UNL     1     -32.670   6.884   2.774  1.00 20.00    -0.015 Br
ENDROOT
TORSDOF 0
ENDMDL
MODEL 5
REMARK VINA RESULT:      -3.5      1.894      2.448
REMARK  0 active torsions:
REMARK  status: ('A' for Active; 'I' for Inactive)
ROOT
HETATM    1  C1  UNL     1     -34.442   6.072   5.843  1.00 20.00     0.238 C 
HETATM    2  C2  UNL     1     -34.567   5.828   4.539  1.00 20.00     0.189 C 
HETATM    3  F3  UNL     1     -33.389   6.752   6.334  1.00 20.00    -0.216 F 
HETATM    4  F4  UNL     1     -35.648   5.139   4.112  1.00 20.00    -0.196 F 
HETATM    5 BR5  UNL     1     -33.321   6.393   3.282  1.00 20.00    -0.015 Br
ENDROOT
TORSDOF 0
ENDMDL
MODEL 6
REMARK VINA RESULT:      -3.5      2.102      3.220
REMARK  0 active torsions:
REMARK  status: ('A' for Active; 'I' for Inactive)
ROOT
HETATM    1  C1  UNL     1     -33.715   7.116   5.535  1.00 20.00     0.238 C 
HETATM    2  C2  UNL     1     -33.826   6.415   4.408  1.00 20.00     0.189 C 
HETATM    3  F3  UNL     1     -34.423   6.796   6.635  1.00 20.00    -0.216 F 
HETATM    4  F4  UNL     1     -33.087   6.790   3.339  1.00 20.00    -0.196 F 
HETATM    5 BR5  UNL     1     -34.951   4.946   4.237  1.00 20.00    -0.015 Br
ENDROOT
TORSDOF 0
ENDMDL
MODEL 7
REMARK VINA RESULT:      -3.4      1.458      1.515
REMARK  0 active torsions:
REMARK  status: ('A' for Active; 'I' for Inactive)
ROOT
HETATM    1  C1  UNL     1     -33.782   5.456   3.132  1.00 20.00     0.238 C 
HETATM    2  C2  UNL     1     -34.468   5.536   4.271  1.00 20.00     0.189 C 
HETATM    3  F3  UNL     1     -32.669   6.186   2.929  1.00 20.00    -0.216 F 
HETATM    4  F4  UNL     1     -35.577   4.776   4.411  1.00 20.00    -0.196 F 
HETATM    5 BR5  UNL     1     -33.969   6.644   5.677  1.00 20.00    -0.015 Br
ENDROOT
TORSDOF 0
ENDMDL
MODEL 8
REMARK VINA RESULT:      -3.4      2.819      3.250
REMARK  0 active torsions:
REMARK  status: ('A' for Active; 'I' for Inactive)
ROOT
HETATM    1  C1  UNL     1     -32.789   6.304   2.798  1.00 20.00     0.238 C 
HETATM    2  C2  UNL     1     -33.539   5.211   2.929  1.00 20.00     0.189 C 
HETATM    3  F3  UNL     1     -32.883   7.330   3.665  1.00 20.00    -0.216 F 
HETATM    4  F4  UNL     1     -33.396   4.218   2.023  1.00 20.00    -0.196 F 
HETATM    5 BR5  UNL     1     -34.775   4.991   4.299  1.00 20.00    -0.015 Br
ENDROOT
TORSDOF 0
ENDMDL
MODEL 9
REMARK VINA RESULT:      -3.4      1.518      2.303
REMARK  0 active torsions:
REMARK  status: ('A' for Active; 'I' for Inactive)
ROOT
HETATM    1  C1  UNL     1     -34.424   5.099   3.699  1.00 20.00     0.238 C 
HETATM    2  C2  UNL     1     -33.890   6.242   4.123  1.00 20.00     0.189 C 
HETATM    3  F3  UNL     1     -35.052   4.259   4.545  1.00 20.00    -0.216 F 
HETATM    4  F4  UNL     1     -33.273   7.039   3.222  1.00 20.00    -0.196 F 
HETATM    5 BR5  UNL     1     -33.953   6.792   5.897  1.00 20.00    -0.015 Br
ENDROOT
TORSDOF 0
ENDMDL
