MODEL 1
REMARK VINA RESULT:      -6.0      0.000      0.000
REMARK  1 active torsions:
REMARK  status: ('A' for Active; 'I' for Inactive)
REMARK    1  A    between atoms: C1_1  and  C3_3 
ROOT
HETATM    1  C1  UNL     1     -33.871   6.377   4.620  1.00 20.00     0.249 C 
HETATM    2  C2  UNL     1     -33.136   6.445   3.503  1.00 20.00     0.229 C 
HETATM    3  F4  UNL     1     -33.704   7.335   5.563  1.00 20.00    -0.197 F 
HETATM    4  F5  UNL     1     -32.251   7.451   3.334  1.00 20.00    -0.189 F 
HETATM    5 CL9  UNL     1     -33.287   5.267   2.251  1.00 20.00    -0.049 Cl
ENDROOT
BRANCH   1   6
HETATM    6  C3  UNL     1     -34.874   5.316   4.911  1.00 20.00     0.448 C 
HETATM    7  F6  UNL     1     -35.992   5.476   4.158  1.00 20.00    -0.164 F 
HETATM    8  F7  UNL     1     -34.424   4.058   4.680  1.00 20.00    -0.164 F 
HETATM    9  F8  UNL     1     -35.270   5.357   6.210  1.00 20.00    -0.164 F 
ENDBRANCH   1   6
TORSDOF 1
ENDMDL
MODEL 2
REMARK VINA RESULT:      -5.4      1.508      2.479
REMARK  1 active torsions:
REMARK  status: ('A' for Active; 'I' for Inactive)
REMARK    1  A    between atoms: C1_1  and  C3_3 
ROOT
HETATM    1  C1  UNL     1     -34.076   4.710   3.766  1.00 20.00     0.249 C 
HETATM    2  C2  UNL     1     -33.284   5.185   2.798  1.00 20.00     0.229 C 
HETATM    3  F4  UNL     1     -34.223   3.368   3.882  1.00 20.00    -0.197 F 
HETATM    4  F5  UNL     1     -32.651   4.334   1.961  1.00 20.00    -0.189 F 
HETATM    5 CL9  UNL     1     -33.040   6.879   2.581  1.00 20.00    -0.049 Cl
ENDROOT
BRANCH   1   6
HETATM    6  C3  UNL     1     -34.820   5.552   4.743  1.00 20.00     0.448 C 
HETATM    7  F6  UNL     1     -35.046   4.880   5.900  1.00 20.00    -0.164 F 
HETATM    8  F7  UNL     1     -34.179   6.700   5.076  1.00 20.00    -0.164 F 
HETATM    9  F8  UNL     1     -36.036   5.911   4.255  1.00 20.00    -0.164 F 
ENDBRANCH   1   6
TORSDOF 1
ENDMDL
MODEL 3
REMARK VINA RESULT:      -5.4      1.504      2.268
REMARK  1 active torsions:
REMARK  status: ('A' for Active; 'I' for Inactive)
REMARK    1  A    between atoms: C1_1  and  C3_3 
ROOT
HETATM    1  C1  UNL     1     -34.084   4.705   3.773  1.00 20.00     0.249 C 
HETATM    2  C2  UNL     1     -33.297   5.186   2.803  1.00 20.00     0.229 C 
HETATM    3  F4  UNL     1     -34.214   3.362   3.893  1.00 20.00    -0.197 F 
HETATM    4  F5  UNL     1     -32.655   4.340   1.968  1.00 20.00    -0.189 F 
HETATM    5 CL9  UNL     1     -33.075   6.882   2.580  1.00 20.00    -0.049 Cl
ENDROOT
BRANCH   1   6
HETATM    6  C3  UNL     1     -34.837   5.541   4.747  1.00 20.00     0.448 C 
HETATM    7  F6  UNL     1     -36.033   5.931   4.238  1.00 20.00    -0.164 F 
HETATM    8  F7  UNL     1     -35.097   4.915   5.922  1.00 20.00    -0.164 F 
HETATM    9  F8  UNL     1     -34.154   6.675   5.052  1.00 20.00    -0.164 F 
ENDBRANCH   1   6
TORSDOF 1
ENDMDL
MODEL 4
REMARK VINA RESULT:      -5.0      1.725      3.217
REMARK  1 active torsions:
REMARK  status: ('A' for Active; 'I' for Inactive)
REMARK    1  A    between atoms: C1_1  and  C3_3 
ROOT
HETATM    1  C1  UNL     1     -33.330   6.788   4.621  1.00 20.00     0.249 C 
HETATM    2  C2  UNL     1     -34.384   6.111   5.092  1.00 20.00     0.229 C 
HETATM    3  F4  UNL     1     -32.639   7.584   5.471  1.00 20.00    -0.197 F 
HETATM    4  F5  UNL     1     -34.741   6.231   6.390  1.00 20.00    -0.189 F 
HETATM    5 CL9  UNL     1     -35.318   5.074   4.078  1.00 20.00    -0.049 Cl
ENDROOT
BRANCH   1   6
HETATM    6  C3  UNL     1     -32.847   6.731   3.213  1.00 20.00     0.448 C 
HETATM    7  F6  UNL     1     -31.601   7.258   3.100  1.00 20.00    -0.164 F 
HETATM    8  F7  UNL     1     -32.789   5.476   2.704  1.00 20.00    -0.164 F 
HETATM    9  F8  UNL     1     -33.651   7.451   2.389  1.00 20.00    -0.164 F 
ENDBRANCH   1   6
TORSDOF 1
ENDMDL
MODEL 5
REMARK VINA RESULT:      -5.0      1.770      2.267
REMARK  1 active torsions:
REMARK  status: ('A' for Active; 'I' for Inactive)
REMARK    1  A    between atoms: C1_1  and  C3_3 
ROOT
HETATM    1  C1  UNL     1     -33.626   5.726   3.583  1.00 20.00     0.249 C 
HETATM    2  C2  UNL     1     -33.105   6.817   4.160  1.00 20.00     0.229 C 
HETATM    3  F4  UNL     1     -33.231   5.408   2.328  1.00 20.00    -0.197 F 
HETATM    4  F5  UNL     1     -32.208   7.573   3.491  1.00 20.00    -0.189 F 
HETATM    5 CL9  UNL     1     -33.551   7.294   5.756  1.00 20.00    -0.049 Cl
ENDROOT
BRANCH   1   6
HETATM    6  C3  UNL     1     -34.619   4.821   4.224  1.00 20.00     0.448 C 
HETATM    7  F6  UNL     1     -34.539   3.565   3.715  1.00 20.00    -0.164 F 
HETATM    8  F7  UNL     1     -34.471   4.709   5.568  1.00 20.00    -0.164 F 
HETATM    9  F8  UNL     1     -35.888   5.251   4.005  1.00 20.00    -0.164 F 
ENDBRANCH   1   6
TORSDOF 1
ENDMDL
MODEL 6
REMARK VINA RESULT:      -4.9      1.996      3.890
REMARK  1 active torsions:
REMARK  status: ('A' for Active; 'I' for Inactive)
REMARK    1  A    between atoms: C1_1  and  C3_3 
ROOT
HETATM    1  C1  UNL     1     -33.245   5.558   2.861  1.00 20.00     0.249 C 
HETATM    2  C2  UNL     1     -34.023   5.192   3.887  1.00 20.00     0.229 C 
HETATM    3  F4  UNL     1     -32.938   4.634   1.920  1.00 20.00    -0.197 F 
HETATM    4  F5  UNL     1     -34.483   3.924   3.970  1.00 20.00    -0.189 F 
HETATM    5 CL9  UNL     1     -34.464   6.305   5.129  1.00 20.00    -0.049 Cl
ENDROOT
BRANCH   1   6
HETATM    6  C3  UNL     1     -32.684   6.924   2.669  1.00 20.00     0.448 C 
HETATM    7  F6  UNL     1     -33.671   7.853   2.583  1.00 20.00    -0.164 F 
HETATM    8  F7  UNL     1     -31.858   7.322   3.668  1.00 20.00    -0.164 F 
HETATM    9  F8  UNL     1     -31.971   7.004   1.516  1.00 20.00    -0.164 F 
ENDBRANCH   1   6
TORSDOF 1
ENDMDL
MODEL 7
REMARK VINA RESULT:      -4.9      1.928      2.497
REMARK  1 active torsions:
REMARK  status: ('A' for Active; 'I' for Inactive)
REMARK    1  A    between atoms: C1_1  and  C3_3 
ROOT
HETATM    1  C1  UNL     1     -33.537   6.228   4.040  1.00 20.00     0.249 C 
HETATM    2  C2  UNL     1     -33.691   6.643   5.304  1.00 20.00     0.229 C 
HETATM    3  F4  UNL     1     -32.659   6.887   3.246  1.00 20.00    -0.197 F 
HETATM    4  F5  UNL     1     -32.981   7.696   5.763  1.00 20.00    -0.189 F 
HETATM    5 CL9  UNL     1     -34.787   5.861   6.382  1.00 20.00    -0.049 Cl
ENDROOT
BRANCH   1   6
HETATM    6  C3  UNL     1     -34.265   5.082   3.429  1.00 20.00     0.448 C 
HETATM    7  F6  UNL     1     -33.971   4.961   2.109  1.00 20.00    -0.164 F 
HETATM    8  F7  UNL     1     -33.983   3.886   4.004  1.00 20.00    -0.164 F 
HETATM    9  F8  UNL     1     -35.609   5.251   3.517  1.00 20.00    -0.164 F 
ENDBRANCH   1   6
TORSDOF 1
ENDMDL
MODEL 8
REMARK VINA RESULT:      -4.8      1.243      1.503
REMARK  1 active torsions:
REMARK  status: ('A' for Active; 'I' for Inactive)
REMARK    1  A    between atoms: C1_1  and  C3_3 
ROOT
HETATM    1  C1  UNL     1     -34.029   6.311   4.973  1.00 20.00     0.249 C 
HETATM    2  C2  UNL     1     -33.037   7.077   4.503  1.00 20.00     0.229 C 
HETATM    3  F4  UNL     1     -34.431   6.487   6.254  1.00 20.00    -0.197 F 
HETATM    4  F5  UNL     1     -32.459   8.002   5.301  1.00 20.00    -0.189 F 
HETATM    5 CL9  UNL     1     -32.465   6.919   2.883  1.00 20.00    -0.049 Cl
ENDROOT
BRANCH   1   6
HETATM    6  C3  UNL     1     -34.737   5.264   4.186  1.00 20.00     0.448 C 
HETATM    7  F6  UNL     1     -36.064   5.533   4.092  1.00 20.00    -0.164 F 
HETATM    8  F7  UNL     1     -34.275   5.125   2.918  1.00 20.00    -0.164 F 
HETATM    9  F8  UNL     1     -34.626   4.046   4.777  1.00 20.00    -0.164 F 
ENDBRANCH   1   6
TORSDOF 1
ENDMDL
MODEL 9
REMARK VINA RESULT:      -4.7      1.370      2.780
REMARK  1 active torsions:
REMARK  status: ('A' for Active; 'I' for Inactive)
REMARK    1  A    between atoms: C1_1  and  C3_3 
ROOT
HETATM    1  C1  UNL     1     -34.352   5.339   4.965  1.00 20.00     0.249 C 
HETATM    2  C2  UNL     1     -34.031   4.715   3.825  1.00 20.00     0.229 C 
HETATM    3  F4  UNL     1     -34.982   4.633   5.934  1.00 20.00    -0.197 F 
HETATM    4  F5  UNL     1     -34.336   3.410   3.658  1.00 20.00    -0.189 F 
HETATM    5 CL9  UNL     1     -33.226   5.539   2.541  1.00 20.00    -0.049 Cl
ENDROOT
BRANCH   1   6
HETATM    6  C3  UNL     1     -34.065   6.771   5.258  1.00 20.00     0.448 C 
HETATM    7  F6  UNL     1     -34.487   7.112   6.502  1.00 20.00    -0.164 F 
HETATM    8  F7  UNL     1     -32.749   7.091   5.189  1.00 20.00    -0.164 F 
HETATM    9  F8  UNL     1     -34.712   7.589   4.388  1.00 20.00    -0.164 F 
ENDBRANCH   1   6
TORSDOF 1
ENDMDL
