MODEL 1
REMARK VINA RESULT:      -5.4      0.000      0.000
REMARK  0 active torsions:
REMARK  status: ('A' for Active; 'I' for Inactive)
ROOT
HETATM    1  C1  UNL     1     -32.821   6.899   3.503  1.00 20.00     0.145 C 
HETATM    2  C2  UNL     1     -33.826   6.597   4.315  1.00 20.00    -0.034 C 
HETATM    3  C3  UNL     1     -34.107   6.776   5.754  1.00 20.00     0.038 C 
HETATM    4  C4  UNL     1     -34.747   5.414   6.089  1.00 20.00     0.007 C 
HETATM    5  C5  UNL     1     -34.480   4.491   4.881  1.00 20.00     0.034 C 
HETATM    6  C6  UNL     1     -34.518   5.446   3.706  1.00 20.00     0.161 C 
HETATM    7  N7  UNL     1     -32.766   6.037   2.434  1.00 20.00    -0.167 NA
HETATM    8  N8  UNL     1     -33.640   5.122   2.564  1.00 20.00    -0.183 NA
ENDROOT
TORSDOF 0
ENDMDL
MODEL 2
REMARK VINA RESULT:      -4.9      0.988      1.261
REMARK  0 active torsions:
REMARK  status: ('A' for Active; 'I' for Inactive)
ROOT
HETATM    1  C1  UNL     1     -33.287   5.788   3.032  1.00 20.00     0.145 C 
HETATM    2  C2  UNL     1     -33.958   6.263   4.074  1.00 20.00    -0.034 C 
HETATM    3  C3  UNL     1     -33.701   7.274   5.119  1.00 20.00     0.038 C 
HETATM    4  C4  UNL     1     -34.267   6.551   6.357  1.00 20.00     0.007 C 
HETATM    5  C5  UNL     1     -34.504   5.082   5.942  1.00 20.00     0.034 C 
HETATM    6  C6  UNL     1     -34.892   5.198   4.483  1.00 20.00     0.161 C 
HETATM    7  N7  UNL     1     -33.668   4.501   2.736  1.00 20.00    -0.167 NA
HETATM    8  N8  UNL     1     -34.497   4.080   3.604  1.00 20.00    -0.183 NA
ENDROOT
TORSDOF 0
ENDMDL
MODEL 3
REMARK VINA RESULT:      -4.9      1.990      3.291
REMARK  0 active torsions:
REMARK  status: ('A' for Active; 'I' for Inactive)
ROOT
HETATM    1  C1  UNL     1     -34.634   4.609   4.885  1.00 20.00     0.145 C 
HETATM    2  C2  UNL     1     -34.284   5.373   3.858  1.00 20.00    -0.034 C 
HETATM    3  C3  UNL     1     -33.619   5.150   2.558  1.00 20.00     0.038 C 
HETATM    4  C4  UNL     1     -32.694   6.382   2.500  1.00 20.00     0.007 C 
HETATM    5  C5  UNL     1     -32.702   7.010   3.910  1.00 20.00     0.034 C 
HETATM    6  C6  UNL     1     -34.110   6.734   4.398  1.00 20.00     0.161 C 
HETATM    7  N7  UNL     1     -34.677   5.331   6.054  1.00 20.00    -0.167 NA
HETATM    8  N8  UNL     1     -34.275   6.519   5.849  1.00 20.00    -0.183 NA
ENDROOT
TORSDOF 0
ENDMDL
MODEL 4
REMARK VINA RESULT:      -4.7     11.422     12.174
REMARK  0 active torsions:
REMARK  status: ('A' for Active; 'I' for Inactive)
ROOT
HETATM    1  C1  UNL     1     -36.890  14.778  -3.927  1.00 20.00     0.145 C 
HETATM    2  C2  UNL     1     -35.672  14.928  -3.424  1.00 20.00    -0.034 C 
HETATM    3  C3  UNL     1     -34.822  16.077  -3.049  1.00 20.00     0.038 C 
HETATM    4  C4  UNL     1     -33.456  15.603  -3.582  1.00 20.00     0.007 C 
HETATM    5  C5  UNL     1     -33.731  14.375  -4.478  1.00 20.00     0.034 C 
HETATM    6  C6  UNL     1     -34.917  13.719  -3.802  1.00 20.00     0.161 C 
HETATM    7  N7  UNL     1     -37.001  13.599  -4.627  1.00 20.00    -0.167 NA
HETATM    8  N8  UNL     1     -35.872  13.016  -4.682  1.00 20.00    -0.183 NA
ENDROOT
TORSDOF 0
ENDMDL
MODEL 5
REMARK VINA RESULT:      -4.4     16.570     17.028
REMARK  0 active torsions:
REMARK  status: ('A' for Active; 'I' for Inactive)
ROOT
HETATM    1  C1  UNL     1     -24.320  18.727   8.029  1.00 20.00     0.145 C 
HETATM    2  C2  UNL     1     -23.840  18.025   9.048  1.00 20.00    -0.034 C 
HETATM    3  C3  UNL     1     -23.950  18.096  10.519  1.00 20.00     0.038 C 
HETATM    4  C4  UNL     1     -22.494  17.793  10.925  1.00 20.00     0.007 C 
HETATM    5  C5  UNL     1     -21.646  17.889   9.638  1.00 20.00     0.034 C 
HETATM    6  C6  UNL     1     -22.596  17.398   8.566  1.00 20.00     0.161 C 
HETATM    7  N7  UNL     1     -23.495  18.646   6.933  1.00 20.00    -0.167 NA
HETATM    8  N8  UNL     1     -22.442  17.995   7.225  1.00 20.00    -0.183 NA
ENDROOT
TORSDOF 0
ENDMDL
MODEL 6
REMARK VINA RESULT:      -4.4     16.499     17.128
REMARK  0 active torsions:
REMARK  status: ('A' for Active; 'I' for Inactive)
ROOT
HETATM    1  C1  UNL     1     -21.544  17.382   8.420  1.00 20.00     0.145 C 
HETATM    2  C2  UNL     1     -22.223  17.968   9.397  1.00 20.00    -0.034 C 
HETATM    3  C3  UNL     1     -22.465  17.686  10.827  1.00 20.00     0.038 C 
HETATM    4  C4  UNL     1     -23.963  18.034  10.933  1.00 20.00     0.007 C 
HETATM    5  C5  UNL     1     -24.488  18.180   9.488  1.00 20.00     0.034 C 
HETATM    6  C6  UNL     1     -23.294  18.746   8.747  1.00 20.00     0.161 C 
HETATM    7  N7  UNL     1     -22.084  17.674   7.190  1.00 20.00    -0.167 NA
HETATM    8  N8  UNL     1     -23.150  18.353   7.331  1.00 20.00    -0.183 NA
ENDROOT
TORSDOF 0
ENDMDL
MODEL 7
REMARK VINA RESULT:      -4.3     12.120     12.509
REMARK  0 active torsions:
REMARK  status: ('A' for Active; 'I' for Inactive)
ROOT
HETATM    1  C1  UNL     1     -35.836  14.544  -4.339  1.00 20.00     0.145 C 
HETATM    2  C2  UNL     1     -34.987  14.949  -3.404  1.00 20.00    -0.034 C 
HETATM    3  C3  UNL     1     -35.057  15.854  -2.239  1.00 20.00     0.038 C 
HETATM    4  C4  UNL     1     -33.703  16.582  -2.366  1.00 20.00     0.007 C 
HETATM    5  C5  UNL     1     -33.144  16.236  -3.762  1.00 20.00     0.034 C 
HETATM    6  C6  UNL     1     -33.639  14.823  -3.988  1.00 20.00     0.161 C 
HETATM    7  N7  UNL     1     -35.178  14.193  -5.494  1.00 20.00    -0.167 NA
HETATM    8  N8  UNL     1     -33.936  14.443  -5.383  1.00 20.00    -0.183 NA
ENDROOT
TORSDOF 0
ENDMDL
MODEL 8
REMARK VINA RESULT:      -4.3     12.083     12.432
REMARK  0 active torsions:
REMARK  status: ('A' for Active; 'I' for Inactive)
ROOT
HETATM    1  C1  UNL     1     -36.022  13.475  -4.749  1.00 20.00     0.145 C 
HETATM    2  C2  UNL     1     -35.250  14.512  -4.449  1.00 20.00    -0.034 C 
HETATM    3  C3  UNL     1     -33.828  14.698  -4.098  1.00 20.00     0.038 C 
HETATM    4  C4  UNL     1     -33.951  15.742  -2.970  1.00 20.00     0.007 C 
HETATM    5  C5  UNL     1     -35.445  15.807  -2.587  1.00 20.00     0.034 C 
HETATM    6  C6  UNL     1     -36.146  15.549  -3.905  1.00 20.00     0.161 C 
HETATM    7  N7  UNL     1     -37.336  13.719  -4.425  1.00 20.00    -0.167 NA
HETATM    8  N8  UNL     1     -37.440  14.841  -3.836  1.00 20.00    -0.183 NA
ENDROOT
TORSDOF 0
ENDMDL
MODEL 9
REMARK VINA RESULT:      -4.2     16.357     17.215
REMARK  0 active torsions:
REMARK  status: ('A' for Active; 'I' for Inactive)
ROOT
HETATM    1  C1  UNL     1     -24.214  18.453   8.874  1.00 20.00     0.145 C 
HETATM    2  C2  UNL     1     -23.809  17.514   9.719  1.00 20.00    -0.034 C 
HETATM    3  C3  UNL     1     -24.439  16.727  10.799  1.00 20.00     0.038 C 
HETATM    4  C4  UNL     1     -23.317  16.752  11.856  1.00 20.00     0.007 C 
HETATM    5  C5  UNL     1     -22.293  17.809  11.392  1.00 20.00     0.034 C 
HETATM    6  C6  UNL     1     -22.356  17.704   9.882  1.00 20.00     0.161 C 
HETATM    7  N7  UNL     1     -23.171  19.263   8.489  1.00 20.00    -0.167 NA
HETATM    8  N8  UNL     1     -22.116  18.949   9.125  1.00 20.00    -0.183 NA
ENDROOT
TORSDOF 0
ENDMDL
