MODEL 1
REMARK VINA RESULT:      -4.8      0.000      0.000
REMARK  0 active torsions:
REMARK  status: ('A' for Active; 'I' for Inactive)
ROOT
HETATM    1  C1  UNL     1     -33.914   5.412   3.557  1.00 20.00     0.164 C 
HETATM    2  C2  UNL     1     -35.019   4.850   4.419  1.00 20.00     0.107 C 
HETATM    3  C3  UNL     1     -34.717   5.149   5.878  1.00 20.00     0.175 C 
HETATM    4  C4  UNL     1     -33.326   6.988   5.370  1.00 20.00     0.212 C 
HETATM    5  C5  UNL     1     -33.504   6.831   3.870  1.00 20.00     0.263 C 
HETATM    6  O6  UNL     1     -33.444   4.790   2.608  1.00 20.00    -0.295 OA
HETATM    7  O7  UNL     1     -34.490   6.548   6.071  1.00 20.00    -0.388 OA
HETATM    8  F8  UNL     1     -32.338   7.156   3.252  1.00 20.00    -0.239 F 
ENDROOT
TORSDOF 0
ENDMDL
MODEL 2
REMARK VINA RESULT:      -4.5      1.847      2.347
REMARK  0 active torsions:
REMARK  status: ('A' for Active; 'I' for Inactive)
ROOT
HETATM    1  C1  UNL     1     -33.316   6.435   3.743  1.00 20.00     0.164 C 
HETATM    2  C2  UNL     1     -33.654   5.333   2.769  1.00 20.00     0.107 C 
HETATM    3  C3  UNL     1     -34.035   4.081   3.542  1.00 20.00     0.175 C 
HETATM    4  C4  UNL     1     -34.642   5.281   5.482  1.00 20.00     0.212 C 
HETATM    5  C5  UNL     1     -34.298   6.628   4.872  1.00 20.00     0.263 C 
HETATM    6  O6  UNL     1     -32.354   7.182   3.577  1.00 20.00    -0.295 OA
HETATM    7  O7  UNL     1     -35.078   4.362   4.479  1.00 20.00    -0.388 OA
HETATM    8  F8  UNL     1     -33.787   7.433   5.841  1.00 20.00    -0.239 F 
ENDROOT
TORSDOF 0
ENDMDL
MODEL 3
REMARK VINA RESULT:      -4.5      1.816      3.389
REMARK  0 active torsions:
REMARK  status: ('A' for Active; 'I' for Inactive)
ROOT
HETATM    1  C1  UNL     1     -33.891   6.539   4.871  1.00 20.00     0.164 C 
HETATM    2  C2  UNL     1     -33.319   6.958   3.538  1.00 20.00     0.107 C 
HETATM    3  C3  UNL     1     -32.883   5.721   2.769  1.00 20.00     0.175 C 
HETATM    4  C4  UNL     1     -34.342   4.288   3.950  1.00 20.00     0.212 C 
HETATM    5  C5  UNL     1     -34.886   5.405   4.823  1.00 20.00     0.263 C 
HETATM    6  O6  UNL     1     -33.633   7.139   5.911  1.00 20.00    -0.295 OA
HETATM    7  O7  UNL     1     -33.958   4.784   2.667  1.00 20.00    -0.388 OA
HETATM    8  F8  UNL     1     -35.134   4.912   6.065  1.00 20.00    -0.239 F 
ENDROOT
TORSDOF 0
ENDMDL
MODEL 4
REMARK VINA RESULT:      -4.3      1.387      1.665
REMARK  0 active torsions:
REMARK  status: ('A' for Active; 'I' for Inactive)
ROOT
HETATM    1  C1  UNL     1     -34.351   4.720   4.242  1.00 20.00     0.164 C 
HETATM    2  C2  UNL     1     -34.935   5.342   5.488  1.00 20.00     0.107 C 
HETATM    3  C3  UNL     1     -34.016   6.452   5.972  1.00 20.00     0.175 C 
HETATM    4  C4  UNL     1     -33.050   6.785   3.844  1.00 20.00     0.212 C 
HETATM    5  C5  UNL     1     -33.880   5.694   3.190  1.00 20.00     0.263 C 
HETATM    6  O6  UNL     1     -34.344   3.505   4.060  1.00 20.00    -0.295 OA
HETATM    7  O7  UNL     1     -33.761   7.390   4.924  1.00 20.00    -0.388 OA
HETATM    8  F8  UNL     1     -33.127   5.074   2.244  1.00 20.00    -0.239 F 
ENDROOT
TORSDOF 0
ENDMDL
MODEL 5
REMARK VINA RESULT:      -4.0      1.588      2.275
REMARK  0 active torsions:
REMARK  status: ('A' for Active; 'I' for Inactive)
ROOT
HETATM    1  C1  UNL     1     -33.279   6.573   3.710  1.00 20.00     0.164 C 
HETATM    2  C2  UNL     1     -33.228   6.969   5.166  1.00 20.00     0.107 C 
HETATM    3  C3  UNL     1     -34.478   6.460   5.866  1.00 20.00     0.175 C 
HETATM    4  C4  UNL     1     -34.858   4.756   4.277  1.00 20.00     0.212 C 
HETATM    5  C5  UNL     1     -33.648   5.135   3.441  1.00 20.00     0.263 C 
HETATM    6  O6  UNL     1     -32.952   7.344   2.811  1.00 20.00    -0.295 OA
HETATM    7  O7  UNL     1     -34.639   5.055   5.656  1.00 20.00    -0.388 OA
HETATM    8  F8  UNL     1     -33.940   4.937   2.128  1.00 20.00    -0.239 F 
ENDROOT
TORSDOF 0
ENDMDL
MODEL 6
REMARK VINA RESULT:      -3.9      2.138      2.667
REMARK  0 active torsions:
REMARK  status: ('A' for Active; 'I' for Inactive)
ROOT
HETATM    1  C1  UNL     1     -34.477   5.243   4.278  1.00 20.00     0.164 C 
HETATM    2  C2  UNL     1     -33.598   5.175   3.052  1.00 20.00     0.107 C 
HETATM    3  C3  UNL     1     -33.065   6.563   2.740  1.00 20.00     0.175 C 
HETATM    4  C4  UNL     1     -33.337   7.331   4.956  1.00 20.00     0.212 C 
HETATM    5  C5  UNL     1     -33.904   6.010   5.445  1.00 20.00     0.263 C 
HETATM    6  O6  UNL     1     -35.544   4.640   4.352  1.00 20.00    -0.295 OA
HETATM    7  O7  UNL     1     -32.416   7.126   3.884  1.00 20.00    -0.388 OA
HETATM    8  F8  UNL     1     -34.853   6.259   6.387  1.00 20.00    -0.239 F 
ENDROOT
TORSDOF 0
ENDMDL
MODEL 7
REMARK VINA RESULT:      -3.8     11.517     12.145
REMARK  0 active torsions:
REMARK  status: ('A' for Active; 'I' for Inactive)
ROOT
HETATM    1  C1  UNL     1     -34.829  13.943  -4.002  1.00 20.00     0.164 C 
HETATM    2  C2  UNL     1     -35.998  14.864  -3.750  1.00 20.00     0.107 C 
HETATM    3  C3  UNL     1     -35.550  16.009  -2.855  1.00 20.00     0.175 C 
HETATM    4  C4  UNL     1     -33.279  15.793  -3.461  1.00 20.00     0.212 C 
HETATM    5  C5  UNL     1     -33.539  14.623  -4.393  1.00 20.00     0.263 C 
HETATM    6  O6  UNL     1     -34.943  12.720  -3.979  1.00 20.00    -0.295 OA
HETATM    7  O7  UNL     1     -34.407  16.666  -3.409  1.00 20.00    -0.388 OA
HETATM    8  F8  UNL     1     -32.488  13.764  -4.328  1.00 20.00    -0.239 F 
ENDROOT
TORSDOF 0
ENDMDL
MODEL 8
REMARK VINA RESULT:      -3.8     16.535     17.220
REMARK  0 active torsions:
REMARK  status: ('A' for Active; 'I' for Inactive)
ROOT
HETATM    1  C1  UNL     1     -22.774  18.546   9.586  1.00 20.00     0.164 C 
HETATM    2  C2  UNL     1     -22.173  17.752  10.720  1.00 20.00     0.107 C 
HETATM    3  C3  UNL     1     -23.077  17.855  11.938  1.00 20.00     0.175 C 
HETATM    4  C4  UNL     1     -24.995  18.363  10.658  1.00 20.00     0.212 C 
HETATM    5  C5  UNL     1     -24.245  18.315   9.339  1.00 20.00     0.263 C 
HETATM    6  O6  UNL     1     -22.093  19.263   8.856  1.00 20.00    -0.295 OA
HETATM    7  O7  UNL     1     -24.415  17.470  11.609  1.00 20.00    -0.388 OA
HETATM    8  F8  UNL     1     -24.760  19.255   8.504  1.00 20.00    -0.239 F 
ENDROOT
TORSDOF 0
ENDMDL
MODEL 9
REMARK VINA RESULT:      -3.7     16.619     17.070
REMARK  0 active torsions:
REMARK  status: ('A' for Active; 'I' for Inactive)
ROOT
HETATM    1  C1  UNL     1     -23.555  18.621   8.518  1.00 20.00     0.164 C 
HETATM    2  C2  UNL     1     -24.765  18.986   9.343  1.00 20.00     0.107 C 
HETATM    3  C3  UNL     1     -24.799  18.120  10.592  1.00 20.00     0.175 C 
HETATM    4  C4  UNL     1     -22.478  17.690  10.540  1.00 20.00     0.212 C 
HETATM    5  C5  UNL     1     -22.258  18.509   9.281  1.00 20.00     0.263 C 
HETATM    6  O6  UNL     1     -23.607  18.511   7.295  1.00 20.00    -0.295 OA
HETATM    7  O7  UNL     1     -23.564  18.213  11.306  1.00 20.00    -0.388 OA
HETATM    8  F8  UNL     1     -21.293  17.914   8.531  1.00 20.00    -0.239 F 
ENDROOT
TORSDOF 0
ENDMDL
