MODEL 1
REMARK VINA RESULT:      -4.3      0.000      0.000
REMARK  1 active torsions:
REMARK  status: ('A' for Active; 'I' for Inactive)
REMARK    1  A    between atoms: C6_6  and  C8_8 
ROOT
HETATM    1  C1  UNL     1     -26.241  17.314  12.090  1.00 20.00     0.000 C 
HETATM    2  C2  UNL     1     -25.507  18.607  11.754  1.00 20.00     0.001 C 
HETATM    3  C3  UNL     1     -25.276  16.159  12.332  1.00 20.00     0.001 C 
HETATM    4  C4  UNL     1     -24.547  18.423  10.579  1.00 20.00     0.010 C 
HETATM    5  C5  UNL     1     -24.316  15.970  11.157  1.00 20.00     0.010 C 
HETATM    6  C6  UNL     1     -23.550  17.258  10.776  1.00 20.00    -0.032 C 
HETATM    7  C7  UNL     1     -22.513  17.611  11.860  1.00 20.00     0.016 C 
ENDROOT
BRANCH   6   8
HETATM    8  C8  UNL     1     -22.793  17.018   9.457  1.00 20.00     0.123 C 
HETATM    9 CL9  UNL     1     -21.563  18.270   9.240  1.00 20.00    -0.130 Cl
ENDBRANCH   6   8
TORSDOF 1
ENDMDL
MODEL 2
REMARK VINA RESULT:      -4.2      2.097      3.623
REMARK  1 active torsions:
REMARK  status: ('A' for Active; 'I' for Inactive)
REMARK    1  A    between atoms: C6_6  and  C8_8 
ROOT
HETATM    1  C1  UNL     1     -22.136  18.566   9.046  1.00 20.00     0.000 C 
HETATM    2  C2  UNL     1     -23.591  18.290   8.686  1.00 20.00     0.001 C 
HETATM    3  C3  UNL     1     -21.684  17.748  10.250  1.00 20.00     0.001 C 
HETATM    4  C4  UNL     1     -24.518  18.496   9.883  1.00 20.00     0.010 C 
HETATM    5  C5  UNL     1     -22.608  17.953  11.451  1.00 20.00     0.010 C 
HETATM    6  C6  UNL     1     -24.098  17.689  11.132  1.00 20.00    -0.032 C 
HETATM    7  C7  UNL     1     -24.346  16.184  10.913  1.00 20.00     0.016 C 
ENDROOT
BRANCH   6   8
HETATM    8  C8  UNL     1     -24.954  18.139  12.331  1.00 20.00     0.123 C 
HETATM    9 CL9  UNL     1     -26.203  19.263  11.782  1.00 20.00    -0.130 Cl
ENDBRANCH   6   8
TORSDOF 1
ENDMDL
MODEL 3
REMARK VINA RESULT:      -4.0      2.266      3.725
REMARK  1 active torsions:
REMARK  status: ('A' for Active; 'I' for Inactive)
REMARK    1  A    between atoms: C6_6  and  C8_8 
ROOT
HETATM    1  C1  UNL     1     -23.404  18.011   8.435  1.00 20.00     0.000 C 
HETATM    2  C2  UNL     1     -22.825  16.902   9.307  1.00 20.00     0.001 C 
HETATM    3  C3  UNL     1     -23.971  19.152   9.271  1.00 20.00     0.001 C 
HETATM    4  C4  UNL     1     -23.843  16.397  10.329  1.00 20.00     0.010 C 
HETATM    5  C5  UNL     1     -24.992  18.651  10.293  1.00 20.00     0.010 C 
HETATM    6  C6  UNL     1     -24.452  17.521  11.198  1.00 20.00    -0.032 C 
HETATM    7  C7  UNL     1     -23.401  18.073  12.182  1.00 20.00     0.016 C 
ENDROOT
BRANCH   6   8
HETATM    8  C8  UNL     1     -25.615  16.941  12.024  1.00 20.00     0.123 C 
HETATM    9 CL9  UNL     1     -26.834  18.193  12.296  1.00 20.00    -0.130 Cl
ENDBRANCH   6   8
TORSDOF 1
ENDMDL
MODEL 4
REMARK VINA RESULT:      -4.0     17.289     17.866
REMARK  1 active torsions:
REMARK  status: ('A' for Active; 'I' for Inactive)
REMARK    1  A    between atoms: C6_6  and  C8_8 
ROOT
HETATM    1  C1  UNL     1     -33.665  17.492  -1.355  1.00 20.00     0.000 C 
HETATM    2  C2  UNL     1     -35.127  17.103  -1.543  1.00 20.00     0.001 C 
HETATM    3  C3  UNL     1     -32.889  17.434  -2.666  1.00 20.00     0.001 C 
HETATM    4  C4  UNL     1     -35.266  15.739  -2.218  1.00 20.00     0.010 C 
HETATM    5  C5  UNL     1     -33.024  16.070  -3.343  1.00 20.00     0.010 C 
HETATM    6  C6  UNL     1     -34.491  15.631  -3.552  1.00 20.00    -0.032 C 
HETATM    7  C7  UNL     1     -35.164  16.490  -4.640  1.00 20.00     0.016 C 
ENDROOT
BRANCH   6   8
HETATM    8  C8  UNL     1     -34.512  14.165  -4.025  1.00 20.00     0.123 C 
HETATM    9 CL9  UNL     1     -36.174  13.679  -4.384  1.00 20.00    -0.130 Cl
ENDBRANCH   6   8
TORSDOF 1
ENDMDL
MODEL 5
REMARK VINA RESULT:      -4.0      1.631      3.113
REMARK  1 active torsions:
REMARK  status: ('A' for Active; 'I' for Inactive)
REMARK    1  A    between atoms: C6_6  and  C8_8 
ROOT
HETATM    1  C1  UNL     1     -24.185  19.210   8.307  1.00 20.00     0.000 C 
HETATM    2  C2  UNL     1     -25.357  18.897   9.230  1.00 20.00     0.001 C 
HETATM    3  C3  UNL     1     -23.058  18.194   8.455  1.00 20.00     0.001 C 
HETATM    4  C4  UNL     1     -24.909  18.765  10.685  1.00 20.00     0.010 C 
HETATM    5  C5  UNL     1     -22.606  18.060   9.910  1.00 20.00     0.010 C 
HETATM    6  C6  UNL     1     -23.763  17.748  10.886  1.00 20.00    -0.032 C 
HETATM    7  C7  UNL     1     -24.274  16.309  10.677  1.00 20.00     0.016 C 
ENDROOT
BRANCH   6   8
HETATM    8  C8  UNL     1     -23.242  17.859  12.331  1.00 20.00     0.123 C 
HETATM    9 CL9  UNL     1     -21.475  17.835  12.331  1.00 20.00    -0.130 Cl
ENDBRANCH   6   8
TORSDOF 1
ENDMDL
MODEL 6
REMARK VINA RESULT:      -3.9     17.081     17.691
REMARK  1 active torsions:
REMARK  status: ('A' for Active; 'I' for Inactive)
REMARK    1  A    between atoms: C6_6  and  C8_8 
ROOT
HETATM    1  C1  UNL     1     -34.895  14.027  -3.980  1.00 20.00     0.000 C 
HETATM    2  C2  UNL     1     -33.672  14.664  -4.631  1.00 20.00     0.001 C 
HETATM    3  C3  UNL     1     -35.833  15.074  -3.390  1.00 20.00     0.001 C 
HETATM    4  C4  UNL     1     -32.939  15.594  -3.666  1.00 20.00     0.010 C 
HETATM    5  C5  UNL     1     -35.103  16.005  -2.422  1.00 20.00     0.010 C 
HETATM    6  C6  UNL     1     -33.852  16.672  -3.037  1.00 20.00    -0.032 C 
HETATM    7  C7  UNL     1     -34.259  17.719  -4.092  1.00 20.00     0.016 C 
ENDROOT
BRANCH   6   8
HETATM    8  C8  UNL     1     -33.074  17.400  -1.924  1.00 20.00     0.123 C 
HETATM    9 CL9  UNL     1     -34.155  17.740  -0.567  1.00 20.00    -0.130 Cl
ENDBRANCH   6   8
TORSDOF 1
ENDMDL
MODEL 7
REMARK VINA RESULT:      -3.9     23.622     24.469
REMARK  1 active torsions:
REMARK  status: ('A' for Active; 'I' for Inactive)
REMARK    1  A    between atoms: C6_6  and  C8_8 
ROOT
HETATM    1  C1  UNL     1     -41.817   8.694  -0.089  1.00 20.00     0.000 C 
HETATM    2  C2  UNL     1     -42.043   8.171  -1.503  1.00 20.00     0.001 C 
HETATM    3  C3  UNL     1     -41.242   7.621   0.828  1.00 20.00     0.001 C 
HETATM    4  C4  UNL     1     -42.906   6.909  -1.507  1.00 20.00     0.010 C 
HETATM    5  C5  UNL     1     -42.103   6.357   0.828  1.00 20.00     0.010 C 
HETATM    6  C6  UNL     1     -42.364   5.791  -0.586  1.00 20.00    -0.032 C 
HETATM    7  C7  UNL     1     -41.075   5.184  -1.173  1.00 20.00     0.016 C 
ENDROOT
BRANCH   6   8
HETATM    8  C8  UNL     1     -43.415   4.669  -0.490  1.00 20.00     0.123 C 
HETATM    9 CL9  UNL     1     -43.375   3.689  -1.961  1.00 20.00    -0.130 Cl
ENDBRANCH   6   8
TORSDOF 1
ENDMDL
MODEL 8
REMARK VINA RESULT:      -3.9     15.536     16.370
REMARK  1 active torsions:
REMARK  status: ('A' for Active; 'I' for Inactive)
REMARK    1  A    between atoms: C6_6  and  C8_8 
ROOT
HETATM    1  C1  UNL     1     -34.699   5.089   5.846  1.00 20.00     0.000 C 
HETATM    2  C2  UNL     1     -35.012   4.820   4.379  1.00 20.00     0.001 C 
HETATM    3  C3  UNL     1     -34.311   6.543   6.088  1.00 20.00     0.001 C 
HETATM    4  C4  UNL     1     -33.863   5.253   3.468  1.00 20.00     0.010 C 
HETATM    5  C5  UNL     1     -33.161   6.979   5.179  1.00 20.00     0.010 C 
HETATM    6  C6  UNL     1     -33.431   6.722   3.680  1.00 20.00    -0.032 C 
HETATM    7  C7  UNL     1     -34.511   7.685   3.151  1.00 20.00     0.016 C 
ENDROOT
BRANCH   6   8
HETATM    8  C8  UNL     1     -32.136   6.981   2.886  1.00 20.00     0.123 C 
HETATM    9 CL9  UNL     1     -32.515   7.863   1.401  1.00 20.00    -0.130 Cl
ENDBRANCH   6   8
TORSDOF 1
ENDMDL
MODEL 9
REMARK VINA RESULT:      -3.9     16.616     17.217
REMARK  1 active torsions:
REMARK  status: ('A' for Active; 'I' for Inactive)
REMARK    1  A    between atoms: C6_6  and  C8_8 
ROOT
HETATM    1  C1  UNL     1     -33.506  17.840  -0.852  1.00 20.00     0.000 C 
HETATM    2  C2  UNL     1     -34.972  17.436  -0.958  1.00 20.00     0.001 C 
HETATM    3  C3  UNL     1     -32.834  17.907  -2.219  1.00 20.00     0.001 C 
HETATM    4  C4  UNL     1     -35.142  16.128  -1.731  1.00 20.00     0.010 C 
HETATM    5  C5  UNL     1     -33.001  16.599  -2.994  1.00 20.00     0.010 C 
HETATM    6  C6  UNL     1     -34.472  16.145  -3.124  1.00 20.00    -0.032 C 
HETATM    7  C7  UNL     1     -35.242  17.074  -4.083  1.00 20.00     0.016 C 
ENDROOT
BRANCH   6   8
HETATM    8  C8  UNL     1     -34.508  14.723  -3.714  1.00 20.00     0.123 C 
HETATM    9 CL9  UNL     1     -32.936  14.333  -4.423  1.00 20.00    -0.130 Cl
ENDBRANCH   6   8
TORSDOF 1
ENDMDL
