MODEL 1
REMARK VINA RESULT:      -5.2      0.000      0.000
REMARK  0 active torsions:
REMARK  status: ('A' for Active; 'I' for Inactive)
ROOT
HETATM    1  C1  UNL     1     -33.670   4.784   2.612  1.00 20.00     0.009 C 
HETATM    2  C2  UNL     1     -32.766   6.014   2.713  1.00 20.00     0.035 C 
HETATM    3  C3  UNL     1     -34.109   4.302   3.994  1.00 20.00     0.082 C 
HETATM    4  C4  UNL     1     -33.324   7.063   3.624  1.00 20.00     0.157 A 
HETATM    5  C5  UNL     1     -34.383   6.729   4.643  1.00 20.00     0.223 A 
HETATM    6  C6  UNL     1     -34.957   5.358   4.689  1.00 20.00     0.271 C 
HETATM    7  O7  UNL     1     -33.008   6.840   5.013  1.00 20.00    -0.369 OA
HETATM    8  F8  UNL     1     -36.184   5.388   4.103  1.00 20.00    -0.203 F 
HETATM    9  F9  UNL     1     -35.160   4.995   5.982  1.00 20.00    -0.203 F 
ENDROOT
TORSDOF 0
ENDMDL
MODEL 2
REMARK VINA RESULT:      -4.6      2.211      3.265
REMARK  0 active torsions:
REMARK  status: ('A' for Active; 'I' for Inactive)
ROOT
HETATM    1  C1  UNL     1     -34.248   6.755   5.951  1.00 20.00     0.009 C 
HETATM    2  C2  UNL     1     -34.860   5.353   5.981  1.00 20.00     0.035 C 
HETATM    3  C3  UNL     1     -33.038   6.813   5.021  1.00 20.00     0.082 C 
HETATM    4  C4  UNL     1     -35.061   4.786   4.609  1.00 20.00     0.157 A 
HETATM    5  C5  UNL     1     -34.324   5.341   3.419  1.00 20.00     0.223 A 
HETATM    6  C6  UNL     1     -33.450   6.533   3.582  1.00 20.00     0.271 C 
HETATM    7  O7  UNL     1     -33.882   4.152   4.074  1.00 20.00    -0.369 OA
HETATM    8  F8  UNL     1     -34.111   7.618   3.097  1.00 20.00    -0.203 F 
HETATM    9  F9  UNL     1     -32.339   6.389   2.814  1.00 20.00    -0.203 F 
ENDROOT
TORSDOF 0
ENDMDL
MODEL 3
REMARK VINA RESULT:      -4.5      1.657      2.519
REMARK  0 active torsions:
REMARK  status: ('A' for Active; 'I' for Inactive)
ROOT
HETATM    1  C1  UNL     1     -33.005   7.003   4.821  1.00 20.00     0.009 C 
HETATM    2  C2  UNL     1     -33.476   6.575   3.430  1.00 20.00     0.035 C 
HETATM    3  C3  UNL     1     -34.125   6.873   5.852  1.00 20.00     0.082 C 
HETATM    4  C4  UNL     1     -34.199   5.264   3.447  1.00 20.00     0.157 A 
HETATM    5  C5  UNL     1     -34.775   4.708   4.724  1.00 20.00     0.223 A 
HETATM    6  C6  UNL     1     -34.546   5.419   6.009  1.00 20.00     0.271 C 
HETATM    7  O7  UNL     1     -35.598   5.388   3.775  1.00 20.00    -0.369 OA
HETATM    8  F8  UNL     1     -33.579   4.755   6.699  1.00 20.00    -0.203 F 
HETATM    9  F9  UNL     1     -35.669   5.354   6.769  1.00 20.00    -0.203 F 
ENDROOT
TORSDOF 0
ENDMDL
MODEL 4
REMARK VINA RESULT:      -4.2      1.764      2.659
REMARK  0 active torsions:
REMARK  status: ('A' for Active; 'I' for Inactive)
ROOT
HETATM    1  C1  UNL     1     -34.744   5.105   5.682  1.00 20.00     0.009 C 
HETATM    2  C2  UNL     1     -34.242   6.517   5.990  1.00 20.00     0.035 C 
HETATM    3  C3  UNL     1     -35.148   4.968   4.215  1.00 20.00     0.082 C 
HETATM    4  C4  UNL     1     -33.240   7.001   4.988  1.00 20.00     0.157 A 
HETATM    5  C5  UNL     1     -33.122   6.359   3.630  1.00 20.00     0.223 A 
HETATM    6  C6  UNL     1     -33.945   5.165   3.304  1.00 20.00     0.271 C 
HETATM    7  O7  UNL     1     -33.842   7.579   3.811  1.00 20.00    -0.369 OA
HETATM    8  F8  UNL     1     -33.150   4.063   3.384  1.00 20.00    -0.203 F 
HETATM    9  F9  UNL     1     -34.363   5.241   2.014  1.00 20.00    -0.203 F 
ENDROOT
TORSDOF 0
ENDMDL
MODEL 5
REMARK VINA RESULT:      -4.2     16.759     17.353
REMARK  0 active torsions:
REMARK  status: ('A' for Active; 'I' for Inactive)
ROOT
HETATM    1  C1  UNL     1     -24.697  18.819   9.594  1.00 20.00     0.009 C 
HETATM    2  C2  UNL     1     -23.862  18.521   8.347  1.00 20.00     0.035 C 
HETATM    3  C3  UNL     1     -24.667  17.649  10.576  1.00 20.00     0.082 C 
HETATM    4  C4  UNL     1     -22.506  17.981   8.681  1.00 20.00     0.157 A 
HETATM    5  C5  UNL     1     -22.214  17.387  10.034  1.00 20.00     0.223 A 
HETATM    6  C6  UNL     1     -23.256  17.416  11.095  1.00 20.00     0.271 C 
HETATM    7  O7  UNL     1     -22.497  16.557   8.907  1.00 20.00    -0.369 OA
HETATM    8  F8  UNL     1     -22.943  18.406  11.974  1.00 20.00    -0.203 F 
HETATM    9  F9  UNL     1     -23.219  16.255  11.798  1.00 20.00    -0.203 F 
ENDROOT
TORSDOF 0
ENDMDL
MODEL 6
REMARK VINA RESULT:      -4.2      1.450      2.186
REMARK  0 active torsions:
REMARK  status: ('A' for Active; 'I' for Inactive)
ROOT
HETATM    1  C1  UNL     1     -33.482   7.126   3.886  1.00 20.00     0.009 C 
HETATM    2  C2  UNL     1     -33.325   7.300   5.398  1.00 20.00     0.035 C 
HETATM    3  C3  UNL     1     -33.507   5.649   3.497  1.00 20.00     0.082 C 
HETATM    4  C4  UNL     1     -34.268   6.435   6.175  1.00 20.00     0.157 A 
HETATM    5  C5  UNL     1     -34.928   5.237   5.545  1.00 20.00     0.223 A 
HETATM    6  C6  UNL     1     -34.719   4.953   4.100  1.00 20.00     0.271 C 
HETATM    7  O7  UNL     1     -33.778   5.094   6.379  1.00 20.00    -0.369 OA
HETATM    8  F8  UNL     1     -35.832   5.345   3.422  1.00 20.00    -0.203 F 
HETATM    9  F9  UNL     1     -34.610   3.613   3.913  1.00 20.00    -0.203 F 
ENDROOT
TORSDOF 0
ENDMDL
MODEL 7
REMARK VINA RESULT:      -4.1     17.022     17.572
REMARK  0 active torsions:
REMARK  status: ('A' for Active; 'I' for Inactive)
ROOT
HETATM    1  C1  UNL     1     -24.741  18.691   9.332  1.00 20.00     0.009 C 
HETATM    2  C2  UNL     1     -25.298  18.668  10.757  1.00 20.00     0.035 C 
HETATM    3  C3  UNL     1     -23.214  18.746   9.334  1.00 20.00     0.082 C 
HETATM    4  C4  UNL     1     -24.608  17.663  11.627  1.00 20.00     0.157 A 
HETATM    5  C5  UNL     1     -23.256  17.110  11.258  1.00 20.00     0.223 A 
HETATM    6  C6  UNL     1     -22.630  17.491   9.965  1.00 20.00     0.271 C 
HETATM    7  O7  UNL     1     -23.389  18.160  12.217  1.00 20.00    -0.369 OA
HETATM    8  F8  UNL     1     -22.778  16.454   9.096  1.00 20.00    -0.203 F 
HETATM    9  F9  UNL     1     -21.293  17.653  10.139  1.00 20.00    -0.203 F 
ENDROOT
TORSDOF 0
ENDMDL
MODEL 8
REMARK VINA RESULT:      -4.1      8.960      9.538
REMARK  0 active torsions:
REMARK  status: ('A' for Active; 'I' for Inactive)
ROOT
HETATM    1  C1  UNL     1     -43.050   6.855   1.091  1.00 20.00     0.009 C 
HETATM    2  C2  UNL     1     -43.417   8.133   0.334  1.00 20.00     0.035 C 
HETATM    3  C3  UNL     1     -42.559   5.767   0.139  1.00 20.00     0.082 C 
HETATM    4  C4  UNL     1     -42.359   8.546  -0.642  1.00 20.00     0.157 A 
HETATM    5  C5  UNL     1     -41.317   7.569  -1.122  1.00 20.00     0.223 A 
HETATM    6  C6  UNL     1     -41.273   6.196  -0.553  1.00 20.00     0.271 C 
HETATM    7  O7  UNL     1     -42.463   7.878  -1.915  1.00 20.00    -0.369 OA
HETATM    8  F8  UNL     1     -40.252   6.136   0.343  1.00 20.00    -0.203 F 
HETATM    9  F9  UNL     1     -40.971   5.309  -1.536  1.00 20.00    -0.203 F 
ENDROOT
TORSDOF 0
ENDMDL
MODEL 9
REMARK VINA RESULT:      -4.0     12.832     13.633
REMARK  0 active torsions:
REMARK  status: ('A' for Active; 'I' for Inactive)
ROOT
HETATM    1  C1  UNL     1     -34.408  15.133  -3.600  1.00 20.00     0.009 C 
HETATM    2  C2  UNL     1     -35.774  14.446  -3.657  1.00 20.00     0.035 C 
HETATM    3  C3  UNL     1     -33.539  14.741  -4.793  1.00 20.00     0.082 C 
HETATM    4  C4  UNL     1     -36.419  14.564  -5.004  1.00 20.00     0.157 A 
HETATM    5  C5  UNL     1     -35.610  14.902  -6.229  1.00 20.00     0.223 A 
HETATM    6  C6  UNL     1     -34.164  15.217  -6.096  1.00 20.00     0.271 C 
HETATM    7  O7  UNL     1     -35.982  13.554  -5.936  1.00 20.00    -0.369 OA
HETATM    8  F8  UNL     1     -34.010  16.566  -6.188  1.00 20.00    -0.203 F 
HETATM    9  F9  UNL     1     -33.485  14.684  -7.144  1.00 20.00    -0.203 F 
ENDROOT
TORSDOF 0
ENDMDL
