MODEL 1
REMARK VINA RESULT:      -4.3      0.000      0.000
REMARK  1 active torsions:
REMARK  status: ('A' for Active; 'I' for Inactive)
REMARK    1  A    between atoms: C2_2  and  C5_5 
ROOT
HETATM    1  C1  UNL     1     -36.874  14.477  -4.090  1.00 20.00     0.077 C 
HETATM    2  C3  UNL     1     -35.298  16.440  -3.946  1.00 20.00     0.034 A 
HETATM    3  C4  UNL     1     -35.443  15.885  -2.563  1.00 20.00     0.034 A 
HETATM    4  C5  UNL     1     -35.560  14.962  -3.757  1.00 20.00     0.109 A 
HETATM    5  N7  UNL     1     -37.933  14.087  -4.358  1.00 20.00    -0.196 NA
ENDROOT
BRANCH   4   6
HETATM    6  C2  UNL     1     -34.446  14.032  -4.014  1.00 20.00     0.145 C 
HETATM    7  C6  UNL     1     -33.135  14.643  -4.429  1.00 20.00     0.093 C 
HETATM    8  O8  UNL     1     -34.580  12.814  -3.893  1.00 20.00    -0.296 OA
ENDBRANCH   4   6
TORSDOF 1
ENDMDL
MODEL 2
REMARK VINA RESULT:      -4.2     11.592     12.153
REMARK  1 active torsions:
REMARK  status: ('A' for Active; 'I' for Inactive)
REMARK    1  A    between atoms: C2_2  and  C5_5 
ROOT
HETATM    1  C1  UNL     1     -33.770   6.664   5.252  1.00 20.00     0.077 C 
HETATM    2  C3  UNL     1     -34.769   4.446   4.587  1.00 20.00     0.034 A 
HETATM    3  C4  UNL     1     -35.616   5.518   3.973  1.00 20.00     0.034 A 
HETATM    4  C5  UNL     1     -34.138   5.765   4.192  1.00 20.00     0.109 A 
HETATM    5  N7  UNL     1     -33.473   7.389   6.108  1.00 20.00    -0.196 NA
ENDROOT
BRANCH   4   6
HETATM    6  C2  UNL     1     -33.264   5.774   3.004  1.00 20.00     0.145 C 
HETATM    7  C6  UNL     1     -32.628   7.089   2.642  1.00 20.00     0.093 C 
HETATM    8  O8  UNL     1     -33.062   4.756   2.344  1.00 20.00    -0.296 OA
ENDBRANCH   4   6
TORSDOF 1
ENDMDL
MODEL 3
REMARK VINA RESULT:      -4.0      1.877      2.725
REMARK  1 active torsions:
REMARK  status: ('A' for Active; 'I' for Inactive)
REMARK    1  A    between atoms: C2_2  and  C5_5 
ROOT
HETATM    1  C1  UNL     1     -35.086  15.848  -5.585  1.00 20.00     0.077 C 
HETATM    2  C3  UNL     1     -33.563  14.397  -4.194  1.00 20.00     0.034 A 
HETATM    3  C4  UNL     1     -34.305  15.294  -3.252  1.00 20.00     0.034 A 
HETATM    4  C5  UNL     1     -34.960  14.860  -4.546  1.00 20.00     0.109 A 
HETATM    5  N7  UNL     1     -35.186  16.643  -6.423  1.00 20.00    -0.196 NA
ENDROOT
BRANCH   4   6
HETATM    6  C2  UNL     1     -36.049  13.870  -4.462  1.00 20.00     0.145 C 
HETATM    7  C6  UNL     1     -37.448  14.410  -4.331  1.00 20.00     0.093 C 
HETATM    8  O8  UNL     1     -35.826  12.660  -4.501  1.00 20.00    -0.296 OA
ENDBRANCH   4   6
TORSDOF 1
ENDMDL
MODEL 4
REMARK VINA RESULT:      -4.0     18.197     18.878
REMARK  1 active torsions:
REMARK  status: ('A' for Active; 'I' for Inactive)
REMARK    1  A    between atoms: C2_2  and  C5_5 
ROOT
HETATM    1  C1  UNL     1     -22.714  16.966   9.408  1.00 20.00     0.077 C 
HETATM    2  C3  UNL     1     -23.637  16.576  11.722  1.00 20.00     0.034 A 
HETATM    3  C4  UNL     1     -22.685  17.729  11.811  1.00 20.00     0.034 A 
HETATM    4  C5  UNL     1     -23.452  17.487  10.528  1.00 20.00     0.109 A 
HETATM    5  N7  UNL     1     -22.121  16.544   8.505  1.00 20.00    -0.196 NA
ENDROOT
BRANCH   4   6
HETATM    6  C2  UNL     1     -24.548  18.418  10.202  1.00 20.00     0.145 C 
HETATM    7  C6  UNL     1     -24.376  19.263   8.969  1.00 20.00     0.093 C 
HETATM    8  O8  UNL     1     -25.557  18.497  10.902  1.00 20.00    -0.296 OA
ENDBRANCH   4   6
TORSDOF 1
ENDMDL
MODEL 5
REMARK VINA RESULT:      -3.9      1.536      2.003
REMARK  1 active torsions:
REMARK  status: ('A' for Active; 'I' for Inactive)
REMARK    1  A    between atoms: C2_2  and  C5_5 
ROOT
HETATM    1  C1  UNL     1     -36.920  14.319  -4.668  1.00 20.00     0.077 C 
HETATM    2  C3  UNL     1     -35.363  14.743  -6.606  1.00 20.00     0.034 A 
HETATM    3  C4  UNL     1     -35.672  16.070  -5.986  1.00 20.00     0.034 A 
HETATM    4  C5  UNL     1     -35.652  14.826  -5.123  1.00 20.00     0.109 A 
HETATM    5  N7  UNL     1     -37.941  13.909  -4.303  1.00 20.00    -0.196 NA
ENDROOT
BRANCH   4   6
HETATM    6  C2  UNL     1     -34.519  14.656  -4.195  1.00 20.00     0.145 C 
HETATM    7  C6  UNL     1     -34.583  15.417  -2.899  1.00 20.00     0.093 C 
HETATM    8  O8  UNL     1     -33.568  13.924  -4.467  1.00 20.00    -0.296 OA
ENDBRANCH   4   6
TORSDOF 1
ENDMDL
MODEL 6
REMARK VINA RESULT:      -3.9      1.940      2.738
REMARK  1 active torsions:
REMARK  status: ('A' for Active; 'I' for Inactive)
REMARK    1  A    between atoms: C2_2  and  C5_5 
ROOT
HETATM    1  C1  UNL     1     -35.422  13.822  -4.252  1.00 20.00     0.077 C 
HETATM    2  C3  UNL     1     -33.359  15.230  -3.904  1.00 20.00     0.034 A 
HETATM    3  C4  UNL     1     -34.099  15.806  -5.072  1.00 20.00     0.034 A 
HETATM    4  C5  UNL     1     -34.868  15.117  -3.963  1.00 20.00     0.109 A 
HETATM    5  N7  UNL     1     -35.868  12.776  -4.484  1.00 20.00    -0.196 NA
ENDROOT
BRANCH   4   6
HETATM    6  C2  UNL     1     -35.652  15.965  -3.047  1.00 20.00     0.145 C 
HETATM    7  C6  UNL     1     -35.015  16.307  -1.727  1.00 20.00     0.093 C 
HETATM    8  O8  UNL     1     -36.772  16.376  -3.348  1.00 20.00    -0.296 OA
ENDBRANCH   4   6
TORSDOF 1
ENDMDL
MODEL 7
REMARK VINA RESULT:      -3.9      1.732      2.264
REMARK  1 active torsions:
REMARK  status: ('A' for Active; 'I' for Inactive)
REMARK    1  A    between atoms: C2_2  and  C5_5 
ROOT
HETATM    1  C1  UNL     1     -35.266  16.467  -4.739  1.00 20.00     0.077 C 
HETATM    2  C3  UNL     1     -33.491  15.892  -3.042  1.00 20.00     0.034 A 
HETATM    3  C4  UNL     1     -34.808  15.889  -2.328  1.00 20.00     0.034 A 
HETATM    4  C5  UNL     1     -34.750  15.513  -3.794  1.00 20.00     0.109 A 
HETATM    5  N7  UNL     1     -35.681  17.236  -5.502  1.00 20.00    -0.196 NA
ENDROOT
BRANCH   4   6
HETATM    6  C2  UNL     1     -34.935  14.093  -4.143  1.00 20.00     0.145 C 
HETATM    7  C6  UNL     1     -36.316  13.674  -4.567  1.00 20.00     0.093 C 
HETATM    8  O8  UNL     1     -34.004  13.290  -4.094  1.00 20.00    -0.296 OA
ENDBRANCH   4   6
TORSDOF 1
ENDMDL
MODEL 8
REMARK VINA RESULT:      -3.9     17.409     18.074
REMARK  1 active torsions:
REMARK  status: ('A' for Active; 'I' for Inactive)
REMARK    1  A    between atoms: C2_2  and  C5_5 
ROOT
HETATM    1  C1  UNL     1     -23.807  18.608   7.762  1.00 20.00     0.077 C 
HETATM    2  C3  UNL     1     -22.155  17.043   8.848  1.00 20.00     0.034 A 
HETATM    3  C4  UNL     1     -21.880  18.417   9.378  1.00 20.00     0.034 A 
HETATM    4  C5  UNL     1     -23.290  18.036   8.976  1.00 20.00     0.109 A 
HETATM    5  N7  UNL     1     -24.223  19.069   6.782  1.00 20.00    -0.196 NA
ENDROOT
BRANCH   4   6
HETATM    6  C2  UNL     1     -24.272  17.816  10.054  1.00 20.00     0.145 C 
HETATM    7  C6  UNL     1     -24.278  16.456  10.698  1.00 20.00     0.093 C 
HETATM    8  O8  UNL     1     -25.047  18.702  10.412  1.00 20.00    -0.296 OA
ENDBRANCH   4   6
TORSDOF 1
ENDMDL
MODEL 9
REMARK VINA RESULT:      -3.8      2.228      2.361
REMARK  1 active torsions:
REMARK  status: ('A' for Active; 'I' for Inactive)
REMARK    1  A    between atoms: C2_2  and  C5_5 
ROOT
HETATM    1  C1  UNL     1     -35.510  13.846  -4.336  1.00 20.00     0.077 C 
HETATM    2  C3  UNL     1     -35.591  15.990  -3.012  1.00 20.00     0.034 A 
HETATM    3  C4  UNL     1     -34.179  15.492  -2.965  1.00 20.00     0.034 A 
HETATM    4  C5  UNL     1     -35.039  15.196  -4.176  1.00 20.00     0.109 A 
HETATM    5  N7  UNL     1     -35.890  12.758  -4.464  1.00 20.00    -0.196 NA
ENDROOT
BRANCH   4   6
HETATM    6  C2  UNL     1     -34.740  15.927  -5.421  1.00 20.00     0.145 C 
HETATM    7  C6  UNL     1     -34.101  15.139  -6.533  1.00 20.00     0.093 C 
HETATM    8  O8  UNL     1     -35.003  17.122  -5.546  1.00 20.00    -0.296 OA
ENDBRANCH   4   6
TORSDOF 1
ENDMDL
