MODEL 1
REMARK VINA RESULT:      -5.7      0.000      0.000
REMARK  1 active torsions:
REMARK  status: ('A' for Active; 'I' for Inactive)
REMARK    1  A    between atoms: C1_1  and  C3_3 
ROOT
HETATM    1  C1  UNL     1     -33.907   6.355   4.151  1.00 20.00     0.143 C 
HETATM    2  C2  UNL     1     -33.269   6.181   2.988  1.00 20.00     0.190 C 
HETATM    3  F4  UNL     1     -33.442   5.043   2.279  1.00 20.00    -0.193 F 
HETATM    4 CL8  UNL     1     -32.215   7.394   2.361  1.00 20.00    -0.051 Cl
ENDROOT
BRANCH   1   5
HETATM    5  C3  UNL     1     -34.835   5.370   4.773  1.00 20.00     0.411 C 
HETATM    6  F5  UNL     1     -34.409   4.086   4.682  1.00 20.00    -0.167 F 
HETATM    7  F6  UNL     1     -36.063   5.418   4.196  1.00 20.00    -0.167 F 
HETATM    8  F7  UNL     1     -35.014   5.628   6.094  1.00 20.00    -0.167 F 
ENDBRANCH   1   5
TORSDOF 1
ENDMDL
MODEL 2
REMARK VINA RESULT:      -5.7      0.045      1.333
REMARK  1 active torsions:
REMARK  status: ('A' for Active; 'I' for Inactive)
REMARK    1  A    between atoms: C1_1  and  C3_3 
ROOT
HETATM    1  C1  UNL     1     -33.904   6.333   4.173  1.00 20.00     0.143 C 
HETATM    2  C2  UNL     1     -33.289   6.172   2.996  1.00 20.00     0.190 C 
HETATM    3  F4  UNL     1     -33.506   5.058   2.262  1.00 20.00    -0.193 F 
HETATM    4 CL8  UNL     1     -32.211   7.370   2.384  1.00 20.00    -0.051 Cl
ENDROOT
BRANCH   1   5
HETATM    5  C3  UNL     1     -34.851   5.359   4.785  1.00 20.00     0.411 C 
HETATM    6  F5  UNL     1     -35.064   5.564   6.109  1.00 20.00    -0.167 F 
HETATM    7  F6  UNL     1     -34.402   4.086   4.653  1.00 20.00    -0.167 F 
HETATM    8  F7  UNL     1     -36.067   5.409   4.183  1.00 20.00    -0.167 F 
ENDBRANCH   1   5
TORSDOF 1
ENDMDL
MODEL 3
REMARK VINA RESULT:      -4.9      1.277      1.810
REMARK  1 active torsions:
REMARK  status: ('A' for Active; 'I' for Inactive)
REMARK    1  A    between atoms: C1_1  and  C3_3 
ROOT
HETATM    1  C1  UNL     1     -33.924   5.815   3.221  1.00 20.00     0.143 C 
HETATM    2  C2  UNL     1     -32.995   6.776   3.290  1.00 20.00     0.190 C 
HETATM    3  F4  UNL     1     -32.622   7.277   4.489  1.00 20.00    -0.193 F 
HETATM    4 CL8  UNL     1     -32.250   7.398   1.865  1.00 20.00    -0.051 Cl
ENDROOT
BRANCH   1   5
HETATM    5  C3  UNL     1     -34.623   5.214   4.390  1.00 20.00     0.411 C 
HETATM    6  F5  UNL     1     -34.304   5.795   5.573  1.00 20.00    -0.167 F 
HETATM    7  F6  UNL     1     -34.333   3.894   4.512  1.00 20.00    -0.167 F 
HETATM    8  F7  UNL     1     -35.971   5.307   4.260  1.00 20.00    -0.167 F 
ENDBRANCH   1   5
TORSDOF 1
ENDMDL
MODEL 4
REMARK VINA RESULT:      -4.7      2.400      3.579
REMARK  1 active torsions:
REMARK  status: ('A' for Active; 'I' for Inactive)
REMARK    1  A    between atoms: C1_1  and  C3_3 
ROOT
HETATM    1  C1  UNL     1     -33.515   6.637   4.183  1.00 20.00     0.143 C 
HETATM    2  C2  UNL     1     -34.290   5.581   4.452  1.00 20.00     0.190 C 
HETATM    3  F4  UNL     1     -34.423   4.586   3.547  1.00 20.00    -0.193 F 
HETATM    4 CL8  UNL     1     -35.136   5.455   5.949  1.00 20.00    -0.051 Cl
ENDROOT
BRANCH   1   5
HETATM    5  C3  UNL     1     -32.746   6.836   2.923  1.00 20.00     0.411 C 
HETATM    6  F5  UNL     1     -33.342   7.685   2.049  1.00 20.00    -0.167 F 
HETATM    7  F6  UNL     1     -32.564   5.663   2.266  1.00 20.00    -0.167 F 
HETATM    8  F7  UNL     1     -31.510   7.339   3.174  1.00 20.00    -0.167 F 
ENDBRANCH   1   5
TORSDOF 1
ENDMDL
MODEL 5
REMARK VINA RESULT:      -4.7      1.559      2.037
REMARK  1 active torsions:
REMARK  status: ('A' for Active; 'I' for Inactive)
REMARK    1  A    between atoms: C1_1  and  C3_3 
ROOT
HETATM    1  C1  UNL     1     -34.014   5.975   4.493  1.00 20.00     0.143 C 
HETATM    2  C2  UNL     1     -33.924   4.991   3.592  1.00 20.00     0.190 C 
HETATM    3  F4  UNL     1     -34.252   3.725   3.932  1.00 20.00    -0.193 F 
HETATM    4 CL8  UNL     1     -33.394   5.304   1.981  1.00 20.00    -0.051 Cl
ENDROOT
BRANCH   1   5
HETATM    5  C3  UNL     1     -34.461   5.807   5.904  1.00 20.00     0.411 C 
HETATM    6  F5  UNL     1     -35.704   5.278   6.022  1.00 20.00    -0.167 F 
HETATM    7  F6  UNL     1     -34.475   6.994   6.561  1.00 20.00    -0.167 F 
HETATM    8  F7  UNL     1     -33.623   4.989   6.592  1.00 20.00    -0.167 F 
ENDBRANCH   1   5
TORSDOF 1
ENDMDL
MODEL 6
REMARK VINA RESULT:      -4.6      2.397      3.545
REMARK  1 active torsions:
REMARK  status: ('A' for Active; 'I' for Inactive)
REMARK    1  A    between atoms: C1_1  and  C3_3 
ROOT
HETATM    1  C1  UNL     1     -33.535   6.628   4.172  1.00 20.00     0.143 C 
HETATM    2  C2  UNL     1     -34.283   5.552   4.442  1.00 20.00     0.190 C 
HETATM    3  F4  UNL     1     -34.363   4.538   3.551  1.00 20.00    -0.193 F 
HETATM    4 CL8  UNL     1     -35.159   5.426   5.921  1.00 20.00    -0.051 Cl
ENDROOT
BRANCH   1   5
HETATM    5  C3  UNL     1     -32.742   6.829   2.927  1.00 20.00     0.411 C 
HETATM    6  F5  UNL     1     -31.501   7.329   3.146  1.00 20.00    -0.167 F 
HETATM    7  F6  UNL     1     -33.366   7.687   2.079  1.00 20.00    -0.167 F 
HETATM    8  F7  UNL     1     -32.579   5.663   2.251  1.00 20.00    -0.167 F 
ENDBRANCH   1   5
TORSDOF 1
ENDMDL
MODEL 7
REMARK VINA RESULT:      -4.5      2.150      3.490
REMARK  1 active torsions:
REMARK  status: ('A' for Active; 'I' for Inactive)
REMARK    1  A    between atoms: C1_1  and  C3_3 
ROOT
HETATM    1  C1  UNL     1     -33.682   6.046   3.872  1.00 20.00     0.143 C 
HETATM    2  C2  UNL     1     -34.458   5.261   4.628  1.00 20.00     0.190 C 
HETATM    3  F4  UNL     1     -34.870   4.061   4.163  1.00 20.00    -0.193 F 
HETATM    4 CL8  UNL     1     -34.950   5.750   6.206  1.00 20.00    -0.051 Cl
ENDROOT
BRANCH   1   5
HETATM    5  C3  UNL     1     -33.204   5.713   2.501  1.00 20.00     0.411 C 
HETATM    6  F5  UNL     1     -34.205   5.540   1.602  1.00 20.00    -0.167 F 
HETATM    7  F6  UNL     1     -32.473   4.569   2.499  1.00 20.00    -0.167 F 
HETATM    8  F7  UNL     1     -32.401   6.691   2.007  1.00 20.00    -0.167 F 
ENDBRANCH   1   5
TORSDOF 1
ENDMDL
MODEL 8
REMARK VINA RESULT:      -4.1      3.593      4.914
REMARK  1 active torsions:
REMARK  status: ('A' for Active; 'I' for Inactive)
REMARK    1  A    between atoms: C1_1  and  C3_3 
ROOT
HETATM    1  C1  UNL     1     -33.347   7.454   1.594  1.00 20.00     0.143 C 
HETATM    2  C2  UNL     1     -32.802   7.029   2.740  1.00 20.00     0.190 C 
HETATM    3  F4  UNL     1     -31.553   7.414   3.083  1.00 20.00    -0.193 F 
HETATM    4 CL8  UNL     1     -33.668   5.986   3.806  1.00 20.00    -0.051 Cl
ENDROOT
BRANCH   1   5
HETATM    5  C3  UNL     1     -32.683   8.353   0.611  1.00 20.00     0.411 C 
HETATM    6  F5  UNL     1     -31.423   7.969   0.286  1.00 20.00    -0.167 F 
HETATM    7  F6  UNL     1     -32.595   9.622   1.085  1.00 20.00    -0.167 F 
HETATM    8  F7  UNL     1     -33.383   8.418  -0.550  1.00 20.00    -0.167 F 
ENDBRANCH   1   5
TORSDOF 1
ENDMDL
MODEL 9
REMARK VINA RESULT:      -4.1      1.787      2.841
REMARK  1 active torsions:
REMARK  status: ('A' for Active; 'I' for Inactive)
REMARK    1  A    between atoms: C1_1  and  C3_3 
ROOT
HETATM    1  C1  UNL     1     -33.962   6.118   4.494  1.00 20.00     0.143 C 
HETATM    2  C2  UNL     1     -34.234   6.367   5.780  1.00 20.00     0.190 C 
HETATM    3  F4  UNL     1     -35.043   5.539   6.478  1.00 20.00    -0.193 F 
HETATM    4 CL8  UNL     1     -33.565   7.739   6.582  1.00 20.00    -0.051 Cl
ENDROOT
BRANCH   1   5
HETATM    5  C3  UNL     1     -34.488   4.962   3.716  1.00 20.00     0.411 C 
HETATM    6  F5  UNL     1     -34.075   4.941   2.425  1.00 20.00    -0.167 F 
HETATM    7  F6  UNL     1     -35.845   4.960   3.693  1.00 20.00    -0.167 F 
HETATM    8  F7  UNL     1     -34.105   3.781   4.267  1.00 20.00    -0.167 F 
ENDBRANCH   1   5
TORSDOF 1
ENDMDL
