MODEL 1
REMARK VINA RESULT:      -4.1      0.000      0.000
REMARK  2 active torsions:
REMARK  status: ('A' for Active; 'I' for Inactive)
REMARK    1  A    between atoms: C1_1  and  C4_4 
REMARK    2  A    between atoms: C4_4  and  C5_5 
ROOT
HETATM    1  C2  UNL     1     -34.499   4.462   4.454  1.00 20.00     0.020 A 
HETATM    2  C3  UNL     1     -35.627   5.412   4.192  1.00 20.00     0.020 A 
HETATM    3  C4  UNL     1     -34.253   5.954   4.527  1.00 20.00     0.039 A 
ENDROOT
BRANCH   3   4
HETATM    4  C1  UNL     1     -33.483   6.564   3.417  1.00 20.00     0.243 C 
HETATM    5  O6  UNL     1     -32.813   5.915   2.621  1.00 20.00    -0.306 OA
ENDBRANCH   3   4
BRANCH   3   6
HETATM    6  C5  UNL     1     -34.068   6.551   5.900  1.00 20.00     0.238 C 
HETATM    7  F7  UNL     1     -32.986   7.374   5.879  1.00 20.00    -0.254 F 
ENDBRANCH   3   6
TORSDOF 2
ENDMDL
MODEL 2
REMARK VINA RESULT:      -3.7      1.942      2.496
REMARK  2 active torsions:
REMARK  status: ('A' for Active; 'I' for Inactive)
REMARK    1  A    between atoms: C1_1  and  C4_4 
REMARK    2  A    between atoms: C4_4  and  C5_5 
ROOT
HETATM    1  C2  UNL     1     -35.469   5.473   4.104  1.00 20.00     0.020 A 
HETATM    2  C3  UNL     1     -34.414   4.461   4.431  1.00 20.00     0.020 A 
HETATM    3  C4  UNL     1     -34.022   5.907   4.211  1.00 20.00     0.039 A 
ENDROOT
BRANCH   3   4
HETATM    4  C1  UNL     1     -33.641   6.690   5.411  1.00 20.00     0.243 C 
HETATM    5  O6  UNL     1     -34.374   6.838   6.383  1.00 20.00    -0.306 OA
ENDBRANCH   3   4
BRANCH   3   6
HETATM    6  C5  UNL     1     -33.309   6.236   2.923  1.00 20.00     0.238 C 
HETATM    7  F7  UNL     1     -32.183   6.941   3.211  1.00 20.00    -0.254 F 
ENDBRANCH   3   6
TORSDOF 2
ENDMDL
MODEL 3
REMARK VINA RESULT:      -3.7     11.844     12.353
REMARK  2 active torsions:
REMARK  status: ('A' for Active; 'I' for Inactive)
REMARK    1  A    between atoms: C1_1  and  C4_4 
REMARK    2  A    between atoms: C4_4  and  C5_5 
ROOT
HETATM    1  C2  UNL     1     -34.815  15.447  -2.795  1.00 20.00     0.020 A 
HETATM    2  C3  UNL     1     -35.414  16.270  -3.895  1.00 20.00     0.020 A 
HETATM    3  C4  UNL     1     -34.947  14.859  -4.184  1.00 20.00     0.039 A 
ENDROOT
BRANCH   3   4
HETATM    4  C1  UNL     1     -35.998  13.831  -4.382  1.00 20.00     0.243 C 
HETATM    5  O6  UNL     1     -35.761  12.632  -4.484  1.00 20.00    -0.306 OA
ENDBRANCH   3   4
BRANCH   3   6
HETATM    6  C5  UNL     1     -33.679  14.707  -4.987  1.00 20.00     0.238 C 
HETATM    7  F7  UNL     1     -32.830  13.884  -4.316  1.00 20.00    -0.254 F 
ENDBRANCH   3   6
TORSDOF 2
ENDMDL
MODEL 4
REMARK VINA RESULT:      -3.6      2.362      3.321
REMARK  2 active torsions:
REMARK  status: ('A' for Active; 'I' for Inactive)
REMARK    1  A    between atoms: C1_1  and  C4_4 
REMARK    2  A    between atoms: C4_4  and  C5_5 
ROOT
HETATM    1  C2  UNL     1     -31.886   7.133   3.028  1.00 20.00     0.020 A 
HETATM    2  C3  UNL     1     -32.988   7.423   2.056  1.00 20.00     0.020 A 
HETATM    3  C4  UNL     1     -33.169   6.331   3.090  1.00 20.00     0.039 A 
ENDROOT
BRANCH   3   4
HETATM    4  C1  UNL     1     -34.088   6.619   4.217  1.00 20.00     0.243 C 
HETATM    5  O6  UNL     1     -33.710   6.803   5.369  1.00 20.00    -0.306 OA
ENDBRANCH   3   4
BRANCH   3   6
HETATM    6  C5  UNL     1     -33.110   4.906   2.600  1.00 20.00     0.238 C 
HETATM    7  F7  UNL     1     -33.911   4.138   3.384  1.00 20.00    -0.254 F 
ENDBRANCH   3   6
TORSDOF 2
ENDMDL
MODEL 5
REMARK VINA RESULT:      -3.6      2.076      2.485
REMARK  2 active torsions:
REMARK  status: ('A' for Active; 'I' for Inactive)
REMARK    1  A    between atoms: C1_1  and  C4_4 
REMARK    2  A    between atoms: C4_4  and  C5_5 
ROOT
HETATM    1  C2  UNL     1     -35.630   5.468   4.301  1.00 20.00     0.020 A 
HETATM    2  C3  UNL     1     -34.658   5.037   5.357  1.00 20.00     0.020 A 
HETATM    3  C4  UNL     1     -34.143   5.530   4.021  1.00 20.00     0.039 A 
ENDROOT
BRANCH   3   4
HETATM    4  C1  UNL     1     -33.519   6.875   3.997  1.00 20.00     0.243 C 
HETATM    5  O6  UNL     1     -32.433   7.108   3.478  1.00 20.00    -0.306 OA
ENDBRANCH   3   4
BRANCH   3   6
HETATM    6  C5  UNL     1     -33.579   4.496   3.079  1.00 20.00     0.238 C 
HETATM    7  F7  UNL     1     -33.669   4.965   1.806  1.00 20.00    -0.254 F 
ENDBRANCH   3   6
TORSDOF 2
ENDMDL
MODEL 6
REMARK VINA RESULT:      -3.6     12.318     12.956
REMARK  2 active torsions:
REMARK  status: ('A' for Active; 'I' for Inactive)
REMARK    1  A    between atoms: C1_1  and  C4_4 
REMARK    2  A    between atoms: C4_4  and  C5_5 
ROOT
HETATM    1  C2  UNL     1     -33.305  14.378  -4.252  1.00 20.00     0.020 A 
HETATM    2  C3  UNL     1     -34.043  15.588  -3.766  1.00 20.00     0.020 A 
HETATM    3  C4  UNL     1     -34.669  14.703  -4.824  1.00 20.00     0.039 A 
ENDROOT
BRANCH   3   4
HETATM    4  C1  UNL     1     -35.799  13.844  -4.397  1.00 20.00     0.243 C 
HETATM    5  O6  UNL     1     -35.804  12.623  -4.516  1.00 20.00    -0.306 OA
ENDBRANCH   3   4
BRANCH   3   6
HETATM    6  C5  UNL     1     -34.710  15.242  -6.232  1.00 20.00     0.238 C 
HETATM    7  F7  UNL     1     -33.692  14.690  -6.944  1.00 20.00    -0.254 F 
ENDBRANCH   3   6
TORSDOF 2
ENDMDL
MODEL 7
REMARK VINA RESULT:      -3.4      8.856      9.492
REMARK  2 active torsions:
REMARK  status: ('A' for Active; 'I' for Inactive)
REMARK    1  A    between atoms: C1_1  and  C4_4 
REMARK    2  A    between atoms: C4_4  and  C5_5 
ROOT
HETATM    1  C2  UNL     1     -41.089   6.474   0.345  1.00 20.00     0.020 A 
HETATM    2  C3  UNL     1     -41.530   6.701  -1.069  1.00 20.00     0.020 A 
HETATM    3  C4  UNL     1     -41.888   7.713  -0.001  1.00 20.00     0.039 A 
ENDROOT
BRANCH   3   4
HETATM    4  C1  UNL     1     -41.155   9.002  -0.023  1.00 20.00     0.243 C 
HETATM    5  O6  UNL     1     -41.644  10.065   0.342  1.00 20.00    -0.306 OA
ENDBRANCH   3   4
BRANCH   3   6
HETATM    6  C5  UNL     1     -43.326   7.749   0.455  1.00 20.00     0.238 C 
HETATM    7  F7  UNL     1     -43.414   7.164   1.679  1.00 20.00    -0.254 F 
ENDBRANCH   3   6
TORSDOF 2
ENDMDL
MODEL 8
REMARK VINA RESULT:      -3.4     12.037     12.885
REMARK  2 active torsions:
REMARK  status: ('A' for Active; 'I' for Inactive)
REMARK    1  A    between atoms: C1_1  and  C4_4 
REMARK    2  A    between atoms: C4_4  and  C5_5 
ROOT
HETATM    1  C2  UNL     1     -35.049  16.106  -5.765  1.00 20.00     0.020 A 
HETATM    2  C3  UNL     1     -34.317  15.047  -6.531  1.00 20.00     0.020 A 
HETATM    3  C4  UNL     1     -34.822  14.748  -5.135  1.00 20.00     0.039 A 
ENDROOT
BRANCH   3   4
HETATM    4  C1  UNL     1     -35.999  13.853  -5.024  1.00 20.00     0.243 C 
HETATM    5  O6  UNL     1     -35.949  12.725  -4.547  1.00 20.00    -0.306 OA
ENDBRANCH   3   4
BRANCH   3   6
HETATM    6  C5  UNL     1     -33.792  14.666  -4.035  1.00 20.00     0.238 C 
HETATM    7  F7  UNL     1     -34.350  15.106  -2.876  1.00 20.00    -0.254 F 
ENDBRANCH   3   6
TORSDOF 2
ENDMDL
MODEL 9
REMARK VINA RESULT:      -3.3      9.278      9.689
REMARK  2 active torsions:
REMARK  status: ('A' for Active; 'I' for Inactive)
REMARK    1  A    between atoms: C1_1  and  C4_4 
REMARK    2  A    between atoms: C4_4  and  C5_5 
ROOT
HETATM    1  C2  UNL     1     -40.980   5.821  -0.766  1.00 20.00     0.020 A 
HETATM    2  C3  UNL     1     -41.908   5.581   0.385  1.00 20.00     0.020 A 
HETATM    3  C4  UNL     1     -42.005   6.873  -0.399  1.00 20.00     0.039 A 
ENDROOT
BRANCH   3   4
HETATM    4  C1  UNL     1     -43.170   7.023  -1.304  1.00 20.00     0.243 C 
HETATM    5  O6  UNL     1     -43.380   8.028  -1.974  1.00 20.00    -0.306 OA
ENDBRANCH   3   4
BRANCH   3   6
HETATM    6  C5  UNL     1     -41.492   8.123   0.273  1.00 20.00     0.238 C 
HETATM    7  F7  UNL     1     -40.720   8.811  -0.609  1.00 20.00    -0.254 F 
ENDBRANCH   3   6
TORSDOF 2
ENDMDL
