MODEL 1
REMARK VINA RESULT:      -4.3      0.000      0.000
REMARK  1 active torsions:
REMARK  status: ('A' for Active; 'I' for Inactive)
REMARK    1  A    between atoms: C5_5  and  C6_6 
ROOT
HETATM    1  C1  UNL     1     -33.823   5.321   3.288  1.00 20.00     0.015 C 
HETATM    2  C2  UNL     1     -33.018   7.136   4.882  1.00 20.00     0.015 C 
HETATM    3  C3  UNL     1     -35.023   4.952   4.152  1.00 20.00     0.074 C 
HETATM    4  C4  UNL     1     -34.153   6.913   5.873  1.00 20.00     0.074 C 
HETATM    5  C5  UNL     1     -33.400   6.790   3.436  1.00 20.00    -0.003 C 
HETATM    6  S7  UNL     1     -34.679   5.177   5.919  1.00 20.00    -0.169 SA
ENDROOT
BRANCH   5   7
HETATM    7  C6  UNL     1     -32.231   7.098   2.496  1.00 20.00     0.089 C 
HETATM    8 BR8  UNL     1     -32.830   8.300   1.100  1.00 20.00    -0.096 Br
ENDBRANCH   5   7
TORSDOF 1
ENDMDL
MODEL 2
REMARK VINA RESULT:      -3.6     16.006     16.814
REMARK  1 active torsions:
REMARK  status: ('A' for Active; 'I' for Inactive)
REMARK    1  A    between atoms: C5_5  and  C6_6 
ROOT
HETATM    1  C1  UNL     1     -24.232  16.919  10.118  1.00 20.00     0.015 C 
HETATM    2  C2  UNL     1     -23.236  17.778  12.298  1.00 20.00     0.015 C 
HETATM    3  C3  UNL     1     -22.879  16.803   9.426  1.00 20.00     0.074 C 
HETATM    4  C4  UNL     1     -21.804  17.732  11.781  1.00 20.00     0.074 C 
HETATM    5  C5  UNL     1     -24.151  16.735  11.640  1.00 20.00    -0.003 C 
HETATM    6  S7  UNL     1     -21.716  18.071  10.001  1.00 20.00    -0.169 SA
ENDROOT
BRANCH   5   7
HETATM    7  C6  UNL     1     -25.552  16.804  12.254  1.00 20.00     0.089 C 
HETATM    8 BR8  UNL     1     -26.277  18.582  12.000  1.00 20.00    -0.096 Br
ENDBRANCH   5   7
TORSDOF 1
ENDMDL
MODEL 3
REMARK VINA RESULT:      -3.6     15.574     16.050
REMARK  1 active torsions:
REMARK  status: ('A' for Active; 'I' for Inactive)
REMARK    1  A    between atoms: C5_5  and  C6_6 
ROOT
HETATM    1  C1  UNL     1     -25.314  18.762  10.447  1.00 20.00     0.015 C 
HETATM    2  C2  UNL     1     -23.998  16.586  10.324  1.00 20.00     0.015 C 
HETATM    3  C3  UNL     1     -25.692  18.570  11.910  1.00 20.00     0.074 C 
HETATM    4  C4  UNL     1     -24.270  16.219  11.777  1.00 20.00     0.074 C 
HETATM    5  C5  UNL     1     -23.978  18.101  10.075  1.00 20.00    -0.003 C 
HETATM    6  S7  UNL     1     -25.891  16.817  12.332  1.00 20.00    -0.169 SA
ENDROOT
BRANCH   5   7
HETATM    7  C6  UNL     1     -23.639  18.389   8.610  1.00 20.00     0.089 C 
HETATM    8 BR8  UNL     1     -21.998  17.473   8.140  1.00 20.00    -0.096 Br
ENDBRANCH   5   7
TORSDOF 1
ENDMDL
MODEL 4
REMARK VINA RESULT:      -3.5     15.782     16.067
REMARK  1 active torsions:
REMARK  status: ('A' for Active; 'I' for Inactive)
REMARK    1  A    between atoms: C5_5  and  C6_6 
ROOT
HETATM    1  C1  UNL     1     -22.947  18.003   8.285  1.00 20.00     0.015 C 
HETATM    2  C2  UNL     1     -24.927  19.063   9.486  1.00 20.00     0.015 C 
HETATM    3  C3  UNL     1     -22.619  17.064   9.439  1.00 20.00     0.074 C 
HETATM    4  C4  UNL     1     -24.758  18.209  10.736  1.00 20.00     0.074 C 
HETATM    5  C5  UNL     1     -24.437  18.368   8.207  1.00 20.00    -0.003 C 
HETATM    6  S7  UNL     1     -23.016  17.804  11.047  1.00 20.00    -0.169 SA
ENDROOT
BRANCH   5   7
HETATM    7  C6  UNL     1     -24.697  19.262   6.992  1.00 20.00     0.089 C 
HETATM    8 BR8  UNL     1     -26.478  18.919   6.312  1.00 20.00    -0.096 Br
ENDBRANCH   5   7
TORSDOF 1
ENDMDL
MODEL 5
REMARK VINA RESULT:      -3.5     15.992     16.254
REMARK  1 active torsions:
REMARK  status: ('A' for Active; 'I' for Inactive)
REMARK    1  A    between atoms: C5_5  and  C6_6 
ROOT
HETATM    1  C1  UNL     1     -24.146  16.697  11.390  1.00 20.00     0.015 C 
HETATM    2  C2  UNL     1     -24.402  18.641   9.766  1.00 20.00     0.015 C 
HETATM    3  C3  UNL     1     -25.472  16.973  12.089  1.00 20.00     0.074 C 
HETATM    4  C4  UNL     1     -25.747  19.074  10.334  1.00 20.00     0.074 C 
HETATM    5  C5  UNL     1     -24.135  17.137   9.918  1.00 20.00    -0.003 C 
HETATM    6  S7  UNL     1     -25.866  18.744  12.114  1.00 20.00    -0.169 SA
ENDROOT
BRANCH   5   7
HETATM    7  C6  UNL     1     -22.797  16.772   9.271  1.00 20.00     0.089 C 
HETATM    8 BR8  UNL     1     -21.612  18.303   9.338  1.00 20.00    -0.096 Br
ENDBRANCH   5   7
TORSDOF 1
ENDMDL
MODEL 6
REMARK VINA RESULT:      -3.5     11.872     12.246
REMARK  1 active torsions:
REMARK  status: ('A' for Active; 'I' for Inactive)
REMARK    1  A    between atoms: C5_5  and  C6_6 
ROOT
HETATM    1  C1  UNL     1     -36.003  15.702  -3.505  1.00 20.00     0.015 C 
HETATM    2  C2  UNL     1     -33.496  15.972  -3.149  1.00 20.00     0.015 C 
HETATM    3  C3  UNL     1     -35.838  14.672  -4.616  1.00 20.00     0.074 C 
HETATM    4  C4  UNL     1     -33.130  14.965  -4.231  1.00 20.00     0.074 C 
HETATM    5  C5  UNL     1     -34.852  15.685  -2.488  1.00 20.00    -0.003 C 
HETATM    6  S7  UNL     1     -34.334  14.963  -5.588  1.00 20.00    -0.169 SA
ENDROOT
BRANCH   5   7
HETATM    7  C6  UNL     1     -35.119  16.701  -1.374  1.00 20.00     0.089 C 
HETATM    8 BR8  UNL     1     -33.603  17.896  -1.218  1.00 20.00    -0.096 Br
ENDBRANCH   5   7
TORSDOF 1
ENDMDL
MODEL 7
REMARK VINA RESULT:      -3.4     11.797     12.204
REMARK  1 active torsions:
REMARK  status: ('A' for Active; 'I' for Inactive)
REMARK    1  A    between atoms: C5_5  and  C6_6 
ROOT
HETATM    1  C1  UNL     1     -33.006  16.965  -3.152  1.00 20.00     0.015 C 
HETATM    2  C2  UNL     1     -35.269  16.086  -2.385  1.00 20.00     0.015 C 
HETATM    3  C3  UNL     1     -32.747  17.724  -1.856  1.00 20.00     0.074 C 
HETATM    4  C4  UNL     1     -35.193  16.775  -1.029  1.00 20.00     0.074 C 
HETATM    5  C5  UNL     1     -33.892  15.725  -2.960  1.00 20.00    -0.003 C 
HETATM    6  S7  UNL     1     -34.284  18.343  -1.118  1.00 20.00    -0.169 SA
ENDROOT
BRANCH   5   7
HETATM    7  C6  UNL     1     -34.055  14.984  -4.290  1.00 20.00     0.089 C 
HETATM    8 BR8  UNL     1     -35.726  14.004  -4.277  1.00 20.00    -0.096 Br
ENDBRANCH   5   7
TORSDOF 1
ENDMDL
MODEL 8
REMARK VINA RESULT:      -3.4     11.526     12.230
REMARK  1 active torsions:
REMARK  status: ('A' for Active; 'I' for Inactive)
REMARK    1  A    between atoms: C5_5  and  C6_6 
ROOT
HETATM    1  C1  UNL     1     -35.158  15.957  -1.970  1.00 20.00     0.015 C 
HETATM    2  C2  UNL     1     -33.022  16.277  -3.318  1.00 20.00     0.015 C 
HETATM    3  C3  UNL     1     -35.168  17.390  -1.453  1.00 20.00     0.074 C 
HETATM    4  C4  UNL     1     -32.860  17.735  -2.909  1.00 20.00     0.074 C 
HETATM    5  C5  UNL     1     -34.486  15.814  -3.344  1.00 20.00    -0.003 C 
HETATM    6  S7  UNL     1     -33.488  18.040  -1.235  1.00 20.00    -0.169 SA
ENDROOT
BRANCH   5   7
HETATM    7  C6  UNL     1     -34.570  14.362  -3.822  1.00 20.00     0.089 C 
HETATM    8 BR8  UNL     1     -36.348  14.013  -4.507  1.00 20.00    -0.096 Br
ENDBRANCH   5   7
TORSDOF 1
ENDMDL
MODEL 9
REMARK VINA RESULT:      -3.4     16.145     16.921
REMARK  1 active torsions:
REMARK  status: ('A' for Active; 'I' for Inactive)
REMARK    1  A    between atoms: C5_5  and  C6_6 
ROOT
HETATM    1  C1  UNL     1     -22.667  17.528  10.917  1.00 20.00     0.015 C 
HETATM    2  C2  UNL     1     -24.546  18.093   9.295  1.00 20.00     0.015 C 
HETATM    3  C3  UNL     1     -21.566  17.843   9.911  1.00 20.00     0.074 C 
HETATM    4  C4  UNL     1     -23.597  18.453   8.159  1.00 20.00     0.074 C 
HETATM    5  C5  UNL     1     -23.948  18.343  10.686  1.00 20.00    -0.003 C 
HETATM    6  S7  UNL     1     -22.076  17.465   8.211  1.00 20.00    -0.169 SA
ENDROOT
BRANCH   5   7
HETATM    7  C6  UNL     1     -24.980  18.017  11.769  1.00 20.00     0.089 C 
HETATM    8 BR8  UNL     1     -26.498  19.207  11.588  1.00 20.00    -0.096 Br
ENDBRANCH   5   7
TORSDOF 1
ENDMDL
