MODEL 1
REMARK VINA RESULT:      -5.0      0.000      0.000
REMARK  1 active torsions:
REMARK  status: ('A' for Active; 'I' for Inactive)
REMARK    1  A    between atoms: C6_6  and  C7_7 
ROOT
HETATM    1  C1  UNL     1     -34.317   6.363   6.098  1.00 20.00     0.005 C 
HETATM    2  C2  UNL     1     -33.507   6.714   4.845  1.00 20.00     0.011 C 
HETATM    3  C3  UNL     1     -35.531   5.523   4.146  1.00 20.00     0.015 C 
HETATM    4  C4  UNL     1     -33.965   4.307   4.820  1.00 20.00     0.015 C 
HETATM    5  C5  UNL     1     -35.052   5.130   5.579  1.00 20.00    -0.013 C 
HETATM    6  C6  UNL     1     -33.984   5.588   3.920  1.00 20.00    -0.031 C 
ENDROOT
BRANCH   6   7
HETATM    7  C7  UNL     1     -33.407   5.563   2.535  1.00 20.00     0.094 C 
HETATM    8 BR8  UNL     1     -32.491   7.241   2.159  1.00 20.00    -0.096 Br
ENDBRANCH   6   7
TORSDOF 1
ENDMDL
MODEL 2
REMARK VINA RESULT:      -3.9     15.886     16.988
REMARK  1 active torsions:
REMARK  status: ('A' for Active; 'I' for Inactive)
REMARK    1  A    between atoms: C6_6  and  C7_7 
ROOT
HETATM    1  C1  UNL     1     -24.547  15.934  11.599  1.00 20.00     0.005 C 
HETATM    2  C2  UNL     1     -23.918  16.328  10.258  1.00 20.00     0.011 C 
HETATM    3  C3  UNL     1     -22.979  17.769  12.004  1.00 20.00     0.015 C 
HETATM    4  C4  UNL     1     -24.863  18.341  11.289  1.00 20.00     0.015 C 
HETATM    5  C5  UNL     1     -24.420  17.267  12.332  1.00 20.00    -0.013 C 
HETATM    6  C6  UNL     1     -23.588  17.794  10.562  1.00 20.00    -0.031 C 
ENDROOT
BRANCH   6   7
HETATM    7  C7  UNL     1     -22.933  18.580   9.465  1.00 20.00     0.094 C 
HETATM    8 BR8  UNL     1     -21.924  17.391   8.297  1.00 20.00    -0.096 Br
ENDBRANCH   6   7
TORSDOF 1
ENDMDL
MODEL 3
REMARK VINA RESULT:      -3.8     16.046     17.096
REMARK  1 active torsions:
REMARK  status: ('A' for Active; 'I' for Inactive)
REMARK    1  A    between atoms: C6_6  and  C7_7 
ROOT
HETATM    1  C1  UNL     1     -23.405  18.059   8.708  1.00 20.00     0.005 C 
HETATM    2  C2  UNL     1     -24.453  18.682   9.637  1.00 20.00     0.011 C 
HETATM    3  C3  UNL     1     -22.642  17.772  11.015  1.00 20.00     0.015 C 
HETATM    4  C4  UNL     1     -24.055  16.374  10.358  1.00 20.00     0.015 C 
HETATM    5  C5  UNL     1     -22.818  17.020   9.659  1.00 20.00    -0.013 C 
HETATM    6  C6  UNL     1     -24.201  17.838  10.892  1.00 20.00    -0.031 C 
ENDROOT
BRANCH   6   7
HETATM    7  C7  UNL     1     -25.055  18.138  12.089  1.00 20.00     0.094 C 
HETATM    8 BR8  UNL     1     -26.560  19.263  11.575  1.00 20.00    -0.096 Br
ENDBRANCH   6   7
TORSDOF 1
ENDMDL
MODEL 4
REMARK VINA RESULT:      -3.7      8.712      9.850
REMARK  1 active torsions:
REMARK  status: ('A' for Active; 'I' for Inactive)
REMARK    1  A    between atoms: C6_6  and  C7_7 
ROOT
HETATM    1  C1  UNL     1     -43.275   8.476   0.290  1.00 20.00     0.005 C 
HETATM    2  C2  UNL     1     -43.373   7.040  -0.237  1.00 20.00     0.011 C 
HETATM    3  C3  UNL     1     -41.165   7.338   0.784  1.00 20.00     0.015 C 
HETATM    4  C4  UNL     1     -41.354   8.069  -1.169  1.00 20.00     0.015 C 
HETATM    5  C5  UNL     1     -41.762   8.663   0.215  1.00 20.00    -0.013 C 
HETATM    6  C6  UNL     1     -41.885   6.766  -0.482  1.00 20.00    -0.031 C 
ENDROOT
BRANCH   6   7
HETATM    7  C7  UNL     1     -41.529   5.412  -1.023  1.00 20.00     0.094 C 
HETATM    8 BR8  UNL     1     -43.110   4.548  -1.764  1.00 20.00    -0.096 Br
ENDBRANCH   6   7
TORSDOF 1
ENDMDL
MODEL 5
REMARK VINA RESULT:      -3.6     15.916     16.902
REMARK  1 active torsions:
REMARK  status: ('A' for Active; 'I' for Inactive)
REMARK    1  A    between atoms: C6_6  and  C7_7 
ROOT
HETATM    1  C1  UNL     1     -24.277  15.880  11.626  1.00 20.00     0.005 C 
HETATM    2  C2  UNL     1     -25.555  16.642  11.997  1.00 20.00     0.011 C 
HETATM    3  C3  UNL     1     -24.313  17.972  10.356  1.00 20.00     0.015 C 
HETATM    4  C4  UNL     1     -23.640  18.134  12.332  1.00 20.00     0.015 C 
HETATM    5  C5  UNL     1     -23.394  17.060  11.227  1.00 20.00    -0.013 C 
HETATM    6  C6  UNL     1     -25.078  18.072  11.718  1.00 20.00    -0.031 C 
ENDROOT
BRANCH   6   7
HETATM    7  C7  UNL     1     -26.068  19.173  11.964  1.00 20.00     0.094 C 
HETATM    8 BR8  UNL     1     -27.882  18.465  11.928  1.00 20.00    -0.096 Br
ENDBRANCH   6   7
TORSDOF 1
ENDMDL
MODEL 6
REMARK VINA RESULT:      -3.6     16.000     16.806
REMARK  1 active torsions:
REMARK  status: ('A' for Active; 'I' for Inactive)
REMARK    1  A    between atoms: C6_6  and  C7_7 
ROOT
HETATM    1  C1  UNL     1     -25.806  19.042  11.292  1.00 20.00     0.005 C 
HETATM    2  C2  UNL     1     -25.010  18.578  10.067  1.00 20.00     0.011 C 
HETATM    3  C3  UNL     1     -25.220  16.688  11.613  1.00 20.00     0.015 C 
HETATM    4  C4  UNL     1     -23.707  18.059  12.077  1.00 20.00     0.015 C 
HETATM    5  C5  UNL     1     -25.247  18.073  12.331  1.00 20.00    -0.013 C 
HETATM    6  C6  UNL     1     -24.192  17.455  10.716  1.00 20.00    -0.031 C 
ENDROOT
BRANCH   6   7
HETATM    7  C7  UNL     1     -23.242  16.710   9.825  1.00 20.00     0.094 C 
HETATM    8 BR8  UNL     1     -22.528  17.902   8.459  1.00 20.00    -0.096 Br
ENDBRANCH   6   7
TORSDOF 1
ENDMDL
MODEL 7
REMARK VINA RESULT:      -3.6     12.328     13.070
REMARK  1 active torsions:
REMARK  status: ('A' for Active; 'I' for Inactive)
REMARK    1  A    between atoms: C6_6  and  C7_7 
ROOT
HETATM    1  C1  UNL     1     -34.209  16.601  -1.903  1.00 20.00     0.005 C 
HETATM    2  C2  UNL     1     -35.167  15.710  -2.701  1.00 20.00     0.011 C 
HETATM    3  C3  UNL     1     -32.931  15.514  -3.685  1.00 20.00     0.015 C 
HETATM    4  C4  UNL     1     -34.019  17.206  -4.266  1.00 20.00     0.015 C 
HETATM    5  C5  UNL     1     -33.177  16.890  -2.991  1.00 20.00    -0.013 C 
HETATM    6  C6  UNL     1     -34.440  15.714  -4.051  1.00 20.00    -0.031 C 
ENDROOT
BRANCH   6   7
HETATM    7  C7  UNL     1     -35.073  14.926  -5.160  1.00 20.00     0.094 C 
HETATM    8 BR8  UNL     1     -36.705  14.069  -4.529  1.00 20.00    -0.096 Br
ENDBRANCH   6   7
TORSDOF 1
ENDMDL
MODEL 8
REMARK VINA RESULT:      -3.6      9.130      9.674
REMARK  1 active torsions:
REMARK  status: ('A' for Active; 'I' for Inactive)
REMARK    1  A    between atoms: C6_6  and  C7_7 
ROOT
HETATM    1  C1  UNL     1     -43.077   5.175   0.733  1.00 20.00     0.005 C 
HETATM    2  C2  UNL     1     -42.375   6.536   0.783  1.00 20.00     0.011 C 
HETATM    3  C3  UNL     1     -43.343   6.248  -1.450  1.00 20.00     0.015 C 
HETATM    4  C4  UNL     1     -41.508   5.289  -1.140  1.00 20.00     0.015 C 
HETATM    5  C5  UNL     1     -42.970   4.897  -0.764  1.00 20.00    -0.013 C 
HETATM    6  C6  UNL     1     -42.041   6.695  -0.705  1.00 20.00    -0.031 C 
ENDROOT
BRANCH   6   7
HETATM    7  C7  UNL     1     -41.318   7.948  -1.104  1.00 20.00     0.094 C 
HETATM    8 BR8  UNL     1     -41.476   9.290   0.300  1.00 20.00    -0.096 Br
ENDBRANCH   6   7
TORSDOF 1
ENDMDL
MODEL 9
REMARK VINA RESULT:      -3.5     12.228     13.004
REMARK  1 active torsions:
REMARK  status: ('A' for Active; 'I' for Inactive)
REMARK    1  A    between atoms: C6_6  and  C7_7 
ROOT
HETATM    1  C1  UNL     1     -35.519  14.625  -3.827  1.00 20.00     0.005 C 
HETATM    2  C2  UNL     1     -35.017  15.507  -2.679  1.00 20.00     0.011 C 
HETATM    3  C3  UNL     1     -34.293  16.509  -4.796  1.00 20.00     0.015 C 
HETATM    4  C4  UNL     1     -33.107  14.929  -4.102  1.00 20.00     0.015 C 
HETATM    5  C5  UNL     1     -34.461  14.960  -4.876  1.00 20.00    -0.013 C 
HETATM    6  C6  UNL     1     -33.792  16.127  -3.363  1.00 20.00    -0.031 C 
ENDROOT
BRANCH   6   7
HETATM    7  C7  UNL     1     -32.982  17.093  -2.548  1.00 20.00     0.094 C 
HETATM    8 BR8  UNL     1     -34.041  17.770  -1.060  1.00 20.00    -0.096 Br
ENDBRANCH   6   7
TORSDOF 1
ENDMDL
