MODEL 1
REMARK VINA RESULT:      -4.1      0.000      0.000
REMARK  2 active torsions:
REMARK  status: ('A' for Active; 'I' for Inactive)
REMARK    1  A    between atoms: C1_1  and  C3_3 
REMARK    2  A    between atoms: C3_3  and  C4_4 
ROOT
HETATM    1  C1  UNL     1     -33.195   6.300   2.946  1.00 20.00     0.078 C 
HETATM    2  S5  UNL     1     -32.410   7.430   2.011  1.00 20.00    -0.072 SA
HETATM    3 CL6  UNL     1     -33.143   4.663   2.450  1.00 20.00    -0.076 Cl
ENDROOT
BRANCH   1   4
HETATM    4  C3  UNL     1     -33.934   6.614   4.221  1.00 20.00     0.063 C 
BRANCH   4   5
HETATM    5  C4  UNL     1     -34.879   5.476   4.602  1.00 20.00     0.002 C 
HETATM    6  C2  UNL     1     -34.757   5.122   6.076  1.00 20.00     0.005 C 
ENDBRANCH   4   5
ENDBRANCH   1   4
TORSDOF 2
ENDMDL
MODEL 2
REMARK VINA RESULT:      -3.8      1.672      1.672
REMARK  2 active torsions:
REMARK  status: ('A' for Active; 'I' for Inactive)
REMARK    1  A    between atoms: C1_1  and  C3_3 
REMARK    2  A    between atoms: C3_3  and  C4_4 
ROOT
HETATM    1  C1  UNL     1     -33.211   6.247   2.998  1.00 20.00     0.078 C 
HETATM    2  S5  UNL     1     -33.177   4.704   2.373  1.00 20.00    -0.072 SA
HETATM    3 CL6  UNL     1     -32.355   7.473   2.166  1.00 20.00    -0.076 Cl
ENDROOT
BRANCH   1   4
HETATM    4  C3  UNL     1     -33.966   6.647   4.237  1.00 20.00     0.063 C 
BRANCH   4   5
HETATM    5  C4  UNL     1     -34.940   5.550   4.665  1.00 20.00     0.002 C 
HETATM    6  C2  UNL     1     -34.751   5.178   6.127  1.00 20.00     0.005 C 
ENDBRANCH   4   5
ENDBRANCH   1   4
TORSDOF 2
ENDMDL
MODEL 3
REMARK VINA RESULT:      -3.6      2.654      3.840
REMARK  2 active torsions:
REMARK  status: ('A' for Active; 'I' for Inactive)
REMARK    1  A    between atoms: C1_1  and  C3_3 
REMARK    2  A    between atoms: C3_3  and  C4_4 
ROOT
HETATM    1  C1  UNL     1     -33.894   6.064   4.121  1.00 20.00     0.078 C 
HETATM    2  S5  UNL     1     -35.137   5.037   4.534  1.00 20.00    -0.072 SA
HETATM    3 CL6  UNL     1     -33.355   7.192   5.290  1.00 20.00    -0.076 Cl
ENDROOT
BRANCH   1   4
HETATM    4  C3  UNL     1     -33.188   6.054   2.791  1.00 20.00     0.063 C 
BRANCH   4   5
HETATM    5  C4  UNL     1     -32.302   7.289   2.630  1.00 20.00     0.002 C 
HETATM    6  C2  UNL     1     -32.564   7.993   1.309  1.00 20.00     0.005 C 
ENDBRANCH   4   5
ENDBRANCH   1   4
TORSDOF 2
ENDMDL
MODEL 4
REMARK VINA RESULT:      -3.5      2.279      3.524
REMARK  2 active torsions:
REMARK  status: ('A' for Active; 'I' for Inactive)
REMARK    1  A    between atoms: C1_1  and  C3_3 
REMARK    2  A    between atoms: C3_3  and  C4_4 
ROOT
HETATM    1  C1  UNL     1     -34.119   6.004   4.251  1.00 20.00     0.078 C 
HETATM    2  S5  UNL     1     -33.683   6.884   5.595  1.00 20.00    -0.072 SA
HETATM    3 CL6  UNL     1     -35.603   5.154   4.289  1.00 20.00    -0.076 Cl
ENDROOT
BRANCH   1   4
HETATM    4  C3  UNL     1     -33.306   5.924   2.986  1.00 20.00     0.063 C 
BRANCH   4   5
HETATM    5  C4  UNL     1     -32.352   7.111   2.869  1.00 20.00     0.002 C 
HETATM    6  C2  UNL     1     -32.508   7.821   1.533  1.00 20.00     0.005 C 
ENDBRANCH   4   5
ENDBRANCH   1   4
TORSDOF 2
ENDMDL
MODEL 5
REMARK VINA RESULT:      -3.5      2.255      3.504
REMARK  2 active torsions:
REMARK  status: ('A' for Active; 'I' for Inactive)
REMARK    1  A    between atoms: C1_1  and  C3_3 
REMARK    2  A    between atoms: C3_3  and  C4_4 
ROOT
HETATM    1  C1  UNL     1     -33.717   5.696   3.444  1.00 20.00     0.078 C 
HETATM    2  S5  UNL     1     -34.953   5.302   4.488  1.00 20.00    -0.072 SA
HETATM    3 CL6  UNL     1     -33.159   4.492   2.364  1.00 20.00    -0.076 Cl
ENDROOT
BRANCH   1   4
HETATM    4  C3  UNL     1     -33.069   7.052   3.366  1.00 20.00     0.063 C 
BRANCH   4   5
HETATM    5  C4  UNL     1     -32.254   7.198   2.082  1.00 20.00     0.002 C 
HETATM    6  C2  UNL     1     -32.809   8.301   1.194  1.00 20.00     0.005 C 
ENDBRANCH   4   5
ENDBRANCH   1   4
TORSDOF 2
ENDMDL
MODEL 6
REMARK VINA RESULT:      -3.4      1.662      1.679
REMARK  2 active torsions:
REMARK  status: ('A' for Active; 'I' for Inactive)
REMARK    1  A    between atoms: C1_1  and  C3_3 
REMARK    2  A    between atoms: C3_3  and  C4_4 
ROOT
HETATM    1  C1  UNL     1     -33.218   6.561   3.514  1.00 20.00     0.078 C 
HETATM    2  S5  UNL     1     -32.517   7.264   2.178  1.00 20.00    -0.072 SA
HETATM    3 CL6  UNL     1     -33.061   7.356   5.021  1.00 20.00    -0.076 Cl
ENDROOT
BRANCH   1   4
HETATM    4  C3  UNL     1     -34.008   5.279   3.485  1.00 20.00     0.063 C 
BRANCH   4   5
HETATM    5  C4  UNL     1     -35.213   5.355   4.421  1.00 20.00     0.002 C 
HETATM    6  C2  UNL     1     -34.843   4.950   5.839  1.00 20.00     0.005 C 
ENDBRANCH   4   5
ENDBRANCH   1   4
TORSDOF 2
ENDMDL
MODEL 7
REMARK VINA RESULT:      -3.1      9.085      9.462
REMARK  2 active torsions:
REMARK  status: ('A' for Active; 'I' for Inactive)
REMARK    1  A    between atoms: C1_1  and  C3_3 
REMARK    2  A    between atoms: C3_3  and  C4_4 
ROOT
HETATM    1  C1  UNL     1     -41.678   6.107   0.292  1.00 20.00     0.078 C 
HETATM    2  S5  UNL     1     -42.881   5.243   1.051  1.00 20.00    -0.072 SA
HETATM    3 CL6  UNL     1     -40.921   5.408  -1.074  1.00 20.00    -0.076 Cl
ENDROOT
BRANCH   1   4
HETATM    4  C3  UNL     1     -41.221   7.480   0.711  1.00 20.00     0.063 C 
BRANCH   4   5
HETATM    5  C4  UNL     1     -41.582   8.524  -0.344  1.00 20.00     0.002 C 
HETATM    6  C2  UNL     1     -43.082   8.774  -0.388  1.00 20.00     0.005 C 
ENDBRANCH   4   5
ENDBRANCH   1   4
TORSDOF 2
ENDMDL
MODEL 8
REMARK VINA RESULT:      -3.0     16.804     17.234
REMARK  2 active torsions:
REMARK  status: ('A' for Active; 'I' for Inactive)
REMARK    1  A    between atoms: C1_1  and  C3_3 
REMARK    2  A    between atoms: C3_3  and  C4_4 
ROOT
HETATM    1  C1  UNL     1     -23.409  16.899  11.096  1.00 20.00     0.078 C 
HETATM    2  S5  UNL     1     -22.712  17.795  12.314  1.00 20.00    -0.072 SA
HETATM    3 CL6  UNL     1     -24.616  15.762  11.520  1.00 20.00    -0.076 Cl
ENDROOT
BRANCH   1   4
HETATM    4  C3  UNL     1     -23.068  17.037   9.636  1.00 20.00     0.063 C 
BRANCH   4   5
HETATM    5  C4  UNL     1     -22.680  18.475   9.296  1.00 20.00     0.002 C 
HETATM    6  C2  UNL     1     -23.869  19.263   8.769  1.00 20.00     0.005 C 
ENDBRANCH   4   5
ENDBRANCH   1   4
TORSDOF 2
ENDMDL
MODEL 9
REMARK VINA RESULT:      -3.0     17.031     17.427
REMARK  2 active torsions:
REMARK  status: ('A' for Active; 'I' for Inactive)
REMARK    1  A    between atoms: C1_1  and  C3_3 
REMARK    2  A    between atoms: C3_3  and  C4_4 
ROOT
HETATM    1  C1  UNL     1     -23.348  16.957  11.140  1.00 20.00     0.078 C 
HETATM    2  S5  UNL     1     -24.647  16.056  11.660  1.00 20.00    -0.072 SA
HETATM    3 CL6  UNL     1     -22.442  17.817  12.310  1.00 20.00    -0.076 Cl
ENDROOT
BRANCH   1   4
HETATM    4  C3  UNL     1     -22.895  17.051   9.707  1.00 20.00     0.063 C 
BRANCH   4   5
HETATM    5  C4  UNL     1     -22.555  18.493   9.332  1.00 20.00     0.002 C 
HETATM    6  C2  UNL     1     -23.781  19.243   8.837  1.00 20.00     0.005 C 
ENDBRANCH   4   5
ENDBRANCH   1   4
TORSDOF 2
ENDMDL
