MODEL 1
REMARK VINA RESULT:      -3.3      0.000      0.000
REMARK  3 active torsions:
REMARK  status: ('A' for Active; 'I' for Inactive)
REMARK    1  A    between atoms: C3_3  and  C5_5 
REMARK    2  A    between atoms: C5_5  and  C6_6 
REMARK    3  A    between atoms: C6_6  and  S9_9 
ROOT
HETATM    1  C1  UNL     1     -24.649  15.695  11.616  1.00 20.00     0.179 C 
HETATM    2  C2  UNL     1     -25.566  16.752  12.203  1.00 20.00     0.103 C 
HETATM    3  C3  UNL     1     -23.356  17.538  11.075  1.00 20.00     0.183 C 
HETATM    4  O7  UNL     1     -23.887  16.306  10.568  1.00 20.00    -0.375 OA
HETATM    5  S8  UNL     1     -24.488  18.189  12.331  1.00 20.00    -0.135 SA
ENDROOT
BRANCH   3   6
HETATM    6  C5  UNL     1     -23.190  18.510   9.922  1.00 20.00     0.057 C 
BRANCH   6   7
HETATM    7  C6  UNL     1     -23.371  17.870   8.537  1.00 20.00     0.043 C 
HETATM    8  C4  UNL     1     -24.095  18.824   7.589  1.00 20.00     0.021 C 
BRANCH   7   9
HETATM    9  S9  UNL     1     -21.769  17.405   7.787  1.00 20.00    -0.178 SA
HETATM   10  H21 UNL     1     -21.361  18.660   7.567  1.00 20.00     0.102 HD
ENDBRANCH   7   9
ENDBRANCH   6   7
ENDBRANCH   3   6
TORSDOF 3
ENDMDL
MODEL 2
REMARK VINA RESULT:      -3.3     18.650     19.926
REMARK  3 active torsions:
REMARK  status: ('A' for Active; 'I' for Inactive)
REMARK    1  A    between atoms: C3_3  and  C5_5 
REMARK    2  A    between atoms: C5_5  and  C6_6 
REMARK    3  A    between atoms: C6_6  and  S9_9 
ROOT
HETATM    1  C1  UNL     1     -39.265  14.851  -4.123  1.00 20.00     0.179 C 
HETATM    2  C2  UNL     1     -38.888  16.218  -4.666  1.00 20.00     0.103 C 
HETATM    3  C3  UNL     1     -36.968  14.560  -4.082  1.00 20.00     0.183 C 
HETATM    4  O7  UNL     1     -38.208  13.941  -4.450  1.00 20.00    -0.375 OA
HETATM    5  S8  UNL     1     -37.149  16.358  -4.222  1.00 20.00    -0.135 SA
ENDROOT
BRANCH   3   6
HETATM    6  C5  UNL     1     -35.872  14.042  -4.995  1.00 20.00     0.057 C 
BRANCH   6   7
HETATM    7  C6  UNL     1     -34.688  15.008  -5.156  1.00 20.00     0.043 C 
HETATM    8  C4  UNL     1     -33.483  14.528  -4.350  1.00 20.00     0.021 C 
BRANCH   7   9
HETATM    9  S9  UNL     1     -34.188  15.186  -6.906  1.00 20.00    -0.178 SA
HETATM   10  H21 UNL     1     -32.910  14.838  -6.710  1.00 20.00     0.102 HD
ENDBRANCH   7   9
ENDBRANCH   6   7
ENDBRANCH   3   6
TORSDOF 3
ENDMDL
MODEL 3
REMARK VINA RESULT:      -3.2     17.113     18.723
REMARK  3 active torsions:
REMARK  status: ('A' for Active; 'I' for Inactive)
REMARK    1  A    between atoms: C3_3  and  C5_5 
REMARK    2  A    between atoms: C5_5  and  C6_6 
REMARK    3  A    between atoms: C6_6  and  S9_9 
ROOT
HETATM    1  C1  UNL     1     -34.024  15.101  -7.013  1.00 20.00     0.179 C 
HETATM    2  C2  UNL     1     -34.752  16.425  -6.865  1.00 20.00     0.103 C 
HETATM    3  C3  UNL     1     -35.000  14.672  -4.957  1.00 20.00     0.183 C 
HETATM    4  O7  UNL     1     -33.776  14.587  -5.698  1.00 20.00    -0.375 OA
HETATM    5  S8  UNL     1     -35.965  16.073  -5.582  1.00 20.00    -0.135 SA
ENDROOT
BRANCH   3   6
HETATM    6  C5  UNL     1     -34.670  14.841  -3.485  1.00 20.00     0.057 C 
BRANCH   6   7
HETATM    7  C6  UNL     1     -34.705  16.299  -3.003  1.00 20.00     0.043 C 
HETATM    8  C4  UNL     1     -35.137  16.377  -1.540  1.00 20.00     0.021 C 
BRANCH   7   9
HETATM    9  S9  UNL     1     -33.076  17.113  -3.175  1.00 20.00    -0.178 SA
HETATM   10  H21 UNL     1     -33.088  17.140  -4.514  1.00 20.00     0.102 HD
ENDBRANCH   7   9
ENDBRANCH   6   7
ENDBRANCH   3   6
TORSDOF 3
ENDMDL
MODEL 4
REMARK VINA RESULT:      -3.1     16.491     17.954
REMARK  3 active torsions:
REMARK  status: ('A' for Active; 'I' for Inactive)
REMARK    1  A    between atoms: C3_3  and  C5_5 
REMARK    2  A    between atoms: C5_5  and  C6_6 
REMARK    3  A    between atoms: C6_6  and  S9_9 
ROOT
HETATM    1  C1  UNL     1     -36.011  13.586  -4.609  1.00 20.00     0.179 C 
HETATM    2  C2  UNL     1     -35.917  14.469  -5.840  1.00 20.00     0.103 C 
HETATM    3  C3  UNL     1     -34.857  15.337  -3.627  1.00 20.00     0.183 C 
HETATM    4  O7  UNL     1     -34.910  13.910  -3.750  1.00 20.00    -0.375 OA
HETATM    5  S8  UNL     1     -35.509  16.079  -5.146  1.00 20.00    -0.135 SA
ENDROOT
BRANCH   3   6
HETATM    6  C5  UNL     1     -33.419  15.754  -3.381  1.00 20.00     0.057 C 
BRANCH   6   7
HETATM    7  C6  UNL     1     -33.265  16.865  -2.331  1.00 20.00     0.043 C 
HETATM    8  C4  UNL     1     -32.879  18.187  -2.991  1.00 20.00     0.021 C 
BRANCH   7   9
HETATM    9  S9  UNL     1     -34.803  17.117  -1.373  1.00 20.00    -0.178 SA
HETATM   10  H21 UNL     1     -35.114  18.290  -1.937  1.00 20.00     0.102 HD
ENDBRANCH   7   9
ENDBRANCH   6   7
ENDBRANCH   3   6
TORSDOF 3
ENDMDL
MODEL 5
REMARK VINA RESULT:      -3.1     16.948     18.436
REMARK  3 active torsions:
REMARK  status: ('A' for Active; 'I' for Inactive)
REMARK    1  A    between atoms: C3_3  and  C5_5 
REMARK    2  A    between atoms: C5_5  and  C6_6 
REMARK    3  A    between atoms: C6_6  and  S9_9 
ROOT
HETATM    1  C1  UNL     1     -34.534  14.922  -6.383  1.00 20.00     0.179 C 
HETATM    2  C2  UNL     1     -35.940  14.653  -5.877  1.00 20.00     0.103 C 
HETATM    3  C3  UNL     1     -34.023  14.848  -4.126  1.00 20.00     0.183 C 
HETATM    4  O7  UNL     1     -33.809  15.582  -5.339  1.00 20.00    -0.375 OA
HETATM    5  S8  UNL     1     -35.653  14.059  -4.201  1.00 20.00    -0.135 SA
ENDROOT
BRANCH   3   6
HETATM    6  C5  UNL     1     -33.925  15.803  -2.951  1.00 20.00     0.057 C 
BRANCH   6   7
HETATM    7  C6  UNL     1     -35.276  16.384  -2.507  1.00 20.00     0.043 C 
HETATM    8  C4  UNL     1     -35.250  16.747  -1.024  1.00 20.00     0.021 C 
BRANCH   7   9
HETATM    9  S9  UNL     1     -35.724  17.876  -3.466  1.00 20.00    -0.178 SA
HETATM   10  H21 UNL     1     -34.823  17.681  -4.436  1.00 20.00     0.102 HD
ENDBRANCH   7   9
ENDBRANCH   6   7
ENDBRANCH   3   6
TORSDOF 3
ENDMDL
MODEL 6
REMARK VINA RESULT:      -3.0     16.501     17.801
REMARK  3 active torsions:
REMARK  status: ('A' for Active; 'I' for Inactive)
REMARK    1  A    between atoms: C3_3  and  C5_5 
REMARK    2  A    between atoms: C5_5  and  C6_6 
REMARK    3  A    between atoms: C6_6  and  S9_9 
ROOT
HETATM    1  C1  UNL     1     -34.928  17.123  -1.552  1.00 20.00     0.179 C 
HETATM    2  C2  UNL     1     -34.986  18.121  -2.694  1.00 20.00     0.103 C 
HETATM    3  C3  UNL     1     -33.536  15.983  -3.009  1.00 20.00     0.183 C 
HETATM    4  O7  UNL     1     -34.642  15.834  -2.109  1.00 20.00    -0.375 OA
HETATM    5  S8  UNL     1     -33.568  17.657  -3.702  1.00 20.00    -0.135 SA
ENDROOT
BRANCH   3   6
HETATM    6  C5  UNL     1     -33.646  14.932  -4.098  1.00 20.00     0.057 C 
BRANCH   6   7
HETATM    7  C6  UNL     1     -34.851  15.127  -5.032  1.00 20.00     0.043 C 
HETATM    8  C4  UNL     1     -34.428  15.020  -6.495  1.00 20.00     0.021 C 
BRANCH   7   9
HETATM    9  S9  UNL     1     -36.167  13.897  -4.712  1.00 20.00    -0.178 SA
HETATM   10  H21 UNL     1     -35.335  12.864  -4.529  1.00 20.00     0.102 HD
ENDBRANCH   7   9
ENDBRANCH   6   7
ENDBRANCH   3   6
TORSDOF 3
ENDMDL
MODEL 7
REMARK VINA RESULT:      -3.0     16.942     18.404
REMARK  3 active torsions:
REMARK  status: ('A' for Active; 'I' for Inactive)
REMARK    1  A    between atoms: C3_3  and  C5_5 
REMARK    2  A    between atoms: C5_5  and  C6_6 
REMARK    3  A    between atoms: C6_6  and  S9_9 
ROOT
HETATM    1  C1  UNL     1     -35.588  14.478  -6.313  1.00 20.00     0.179 C 
HETATM    2  C2  UNL     1     -36.580  15.317  -5.527  1.00 20.00     0.103 C 
HETATM    3  C3  UNL     1     -34.375  14.597  -4.344  1.00 20.00     0.183 C 
HETATM    4  O7  UNL     1     -34.283  14.716  -5.770  1.00 20.00    -0.375 OA
HETATM    5  S8  UNL     1     -36.044  15.076  -3.825  1.00 20.00    -0.135 SA
ENDROOT
BRANCH   3   6
HETATM    6  C5  UNL     1     -33.322  15.487  -3.710  1.00 20.00     0.057 C 
BRANCH   6   7
HETATM    7  C6  UNL     1     -33.865  16.836  -3.212  1.00 20.00     0.043 C 
HETATM    8  C4  UNL     1     -33.073  17.327  -2.002  1.00 20.00     0.021 C 
BRANCH   7   9
HETATM    9  S9  UNL     1     -33.799  18.120  -4.514  1.00 20.00    -0.178 SA
HETATM   10  H21 UNL     1     -34.332  19.091  -3.763  1.00 20.00     0.102 HD
ENDBRANCH   7   9
ENDBRANCH   6   7
ENDBRANCH   3   6
TORSDOF 3
ENDMDL
MODEL 8
REMARK VINA RESULT:      -3.0     15.336     16.685
REMARK  3 active torsions:
REMARK  status: ('A' for Active; 'I' for Inactive)
REMARK    1  A    between atoms: C3_3  and  C5_5 
REMARK    2  A    between atoms: C5_5  and  C6_6 
REMARK    3  A    between atoms: C6_6  and  S9_9 
ROOT
HETATM    1  C1  UNL     1     -32.627  18.271  -1.426  1.00 20.00     0.179 C 
HETATM    2  C2  UNL     1     -33.544  18.203  -0.218  1.00 20.00     0.103 C 
HETATM    3  C3  UNL     1     -34.324  17.044  -2.415  1.00 20.00     0.183 C 
HETATM    4  O7  UNL     1     -32.902  17.133  -2.253  1.00 20.00    -0.375 OA
HETATM    5  S8  UNL     1     -35.125  17.735  -0.943  1.00 20.00    -0.135 SA
ENDROOT
BRANCH   3   6
HETATM    6  C5  UNL     1     -34.703  15.589  -2.620  1.00 20.00     0.057 C 
BRANCH   6   7
HETATM    7  C6  UNL     1     -34.667  15.137  -4.088  1.00 20.00     0.043 C 
HETATM    8  C4  UNL     1     -33.335  14.465  -4.416  1.00 20.00     0.021 C 
BRANCH   7   9
HETATM    9  S9  UNL     1     -36.021  13.971  -4.476  1.00 20.00    -0.178 SA
HETATM   10  H21 UNL     1     -35.243  13.070  -5.088  1.00 20.00     0.102 HD
ENDBRANCH   7   9
ENDBRANCH   6   7
ENDBRANCH   3   6
TORSDOF 3
ENDMDL
MODEL 9
REMARK VINA RESULT:      -3.0     17.039     18.663
REMARK  3 active torsions:
REMARK  status: ('A' for Active; 'I' for Inactive)
REMARK    1  A    between atoms: C3_3  and  C5_5 
REMARK    2  A    between atoms: C5_5  and  C6_6 
REMARK    3  A    between atoms: C6_6  and  S9_9 
ROOT
HETATM    1  C1  UNL     1     -35.538  14.685  -6.758  1.00 20.00     0.179 C 
HETATM    2  C2  UNL     1     -34.953  15.953  -7.354  1.00 20.00     0.103 C 
HETATM    3  C3  UNL     1     -34.694  15.572  -4.792  1.00 20.00     0.183 C 
HETATM    4  O7  UNL     1     -34.795  14.373  -5.572  1.00 20.00    -0.375 OA
HETATM    5  S8  UNL     1     -34.712  16.999  -5.909  1.00 20.00    -0.135 SA
ENDROOT
BRANCH   3   6
HETATM    6  C5  UNL     1     -33.413  15.521  -3.981  1.00 20.00     0.057 C 
BRANCH   6   7
HETATM    7  C6  UNL     1     -33.515  16.212  -2.612  1.00 20.00     0.043 C 
HETATM    8  C4  UNL     1     -32.893  17.606  -2.660  1.00 20.00     0.021 C 
BRANCH   7   9
HETATM    9  S9  UNL     1     -35.250  16.365  -2.054  1.00 20.00    -0.178 SA
HETATM   10  H21 UNL     1     -35.082  17.540  -1.434  1.00 20.00     0.102 HD
ENDBRANCH   7   9
ENDBRANCH   6   7
ENDBRANCH   3   6
TORSDOF 3
ENDMDL
