MODEL 1
REMARK VINA RESULT:      -3.7      0.000      0.000
REMARK  1 active torsions:
REMARK  status: ('A' for Active; 'I' for Inactive)
REMARK    1  A    between atoms: C3_3  and  C4_4 
ROOT
HETATM    1  C1  UNL     1     -22.493  17.802   8.697  1.00 20.00     0.149 A 
HETATM    2  C2  UNL     1     -23.261  18.142   9.790  1.00 20.00     0.093 A 
HETATM    3  C3  UNL     1     -24.167  18.748   7.641  1.00 20.00     0.089 A 
HETATM    4  N5  UNL     1     -23.010  18.149   7.463  1.00 20.00    -0.255 NA
HETATM    5  S6  UNL     1     -24.691  18.928   9.266  1.00 20.00    -0.060 SA
HETATM    6 CL7  UNL     1     -22.948  17.879  11.447  1.00 20.00    -0.075 Cl
ENDROOT
BRANCH   3   7
HETATM    7  C4  UNL     1     -25.020  19.263   6.549  1.00 20.00     0.181 C 
HETATM    8 CL8  UNL     1     -26.673  18.605   6.663  1.00 20.00    -0.123 Cl
ENDBRANCH   3   7
TORSDOF 1
ENDMDL
MODEL 2
REMARK VINA RESULT:      -3.6     15.768     16.383
REMARK  1 active torsions:
REMARK  status: ('A' for Active; 'I' for Inactive)
REMARK    1  A    between atoms: C3_3  and  C4_4 
ROOT
HETATM    1  C1  UNL     1     -34.096   4.830   3.404  1.00 20.00     0.149 A 
HETATM    2  C2  UNL     1     -34.260   5.576   4.552  1.00 20.00     0.093 A 
HETATM    3  C3  UNL     1     -32.924   6.590   2.822  1.00 20.00     0.089 A 
HETATM    4  N5  UNL     1     -33.329   5.409   2.411  1.00 20.00    -0.255 NA
HETATM    5  S6  UNL     1     -33.425   7.065   4.393  1.00 20.00    -0.060 SA
HETATM    6 CL7  UNL     1     -35.128   5.190   5.970  1.00 20.00    -0.075 Cl
ENDROOT
BRANCH   3   7
HETATM    7  C4  UNL     1     -32.079   7.509   2.029  1.00 20.00     0.181 C 
HETATM    8 CL8  UNL     1     -33.050   8.384   0.817  1.00 20.00    -0.123 Cl
ENDBRANCH   3   7
TORSDOF 1
ENDMDL
MODEL 3
REMARK VINA RESULT:      -3.6      3.328      3.649
REMARK  1 active torsions:
REMARK  status: ('A' for Active; 'I' for Inactive)
REMARK    1  A    between atoms: C3_3  and  C4_4 
ROOT
HETATM    1  C1  UNL     1     -23.652  17.673  12.295  1.00 20.00     0.149 A 
HETATM    2  C2  UNL     1     -24.765  17.970  11.538  1.00 20.00     0.093 A 
HETATM    3  C3  UNL     1     -22.654  18.050  10.380  1.00 20.00     0.089 A 
HETATM    4  N5  UNL     1     -22.441  17.718  11.634  1.00 20.00    -0.255 NA
HETATM    5  S6  UNL     1     -24.287  18.323   9.929  1.00 20.00    -0.060 SA
HETATM    6 CL7  UNL     1     -26.405  18.015  12.007  1.00 20.00    -0.075 Cl
ENDROOT
BRANCH   3   7
HETATM    7  C4  UNL     1     -21.592  18.198   9.360  1.00 20.00     0.181 C 
HETATM    8 CL8  UNL     1     -22.024  17.343   7.857  1.00 20.00    -0.123 Cl
ENDBRANCH   3   7
TORSDOF 1
ENDMDL
MODEL 4
REMARK VINA RESULT:      -3.5     15.392     16.659
REMARK  1 active torsions:
REMARK  status: ('A' for Active; 'I' for Inactive)
REMARK    1  A    between atoms: C3_3  and  C4_4 
ROOT
HETATM    1  C1  UNL     1     -33.018  15.096  -4.079  1.00 20.00     0.149 A 
HETATM    2  C2  UNL     1     -33.582  15.942  -3.148  1.00 20.00     0.093 A 
HETATM    3  C3  UNL     1     -35.085  14.368  -4.180  1.00 20.00     0.089 A 
HETATM    4  N5  UNL     1     -33.878  14.192  -4.672  1.00 20.00    -0.255 NA
HETATM    5  S6  UNL     1     -35.256  15.603  -3.000  1.00 20.00    -0.060 SA
HETATM    6 CL7  UNL     1     -32.840  17.171  -2.224  1.00 20.00    -0.075 Cl
ENDROOT
BRANCH   3   7
HETATM    7  C4  UNL     1     -36.273  13.581  -4.575  1.00 20.00     0.181 C 
HETATM    8 CL8  UNL     1     -37.773  14.500  -4.287  1.00 20.00    -0.123 Cl
ENDBRANCH   3   7
TORSDOF 1
ENDMDL
MODEL 5
REMARK VINA RESULT:      -3.4      1.700      3.873
REMARK  1 active torsions:
REMARK  status: ('A' for Active; 'I' for Inactive)
REMARK    1  A    between atoms: C3_3  and  C4_4 
ROOT
HETATM    1  C1  UNL     1     -22.712  17.767   8.208  1.00 20.00     0.149 A 
HETATM    2  C2  UNL     1     -23.894  18.475   8.155  1.00 20.00     0.093 A 
HETATM    3  C3  UNL     1     -23.319  17.551  10.304  1.00 20.00     0.089 A 
HETATM    4  N5  UNL     1     -22.381  17.236   9.440  1.00 20.00    -0.255 NA
HETATM    5  S6  UNL     1     -24.630  18.483   9.704  1.00 20.00    -0.060 SA
HETATM    6 CL7  UNL     1     -24.616  19.263   6.824  1.00 20.00    -0.075 Cl
ENDROOT
BRANCH   3   7
HETATM    7  C4  UNL     1     -23.312  17.157  11.730  1.00 20.00     0.181 C 
HETATM    8 CL8  UNL     1     -24.451  15.819  12.030  1.00 20.00    -0.123 Cl
ENDBRANCH   3   7
TORSDOF 1
ENDMDL
MODEL 6
REMARK VINA RESULT:      -3.4     15.832     17.543
REMARK  1 active torsions:
REMARK  status: ('A' for Active; 'I' for Inactive)
REMARK    1  A    between atoms: C3_3  and  C4_4 
ROOT
HETATM    1  C1  UNL     1     -36.192  13.546  -4.572  1.00 20.00     0.149 A 
HETATM    2  C2  UNL     1     -37.011  14.586  -4.186  1.00 20.00     0.093 A 
HETATM    3  C3  UNL     1     -34.644  14.962  -3.934  1.00 20.00     0.089 A 
HETATM    4  N5  UNL     1     -34.835  13.759  -4.428  1.00 20.00    -0.255 NA
HETATM    5  S6  UNL     1     -36.053  15.890  -3.617  1.00 20.00    -0.060 SA
HETATM    6 CL7  UNL     1     -38.714  14.683  -4.218  1.00 20.00    -0.075 Cl
ENDROOT
BRANCH   3   7
HETATM    7  C4  UNL     1     -33.318  15.547  -3.642  1.00 20.00     0.181 C 
HETATM    8 CL8  UNL     1     -33.419  16.731  -2.313  1.00 20.00    -0.123 Cl
ENDBRANCH   3   7
TORSDOF 1
ENDMDL
MODEL 7
REMARK VINA RESULT:      -3.3     10.416     11.613
REMARK  1 active torsions:
REMARK  status: ('A' for Active; 'I' for Inactive)
REMARK    1  A    between atoms: C3_3  and  C4_4 
ROOT
HETATM    1  C1  UNL     1     -30.612  18.352   0.969  1.00 20.00     0.149 A 
HETATM    2  C2  UNL     1     -31.821  18.408   1.629  1.00 20.00     0.093 A 
HETATM    3  C3  UNL     1     -31.939  18.397  -0.777  1.00 20.00     0.089 A 
HETATM    4  N5  UNL     1     -30.677  18.346  -0.411  1.00 20.00    -0.255 NA
HETATM    5  S6  UNL     1     -33.099  18.455   0.487  1.00 20.00    -0.060 SA
HETATM    6 CL7  UNL     1     -32.129  18.432   3.308  1.00 20.00    -0.075 Cl
ENDROOT
BRANCH   3   7
HETATM    7  C4  UNL     1     -32.404  18.408  -2.181  1.00 20.00     0.181 C 
HETATM    8 CL8  UNL     1     -33.020  16.806  -2.663  1.00 20.00    -0.123 Cl
ENDBRANCH   3   7
TORSDOF 1
ENDMDL
MODEL 8
REMARK VINA RESULT:      -3.3     14.416     15.980
REMARK  1 active torsions:
REMARK  status: ('A' for Active; 'I' for Inactive)
REMARK    1  A    between atoms: C3_3  and  C4_4 
ROOT
HETATM    1  C1  UNL     1     -33.610  14.552  -4.339  1.00 20.00     0.149 A 
HETATM    2  C2  UNL     1     -34.930  14.531  -3.940  1.00 20.00     0.093 A 
HETATM    3  C3  UNL     1     -33.549  16.217  -2.912  1.00 20.00     0.089 A 
HETATM    4  N5  UNL     1     -32.816  15.518  -3.751  1.00 20.00    -0.255 NA
HETATM    5  S6  UNL     1     -35.199  15.766  -2.780  1.00 20.00    -0.060 SA
HETATM    6 CL7  UNL     1     -36.189  13.494  -4.442  1.00 20.00    -0.075 Cl
ENDROOT
BRANCH   3   7
HETATM    7  C4  UNL     1     -33.043  17.341  -2.095  1.00 20.00     0.181 C 
HETATM    8 CL8  UNL     1     -34.133  17.677  -0.724  1.00 20.00    -0.123 Cl
ENDBRANCH   3   7
TORSDOF 1
ENDMDL
MODEL 9
REMARK VINA RESULT:      -3.2     17.362     18.384
REMARK  1 active torsions:
REMARK  status: ('A' for Active; 'I' for Inactive)
REMARK    1  A    between atoms: C3_3  and  C4_4 
ROOT
HETATM    1  C1  UNL     1     -35.959  13.635  -4.415  1.00 20.00     0.149 A 
HETATM    2  C2  UNL     1     -35.373  14.811  -3.999  1.00 20.00     0.093 A 
HETATM    3  C3  UNL     1     -37.772  14.853  -4.218  1.00 20.00     0.089 A 
HETATM    4  N5  UNL     1     -37.335  13.657  -4.542  1.00 20.00    -0.255 NA
HETATM    5  S6  UNL     1     -36.583  16.001  -3.752  1.00 20.00    -0.060 SA
HETATM    6 CL7  UNL     1     -33.722  15.155  -3.734  1.00 20.00    -0.075 Cl
ENDROOT
BRANCH   3   7
HETATM    7  C4  UNL     1     -39.195  15.257  -4.232  1.00 20.00     0.181 C 
HETATM    8 CL8  UNL     1     -39.414  16.854  -3.469  1.00 20.00    -0.123 Cl
ENDBRANCH   3   7
TORSDOF 1
ENDMDL
