MODEL 1
REMARK VINA RESULT:      -4.4      0.000      0.000
REMARK  1 active torsions:
REMARK  status: ('A' for Active; 'I' for Inactive)
REMARK    1  A    between atoms: C2_2  and  C3_3 
ROOT
HETATM    1  C1  UNL     1     -33.276   6.159   2.996  1.00 20.00     0.018 C 
HETATM    2  C2  UNL     1     -33.745   6.202   4.249  1.00 20.00     0.188 C 
HETATM    3  C4  UNL     1     -32.446   7.236   2.376  1.00 20.00     0.039 C 
HETATM    4  F7  UNL     1     -33.462   7.277   5.021  1.00 20.00    -0.199 F 
ENDROOT
BRANCH   2   5
HETATM    5  C3  UNL     1     -34.597   5.074   4.853  1.00 20.00     0.238 C 
HETATM    6  O5  UNL     1     -34.700   4.052   4.115  1.00 20.00    -0.642 OA
HETATM    7  O6  UNL     1     -35.092   5.283   5.996  1.00 20.00    -0.642 OA
ENDBRANCH   2   5
TORSDOF 1
ENDMDL
MODEL 2
REMARK VINA RESULT:      -4.3      2.923      3.808
REMARK  1 active torsions:
REMARK  status: ('A' for Active; 'I' for Inactive)
REMARK    1  A    between atoms: C2_2  and  C3_3 
ROOT
HETATM    1  C1  UNL     1     -34.160   6.102   4.138  1.00 20.00     0.018 C 
HETATM    2  C2  UNL     1     -33.346   6.024   3.077  1.00 20.00     0.188 C 
HETATM    3  C4  UNL     1     -35.062   4.995   4.582  1.00 20.00     0.039 C 
HETATM    4  F7  UNL     1     -33.322   4.884   2.348  1.00 20.00    -0.199 F 
ENDROOT
BRANCH   2   5
HETATM    5  C3  UNL     1     -32.432   7.184   2.650  1.00 20.00     0.238 C 
HETATM    6  O5  UNL     1     -31.608   7.548   3.539  1.00 20.00    -0.642 OA
HETATM    7  O6  UNL     1     -32.597   7.639   1.484  1.00 20.00    -0.642 OA
ENDBRANCH   2   5
TORSDOF 1
ENDMDL
MODEL 3
REMARK VINA RESULT:      -4.2     12.007     12.375
REMARK  1 active torsions:
REMARK  status: ('A' for Active; 'I' for Inactive)
REMARK    1  A    between atoms: C2_2  and  C3_3 
ROOT
HETATM    1  C1  UNL     1     -34.496  14.981  -3.373  1.00 20.00     0.018 C 
HETATM    2  C2  UNL     1     -35.496  14.916  -4.261  1.00 20.00     0.188 C 
HETATM    3  C4  UNL     1     -33.626  16.181  -3.180  1.00 20.00     0.039 C 
HETATM    4  F7  UNL     1     -35.753  15.990  -5.042  1.00 20.00    -0.199 F 
ENDROOT
BRANCH   2   5
HETATM    5  C3  UNL     1     -36.369  13.662  -4.432  1.00 20.00     0.238 C 
HETATM    6  O5  UNL     1     -37.611  13.900  -4.491  1.00 20.00    -0.642 OA
HETATM    7  O6  UNL     1     -35.768  12.553  -4.494  1.00 20.00    -0.642 OA
ENDBRANCH   2   5
TORSDOF 1
ENDMDL
MODEL 4
REMARK VINA RESULT:      -4.2      1.524      1.538
REMARK  1 active torsions:
REMARK  status: ('A' for Active; 'I' for Inactive)
REMARK    1  A    between atoms: C2_2  and  C3_3 
ROOT
HETATM    1  C1  UNL     1     -33.050   6.968   3.275  1.00 20.00     0.018 C 
HETATM    2  C2  UNL     1     -33.716   5.814   3.410  1.00 20.00     0.188 C 
HETATM    3  C4  UNL     1     -32.304   7.363   2.042  1.00 20.00     0.039 C 
HETATM    4  F7  UNL     1     -33.728   4.936   2.380  1.00 20.00    -0.199 F 
ENDROOT
BRANCH   2   5
HETATM    5  C3  UNL     1     -34.473   5.441   4.696  1.00 20.00     0.238 C 
HETATM    6  O5  UNL     1     -35.123   4.358   4.618  1.00 20.00    -0.642 OA
HETATM    7  O6  UNL     1     -34.367   6.237   5.670  1.00 20.00    -0.642 OA
ENDBRANCH   2   5
TORSDOF 1
ENDMDL
MODEL 5
REMARK VINA RESULT:      -4.1     11.658     12.038
REMARK  1 active torsions:
REMARK  status: ('A' for Active; 'I' for Inactive)
REMARK    1  A    between atoms: C2_2  and  C3_3 
ROOT
HETATM    1  C1  UNL     1     -35.165  15.506  -2.965  1.00 20.00     0.018 C 
HETATM    2  C2  UNL     1     -34.900  14.505  -3.814  1.00 20.00     0.188 C 
HETATM    3  C4  UNL     1     -34.117  16.328  -2.288  1.00 20.00     0.039 C 
HETATM    4  F7  UNL     1     -33.611  14.201  -4.090  1.00 20.00    -0.199 F 
ENDROOT
BRANCH   2   5
HETATM    5  C3  UNL     1     -36.007  13.680  -4.492  1.00 20.00     0.238 C 
HETATM    6  O5  UNL     1     -35.814  12.430  -4.459  1.00 20.00    -0.642 OA
HETATM    7  O6  UNL     1     -36.968  14.324  -4.997  1.00 20.00    -0.642 OA
ENDBRANCH   2   5
TORSDOF 1
ENDMDL
MODEL 6
REMARK VINA RESULT:      -4.1      1.557      1.900
REMARK  1 active torsions:
REMARK  status: ('A' for Active; 'I' for Inactive)
REMARK    1  A    between atoms: C2_2  and  C3_3 
ROOT
HETATM    1  C1  UNL     1     -33.052   6.989   3.185  1.00 20.00     0.018 C 
HETATM    2  C2  UNL     1     -33.659   5.801   3.308  1.00 20.00     0.188 C 
HETATM    3  C4  UNL     1     -32.278   7.411   1.979  1.00 20.00     0.039 C 
HETATM    4  F7  UNL     1     -33.580   4.914   2.290  1.00 20.00    -0.199 F 
ENDROOT
BRANCH   2   5
HETATM    5  C3  UNL     1     -34.448   5.402   4.566  1.00 20.00     0.238 C 
HETATM    6  O5  UNL     1     -34.351   6.226   5.521  1.00 20.00    -0.642 OA
HETATM    7  O6  UNL     1     -35.093   4.318   4.513  1.00 20.00    -0.642 OA
ENDBRANCH   2   5
TORSDOF 1
ENDMDL
MODEL 7
REMARK VINA RESULT:      -4.1      1.985      3.110
REMARK  1 active torsions:
REMARK  status: ('A' for Active; 'I' for Inactive)
REMARK    1  A    between atoms: C2_2  and  C3_3 
ROOT
HETATM    1  C1  UNL     1     -34.489   5.428   4.681  1.00 20.00     0.018 C 
HETATM    2  C2  UNL     1     -33.571   6.278   4.203  1.00 20.00     0.188 C 
HETATM    3  C4  UNL     1     -35.005   5.456   6.084  1.00 20.00     0.039 C 
HETATM    4  F7  UNL     1     -33.066   7.230   5.022  1.00 20.00    -0.199 F 
ENDROOT
BRANCH   2   5
HETATM    5  C3  UNL     1     -33.064   6.218   2.753  1.00 20.00     0.238 C 
HETATM    6  O5  UNL     1     -33.134   5.069   2.228  1.00 20.00    -0.642 OA
HETATM    7  O6  UNL     1     -32.641   7.297   2.252  1.00 20.00    -0.642 OA
ENDBRANCH   2   5
TORSDOF 1
ENDMDL
MODEL 8
REMARK VINA RESULT:      -3.9      9.322      9.431
REMARK  1 active torsions:
REMARK  status: ('A' for Active; 'I' for Inactive)
REMARK    1  A    between atoms: C2_2  and  C3_3 
ROOT
HETATM    1  C1  UNL     1     -41.562   6.944  -0.914  1.00 20.00     0.018 C 
HETATM    2  C2  UNL     1     -41.425   7.776   0.126  1.00 20.00     0.188 C 
HETATM    3  C4  UNL     1     -40.969   5.573  -0.972  1.00 20.00     0.039 C 
HETATM    4  F7  UNL     1     -40.711   7.372   1.202  1.00 20.00    -0.199 F 
ENDROOT
BRANCH   2   5
HETATM    5  C3  UNL     1     -42.051   9.180   0.150  1.00 20.00     0.238 C 
HETATM    6  O5  UNL     1     -43.298   9.196  -0.065  1.00 20.00    -0.642 OA
HETATM    7  O6  UNL     1     -41.270  10.147   0.375  1.00 20.00    -0.642 OA
ENDBRANCH   2   5
TORSDOF 1
ENDMDL
MODEL 9
REMARK VINA RESULT:      -3.8      2.387      3.146
REMARK  1 active torsions:
REMARK  status: ('A' for Active; 'I' for Inactive)
REMARK    1  A    between atoms: C2_2  and  C3_3 
ROOT
HETATM    1  C1  UNL     1     -33.647   6.516   5.011  1.00 20.00     0.018 C 
HETATM    2  C2  UNL     1     -34.026   5.806   3.940  1.00 20.00     0.188 C 
HETATM    3  C4  UNL     1     -34.434   6.599   6.279  1.00 20.00     0.039 C 
HETATM    4  F7  UNL     1     -35.188   5.115   3.986  1.00 20.00    -0.199 F 
ENDROOT
BRANCH   2   5
HETATM    5  C3  UNL     1     -33.189   5.744   2.652  1.00 20.00     0.238 C 
HETATM    6  O5  UNL     1     -33.044   4.578   2.184  1.00 20.00    -0.642 OA
HETATM    7  O6  UNL     1     -32.746   6.840   2.207  1.00 20.00    -0.642 OA
ENDBRANCH   2   5
TORSDOF 1
ENDMDL
