MODEL 1
REMARK VINA RESULT:      -5.5      0.000      0.000
REMARK  0 active torsions:
REMARK  status: ('A' for Active; 'I' for Inactive)
ROOT
HETATM    1  C1  UNL     1     -22.900  16.813   9.426  1.00 20.00     0.052 A 
HETATM    2  C2  UNL     1     -24.243  19.138   8.953  1.00 20.00     0.126 A 
HETATM    3  C3  UNL     1     -23.923  17.190  10.301  1.00 20.00    -0.047 A 
HETATM    4  C4  UNL     1     -24.605  18.394  10.074  1.00 20.00    -0.034 A 
HETATM    5  C5  UNL     1     -22.617  17.635   8.349  1.00 20.00     0.126 A 
HETATM    6  C6  UNL     1     -24.228  16.328  11.500  1.00 20.00     0.039 C 
HETATM    7  C7  UNL     1     -25.731  18.854  10.958  1.00 20.00     0.040 C 
HETATM    8  C8  UNL     1     -25.581  16.645  12.137  1.00 20.00     0.005 C 
HETATM    9  C9  UNL     1     -25.752  18.150  12.314  1.00 20.00     0.005 C 
HETATM   10  N10 UNL     1     -23.265  18.790   8.087  1.00 20.00    -0.248 NA
HETATM   11 CL11 UNL     1     -21.378  17.235   7.230  1.00 20.00    -0.062 Cl
ENDROOT
TORSDOF 0
ENDMDL
MODEL 2
REMARK VINA RESULT:      -5.3      1.839      2.656
REMARK  0 active torsions:
REMARK  status: ('A' for Active; 'I' for Inactive)
ROOT
HETATM    1  C1  UNL     1     -25.337  18.859   8.656  1.00 20.00     0.052 A 
HETATM    2  C2  UNL     1     -22.713  18.154   8.429  1.00 20.00     0.126 A 
HETATM    3  C3  UNL     1     -24.632  18.509   9.810  1.00 20.00    -0.047 A 
HETATM    4  C4  UNL     1     -23.287  18.127   9.699  1.00 20.00    -0.034 A 
HETATM    5  C5  UNL     1     -24.668  18.840   7.443  1.00 20.00     0.126 A 
HETATM    6  C6  UNL     1     -25.346  18.490  11.138  1.00 20.00     0.039 C 
HETATM    7  C7  UNL     1     -22.457  17.759  10.898  1.00 20.00     0.040 C 
HETATM    8  C8  UNL     1     -24.392  18.464  12.332  1.00 20.00     0.005 C 
HETATM    9  C9  UNL     1     -23.302  17.418  12.125  1.00 20.00     0.005 C 
HETATM   10  N10 UNL     1     -23.371  18.498   7.299  1.00 20.00    -0.248 NA
HETATM   11 CL11 UNL     1     -25.467  19.263   5.984  1.00 20.00    -0.062 Cl
ENDROOT
TORSDOF 0
ENDMDL
MODEL 3
REMARK VINA RESULT:      -5.0     15.648     16.403
REMARK  0 active torsions:
REMARK  status: ('A' for Active; 'I' for Inactive)
ROOT
HETATM    1  C1  UNL     1     -35.497  15.353  -2.619  1.00 20.00     0.052 A 
HETATM    2  C2  UNL     1     -33.031  15.874  -3.658  1.00 20.00     0.126 A 
HETATM    3  C3  UNL     1     -34.716  16.353  -2.032  1.00 20.00    -0.047 A 
HETATM    4  C4  UNL     1     -33.439  16.613  -2.550  1.00 20.00    -0.034 A 
HETATM    5  C5  UNL     1     -34.985  14.672  -3.712  1.00 20.00     0.126 A 
HETATM    6  C6  UNL     1     -35.237  17.084  -0.821  1.00 20.00     0.039 C 
HETATM    7  C7  UNL     1     -32.552  17.689  -1.986  1.00 20.00     0.040 C 
HETATM    8  C8  UNL     1     -34.472  18.374  -0.525  1.00 20.00     0.005 C 
HETATM    9  C9  UNL     1     -32.968  18.132  -0.584  1.00 20.00     0.005 C 
HETATM   10  N10 UNL     1     -33.771  14.910  -4.250  1.00 20.00    -0.248 NA
HETATM   11 CL11 UNL     1     -35.887  13.436  -4.488  1.00 20.00    -0.062 Cl
ENDROOT
TORSDOF 0
ENDMDL
MODEL 4
REMARK VINA RESULT:      -4.8     15.446     16.293
REMARK  0 active torsions:
REMARK  status: ('A' for Active; 'I' for Inactive)
ROOT
HETATM    1  C1  UNL     1     -32.789  17.347  -2.010  1.00 20.00     0.052 A 
HETATM    2  C2  UNL     1     -35.360  16.799  -1.289  1.00 20.00     0.126 A 
HETATM    3  C3  UNL     1     -33.495  16.374  -2.723  1.00 20.00    -0.047 A 
HETATM    4  C4  UNL     1     -34.812  16.074  -2.345  1.00 20.00    -0.034 A 
HETATM    5  C5  UNL     1     -33.430  17.999  -0.970  1.00 20.00     0.126 A 
HETATM    6  C6  UNL     1     -32.809  15.627  -3.838  1.00 20.00     0.039 C 
HETATM    7  C7  UNL     1     -35.643  15.057  -3.078  1.00 20.00     0.040 C 
HETATM    8  C8  UNL     1     -33.784  14.889  -4.755  1.00 20.00     0.005 C 
HETATM    9  C9  UNL     1     -34.805  14.108  -3.935  1.00 20.00     0.005 C 
HETATM   10  N10 UNL     1     -34.701  17.751  -0.591  1.00 20.00    -0.248 NA
HETATM   11 CL11 UNL     1     -32.628  19.208  -0.053  1.00 20.00    -0.062 Cl
ENDROOT
TORSDOF 0
ENDMDL
MODEL 5
REMARK VINA RESULT:      -4.8     18.155     18.985
REMARK  0 active torsions:
REMARK  status: ('A' for Active; 'I' for Inactive)
ROOT
HETATM    1  C1  UNL     1     -37.364  16.124  -3.937  1.00 20.00     0.052 A 
HETATM    2  C2  UNL     1     -36.133  13.742  -4.430  1.00 20.00     0.126 A 
HETATM    3  C3  UNL     1     -35.969  16.061  -3.876  1.00 20.00    -0.047 A 
HETATM    4  C4  UNL     1     -35.330  14.834  -4.110  1.00 20.00    -0.034 A 
HETATM    5  C5  UNL     1     -38.063  14.971  -4.254  1.00 20.00     0.126 A 
HETATM    6  C6  UNL     1     -35.188  17.294  -3.501  1.00 20.00     0.039 C 
HETATM    7  C7  UNL     1     -33.834  14.694  -4.085  1.00 20.00     0.040 C 
HETATM    8  C8  UNL     1     -33.700  17.187  -3.837  1.00 20.00     0.005 C 
HETATM    9  C9  UNL     1     -33.138  15.851  -3.367  1.00 20.00     0.005 C 
HETATM   10  N10 UNL     1     -37.482  13.779  -4.506  1.00 20.00    -0.248 NA
HETATM   11 CL11 UNL     1     -39.777  14.972  -4.353  1.00 20.00    -0.062 Cl
ENDROOT
TORSDOF 0
ENDMDL
MODEL 6
REMARK VINA RESULT:      -4.8     15.574     16.444
REMARK  0 active torsions:
REMARK  status: ('A' for Active; 'I' for Inactive)
ROOT
HETATM    1  C1  UNL     1     -35.319  16.749  -1.258  1.00 20.00     0.052 A 
HETATM    2  C2  UNL     1     -32.775  17.328  -2.049  1.00 20.00     0.126 A 
HETATM    3  C3  UNL     1     -34.773  16.049  -2.338  1.00 20.00    -0.047 A 
HETATM    4  C4  UNL     1     -33.472  16.355  -2.762  1.00 20.00    -0.034 A 
HETATM    5  C5  UNL     1     -34.538  17.705  -0.629  1.00 20.00     0.126 A 
HETATM    6  C6  UNL     1     -35.615  15.027  -3.059  1.00 20.00     0.039 C 
HETATM    7  C7  UNL     1     -32.810  15.629  -3.900  1.00 20.00     0.040 C 
HETATM    8  C8  UNL     1     -34.793  14.092  -3.946  1.00 20.00     0.005 C 
HETATM    9  C9  UNL     1     -33.804  14.887  -4.793  1.00 20.00     0.005 C 
HETATM   10  N10 UNL     1     -33.276  18.012  -0.996  1.00 20.00    -0.248 NA
HETATM   11 CL11 UNL     1     -35.138  18.600   0.706  1.00 20.00    -0.062 Cl
ENDROOT
TORSDOF 0
ENDMDL
MODEL 7
REMARK VINA RESULT:      -4.7     15.837     16.342
REMARK  0 active torsions:
REMARK  status: ('A' for Active; 'I' for Inactive)
ROOT
HETATM    1  C1  UNL     1     -32.842   7.543   3.189  1.00 20.00     0.052 A 
HETATM    2  C2  UNL     1     -33.551   5.050   2.345  1.00 20.00     0.126 A 
HETATM    3  C3  UNL     1     -33.487   6.687   4.085  1.00 20.00    -0.047 A 
HETATM    4  C4  UNL     1     -33.871   5.410   3.652  1.00 20.00    -0.034 A 
HETATM    5  C5  UNL     1     -32.583   7.084   1.908  1.00 20.00     0.126 A 
HETATM    6  C6  UNL     1     -33.809   7.175   5.475  1.00 20.00     0.039 C 
HETATM    7  C7  UNL     1     -34.548   4.426   4.566  1.00 20.00     0.040 C 
HETATM    8  C8  UNL     1     -34.157   6.044   6.442  1.00 20.00     0.005 C 
HETATM    9  C9  UNL     1     -35.153   5.081   5.806  1.00 20.00     0.005 C 
HETATM   10  N10 UNL     1     -32.919   5.856   1.462  1.00 20.00    -0.248 NA
HETATM   11 CL11 UNL     1     -31.790   8.077   0.754  1.00 20.00    -0.062 Cl
ENDROOT
TORSDOF 0
ENDMDL
MODEL 8
REMARK VINA RESULT:      -4.7     16.489     17.285
REMARK  0 active torsions:
REMARK  status: ('A' for Active; 'I' for Inactive)
ROOT
HETATM    1  C1  UNL     1     -33.027  16.476  -3.268  1.00 20.00     0.052 A 
HETATM    2  C2  UNL     1     -35.390  16.349  -1.914  1.00 20.00     0.126 A 
HETATM    3  C3  UNL     1     -34.077  15.733  -3.814  1.00 20.00    -0.047 A 
HETATM    4  C4  UNL     1     -35.289  15.649  -3.114  1.00 20.00    -0.034 A 
HETATM    5  C5  UNL     1     -33.235  17.125  -2.062  1.00 20.00     0.126 A 
HETATM    6  C6  UNL     1     -33.865  14.992  -5.110  1.00 20.00     0.039 C 
HETATM    7  C7  UNL     1     -36.471  14.888  -3.649  1.00 20.00     0.040 C 
HETATM    8  C8  UNL     1     -35.172  14.550  -5.768  1.00 20.00     0.005 C 
HETATM    9  C9  UNL     1     -36.093  13.894  -4.746  1.00 20.00     0.005 C 
HETATM   10  N10 UNL     1     -34.393  17.083  -1.370  1.00 20.00    -0.248 NA
HETATM   11 CL11 UNL     1     -31.993  18.059  -1.333  1.00 20.00    -0.062 Cl
ENDROOT
TORSDOF 0
ENDMDL
MODEL 9
REMARK VINA RESULT:      -4.6     14.799     15.569
REMARK  0 active torsions:
REMARK  status: ('A' for Active; 'I' for Inactive)
ROOT
HETATM    1  C1  UNL     1     -32.850  16.525  -3.117  1.00 20.00     0.052 A 
HETATM    2  C2  UNL     1     -35.251  16.124  -1.891  1.00 20.00     0.126 A 
HETATM    3  C3  UNL     1     -33.149  17.258  -1.966  1.00 20.00    -0.047 A 
HETATM    4  C4  UNL     1     -34.390  17.070  -1.340  1.00 20.00    -0.034 A 
HETATM    5  C5  UNL     1     -33.786  15.617  -3.583  1.00 20.00     0.126 A 
HETATM    6  C6  UNL     1     -32.159  18.276  -1.458  1.00 20.00     0.039 C 
HETATM    7  C7  UNL     1     -34.773  17.805  -0.086  1.00 20.00     0.040 C 
HETATM    8  C8  UNL     1     -32.436  18.715  -0.020  1.00 20.00     0.005 C 
HETATM    9  C9  UNL     1     -33.913  19.043   0.166  1.00 20.00     0.005 C 
HETATM   10  N10 UNL     1     -34.981  15.394  -2.997  1.00 20.00    -0.248 NA
HETATM   11 CL11 UNL     1     -33.487  14.677  -4.988  1.00 20.00    -0.062 Cl
ENDROOT
TORSDOF 0
ENDMDL
