MODEL 1
REMARK VINA RESULT:      -3.9      0.000      0.000
REMARK  2 active torsions:
REMARK  status: ('A' for Active; 'I' for Inactive)
REMARK    1  A    between atoms: C5_5  and  C6_6 
REMARK    2  A    between atoms: C6_6  and  C7_7 
ROOT
HETATM    1  C1  UNL     1     -33.000   4.518   2.321  1.00 20.00     0.012 C 
HETATM    2  C6  UNL     1     -33.623   5.819   2.864  1.00 20.00     0.002 C 
ENDROOT
BRANCH   2   3
HETATM    3  C5  UNL     1     -32.550   6.928   2.930  1.00 20.00     0.119 C 
HETATM    4 CL8  UNL     1     -32.532   7.942   1.458  1.00 20.00    -0.130 Cl
ENDBRANCH   2   3
BRANCH   2   5
HETATM    5  C7  UNL     1     -34.369   5.618   4.240  1.00 20.00    -0.047 C 
HETATM    6  C2  UNL     1     -34.077   4.210   4.808  1.00 20.00     0.015 C 
HETATM    7  C3  UNL     1     -35.899   5.716   4.050  1.00 20.00     0.015 C 
HETATM    8  C4  UNL     1     -33.946   6.658   5.294  1.00 20.00     0.015 C 
ENDBRANCH   2   5
TORSDOF 2
ENDMDL
MODEL 2
REMARK VINA RESULT:      -3.7     15.843     16.752
REMARK  2 active torsions:
REMARK  status: ('A' for Active; 'I' for Inactive)
REMARK    1  A    between atoms: C5_5  and  C6_6 
REMARK    2  A    between atoms: C6_6  and  C7_7 
ROOT
HETATM    1  C1  UNL     1     -22.508  17.052   9.269  1.00 20.00     0.012 C 
HETATM    2  C6  UNL     1     -23.927  17.479   9.693  1.00 20.00     0.002 C 
ENDROOT
BRANCH   2   3
HETATM    3  C5  UNL     1     -24.229  18.898   9.165  1.00 20.00     0.119 C 
HETATM    4 CL8  UNL     1     -25.368  18.881   7.787  1.00 20.00    -0.130 Cl
ENDBRANCH   2   3
BRANCH   2   5
HETATM    5  C7  UNL     1     -24.173  17.348  11.246  1.00 20.00    -0.047 C 
HETATM    6  C2  UNL     1     -22.870  17.650  12.022  1.00 20.00     0.015 C 
HETATM    7  C3  UNL     1     -24.589  15.906  11.612  1.00 20.00     0.015 C 
HETATM    8  C4  UNL     1     -25.266  18.308  11.750  1.00 20.00     0.015 C 
ENDBRANCH   2   5
TORSDOF 2
ENDMDL
MODEL 3
REMARK VINA RESULT:      -3.6     11.576     12.482
REMARK  2 active torsions:
REMARK  status: ('A' for Active; 'I' for Inactive)
REMARK    1  A    between atoms: C5_5  and  C6_6 
REMARK    2  A    between atoms: C6_6  and  C7_7 
ROOT
HETATM    1  C1  UNL     1     -35.144  16.303  -1.895  1.00 20.00     0.012 C 
HETATM    2  C6  UNL     1     -33.839  16.045  -2.674  1.00 20.00     0.002 C 
ENDROOT
BRANCH   2   3
HETATM    3  C5  UNL     1     -33.087  17.376  -2.896  1.00 20.00     0.119 C 
HETATM    4 CL8  UNL     1     -32.238  17.929  -1.424  1.00 20.00    -0.130 Cl
ENDBRANCH   2   3
BRANCH   2   5
HETATM    5  C7  UNL     1     -34.069  15.251  -4.018  1.00 20.00    -0.047 C 
HETATM    6  C2  UNL     1     -34.440  16.225  -5.160  1.00 20.00     0.015 C 
HETATM    7  C3  UNL     1     -35.248  14.263  -3.872  1.00 20.00     0.015 C 
HETATM    8  C4  UNL     1     -32.824  14.455  -4.451  1.00 20.00     0.015 C 
ENDBRANCH   2   5
TORSDOF 2
ENDMDL
MODEL 4
REMARK VINA RESULT:      -3.6      2.288      3.738
REMARK  2 active torsions:
REMARK  status: ('A' for Active; 'I' for Inactive)
REMARK    1  A    between atoms: C5_5  and  C6_6 
REMARK    2  A    between atoms: C6_6  and  C7_7 
ROOT
HETATM    1  C1  UNL     1     -33.508   7.192   5.484  1.00 20.00     0.012 C 
HETATM    2  C6  UNL     1     -34.081   6.773   4.116  1.00 20.00     0.002 C 
ENDROOT
BRANCH   2   3
HETATM    3  C5  UNL     1     -34.847   5.439   4.253  1.00 20.00     0.119 C 
HETATM    4 CL8  UNL     1     -34.835   4.820   5.929  1.00 20.00    -0.130 Cl
ENDBRANCH   2   3
BRANCH   2   5
HETATM    5  C7  UNL     1     -32.989   6.727   2.977  1.00 20.00    -0.047 C 
HETATM    6  C2  UNL     1     -32.779   5.273   2.494  1.00 20.00     0.015 C 
HETATM    7  C3  UNL     1     -31.626   7.224   3.509  1.00 20.00     0.015 C 
HETATM    8  C4  UNL     1     -33.374   7.588   1.759  1.00 20.00     0.015 C 
ENDBRANCH   2   5
TORSDOF 2
ENDMDL
MODEL 5
REMARK VINA RESULT:      -3.6     11.582     12.430
REMARK  2 active torsions:
REMARK  status: ('A' for Active; 'I' for Inactive)
REMARK    1  A    between atoms: C5_5  and  C6_6 
REMARK    2  A    between atoms: C6_6  and  C7_7 
ROOT
HETATM    1  C1  UNL     1     -35.184  16.307  -1.886  1.00 20.00     0.012 C 
HETATM    2  C6  UNL     1     -33.890  15.974  -2.654  1.00 20.00     0.002 C 
ENDROOT
BRANCH   2   3
HETATM    3  C5  UNL     1     -33.045  17.254  -2.840  1.00 20.00     0.119 C 
HETATM    4 CL8  UNL     1     -32.459  17.910  -1.284  1.00 20.00    -0.130 Cl
ENDBRANCH   2   3
BRANCH   2   5
HETATM    5  C7  UNL     1     -34.156  15.225  -4.017  1.00 20.00    -0.047 C 
HETATM    6  C2  UNL     1     -32.895  14.447  -4.457  1.00 20.00     0.015 C 
HETATM    7  C3  UNL     1     -34.475  16.235  -5.141  1.00 20.00     0.015 C 
HETATM    8  C4  UNL     1     -35.326  14.227  -3.920  1.00 20.00     0.015 C 
ENDBRANCH   2   5
TORSDOF 2
ENDMDL
MODEL 6
REMARK VINA RESULT:      -3.6     11.641     12.289
REMARK  2 active torsions:
REMARK  status: ('A' for Active; 'I' for Inactive)
REMARK    1  A    between atoms: C5_5  and  C6_6 
REMARK    2  A    between atoms: C6_6  and  C7_7 
ROOT
HETATM    1  C1  UNL     1     -33.524  14.900  -4.149  1.00 20.00     0.012 C 
HETATM    2  C6  UNL     1     -34.631  15.245  -3.134  1.00 20.00     0.002 C 
ENDROOT
BRANCH   2   3
HETATM    3  C5  UNL     1     -36.019  15.042  -3.782  1.00 20.00     0.119 C 
HETATM    4 CL8  UNL     1     -36.169  13.448  -4.576  1.00 20.00    -0.130 Cl
ENDBRANCH   2   3
BRANCH   2   5
HETATM    5  C7  UNL     1     -34.465  16.682  -2.504  1.00 20.00    -0.047 C 
HETATM    6  C2  UNL     1     -35.148  16.742  -1.118  1.00 20.00     0.015 C 
HETATM    7  C3  UNL     1     -35.151  17.747  -3.388  1.00 20.00     0.015 C 
HETATM    8  C4  UNL     1     -32.987  17.079  -2.329  1.00 20.00     0.015 C 
ENDBRANCH   2   5
TORSDOF 2
ENDMDL
MODEL 7
REMARK VINA RESULT:      -3.5     11.659     12.338
REMARK  2 active torsions:
REMARK  status: ('A' for Active; 'I' for Inactive)
REMARK    1  A    between atoms: C5_5  and  C6_6 
REMARK    2  A    between atoms: C6_6  and  C7_7 
ROOT
HETATM    1  C1  UNL     1     -33.359  14.508  -4.427  1.00 20.00     0.012 C 
HETATM    2  C6  UNL     1     -34.527  14.825  -3.472  1.00 20.00     0.002 C 
ENDROOT
BRANCH   2   3
HETATM    3  C5  UNL     1     -35.870  14.482  -4.153  1.00 20.00     0.119 C 
HETATM    4 CL8  UNL     1     -35.728  14.404  -5.933  1.00 20.00    -0.130 Cl
ENDBRANCH   2   3
BRANCH   2   5
HETATM    5  C7  UNL     1     -34.490  16.303  -2.921  1.00 20.00    -0.047 C 
HETATM    6  C2  UNL     1     -33.028  16.784  -2.772  1.00 20.00     0.015 C 
HETATM    7  C3  UNL     1     -35.131  16.377  -1.517  1.00 20.00     0.015 C 
HETATM    8  C4  UNL     1     -35.230  17.291  -3.841  1.00 20.00     0.015 C 
ENDBRANCH   2   5
TORSDOF 2
ENDMDL
MODEL 8
REMARK VINA RESULT:      -3.5     11.650     12.364
REMARK  2 active torsions:
REMARK  status: ('A' for Active; 'I' for Inactive)
REMARK    1  A    between atoms: C5_5  and  C6_6 
REMARK    2  A    between atoms: C6_6  and  C7_7 
ROOT
HETATM    1  C1  UNL     1     -33.344  14.524  -4.475  1.00 20.00     0.012 C 
HETATM    2  C6  UNL     1     -34.491  14.807  -3.485  1.00 20.00     0.002 C 
ENDROOT
BRANCH   2   3
HETATM    3  C5  UNL     1     -35.846  14.450  -4.134  1.00 20.00     0.119 C 
HETATM    4 CL8  UNL     1     -35.742  14.363  -5.916  1.00 20.00    -0.130 Cl
ENDBRANCH   2   3
BRANCH   2   5
HETATM    5  C7  UNL     1     -34.465  16.278  -2.914  1.00 20.00    -0.047 C 
HETATM    6  C2  UNL     1     -35.196  17.240  -3.877  1.00 20.00     0.015 C 
HETATM    7  C3  UNL     1     -33.011  16.787  -2.789  1.00 20.00     0.015 C 
HETATM    8  C4  UNL     1     -35.133  16.383  -1.530  1.00 20.00     0.015 C 
ENDBRANCH   2   5
TORSDOF 2
ENDMDL
MODEL 9
REMARK VINA RESULT:      -3.4      8.557      9.504
REMARK  2 active torsions:
REMARK  status: ('A' for Active; 'I' for Inactive)
REMARK    1  A    between atoms: C5_5  and  C6_6 
REMARK    2  A    between atoms: C6_6  and  C7_7 
ROOT
HETATM    1  C1  UNL     1     -42.573   8.036  -1.578  1.00 20.00     0.012 C 
HETATM    2  C6  UNL     1     -42.540   7.323  -0.213  1.00 20.00     0.002 C 
ENDROOT
BRANCH   2   3
HETATM    3  C5  UNL     1     -41.473   7.974   0.695  1.00 20.00     0.119 C 
HETATM    4 CL8  UNL     1     -41.275   9.719   0.363  1.00 20.00    -0.130 Cl
ENDBRANCH   2   3
BRANCH   2   5
HETATM    5  C7  UNL     1     -42.355   5.761  -0.336  1.00 20.00    -0.047 C 
HETATM    6  C2  UNL     1     -40.952   5.429  -0.894  1.00 20.00     0.015 C 
HETATM    7  C3  UNL     1     -43.382   5.167  -1.325  1.00 20.00     0.015 C 
HETATM    8  C4  UNL     1     -42.516   5.042   1.016  1.00 20.00     0.015 C 
ENDBRANCH   2   5
TORSDOF 2
ENDMDL
