MODEL 1
REMARK VINA RESULT:      -4.8      0.000      0.000
REMARK  1 active torsions:
REMARK  status: ('A' for Active; 'I' for Inactive)
REMARK    1  A    between atoms: C4_4  and  C10_10 
ROOT
HETATM    1  C1  UNL     1     -35.171  16.847  -1.099  1.00 20.00    -0.004 C 
HETATM    2  C2  UNL     1     -35.124  15.907  -2.191  1.00 20.00     0.003 C 
HETATM    3  C3  UNL     1     -34.150  17.675  -0.846  1.00 20.00    -0.026 C 
HETATM    4  C4  UNL     1     -34.136  15.928  -3.101  1.00 20.00    -0.072 C 
HETATM    5  C5  UNL     1     -32.905  17.694  -1.683  1.00 20.00     0.031 C 
HETATM    6  C6  UNL     1     -33.011  16.933  -3.018  1.00 20.00     0.038 C 
ENDROOT
BRANCH   4   7
HETATM    7  C10 UNL     1     -34.100  14.977  -4.259  1.00 20.00    -0.028 C 
HETATM    8  C7  UNL     1     -35.123  13.854  -4.026  1.00 20.00     0.019 C 
HETATM    9  C8  UNL     1     -32.694  14.367  -4.390  1.00 20.00     0.019 C 
HETATM   10  C9  UNL     1     -34.446  15.723  -5.558  1.00 20.00     0.019 C 
ENDBRANCH   4   7
TORSDOF 1
ENDMDL
MODEL 2
REMARK VINA RESULT:      -4.8      0.030      1.379
REMARK  1 active torsions:
REMARK  status: ('A' for Active; 'I' for Inactive)
REMARK    1  A    between atoms: C4_4  and  C10_10 
ROOT
HETATM    1  C1  UNL     1     -35.174  16.842  -1.120  1.00 20.00    -0.004 C 
HETATM    2  C2  UNL     1     -35.130  15.896  -2.207  1.00 20.00     0.003 C 
HETATM    3  C3  UNL     1     -34.149  17.668  -0.872  1.00 20.00    -0.026 C 
HETATM    4  C4  UNL     1     -34.141  15.907  -3.117  1.00 20.00    -0.072 C 
HETATM    5  C5  UNL     1     -32.904  17.676  -1.708  1.00 20.00     0.031 C 
HETATM    6  C6  UNL     1     -33.012  16.909  -3.039  1.00 20.00     0.038 C 
ENDROOT
BRANCH   4   7
HETATM    7  C10 UNL     1     -34.109  14.950  -4.270  1.00 20.00    -0.028 C 
HETATM    8  C7  UNL     1     -32.695  14.360  -4.399  1.00 20.00     0.019 C 
HETATM    9  C8  UNL     1     -34.475  15.686  -5.569  1.00 20.00     0.019 C 
HETATM   10  C9  UNL     1     -35.118  13.815  -4.034  1.00 20.00     0.019 C 
ENDBRANCH   4   7
TORSDOF 1
ENDMDL
MODEL 3
REMARK VINA RESULT:      -4.8      0.204      2.086
REMARK  1 active torsions:
REMARK  status: ('A' for Active; 'I' for Inactive)
REMARK    1  A    between atoms: C4_4  and  C10_10 
ROOT
HETATM    1  C1  UNL     1     -32.834  17.701  -1.698  1.00 20.00    -0.004 C 
HETATM    2  C2  UNL     1     -32.941  16.848  -2.855  1.00 20.00     0.003 C 
HETATM    3  C3  UNL     1     -33.847  17.832  -0.832  1.00 20.00    -0.026 C 
HETATM    4  C4  UNL     1     -33.986  16.023  -3.033  1.00 20.00    -0.072 C 
HETATM    5  C5  UNL     1     -35.144  17.096  -0.995  1.00 20.00     0.031 C 
HETATM    6  C6  UNL     1     -35.116  15.956  -2.031  1.00 20.00     0.038 C 
ENDROOT
BRANCH   4   7
HETATM    7  C10 UNL     1     -34.086  15.106  -4.215  1.00 20.00    -0.028 C 
HETATM    8  C7  UNL     1     -32.741  14.391  -4.417  1.00 20.00     0.019 C 
HETATM    9  C8  UNL     1     -34.427  15.918  -5.476  1.00 20.00     0.019 C 
HETATM   10  C9  UNL     1     -35.190  14.064  -3.975  1.00 20.00     0.019 C 
ENDBRANCH   4   7
TORSDOF 1
ENDMDL
MODEL 4
REMARK VINA RESULT:      -4.8      0.215      2.106
REMARK  1 active torsions:
REMARK  status: ('A' for Active; 'I' for Inactive)
REMARK    1  A    between atoms: C4_4  and  C10_10 
ROOT
HETATM    1  C1  UNL     1     -32.831  17.707  -1.682  1.00 20.00    -0.004 C 
HETATM    2  C2  UNL     1     -32.938  16.858  -2.842  1.00 20.00     0.003 C 
HETATM    3  C3  UNL     1     -33.842  17.832  -0.814  1.00 20.00    -0.026 C 
HETATM    4  C4  UNL     1     -33.982  16.032  -3.022  1.00 20.00    -0.072 C 
HETATM    5  C5  UNL     1     -35.138  17.094  -0.977  1.00 20.00     0.031 C 
HETATM    6  C6  UNL     1     -35.110  15.959  -2.018  1.00 20.00     0.038 C 
ENDROOT
BRANCH   4   7
HETATM    7  C10 UNL     1     -34.083  15.121  -4.209  1.00 20.00    -0.028 C 
HETATM    8  C7  UNL     1     -34.430  15.949  -5.456  1.00 20.00     0.019 C 
HETATM    9  C8  UNL     1     -35.182  14.073  -3.969  1.00 20.00     0.019 C 
HETATM   10  C9  UNL     1     -32.742  14.402  -4.429  1.00 20.00     0.019 C 
ENDBRANCH   4   7
TORSDOF 1
ENDMDL
MODEL 5
REMARK VINA RESULT:      -4.6     15.012     16.956
REMARK  1 active torsions:
REMARK  status: ('A' for Active; 'I' for Inactive)
REMARK    1  A    between atoms: C4_4  and  C10_10 
ROOT
HETATM    1  C1  UNL     1     -24.946  19.246   8.294  1.00 20.00    -0.004 C 
HETATM    2  C2  UNL     1     -25.022  18.834   9.673  1.00 20.00     0.003 C 
HETATM    3  C3  UNL     1     -23.922  18.880   7.512  1.00 20.00    -0.026 C 
HETATM    4  C4  UNL     1     -24.168  17.937  10.193  1.00 20.00    -0.072 C 
HETATM    5  C5  UNL     1     -22.803  18.013   8.008  1.00 20.00     0.031 C 
HETATM    6  C6  UNL     1     -23.069  17.322   9.358  1.00 20.00     0.038 C 
ENDROOT
BRANCH   4   7
HETATM    7  C10 UNL     1     -24.264  17.478  11.617  1.00 20.00    -0.028 C 
HETATM    8  C7  UNL     1     -22.933  17.761  12.332  1.00 20.00     0.019 C 
HETATM    9  C8  UNL     1     -24.555  15.969  11.659  1.00 20.00     0.019 C 
HETATM   10  C9  UNL     1     -25.398  18.229  12.332  1.00 20.00     0.019 C 
ENDBRANCH   4   7
TORSDOF 1
ENDMDL
MODEL 6
REMARK VINA RESULT:      -4.6     14.894     17.027
REMARK  1 active torsions:
REMARK  status: ('A' for Active; 'I' for Inactive)
REMARK    1  A    between atoms: C4_4  and  C10_10 
ROOT
HETATM    1  C1  UNL     1     -22.914  18.131   8.016  1.00 20.00    -0.004 C 
HETATM    2  C2  UNL     1     -23.018  17.609   9.355  1.00 20.00     0.003 C 
HETATM    3  C3  UNL     1     -23.887  18.881   7.482  1.00 20.00    -0.026 C 
HETATM    4  C4  UNL     1     -24.006  17.980  10.186  1.00 20.00    -0.072 C 
HETATM    5  C5  UNL     1     -25.131  19.239   8.239  1.00 20.00     0.031 C 
HETATM    6  C6  UNL     1     -25.073  18.958   9.752  1.00 20.00     0.038 C 
ENDROOT
BRANCH   4   7
HETATM    7  C10 UNL     1     -24.099  17.468  11.592  1.00 20.00    -0.028 C 
HETATM    8  C7  UNL     1     -24.375  15.956  11.564  1.00 20.00     0.019 C 
HETATM    9  C8  UNL     1     -25.242  18.182  12.332  1.00 20.00     0.019 C 
HETATM   10  C9  UNL     1     -22.778  17.733  12.332  1.00 20.00     0.019 C 
ENDBRANCH   4   7
TORSDOF 1
ENDMDL
MODEL 7
REMARK VINA RESULT:      -4.4      0.971      4.150
REMARK  1 active torsions:
REMARK  status: ('A' for Active; 'I' for Inactive)
REMARK    1  A    between atoms: C4_4  and  C10_10 
ROOT
HETATM    1  C1  UNL     1     -32.927  15.261  -4.047  1.00 20.00    -0.004 C 
HETATM    2  C2  UNL     1     -33.087  16.271  -3.032  1.00 20.00     0.003 C 
HETATM    3  C3  UNL     1     -33.916  14.409  -4.345  1.00 20.00    -0.026 C 
HETATM    4  C4  UNL     1     -34.276  16.516  -2.456  1.00 20.00    -0.072 C 
HETATM    5  C5  UNL     1     -35.251  14.457  -3.662  1.00 20.00     0.031 C 
HETATM    6  C6  UNL     1     -35.510  15.730  -2.836  1.00 20.00     0.038 C 
ENDROOT
BRANCH   4   7
HETATM    7  C10 UNL     1     -34.457  17.589  -1.425  1.00 20.00    -0.028 C 
HETATM    8  C7  UNL     1     -35.164  18.794  -2.067  1.00 20.00     0.019 C 
HETATM    9  C8  UNL     1     -33.087  18.029  -0.885  1.00 20.00     0.019 C 
HETATM   10  C9  UNL     1     -35.309  17.057  -0.262  1.00 20.00     0.019 C 
ENDBRANCH   4   7
TORSDOF 1
ENDMDL
MODEL 8
REMARK VINA RESULT:      -4.4      1.034      3.831
REMARK  1 active torsions:
REMARK  status: ('A' for Active; 'I' for Inactive)
REMARK    1  A    between atoms: C4_4  and  C10_10 
ROOT
HETATM    1  C1  UNL     1     -35.477  14.768  -3.202  1.00 20.00    -0.004 C 
HETATM    2  C2  UNL     1     -35.265  15.979  -2.451  1.00 20.00     0.003 C 
HETATM    3  C3  UNL     1     -34.553  14.304  -4.053  1.00 20.00    -0.026 C 
HETATM    4  C4  UNL     1     -34.078  16.609  -2.442  1.00 20.00    -0.072 C 
HETATM    5  C5  UNL     1     -33.241  14.997  -4.271  1.00 20.00     0.031 C 
HETATM    6  C6  UNL     1     -32.903  16.083  -3.232  1.00 20.00     0.038 C 
ENDROOT
BRANCH   4   7
HETATM    7  C10 UNL     1     -33.841  17.850  -1.634  1.00 20.00    -0.028 C 
HETATM    8  C7  UNL     1     -32.328  18.057  -1.456  1.00 20.00     0.019 C 
HETATM    9  C8  UNL     1     -34.503  17.709  -0.255  1.00 20.00     0.019 C 
HETATM   10  C9  UNL     1     -34.441  19.066  -2.358  1.00 20.00     0.019 C 
ENDBRANCH   4   7
TORSDOF 1
ENDMDL
MODEL 9
REMARK VINA RESULT:      -4.4      0.909      1.684
REMARK  1 active torsions:
REMARK  status: ('A' for Active; 'I' for Inactive)
REMARK    1  A    between atoms: C4_4  and  C10_10 
ROOT
HETATM    1  C1  UNL     1     -35.043  17.320  -0.219  1.00 20.00    -0.004 C 
HETATM    2  C2  UNL     1     -35.107  16.511  -1.410  1.00 20.00     0.003 C 
HETATM    3  C3  UNL     1     -33.965  18.061   0.064  1.00 20.00    -0.026 C 
HETATM    4  C4  UNL     1     -34.167  16.585  -2.368  1.00 20.00    -0.072 C 
HETATM    5  C5  UNL     1     -32.765  18.111  -0.835  1.00 20.00     0.031 C 
HETATM    6  C6  UNL     1     -32.983  17.515  -2.238  1.00 20.00     0.038 C 
ENDROOT
BRANCH   4   7
HETATM    7  C10 UNL     1     -34.245  15.772  -3.625  1.00 20.00    -0.028 C 
HETATM    8  C7  UNL     1     -34.713  16.670  -4.781  1.00 20.00     0.019 C 
HETATM    9  C8  UNL     1     -35.243  14.618  -3.439  1.00 20.00     0.019 C 
HETATM   10  C9  UNL     1     -32.861  15.191  -3.957  1.00 20.00     0.019 C 
ENDBRANCH   4   7
TORSDOF 1
ENDMDL
