MODEL 1
REMARK VINA RESULT:      -4.5      0.000      0.000
REMARK  1 active torsions:
REMARK  status: ('A' for Active; 'I' for Inactive)
REMARK    1  A    between atoms: C4_4  and  C9_9 
ROOT
HETATM    1  C1  UNL     1     -24.623  19.263   6.715  1.00 20.00     0.017 C 
HETATM    2  C2  UNL     1     -24.684  18.976   7.880  1.00 20.00    -0.089 C 
HETATM    3  C3  UNL     1     -24.773  18.651   9.263  1.00 20.00     0.066 C 
HETATM    4  C4  UNL     1     -23.948  17.796   9.906  1.00 20.00    -0.068 C 
HETATM    5  C5  UNL     1     -22.829  17.078   9.174  1.00 20.00     0.044 C 
ENDROOT
BRANCH   4   6
HETATM    6  C9  UNL     1     -24.080  17.483  11.421  1.00 20.00    -0.028 C 
HETATM    7  C6  UNL     1     -22.740  17.744  12.142  1.00 20.00     0.019 C 
HETATM    8  C7  UNL     1     -25.148  18.336  12.148  1.00 20.00     0.019 C 
HETATM    9  C8  UNL     1     -24.474  16.004  11.615  1.00 20.00     0.019 C 
ENDBRANCH   4   6
TORSDOF 1
ENDMDL
MODEL 2
REMARK VINA RESULT:      -4.4     15.043     17.102
REMARK  1 active torsions:
REMARK  status: ('A' for Active; 'I' for Inactive)
REMARK    1  A    between atoms: C4_4  and  C9_9 
ROOT
HETATM    1  C1  UNL     1     -35.244  17.477   0.132  1.00 20.00     0.017 C 
HETATM    2  C2  UNL     1     -35.208  16.821  -0.873  1.00 20.00    -0.089 C 
HETATM    3  C3  UNL     1     -35.186  16.033  -2.059  1.00 20.00     0.066 C 
HETATM    4  C4  UNL     1     -34.166  16.010  -2.945  1.00 20.00    -0.068 C 
HETATM    5  C5  UNL     1     -32.926  16.861  -2.746  1.00 20.00     0.044 C 
ENDROOT
BRANCH   4   6
HETATM    6  C9  UNL     1     -34.184  15.123  -4.220  1.00 20.00    -0.028 C 
HETATM    7  C6  UNL     1     -35.280  14.042  -4.108  1.00 20.00     0.019 C 
HETATM    8  C7  UNL     1     -34.465  15.905  -5.526  1.00 20.00     0.019 C 
HETATM    9  C8  UNL     1     -32.815  14.433  -4.393  1.00 20.00     0.019 C 
ENDBRANCH   4   6
TORSDOF 1
ENDMDL
MODEL 3
REMARK VINA RESULT:      -4.4     15.011     17.028
REMARK  1 active torsions:
REMARK  status: ('A' for Active; 'I' for Inactive)
REMARK    1  A    between atoms: C4_4  and  C9_9 
ROOT
HETATM    1  C1  UNL     1     -35.271  17.514   0.210  1.00 20.00     0.017 C 
HETATM    2  C2  UNL     1     -35.218  16.856  -0.794  1.00 20.00    -0.089 C 
HETATM    3  C3  UNL     1     -35.175  16.067  -1.978  1.00 20.00     0.066 C 
HETATM    4  C4  UNL     1     -34.153  16.063  -2.862  1.00 20.00    -0.068 C 
HETATM    5  C5  UNL     1     -32.932  16.941  -2.661  1.00 20.00     0.044 C 
ENDROOT
BRANCH   4   6
HETATM    6  C9  UNL     1     -34.149  15.173  -4.135  1.00 20.00    -0.028 C 
HETATM    7  C6  UNL     1     -34.444  16.025  -5.388  1.00 20.00     0.019 C 
HETATM    8  C7  UNL     1     -32.802  14.455  -4.394  1.00 20.00     0.019 C 
HETATM    9  C8  UNL     1     -35.228  14.077  -4.007  1.00 20.00     0.019 C 
ENDBRANCH   4   6
TORSDOF 1
ENDMDL
MODEL 4
REMARK VINA RESULT:      -4.4     15.002     17.077
REMARK  1 active torsions:
REMARK  status: ('A' for Active; 'I' for Inactive)
REMARK    1  A    between atoms: C4_4  and  C9_9 
ROOT
HETATM    1  C1  UNL     1     -35.236  17.522   0.185  1.00 20.00     0.017 C 
HETATM    2  C2  UNL     1     -35.219  16.860  -0.817  1.00 20.00    -0.089 C 
HETATM    3  C3  UNL     1     -35.218  16.065  -1.998  1.00 20.00     0.066 C 
HETATM    4  C4  UNL     1     -34.208  16.022  -2.894  1.00 20.00    -0.068 C 
HETATM    5  C5  UNL     1     -32.954  16.858  -2.712  1.00 20.00     0.044 C 
ENDROOT
BRANCH   4   6
HETATM    6  C9  UNL     1     -34.250  15.128  -4.163  1.00 20.00    -0.028 C 
HETATM    7  C6  UNL     1     -32.887  14.436  -4.378  1.00 20.00     0.019 C 
HETATM    8  C7  UNL     1     -35.314  14.005  -4.105  1.00 20.00     0.019 C 
HETATM    9  C8  UNL     1     -34.573  15.994  -5.399  1.00 20.00     0.019 C 
ENDBRANCH   4   6
TORSDOF 1
ENDMDL
MODEL 5
REMARK VINA RESULT:      -4.3     13.907     16.744
REMARK  1 active torsions:
REMARK  status: ('A' for Active; 'I' for Inactive)
REMARK    1  A    between atoms: C4_4  and  C9_9 
ROOT
HETATM    1  C1  UNL     1     -32.412  18.508  -0.653  1.00 20.00     0.017 C 
HETATM    2  C2  UNL     1     -32.631  17.775  -1.580  1.00 20.00    -0.089 C 
HETATM    3  C3  UNL     1     -32.871  16.915  -2.688  1.00 20.00     0.066 C 
HETATM    4  C4  UNL     1     -33.985  16.169  -2.853  1.00 20.00    -0.068 C 
HETATM    5  C5  UNL     1     -35.104  16.181  -1.827  1.00 20.00     0.044 C 
ENDROOT
BRANCH   4   6
HETATM    6  C9  UNL     1     -34.206  15.253  -4.088  1.00 20.00    -0.028 C 
HETATM    7  C6  UNL     1     -32.915  14.473  -4.416  1.00 20.00     0.019 C 
HETATM    8  C7  UNL     1     -35.325  14.200  -3.897  1.00 20.00     0.019 C 
HETATM    9  C8  UNL     1     -34.597  16.112  -5.309  1.00 20.00     0.019 C 
ENDBRANCH   4   6
TORSDOF 1
ENDMDL
MODEL 6
REMARK VINA RESULT:      -4.3     13.899     16.750
REMARK  1 active torsions:
REMARK  status: ('A' for Active; 'I' for Inactive)
REMARK    1  A    between atoms: C4_4  and  C9_9 
ROOT
HETATM    1  C1  UNL     1     -32.523  18.531  -0.620  1.00 20.00     0.017 C 
HETATM    2  C2  UNL     1     -32.691  17.795  -1.554  1.00 20.00    -0.089 C 
HETATM    3  C3  UNL     1     -32.870  16.930  -2.671  1.00 20.00     0.066 C 
HETATM    4  C4  UNL     1     -33.957  16.152  -2.873  1.00 20.00    -0.068 C 
HETATM    5  C5  UNL     1     -35.107  16.130  -1.883  1.00 20.00     0.044 C 
ENDROOT
BRANCH   4   6
HETATM    6  C9  UNL     1     -34.111  15.234  -4.115  1.00 20.00    -0.028 C 
HETATM    7  C6  UNL     1     -34.449  16.072  -5.366  1.00 20.00     0.019 C 
HETATM    8  C7  UNL     1     -32.838  14.420  -4.457  1.00 20.00     0.019 C 
HETATM    9  C8  UNL     1     -35.245  14.216  -3.872  1.00 20.00     0.019 C 
ENDBRANCH   4   6
TORSDOF 1
ENDMDL
MODEL 7
REMARK VINA RESULT:      -4.2     15.846     16.629
REMARK  1 active torsions:
REMARK  status: ('A' for Active; 'I' for Inactive)
REMARK    1  A    between atoms: C4_4  and  C9_9 
ROOT
HETATM    1  C1  UNL     1     -31.928   7.980   0.760  1.00 20.00     0.017 C 
HETATM    2  C2  UNL     1     -32.527   7.609   1.732  1.00 20.00    -0.089 C 
HETATM    3  C3  UNL     1     -33.238   7.190   2.893  1.00 20.00     0.066 C 
HETATM    4  C4  UNL     1     -33.538   5.906   3.187  1.00 20.00    -0.068 C 
HETATM    5  C5  UNL     1     -33.138   4.769   2.264  1.00 20.00     0.044 C 
ENDROOT
BRANCH   4   6
HETATM    6  C9  UNL     1     -34.306   5.498   4.473  1.00 20.00    -0.028 C 
HETATM    7  C6  UNL     1     -33.902   4.075   4.913  1.00 20.00     0.019 C 
HETATM    8  C7  UNL     1     -34.043   6.428   5.683  1.00 20.00     0.019 C 
HETATM    9  C8  UNL     1     -35.825   5.528   4.204  1.00 20.00     0.019 C 
ENDBRANCH   4   6
TORSDOF 1
ENDMDL
MODEL 8
REMARK VINA RESULT:      -4.1     15.850     16.614
REMARK  1 active torsions:
REMARK  status: ('A' for Active; 'I' for Inactive)
REMARK    1  A    between atoms: C4_4  and  C9_9 
ROOT
HETATM    1  C1  UNL     1     -31.901   8.007   0.754  1.00 20.00     0.017 C 
HETATM    2  C2  UNL     1     -32.507   7.624   1.718  1.00 20.00    -0.089 C 
HETATM    3  C3  UNL     1     -33.226   7.193   2.869  1.00 20.00     0.066 C 
HETATM    4  C4  UNL     1     -33.521   5.905   3.152  1.00 20.00    -0.068 C 
HETATM    5  C5  UNL     1     -33.106   4.778   2.225  1.00 20.00     0.044 C 
ENDROOT
BRANCH   4   6
HETATM    6  C9  UNL     1     -34.299   5.484   4.428  1.00 20.00    -0.028 C 
HETATM    7  C6  UNL     1     -34.000   6.460   5.586  1.00 20.00     0.019 C 
HETATM    8  C7  UNL     1     -35.836   5.465   4.250  1.00 20.00     0.019 C 
HETATM    9  C8  UNL     1     -33.875   4.061   4.849  1.00 20.00     0.019 C 
ENDBRANCH   4   6
TORSDOF 1
ENDMDL
MODEL 9
REMARK VINA RESULT:      -4.1     13.700     15.825
REMARK  1 active torsions:
REMARK  status: ('A' for Active; 'I' for Inactive)
REMARK    1  A    between atoms: C4_4  and  C9_9 
ROOT
HETATM    1  C1  UNL     1     -34.960  14.137  -4.041  1.00 20.00     0.017 C 
HETATM    2  C2  UNL     1     -35.008  14.979  -3.186  1.00 20.00    -0.089 C 
HETATM    3  C3  UNL     1     -35.088  15.970  -2.168  1.00 20.00     0.066 C 
HETATM    4  C4  UNL     1     -34.132  16.892  -1.918  1.00 20.00    -0.068 C 
HETATM    5  C5  UNL     1     -32.847  16.937  -2.724  1.00 20.00     0.044 C 
ENDROOT
BRANCH   4   6
HETATM    6  C9  UNL     1     -34.271  17.962  -0.801  1.00 20.00    -0.028 C 
HETATM    7  C6  UNL     1     -32.879  18.378  -0.278  1.00 20.00     0.019 C 
HETATM    8  C7  UNL     1     -34.978  19.261  -1.260  1.00 20.00     0.019 C 
HETATM    9  C8  UNL     1     -35.096  17.389   0.370  1.00 20.00     0.019 C 
ENDBRANCH   4   6
TORSDOF 1
ENDMDL
