MODEL 1
REMARK VINA RESULT:      -4.1      0.000      0.000
REMARK  2 active torsions:
REMARK  status: ('A' for Active; 'I' for Inactive)
REMARK    1  A    between atoms: C3_3  and  O10_10 
REMARK    2  A    between atoms: C8_8  and  O10_10 
ROOT
HETATM    1  C1  UNL     1     -35.084  13.498  -3.964  1.00 20.00     0.069 C 
HETATM    2  C2  UNL     1     -36.196  13.759  -5.004  1.00 20.00     0.173 C 
HETATM    3  C3  UNL     1     -34.793  15.015  -3.910  1.00 20.00     0.134 C 
HETATM    4  C4  UNL     1     -35.560  15.171  -5.267  1.00 20.00     0.008 C 
HETATM    5  C5  UNL     1     -36.454  16.413  -5.309  1.00 20.00     0.020 C 
HETATM    6  C6  UNL     1     -34.657  15.139  -6.512  1.00 20.00     0.020 C 
HETATM    7  O9  UNL     1     -37.478  13.779  -4.422  1.00 20.00    -0.234 OA
ENDROOT
BRANCH   3   8
HETATM    8  O10 UNL     1     -33.406  15.398  -3.907  1.00 20.00    -0.385 OA
BRANCH   8   9
HETATM    9  C8  UNL     1     -33.179  16.459  -2.999  1.00 20.00     0.163 C 
HETATM   10  C7  UNL     1     -34.320  16.511  -2.004  1.00 20.00     0.033 C 
ENDBRANCH   8   9
ENDBRANCH   3   8
TORSDOF 2
ENDMDL
MODEL 2
REMARK VINA RESULT:      -4.0     17.785     18.989
REMARK  2 active torsions:
REMARK  status: ('A' for Active; 'I' for Inactive)
REMARK    1  A    between atoms: C3_3  and  O10_10 
REMARK    2  A    between atoms: C8_8  and  O10_10 
ROOT
HETATM    1  C1  UNL     1     -23.767  18.901   8.652  1.00 20.00     0.069 C 
HETATM    2  C2  UNL     1     -22.500  18.114   9.055  1.00 20.00     0.173 C 
HETATM    3  C3  UNL     1     -24.253  18.849  10.119  1.00 20.00     0.134 C 
HETATM    4  C4  UNL     1     -23.239  17.682  10.372  1.00 20.00     0.008 C 
HETATM    5  C5  UNL     1     -22.523  17.796  11.720  1.00 20.00     0.020 C 
HETATM    6  C6  UNL     1     -23.843  16.275  10.222  1.00 20.00     0.020 C 
HETATM    7  O9  UNL     1     -21.385  18.954   9.242  1.00 20.00    -0.234 OA
ENDROOT
BRANCH   3   8
HETATM    8  O10 UNL     1     -25.646  18.547  10.318  1.00 20.00    -0.385 OA
BRANCH   8   9
HETATM    9  C8  UNL     1     -26.133  19.166  11.492  1.00 20.00     0.163 C 
HETATM   10  C7  UNL     1     -26.857  18.134  12.331  1.00 20.00     0.033 C 
ENDBRANCH   8   9
ENDBRANCH   3   8
TORSDOF 2
ENDMDL
MODEL 3
REMARK VINA RESULT:      -3.9      1.612      3.264
REMARK  2 active torsions:
REMARK  status: ('A' for Active; 'I' for Inactive)
REMARK    1  A    between atoms: C3_3  and  O10_10 
REMARK    2  A    between atoms: C8_8  and  O10_10 
ROOT
HETATM    1  C1  UNL     1     -36.510  14.830  -5.245  1.00 20.00     0.069 C 
HETATM    2  C2  UNL     1     -35.884  13.965  -4.128  1.00 20.00     0.173 C 
HETATM    3  C3  UNL     1     -35.098  15.314  -5.648  1.00 20.00     0.134 C 
HETATM    4  C4  UNL     1     -34.576  14.826  -4.253  1.00 20.00     0.008 C 
HETATM    5  C5  UNL     1     -33.213  14.135  -4.334  1.00 20.00     0.020 C 
HETATM    6  C6  UNL     1     -34.539  15.922  -3.174  1.00 20.00     0.020 C 
HETATM    7  O9  UNL     1     -35.751  12.616  -4.508  1.00 20.00    -0.234 OA
ENDROOT
BRANCH   3   8
HETATM    8  O10 UNL     1     -34.963  16.718  -5.932  1.00 20.00    -0.385 OA
BRANCH   8   9
HETATM    9  C8  UNL     1     -34.391  16.920  -7.209  1.00 20.00     0.163 C 
HETATM   10  C7  UNL     1     -33.993  15.579  -7.790  1.00 20.00     0.033 C 
ENDBRANCH   8   9
ENDBRANCH   3   8
TORSDOF 2
ENDMDL
MODEL 4
REMARK VINA RESULT:      -3.7      1.919      2.905
REMARK  2 active torsions:
REMARK  status: ('A' for Active; 'I' for Inactive)
REMARK    1  A    between atoms: C3_3  and  O10_10 
REMARK    2  A    between atoms: C8_8  and  O10_10 
ROOT
HETATM    1  C1  UNL     1     -36.837  15.022  -4.863  1.00 20.00     0.069 C 
HETATM    2  C2  UNL     1     -36.083  13.957  -4.035  1.00 20.00     0.173 C 
HETATM    3  C3  UNL     1     -35.492  15.716  -5.176  1.00 20.00     0.134 C 
HETATM    4  C4  UNL     1     -34.854  14.933  -3.978  1.00 20.00     0.008 C 
HETATM    5  C5  UNL     1     -33.450  14.409  -4.287  1.00 20.00     0.020 C 
HETATM    6  C6  UNL     1     -34.838  15.712  -2.651  1.00 20.00     0.020 C 
HETATM    7  O9  UNL     1     -35.871  12.768  -4.760  1.00 20.00    -0.234 OA
ENDROOT
BRANCH   3   8
HETATM    8  O10 UNL     1     -35.480  17.152  -5.087  1.00 20.00    -0.385 OA
BRANCH   8   9
HETATM    9  C8  UNL     1     -34.631  17.710  -6.071  1.00 20.00     0.163 C 
HETATM   10  C7  UNL     1     -33.818  18.824  -5.446  1.00 20.00     0.033 C 
ENDBRANCH   8   9
ENDBRANCH   3   8
TORSDOF 2
ENDMDL
MODEL 5
REMARK VINA RESULT:      -3.6      1.608      1.785
REMARK  2 active torsions:
REMARK  status: ('A' for Active; 'I' for Inactive)
REMARK    1  A    between atoms: C3_3  and  O10_10 
REMARK    2  A    between atoms: C8_8  and  O10_10 
ROOT
HETATM    1  C1  UNL     1     -36.379  14.175  -4.186  1.00 20.00     0.069 C 
HETATM    2  C2  UNL     1     -35.773  14.399  -5.589  1.00 20.00     0.173 C 
HETATM    3  C3  UNL     1     -35.672  15.456  -3.687  1.00 20.00     0.134 C 
HETATM    4  C4  UNL     1     -34.729  15.374  -4.936  1.00 20.00     0.008 C 
HETATM    5  C5  UNL     1     -34.461  16.740  -5.572  1.00 20.00     0.020 C 
HETATM    6  C6  UNL     1     -33.396  14.651  -4.676  1.00 20.00     0.020 C 
HETATM    7  O9  UNL     1     -36.685  15.004  -6.475  1.00 20.00    -0.234 OA
ENDROOT
BRANCH   3   8
HETATM    8  O10 UNL     1     -35.040  15.373  -2.396  1.00 20.00    -0.385 OA
BRANCH   8   9
HETATM    9  C8  UNL     1     -35.083  16.623  -1.735  1.00 20.00     0.163 C 
HETATM   10  C7  UNL     1     -33.708  17.256  -1.787  1.00 20.00     0.033 C 
ENDBRANCH   8   9
ENDBRANCH   3   8
TORSDOF 2
ENDMDL
MODEL 6
REMARK VINA RESULT:      -3.5      1.599      1.885
REMARK  2 active torsions:
REMARK  status: ('A' for Active; 'I' for Inactive)
REMARK    1  A    between atoms: C3_3  and  O10_10 
REMARK    2  A    between atoms: C8_8  and  O10_10 
ROOT
HETATM    1  C1  UNL     1     -34.496  14.561  -3.917  1.00 20.00     0.069 C 
HETATM    2  C2  UNL     1     -35.514  13.977  -4.922  1.00 20.00     0.173 C 
HETATM    3  C3  UNL     1     -35.635  15.357  -3.240  1.00 20.00     0.134 C 
HETATM    4  C4  UNL     1     -36.503  15.132  -4.525  1.00 20.00     0.008 C 
HETATM    5  C5  UNL     1     -37.965  14.808  -4.209  1.00 20.00     0.020 C 
HETATM    6  C6  UNL     1     -36.434  16.282  -5.544  1.00 20.00     0.020 C 
HETATM    7  O9  UNL     1     -35.934  12.681  -4.565  1.00 20.00    -0.234 OA
ENDROOT
BRANCH   3   8
HETATM    8  O10 UNL     1     -35.339  16.722  -2.893  1.00 20.00    -0.385 OA
BRANCH   8   9
HETATM    9  C8  UNL     1     -35.338  16.895  -1.489  1.00 20.00     0.163 C 
HETATM   10  C7  UNL     1     -34.055  17.588  -1.079  1.00 20.00     0.033 C 
ENDBRANCH   8   9
ENDBRANCH   3   8
TORSDOF 2
ENDMDL
MODEL 7
REMARK VINA RESULT:      -3.5      1.774      3.398
REMARK  2 active torsions:
REMARK  status: ('A' for Active; 'I' for Inactive)
REMARK    1  A    between atoms: C3_3  and  O10_10 
REMARK    2  A    between atoms: C8_8  and  O10_10 
ROOT
HETATM    1  C1  UNL     1     -33.283  15.386  -3.802  1.00 20.00     0.069 C 
HETATM    2  C2  UNL     1     -34.540  15.508  -2.912  1.00 20.00     0.173 C 
HETATM    3  C3  UNL     1     -34.172  15.522  -5.059  1.00 20.00     0.134 C 
HETATM    4  C4  UNL     1     -35.413  15.164  -4.172  1.00 20.00     0.008 C 
HETATM    5  C5  UNL     1     -36.645  16.011  -4.499  1.00 20.00     0.020 C 
HETATM    6  C6  UNL     1     -35.790  13.673  -4.184  1.00 20.00     0.020 C 
HETATM    7  O9  UNL     1     -34.710  16.810  -2.403  1.00 20.00    -0.234 OA
ENDROOT
BRANCH   3   8
HETATM    8  O10 UNL     1     -33.879  14.627  -6.147  1.00 20.00    -0.385 OA
BRANCH   8   9
HETATM    9  C8  UNL     1     -33.937  15.306  -7.387  1.00 20.00     0.163 C 
HETATM   10  C7  UNL     1     -35.354  15.244  -7.918  1.00 20.00     0.033 C 
ENDBRANCH   8   9
ENDBRANCH   3   8
TORSDOF 2
ENDMDL
MODEL 8
REMARK VINA RESULT:      -3.4      1.894      3.616
REMARK  2 active torsions:
REMARK  status: ('A' for Active; 'I' for Inactive)
REMARK    1  A    between atoms: C3_3  and  O10_10 
REMARK    2  A    between atoms: C8_8  and  O10_10 
ROOT
HETATM    1  C1  UNL     1     -34.098  17.181  -3.655  1.00 20.00     0.069 C 
HETATM    2  C2  UNL     1     -34.043  15.965  -2.704  1.00 20.00     0.173 C 
HETATM    3  C3  UNL     1     -34.755  16.294  -4.736  1.00 20.00     0.134 C 
HETATM    4  C4  UNL     1     -34.252  15.034  -3.952  1.00 20.00     0.008 C 
HETATM    5  C5  UNL     1     -35.289  13.910  -3.900  1.00 20.00     0.020 C 
HETATM    6  C6  UNL     1     -32.906  14.477  -4.448  1.00 20.00     0.020 C 
HETATM    7  O9  UNL     1     -35.100  15.965  -1.774  1.00 20.00    -0.234 OA
ENDROOT
BRANCH   3   8
HETATM    8  O10 UNL     1     -34.263  16.456  -6.079  1.00 20.00    -0.385 OA
BRANCH   8   9
HETATM    9  C8  UNL     1     -35.332  16.506  -7.004  1.00 20.00     0.163 C 
HETATM   10  C7  UNL     1     -35.664  15.097  -7.451  1.00 20.00     0.033 C 
ENDBRANCH   8   9
ENDBRANCH   3   8
TORSDOF 2
ENDMDL
MODEL 9
REMARK VINA RESULT:      -3.4     16.486     18.929
REMARK  2 active torsions:
REMARK  status: ('A' for Active; 'I' for Inactive)
REMARK    1  A    between atoms: C3_3  and  O10_10 
REMARK    2  A    between atoms: C8_8  and  O10_10 
ROOT
HETATM    1  C1  UNL     1     -22.630  17.119  10.067  1.00 20.00     0.069 C 
HETATM    2  C2  UNL     1     -22.850  16.994  11.591  1.00 20.00     0.173 C 
HETATM    3  C3  UNL     1     -23.745  18.187  10.004  1.00 20.00     0.134 C 
HETATM    4  C4  UNL     1     -24.245  17.691  11.404  1.00 20.00     0.008 C 
HETATM    5  C5  UNL     1     -24.655  18.837  12.332  1.00 20.00     0.020 C 
HETATM    6  C6  UNL     1     -25.373  16.647  11.339  1.00 20.00     0.020 C 
HETATM    7  O9  UNL     1     -21.906  17.731  12.331  1.00 20.00    -0.234 OA
ENDROOT
BRANCH   3   8
HETATM    8  O10 UNL     1     -24.674  18.074   8.911  1.00 20.00    -0.385 OA
BRANCH   8   9
HETATM    9  C8  UNL     1     -24.620  19.220   8.084  1.00 20.00     0.163 C 
HETATM   10  C7  UNL     1     -25.668  19.095   6.997  1.00 20.00     0.033 C 
ENDBRANCH   8   9
ENDBRANCH   3   8
TORSDOF 2
ENDMDL
