MODEL 1
REMARK VINA RESULT:      -5.4      0.000      0.000
REMARK  1 active torsions:
REMARK  status: ('A' for Active; 'I' for Inactive)
REMARK    1  A    between atoms: C3_3  and  C5_5 
ROOT
HETATM    1  C1  UNL     1     -34.057   6.655   3.584  1.00 20.00     0.055 A 
HETATM    2  C2  UNL     1     -33.187   6.132   2.725  1.00 20.00     0.085 A 
HETATM    3  C3  UNL     1     -34.814   5.569   4.258  1.00 20.00     0.273 A 
HETATM    4  C4  UNL     1     -33.290   4.660   2.758  1.00 20.00     0.378 A 
HETATM    5  O6  UNL     1     -34.275   4.333   3.750  1.00 20.00    -0.273 OA
HETATM    6  F7  UNL     1     -36.129   5.605   3.915  1.00 20.00    -0.202 F 
HETATM    7  F8  UNL     1     -33.687   4.133   1.575  1.00 20.00    -0.171 F 
HETATM    8  F9  UNL     1     -32.125   4.061   3.107  1.00 20.00    -0.171 F 
ENDROOT
BRANCH   3   9
HETATM    9  C5  UNL     1     -34.700   5.585   5.771  1.00 20.00     0.337 C 
HETATM   10  F10 UNL     1     -34.089   4.441   6.172  1.00 20.00    -0.226 F 
HETATM   11 CL11 UNL     1     -33.745   6.977   6.312  1.00 20.00    -0.083 Cl
ENDBRANCH   3   9
TORSDOF 1
ENDMDL
MODEL 2
REMARK VINA RESULT:      -5.2      2.088      3.621
REMARK  1 active torsions:
REMARK  status: ('A' for Active; 'I' for Inactive)
REMARK    1  A    between atoms: C3_3  and  C5_5 
ROOT
HETATM    1  C1  UNL     1     -34.959   5.438   3.780  1.00 20.00     0.055 A 
HETATM    2  C2  UNL     1     -35.204   4.991   5.008  1.00 20.00     0.085 A 
HETATM    3  C3  UNL     1     -33.913   6.491   3.827  1.00 20.00     0.273 A 
HETATM    4  C4  UNL     1     -34.342   5.704   5.971  1.00 20.00     0.378 A 
HETATM    5  O6  UNL     1     -33.518   6.598   5.209  1.00 20.00    -0.273 OA
HETATM    6  F7  UNL     1     -34.418   7.698   3.459  1.00 20.00    -0.202 F 
HETATM    7  F8  UNL     1     -35.046   6.435   6.868  1.00 20.00    -0.171 F 
HETATM    8  F9  UNL     1     -33.530   4.870   6.665  1.00 20.00    -0.171 F 
ENDROOT
BRANCH   3   9
HETATM    9  C5  UNL     1     -32.695   6.188   2.976  1.00 20.00     0.337 C 
HETATM   10  F10 UNL     1     -32.888   4.999   2.348  1.00 20.00    -0.226 F 
HETATM   11 CL11 UNL     1     -32.448   7.454   1.762  1.00 20.00    -0.083 Cl
ENDBRANCH   3   9
TORSDOF 1
ENDMDL
MODEL 3
REMARK VINA RESULT:      -4.6      8.796      9.860
REMARK  1 active torsions:
REMARK  status: ('A' for Active; 'I' for Inactive)
REMARK    1  A    between atoms: C3_3  and  C5_5 
ROOT
HETATM    1  C1  UNL     1     -41.390   7.026  -1.677  1.00 20.00     0.055 A 
HETATM    2  C2  UNL     1     -41.523   7.987  -0.767  1.00 20.00     0.085 A 
HETATM    3  C3  UNL     1     -41.504   5.697  -1.025  1.00 20.00     0.273 A 
HETATM    4  C4  UNL     1     -41.741   7.378   0.560  1.00 20.00     0.378 A 
HETATM    5  O6  UNL     1     -41.770   5.957   0.367  1.00 20.00    -0.273 OA
HETATM    6  F7  UNL     1     -40.328   5.018  -1.090  1.00 20.00    -0.202 F 
HETATM    7  F8  UNL     1     -40.753   7.668   1.440  1.00 20.00    -0.171 F 
HETATM    8  F9  UNL     1     -42.917   7.752   1.121  1.00 20.00    -0.171 F 
ENDROOT
BRANCH   3   9
HETATM    9  C5  UNL     1     -42.606   4.824  -1.595  1.00 20.00     0.337 C 
HETATM   10  F10 UNL     1     -43.417   5.596  -2.364  1.00 20.00    -0.226 F 
HETATM   11 CL11 UNL     1     -41.926   3.523  -2.588  1.00 20.00    -0.083 Cl
ENDBRANCH   3   9
TORSDOF 1
ENDMDL
MODEL 4
REMARK VINA RESULT:      -4.6     12.330     13.304
REMARK  1 active torsions:
REMARK  status: ('A' for Active; 'I' for Inactive)
REMARK    1  A    between atoms: C3_3  and  C5_5 
ROOT
HETATM    1  C1  UNL     1     -33.466  15.194  -3.894  1.00 20.00     0.055 A 
HETATM    2  C2  UNL     1     -33.597  16.141  -2.969  1.00 20.00     0.085 A 
HETATM    3  C3  UNL     1     -34.776  14.533  -4.126  1.00 20.00     0.273 A 
HETATM    4  C4  UNL     1     -35.001  16.190  -2.514  1.00 20.00     0.378 A 
HETATM    5  O6  UNL     1     -35.721  15.213  -3.279  1.00 20.00    -0.273 OA
HETATM    6  F7  UNL     1     -34.743  13.233  -3.729  1.00 20.00    -0.202 F 
HETATM    7  F8  UNL     1     -35.139  15.889  -1.200  1.00 20.00    -0.171 F 
HETATM    8  F9  UNL     1     -35.577  17.399  -2.723  1.00 20.00    -0.171 F 
ENDROOT
BRANCH   3   9
HETATM    9  C5  UNL     1     -35.251  14.595  -5.565  1.00 20.00     0.337 C 
HETATM   10  F10 UNL     1     -36.182  15.578  -5.673  1.00 20.00    -0.226 F 
HETATM   11 CL11 UNL     1     -33.901  14.950  -6.656  1.00 20.00    -0.083 Cl
ENDBRANCH   3   9
TORSDOF 1
ENDMDL
MODEL 5
REMARK VINA RESULT:      -4.6      8.612      9.661
REMARK  1 active torsions:
REMARK  status: ('A' for Active; 'I' for Inactive)
REMARK    1  A    between atoms: C3_3  and  C5_5 
ROOT
HETATM    1  C1  UNL     1     -41.495   6.832  -1.132  1.00 20.00     0.055 A 
HETATM    2  C2  UNL     1     -41.883   8.086  -1.341  1.00 20.00     0.085 A 
HETATM    3  C3  UNL     1     -41.457   6.552   0.326  1.00 20.00     0.273 A 
HETATM    4  C4  UNL     1     -42.140   8.742  -0.043  1.00 20.00     0.378 A 
HETATM    5  O6  UNL     1     -41.911   7.755   0.974  1.00 20.00    -0.273 OA
HETATM    6  F7  UNL     1     -40.184   6.324   0.747  1.00 20.00    -0.202 F 
HETATM    7  F8  UNL     1     -41.315   9.791   0.189  1.00 20.00    -0.171 F 
HETATM    8  F9  UNL     1     -43.415   9.184   0.078  1.00 20.00    -0.171 F 
ENDROOT
BRANCH   3   9
HETATM    9  C5  UNL     1     -42.331   5.388   0.752  1.00 20.00     0.337 C 
HETATM   10  F10 UNL     1     -43.070   5.770   1.826  1.00 20.00    -0.226 F 
HETATM   11 CL11 UNL     1     -43.417   4.905  -0.562  1.00 20.00    -0.083 Cl
ENDBRANCH   3   9
TORSDOF 1
ENDMDL
MODEL 6
REMARK VINA RESULT:      -4.5      1.902      3.434
REMARK  1 active torsions:
REMARK  status: ('A' for Active; 'I' for Inactive)
REMARK    1  A    between atoms: C3_3  and  C5_5 
ROOT
HETATM    1  C1  UNL     1     -33.313   4.637   2.846  1.00 20.00     0.055 A 
HETATM    2  C2  UNL     1     -34.073   4.283   3.878  1.00 20.00     0.085 A 
HETATM    3  C3  UNL     1     -33.387   6.107   2.647  1.00 20.00     0.273 A 
HETATM    4  C4  UNL     1     -34.710   5.485   4.453  1.00 20.00     0.378 A 
HETATM    5  O6  UNL     1     -34.233   6.609   3.699  1.00 20.00    -0.273 OA
HETATM    6  F7  UNL     1     -33.990   6.411   1.467  1.00 20.00    -0.202 F 
HETATM    7  F8  UNL     1     -36.061   5.456   4.367  1.00 20.00    -0.171 F 
HETATM    8  F9  UNL     1     -34.383   5.679   5.754  1.00 20.00    -0.171 F 
ENDROOT
BRANCH   3   9
HETATM    9  C5  UNL     1     -32.041   6.804   2.705  1.00 20.00     0.337 C 
HETATM   10  F10 UNL     1     -31.903   7.574   1.594  1.00 20.00    -0.226 F 
HETATM   11 CL11 UNL     1     -31.929   7.832   4.144  1.00 20.00    -0.083 Cl
ENDBRANCH   3   9
TORSDOF 1
ENDMDL
MODEL 7
REMARK VINA RESULT:      -4.4     12.201     13.025
REMARK  1 active torsions:
REMARK  status: ('A' for Active; 'I' for Inactive)
REMARK    1  A    between atoms: C3_3  and  C5_5 
ROOT
HETATM    1  C1  UNL     1     -35.449  16.283  -4.767  1.00 20.00     0.055 A 
HETATM    2  C2  UNL     1     -35.104  16.891  -3.636  1.00 20.00     0.085 A 
HETATM    3  C3  UNL     1     -35.041  14.856  -4.717  1.00 20.00     0.273 A 
HETATM    4  C4  UNL     1     -34.443  15.921  -2.740  1.00 20.00     0.378 A 
HETATM    5  O6  UNL     1     -34.456  14.655  -3.416  1.00 20.00    -0.273 OA
HETATM    6  F7  UNL     1     -34.075  14.592  -5.637  1.00 20.00    -0.202 F 
HETATM    7  F8  UNL     1     -33.156  16.246  -2.470  1.00 20.00    -0.171 F 
HETATM    8  F9  UNL     1     -35.089  15.775  -1.558  1.00 20.00    -0.171 F 
ENDROOT
BRANCH   3   9
HETATM    9  C5  UNL     1     -36.186  13.881  -4.913  1.00 20.00     0.337 C 
HETATM   10  F10 UNL     1     -35.900  12.736  -4.240  1.00 20.00    -0.226 F 
HETATM   11 CL11 UNL     1     -37.700  14.559  -4.292  1.00 20.00    -0.083 Cl
ENDBRANCH   3   9
TORSDOF 1
ENDMDL
MODEL 8
REMARK VINA RESULT:      -4.4      9.368      9.855
REMARK  1 active torsions:
REMARK  status: ('A' for Active; 'I' for Inactive)
REMARK    1  A    between atoms: C3_3  and  C5_5 
ROOT
HETATM    1  C1  UNL     1     -40.953   6.712  -0.766  1.00 20.00     0.055 A 
HETATM    2  C2  UNL     1     -41.190   5.406  -0.836  1.00 20.00     0.085 A 
HETATM    3  C3  UNL     1     -42.206   7.466  -1.030  1.00 20.00     0.273 A 
HETATM    4  C4  UNL     1     -42.616   5.182  -1.147  1.00 20.00     0.378 A 
HETATM    5  O6  UNL     1     -43.234   6.475  -1.219  1.00 20.00    -0.273 OA
HETATM    6  F7  UNL     1     -42.115   8.175  -2.187  1.00 20.00    -0.202 F 
HETATM    7  F8  UNL     1     -42.804   4.554  -2.332  1.00 20.00    -0.171 F 
HETATM    8  F9  UNL     1     -43.254   4.461  -0.192  1.00 20.00    -0.171 F 
ENDROOT
BRANCH   3   9
HETATM    9  C5  UNL     1     -42.608   8.404   0.091  1.00 20.00     0.337 C 
HETATM   10  F10 UNL     1     -42.853   7.669   1.206  1.00 20.00    -0.226 F 
HETATM   11 CL11 UNL     1     -41.314   9.566   0.431  1.00 20.00    -0.083 Cl
ENDBRANCH   3   9
TORSDOF 1
ENDMDL
MODEL 9
REMARK VINA RESULT:      -4.4     17.174     17.677
REMARK  1 active torsions:
REMARK  status: ('A' for Active; 'I' for Inactive)
REMARK    1  A    between atoms: C3_3  and  C5_5 
ROOT
HETATM    1  C1  UNL     1     -24.304  16.589  10.275  1.00 20.00     0.055 A 
HETATM    2  C2  UNL     1     -23.614  17.064   9.242  1.00 20.00     0.085 A 
HETATM    3  C3  UNL     1     -23.804  17.194  11.535  1.00 20.00     0.273 A 
HETATM    4  C4  UNL     1     -22.604  18.025   9.728  1.00 20.00     0.378 A 
HETATM    5  O6  UNL     1     -22.772  18.122  11.150  1.00 20.00    -0.273 OA
HETATM    6  F7  UNL     1     -23.225  16.257  12.331  1.00 20.00    -0.202 F 
HETATM    7  F8  UNL     1     -21.334  17.626   9.475  1.00 20.00    -0.171 F 
HETATM    8  F9  UNL     1     -22.762  19.263   9.199  1.00 20.00    -0.171 F 
ENDROOT
BRANCH   3   9
HETATM    9  C5  UNL     1     -24.868  17.925  12.332  1.00 20.00     0.337 C 
HETATM   10  F10 UNL     1     -25.032  19.165  11.803  1.00 20.00    -0.226 F 
HETATM   11 CL11 UNL     1     -26.410  17.054  12.265  1.00 20.00    -0.083 Cl
ENDBRANCH   3   9
TORSDOF 1
ENDMDL
