MODEL 1
REMARK VINA RESULT:      -5.4      0.000      0.000
REMARK  2 active torsions:
REMARK  status: ('A' for Active; 'I' for Inactive)
REMARK    1  A    between atoms: C3_3  and  C4_4 
REMARK    2  A    between atoms: C3_3  and  C5_5 
ROOT
HETATM    1  C3  UNL     1     -33.825   6.396   4.012  1.00 20.00     0.157 C 
ENDROOT
BRANCH   1   2
HETATM    2  C4  UNL     1     -34.747   5.295   4.529  1.00 20.00     0.245 C 
HETATM    3  C1  UNL     1     -34.789   5.229   6.041  1.00 20.00     0.090 C 
HETATM    4  F6  UNL     1     -34.339   4.092   4.052  1.00 20.00    -0.207 F 
HETATM    5  F7  UNL     1     -36.006   5.494   4.067  1.00 20.00    -0.207 F 
ENDBRANCH   1   2
BRANCH   1   6
HETATM    6  C5  UNL     1     -33.181   6.035   2.678  1.00 20.00     0.245 C 
HETATM    7  C2  UNL     1     -32.474   7.210   2.032  1.00 20.00     0.090 C 
HETATM    8  F8  UNL     1     -32.283   5.032   2.856  1.00 20.00    -0.207 F 
HETATM    9  F9  UNL     1     -34.124   5.570   1.821  1.00 20.00    -0.207 F 
ENDBRANCH   1   6
TORSDOF 2
ENDMDL
MODEL 2
REMARK VINA RESULT:      -5.4      0.003      3.481
REMARK  2 active torsions:
REMARK  status: ('A' for Active; 'I' for Inactive)
REMARK    1  A    between atoms: C3_3  and  C4_4 
REMARK    2  A    between atoms: C3_3  and  C5_5 
ROOT
HETATM    1  C3  UNL     1     -33.826   6.395   4.013  1.00 20.00     0.157 C 
ENDROOT
BRANCH   1   2
HETATM    2  C4  UNL     1     -33.182   6.035   2.677  1.00 20.00     0.245 C 
HETATM    3  C1  UNL     1     -32.478   7.210   2.031  1.00 20.00     0.090 C 
HETATM    4  F6  UNL     1     -34.127   5.570   1.821  1.00 20.00    -0.207 F 
HETATM    5  F7  UNL     1     -32.285   5.033   2.853  1.00 20.00    -0.207 F 
ENDBRANCH   1   2
BRANCH   1   6
HETATM    6  C5  UNL     1     -34.747   5.295   4.528  1.00 20.00     0.245 C 
HETATM    7  C2  UNL     1     -34.789   5.228   6.042  1.00 20.00     0.090 C 
HETATM    8  F8  UNL     1     -36.008   5.496   4.067  1.00 20.00    -0.207 F 
HETATM    9  F9  UNL     1     -34.342   4.092   4.051  1.00 20.00    -0.207 F 
ENDBRANCH   1   6
TORSDOF 2
ENDMDL
MODEL 3
REMARK VINA RESULT:      -4.5      0.910      1.273
REMARK  2 active torsions:
REMARK  status: ('A' for Active; 'I' for Inactive)
REMARK    1  A    between atoms: C3_3  and  C4_4 
REMARK    2  A    between atoms: C3_3  and  C5_5 
ROOT
HETATM    1  C3  UNL     1     -33.802   6.515   4.097  1.00 20.00     0.157 C 
ENDROOT
BRANCH   1   2
HETATM    2  C4  UNL     1     -34.779   5.452   4.593  1.00 20.00     0.245 C 
HETATM    3  C1  UNL     1     -34.314   4.043   4.288  1.00 20.00     0.090 C 
HETATM    4  F6  UNL     1     -35.995   5.642   4.022  1.00 20.00    -0.207 F 
HETATM    5  F7  UNL     1     -34.950   5.573   5.933  1.00 20.00    -0.207 F 
ENDBRANCH   1   2
BRANCH   1   6
HETATM    6  C5  UNL     1     -33.185   6.153   2.751  1.00 20.00     0.245 C 
HETATM    7  C2  UNL     1     -32.529   7.337   2.070  1.00 20.00     0.090 C 
HETATM    8  F8  UNL     1     -32.256   5.177   2.916  1.00 20.00    -0.207 F 
HETATM    9  F9  UNL     1     -34.138   5.650   1.927  1.00 20.00    -0.207 F 
ENDBRANCH   1   6
TORSDOF 2
ENDMDL
MODEL 4
REMARK VINA RESULT:      -4.3      1.121      1.611
REMARK  2 active torsions:
REMARK  status: ('A' for Active; 'I' for Inactive)
REMARK    1  A    between atoms: C3_3  and  C4_4 
REMARK    2  A    between atoms: C3_3  and  C5_5 
ROOT
HETATM    1  C3  UNL     1     -33.684   6.639   4.433  1.00 20.00     0.157 C 
ENDROOT
BRANCH   1   2
HETATM    2  C4  UNL     1     -34.637   5.464   4.634  1.00 20.00     0.245 C 
HETATM    3  C1  UNL     1     -34.921   5.185   6.095  1.00 20.00     0.090 C 
HETATM    4  F6  UNL     1     -34.113   4.345   4.072  1.00 20.00    -0.207 F 
HETATM    5  F7  UNL     1     -35.811   5.709   4.002  1.00 20.00    -0.207 F 
ENDBRANCH   1   2
BRANCH   1   6
HETATM    6  C5  UNL     1     -33.029   6.626   3.057  1.00 20.00     0.245 C 
HETATM    7  C2  UNL     1     -33.124   5.275   2.376  1.00 20.00     0.090 C 
HETATM    8  F8  UNL     1     -33.612   7.557   2.259  1.00 20.00    -0.207 F 
HETATM    9  F9  UNL     1     -31.721   6.968   3.165  1.00 20.00    -0.207 F 
ENDBRANCH   1   6
TORSDOF 2
ENDMDL
MODEL 5
REMARK VINA RESULT:      -4.3      1.432      3.454
REMARK  2 active torsions:
REMARK  status: ('A' for Active; 'I' for Inactive)
REMARK    1  A    between atoms: C3_3  and  C4_4 
REMARK    2  A    between atoms: C3_3  and  C5_5 
ROOT
HETATM    1  C3  UNL     1     -33.579   5.486   3.408  1.00 20.00     0.157 C 
ENDROOT
BRANCH   1   2
HETATM    2  C4  UNL     1     -33.177   6.955   3.323  1.00 20.00     0.245 C 
HETATM    3  C1  UNL     1     -32.500   7.301   2.013  1.00 20.00     0.090 C 
HETATM    4  F6  UNL     1     -32.335   7.262   4.342  1.00 20.00    -0.207 F 
HETATM    5  F7  UNL     1     -34.272   7.742   3.468  1.00 20.00    -0.207 F 
ENDBRANCH   1   2
BRANCH   1   6
HETATM    6  C5  UNL     1     -34.634   5.235   4.480  1.00 20.00     0.245 C 
HETATM    7  C2  UNL     1     -34.373   6.014   5.753  1.00 20.00     0.090 C 
HETATM    8  F8  UNL     1     -35.861   5.572   4.007  1.00 20.00    -0.207 F 
HETATM    9  F9  UNL     1     -34.680   3.913   4.781  1.00 20.00    -0.207 F 
ENDBRANCH   1   6
TORSDOF 2
ENDMDL
MODEL 6
REMARK VINA RESULT:      -4.3      1.433      1.772
REMARK  2 active torsions:
REMARK  status: ('A' for Active; 'I' for Inactive)
REMARK    1  A    between atoms: C3_3  and  C4_4 
REMARK    2  A    between atoms: C3_3  and  C5_5 
ROOT
HETATM    1  C3  UNL     1     -33.578   5.488   3.413  1.00 20.00     0.157 C 
ENDROOT
BRANCH   1   2
HETATM    2  C4  UNL     1     -34.636   5.238   4.485  1.00 20.00     0.245 C 
HETATM    3  C1  UNL     1     -34.374   6.018   5.756  1.00 20.00     0.090 C 
HETATM    4  F6  UNL     1     -34.682   3.916   4.787  1.00 20.00    -0.207 F 
HETATM    5  F7  UNL     1     -35.861   5.577   4.011  1.00 20.00    -0.207 F 
ENDBRANCH   1   2
BRANCH   1   6
HETATM    6  C5  UNL     1     -33.176   6.956   3.325  1.00 20.00     0.245 C 
HETATM    7  C2  UNL     1     -32.500   7.300   2.014  1.00 20.00     0.090 C 
HETATM    8  F8  UNL     1     -34.272   7.744   3.470  1.00 20.00    -0.207 F 
HETATM    9  F9  UNL     1     -32.335   7.265   4.343  1.00 20.00    -0.207 F 
ENDBRANCH   1   6
TORSDOF 2
ENDMDL
MODEL 7
REMARK VINA RESULT:      -4.3      8.260      9.041
REMARK  2 active torsions:
REMARK  status: ('A' for Active; 'I' for Inactive)
REMARK    1  A    between atoms: C3_3  and  C4_4 
REMARK    2  A    between atoms: C3_3  and  C5_5 
ROOT
HETATM    1  C3  UNL     1     -41.722   7.060  -0.951  1.00 20.00     0.157 C 
ENDROOT
BRANCH   1   2
HETATM    2  C4  UNL     1     -41.677   5.544  -0.777  1.00 20.00     0.245 C 
HETATM    3  C1  UNL     1     -42.737   4.831  -1.591  1.00 20.00     0.090 C 
HETATM    4  F6  UNL     1     -41.846   5.226   0.531  1.00 20.00    -0.207 F 
HETATM    5  F7  UNL     1     -40.459   5.074  -1.142  1.00 20.00    -0.207 F 
ENDBRANCH   1   2
BRANCH   1   6
HETATM    6  C5  UNL     1     -41.637   7.799   0.380  1.00 20.00     0.245 C 
HETATM    7  C2  UNL     1     -41.467   9.295   0.209  1.00 20.00     0.090 C 
HETATM    8  F8  UNL     1     -42.761   7.570   1.107  1.00 20.00    -0.207 F 
HETATM    9  F9  UNL     1     -40.596   7.323   1.107  1.00 20.00    -0.207 F 
ENDBRANCH   1   6
TORSDOF 2
ENDMDL
MODEL 8
REMARK VINA RESULT:      -4.3      8.268      8.971
REMARK  2 active torsions:
REMARK  status: ('A' for Active; 'I' for Inactive)
REMARK    1  A    between atoms: C3_3  and  C4_4 
REMARK    2  A    between atoms: C3_3  and  C5_5 
ROOT
HETATM    1  C3  UNL     1     -41.755   7.055  -0.950  1.00 20.00     0.157 C 
ENDROOT
BRANCH   1   2
HETATM    2  C4  UNL     1     -41.649   7.798   0.379  1.00 20.00     0.245 C 
HETATM    3  C1  UNL     1     -41.469   9.291   0.201  1.00 20.00     0.090 C 
HETATM    4  F6  UNL     1     -40.600   7.316   1.093  1.00 20.00    -0.207 F 
HETATM    5  F7  UNL     1     -42.763   7.579   1.120  1.00 20.00    -0.207 F 
ENDBRANCH   1   2
BRANCH   1   6
HETATM    6  C5  UNL     1     -41.689   5.542  -0.775  1.00 20.00     0.245 C 
HETATM    7  C2  UNL     1     -42.721   4.811  -1.609  1.00 20.00     0.090 C 
HETATM    8  F8  UNL     1     -40.455   5.092  -1.118  1.00 20.00    -0.207 F 
HETATM    9  F9  UNL     1     -41.875   5.220   0.529  1.00 20.00    -0.207 F 
ENDBRANCH   1   6
TORSDOF 2
ENDMDL
MODEL 9
REMARK VINA RESULT:      -4.1      0.868      3.367
REMARK  2 active torsions:
REMARK  status: ('A' for Active; 'I' for Inactive)
REMARK    1  A    between atoms: C3_3  and  C4_4 
REMARK    2  A    between atoms: C3_3  and  C5_5 
ROOT
HETATM    1  C3  UNL     1     -33.784   6.213   3.933  1.00 20.00     0.157 C 
ENDROOT
BRANCH   1   2
HETATM    2  C4  UNL     1     -33.323   5.749   2.555  1.00 20.00     0.245 C 
HETATM    3  C1  UNL     1     -32.664   4.386   2.587  1.00 20.00     0.090 C 
HETATM    4  F6  UNL     1     -32.444   6.645   2.037  1.00 20.00    -0.207 F 
HETATM    5  F7  UNL     1     -34.380   5.701   1.707  1.00 20.00    -0.207 F 
ENDBRANCH   1   2
BRANCH   1   6
HETATM    6  C5  UNL     1     -34.822   5.277   4.543  1.00 20.00     0.245 C 
HETATM    7  C2  UNL     1     -34.827   5.317   6.058  1.00 20.00     0.090 C 
HETATM    8  F8  UNL     1     -36.060   5.607   4.096  1.00 20.00    -0.207 F 
HETATM    9  F9  UNL     1     -34.586   4.003   4.142  1.00 20.00    -0.207 F 
ENDBRANCH   1   6
TORSDOF 2
ENDMDL
