MODEL 1
REMARK VINA RESULT:      -5.9      0.000      0.000
REMARK  2 active torsions:
REMARK  status: ('A' for Active; 'I' for Inactive)
REMARK    1  A    between atoms: C2_2  and  C3_3 
REMARK    2  A    between atoms: C3_3  and  C7_7 
ROOT
HETATM    1  C3  UNL     1     -32.337   7.283   2.373  1.00 20.00     0.255 C 
HETATM    2  O8  UNL     1     -31.619   7.733   3.262  1.00 20.00    -0.283 OA
ENDROOT
BRANCH   1   3
HETATM    3  C2  UNL     1     -33.047   5.983   2.511  1.00 20.00     0.062 C 
HETATM    4  C1  UNL     1     -33.726   5.687   3.620  1.00 20.00    -0.076 C 
HETATM    5  C4  UNL     1     -34.531   4.480   4.051  1.00 20.00     0.034 C 
HETATM    6  C5  UNL     1     -33.967   6.428   4.917  1.00 20.00     0.034 C 
HETATM    7  C6  UNL     1     -35.151   5.452   5.078  1.00 20.00     0.009 C 
ENDBRANCH   1   3
BRANCH   1   8
HETATM    8  C7  UNL     1     -32.546   8.016   1.081  1.00 20.00     0.455 C 
HETATM    9  F9  UNL     1     -31.492   7.870   0.237  1.00 20.00    -0.163 F 
HETATM   10  F10 UNL     1     -33.645   7.574   0.418  1.00 20.00    -0.163 F 
HETATM   11  F11 UNL     1     -32.713   9.349   1.272  1.00 20.00    -0.163 F 
ENDBRANCH   1   8
TORSDOF 2
ENDMDL
MODEL 2
REMARK VINA RESULT:      -5.7      1.161      1.892
REMARK  2 active torsions:
REMARK  status: ('A' for Active; 'I' for Inactive)
REMARK    1  A    between atoms: C2_2  and  C3_3 
REMARK    2  A    between atoms: C3_3  and  C7_7 
ROOT
HETATM    1  C3  UNL     1     -32.838   6.707   2.283  1.00 20.00     0.255 C 
HETATM    2  O8  UNL     1     -32.930   5.536   1.926  1.00 20.00    -0.283 OA
ENDROOT
BRANCH   1   3
HETATM    3  C2  UNL     1     -32.911   7.107   3.714  1.00 20.00     0.062 C 
HETATM    4  C1  UNL     1     -33.797   6.547   4.538  1.00 20.00    -0.076 C 
HETATM    5  C4  UNL     1     -34.109   6.736   6.008  1.00 20.00     0.034 C 
HETATM    6  C5  UNL     1     -34.868   5.495   4.349  1.00 20.00     0.034 C 
HETATM    7  C6  UNL     1     -34.785   5.354   5.883  1.00 20.00     0.009 C 
ENDBRANCH   1   3
BRANCH   1   8
HETATM    8  C7  UNL     1     -32.643   7.819   1.295  1.00 20.00     0.455 C 
HETATM    9  F9  UNL     1     -32.635   9.037   1.896  1.00 20.00    -0.163 F 
HETATM   10  F10 UNL     1     -31.469   7.704   0.624  1.00 20.00    -0.163 F 
HETATM   11  F11 UNL     1     -33.627   7.850   0.361  1.00 20.00    -0.163 F 
ENDBRANCH   1   8
TORSDOF 2
ENDMDL
MODEL 3
REMARK VINA RESULT:      -5.3     10.897     11.354
REMARK  2 active torsions:
REMARK  status: ('A' for Active; 'I' for Inactive)
REMARK    1  A    between atoms: C2_2  and  C3_3 
REMARK    2  A    between atoms: C3_3  and  C7_7 
ROOT
HETATM    1  C3  UNL     1     -35.754  13.991  -4.709  1.00 20.00     0.255 C 
HETATM    2  O8  UNL     1     -35.850  12.771  -4.617  1.00 20.00    -0.283 OA
ENDROOT
BRANCH   1   3
HETATM    3  C2  UNL     1     -35.915  14.890  -3.535  1.00 20.00     0.062 C 
HETATM    4  C1  UNL     1     -34.865  15.515  -3.001  1.00 20.00    -0.076 C 
HETATM    5  C4  UNL     1     -34.709  16.469  -1.835  1.00 20.00     0.034 C 
HETATM    6  C5  UNL     1     -33.388  15.527  -3.330  1.00 20.00     0.034 C 
HETATM    7  C6  UNL     1     -33.373  16.837  -2.515  1.00 20.00     0.009 C 
ENDBRANCH   1   3
BRANCH   1   8
HETATM    8  C7  UNL     1     -35.467  14.663  -6.020  1.00 20.00     0.455 C 
HETATM    9  F9  UNL     1     -36.050  14.014  -7.061  1.00 20.00    -0.163 F 
HETATM   10  F10 UNL     1     -35.923  15.941  -6.047  1.00 20.00    -0.163 F 
HETATM   11  F11 UNL     1     -34.138  14.715  -6.287  1.00 20.00    -0.163 F 
ENDBRANCH   1   8
TORSDOF 2
ENDMDL
MODEL 4
REMARK VINA RESULT:      -5.2     10.763     11.241
REMARK  2 active torsions:
REMARK  status: ('A' for Active; 'I' for Inactive)
REMARK    1  A    between atoms: C2_2  and  C3_3 
REMARK    2  A    between atoms: C3_3  and  C7_7 
ROOT
HETATM    1  C3  UNL     1     -34.051  14.342  -4.587  1.00 20.00     0.255 C 
HETATM    2  O8  UNL     1     -33.173  13.497  -4.442  1.00 20.00    -0.283 OA
ENDROOT
BRANCH   1   3
HETATM    3  C2  UNL     1     -34.876  14.831  -3.450  1.00 20.00     0.062 C 
HETATM    4  C1  UNL     1     -34.440  15.813  -2.659  1.00 20.00    -0.076 C 
HETATM    5  C4  UNL     1     -35.031  16.512  -1.453  1.00 20.00     0.034 C 
HETATM    6  C5  UNL     1     -33.169  16.632  -2.629  1.00 20.00     0.034 C 
HETATM    7  C6  UNL     1     -34.004  17.616  -1.783  1.00 20.00     0.009 C 
ENDBRANCH   1   3
BRANCH   1   8
HETATM    8  C7  UNL     1     -34.354  14.942  -5.929  1.00 20.00     0.455 C 
HETATM    9  F9  UNL     1     -33.359  14.714  -6.824  1.00 20.00    -0.163 F 
HETATM   10  F10 UNL     1     -35.492  14.435  -6.468  1.00 20.00    -0.163 F 
HETATM   11  F11 UNL     1     -34.519  16.288  -5.861  1.00 20.00    -0.163 F 
ENDBRANCH   1   8
TORSDOF 2
ENDMDL
MODEL 5
REMARK VINA RESULT:      -4.9     10.433     11.030
REMARK  2 active torsions:
REMARK  status: ('A' for Active; 'I' for Inactive)
REMARK    1  A    between atoms: C2_2  and  C3_3 
REMARK    2  A    between atoms: C3_3  and  C7_7 
ROOT
HETATM    1  C3  UNL     1     -34.612  14.087  -4.161  1.00 20.00     0.255 C 
HETATM    2  O8  UNL     1     -34.408  12.918  -3.848  1.00 20.00    -0.283 OA
ENDROOT
BRANCH   1   3
HETATM    3  C2  UNL     1     -33.654  15.176  -3.832  1.00 20.00     0.062 C 
HETATM    4  C1  UNL     1     -33.934  16.074  -2.887  1.00 20.00    -0.076 C 
HETATM    5  C4  UNL     1     -33.184  17.268  -2.336  1.00 20.00     0.034 C 
HETATM    6  C5  UNL     1     -35.124  16.282  -1.977  1.00 20.00     0.034 C 
HETATM    7  C6  UNL     1     -34.139  17.118  -1.133  1.00 20.00     0.009 C 
ENDBRANCH   1   3
BRANCH   1   8
HETATM    8  C7  UNL     1     -35.850  14.499  -4.902  1.00 20.00     0.455 C 
HETATM    9  F9  UNL     1     -36.078  13.715  -5.987  1.00 20.00    -0.163 F 
HETATM   10  F10 UNL     1     -36.959  14.424  -4.122  1.00 20.00    -0.163 F 
HETATM   11  F11 UNL     1     -35.774  15.777  -5.352  1.00 20.00    -0.163 F 
ENDBRANCH   1   8
TORSDOF 2
ENDMDL
MODEL 6
REMARK VINA RESULT:      -4.6      2.955      4.493
REMARK  2 active torsions:
REMARK  status: ('A' for Active; 'I' for Inactive)
REMARK    1  A    between atoms: C2_2  and  C3_3 
REMARK    2  A    between atoms: C3_3  and  C7_7 
ROOT
HETATM    1  C3  UNL     1     -33.614   6.365   4.168  1.00 20.00     0.255 C 
HETATM    2  O8  UNL     1     -33.442   7.245   5.006  1.00 20.00    -0.283 OA
ENDROOT
BRANCH   1   3
HETATM    3  C2  UNL     1     -32.826   6.306   2.907  1.00 20.00     0.062 C 
HETATM    4  C1  UNL     1     -32.894   7.290   2.010  1.00 20.00    -0.076 C 
HETATM    5  C4  UNL     1     -32.232   7.516   0.667  1.00 20.00     0.034 C 
HETATM    6  C5  UNL     1     -33.668   8.589   1.952  1.00 20.00     0.034 C 
HETATM    7  C6  UNL     1     -32.614   8.993   0.900  1.00 20.00     0.009 C 
ENDBRANCH   1   3
BRANCH   1   8
HETATM    8  C7  UNL     1     -34.635   5.283   4.359  1.00 20.00     0.455 C 
HETATM    9  F9  UNL     1     -34.770   4.936   5.665  1.00 20.00    -0.163 F 
HETATM   10  F10 UNL     1     -35.864   5.661   3.923  1.00 20.00    -0.163 F 
HETATM   11  F11 UNL     1     -34.312   4.150   3.685  1.00 20.00    -0.163 F 
ENDBRANCH   1   8
TORSDOF 2
ENDMDL
MODEL 7
REMARK VINA RESULT:      -4.6     10.645     11.196
REMARK  2 active torsions:
REMARK  status: ('A' for Active; 'I' for Inactive)
REMARK    1  A    between atoms: C2_2  and  C3_3 
REMARK    2  A    between atoms: C3_3  and  C7_7 
ROOT
HETATM    1  C3  UNL     1     -34.685  15.904  -4.217  1.00 20.00     0.255 C 
HETATM    2  O8  UNL     1     -34.909  16.719  -5.107  1.00 20.00    -0.283 OA
ENDROOT
BRANCH   1   3
HETATM    3  C2  UNL     1     -35.358  15.973  -2.892  1.00 20.00     0.062 C 
HETATM    4  C1  UNL     1     -34.804  16.635  -1.875  1.00 20.00    -0.076 C 
HETATM    5  C4  UNL     1     -35.231  16.881  -0.443  1.00 20.00     0.034 C 
HETATM    6  C5  UNL     1     -33.513  17.409  -1.723  1.00 20.00     0.034 C 
HETATM    7  C6  UNL     1     -34.215  18.041  -0.502  1.00 20.00     0.009 C 
ENDBRANCH   1   3
BRANCH   1   8
HETATM    8  C7  UNL     1     -33.712  14.777  -4.405  1.00 20.00     0.455 C 
HETATM    9  F9  UNL     1     -34.165  13.619  -3.860  1.00 20.00    -0.163 F 
HETATM   10  F10 UNL     1     -33.472  14.527  -5.718  1.00 20.00    -0.163 F 
HETATM   11  F11 UNL     1     -32.511  15.038  -3.830  1.00 20.00    -0.163 F 
ENDBRANCH   1   8
TORSDOF 2
ENDMDL
MODEL 8
REMARK VINA RESULT:      -4.5      3.331      4.540
REMARK  2 active torsions:
REMARK  status: ('A' for Active; 'I' for Inactive)
REMARK    1  A    between atoms: C2_2  and  C3_3 
REMARK    2  A    between atoms: C3_3  and  C7_7 
ROOT
HETATM    1  C3  UNL     1     -34.186   4.574   3.922  1.00 20.00     0.255 C 
HETATM    2  O8  UNL     1     -33.790   3.447   4.203  1.00 20.00    -0.283 OA
ENDROOT
BRANCH   1   3
HETATM    3  C2  UNL     1     -33.772   5.271   2.674  1.00 20.00     0.062 C 
HETATM    4  C1  UNL     1     -33.037   6.383   2.722  1.00 20.00    -0.076 C 
HETATM    5  C4  UNL     1     -32.473   7.298   1.656  1.00 20.00     0.034 C 
HETATM    6  C5  UNL     1     -32.468   7.200   3.860  1.00 20.00     0.034 C 
HETATM    7  C6  UNL     1     -31.522   7.764   2.779  1.00 20.00     0.009 C 
ENDBRANCH   1   3
BRANCH   1   8
HETATM    8  C7  UNL     1     -35.120   5.329   4.822  1.00 20.00     0.455 C 
HETATM    9  F9  UNL     1     -36.255   5.704   4.177  1.00 20.00    -0.163 F 
HETATM   10  F10 UNL     1     -35.502   4.589   5.894  1.00 20.00    -0.163 F 
HETATM   11  F11 UNL     1     -34.554   6.462   5.309  1.00 20.00    -0.163 F 
ENDBRANCH   1   8
TORSDOF 2
ENDMDL
MODEL 9
REMARK VINA RESULT:      -4.5     10.401     11.507
REMARK  2 active torsions:
REMARK  status: ('A' for Active; 'I' for Inactive)
REMARK    1  A    between atoms: C2_2  and  C3_3 
REMARK    2  A    between atoms: C3_3  and  C7_7 
ROOT
HETATM    1  C3  UNL     1     -35.812  15.285  -3.526  1.00 20.00     0.255 C 
HETATM    2  O8  UNL     1     -36.891  15.826  -3.751  1.00 20.00    -0.283 OA
ENDROOT
BRANCH   1   3
HETATM    3  C2  UNL     1     -34.886  15.772  -2.469  1.00 20.00     0.062 C 
HETATM    4  C1  UNL     1     -33.938  16.668  -2.748  1.00 20.00    -0.076 C 
HETATM    5  C4  UNL     1     -32.870  17.342  -1.912  1.00 20.00     0.034 C 
HETATM    6  C5  UNL     1     -33.526  17.379  -4.018  1.00 20.00     0.034 C 
HETATM    7  C6  UNL     1     -32.845  18.377  -3.057  1.00 20.00     0.009 C 
ENDBRANCH   1   3
BRANCH   1   8
HETATM    8  C7  UNL     1     -35.352  14.089  -4.307  1.00 20.00     0.455 C 
HETATM    9  F9  UNL     1     -36.328  13.151  -4.422  1.00 20.00    -0.163 F 
HETATM   10  F10 UNL     1     -34.972  14.419  -5.568  1.00 20.00    -0.163 F 
HETATM   11  F11 UNL     1     -34.289  13.477  -3.725  1.00 20.00    -0.163 F 
ENDBRANCH   1   8
TORSDOF 2
ENDMDL
