MODEL 1
REMARK VINA RESULT:      -5.0      0.000      0.000
REMARK  0 active torsions:
REMARK  status: ('A' for Active; 'I' for Inactive)
ROOT
HETATM    1  C1  UNL     1     -35.134  16.046  -2.224  1.00 20.00     0.001 C 
HETATM    2  C2  UNL     1     -34.020  16.109  -2.990  1.00 20.00     0.001 C 
HETATM    3  C3  UNL     1     -33.048  18.434   1.117  1.00 20.00     0.001 C 
HETATM    4  C4  UNL     1     -31.832  18.501   0.284  1.00 20.00     0.001 C 
HETATM    5  C5  UNL     1     -34.326  18.156   0.773  1.00 20.00     0.009 C 
HETATM    6  C6  UNL     1     -31.676  18.304  -1.046  1.00 20.00     0.009 C 
HETATM    7  C7  UNL     1     -35.272  16.662  -0.904  1.00 20.00     0.009 C 
HETATM    8  C8  UNL     1     -32.788  16.802  -2.612  1.00 20.00     0.009 C 
HETATM    9  C9  UNL     1     -34.743  17.866  -0.594  1.00 20.00    -0.039 C 
HETATM   10  C10 UNL     1     -32.779  17.976  -1.943  1.00 20.00    -0.039 C 
HETATM   11  C11 UNL     1     -34.033  18.726  -1.599  1.00 20.00     0.123 C 
HETATM   12 BR12 UNL     1     -35.112  19.263  -3.124  1.00 20.00    -0.081 Br
ENDROOT
TORSDOF 0
ENDMDL
MODEL 2
REMARK VINA RESULT:      -4.8      1.476      2.267
REMARK  0 active torsions:
REMARK  status: ('A' for Active; 'I' for Inactive)
ROOT
HETATM    1  C1  UNL     1     -34.742  14.437  -3.948  1.00 20.00     0.001 C 
HETATM    2  C2  UNL     1     -33.463  14.733  -4.273  1.00 20.00     0.001 C 
HETATM    3  C3  UNL     1     -34.679  17.586  -0.586  1.00 20.00     0.001 C 
HETATM    4  C4  UNL     1     -33.283  17.907  -0.939  1.00 20.00     0.001 C 
HETATM    5  C5  UNL     1     -35.633  16.943  -1.298  1.00 20.00     0.009 C 
HETATM    6  C6  UNL     1     -32.589  17.643  -2.070  1.00 20.00     0.009 C 
HETATM    7  C7  UNL     1     -35.509  15.106  -2.896  1.00 20.00     0.009 C 
HETATM    8  C8  UNL     1     -32.654  15.764  -3.622  1.00 20.00     0.009 C 
HETATM    9  C9  UNL     1     -35.417  16.431  -2.647  1.00 20.00    -0.039 C 
HETATM   10  C10 UNL     1     -33.161  16.951  -3.220  1.00 20.00    -0.039 C 
HETATM   11  C11 UNL     1     -34.581  17.360  -3.480  1.00 20.00     0.123 C 
HETATM   12 BR12 UNL     1     -35.079  17.447  -5.356  1.00 20.00    -0.081 Br
ENDROOT
TORSDOF 0
ENDMDL
MODEL 3
REMARK VINA RESULT:      -4.7      2.751      4.712
REMARK  0 active torsions:
REMARK  status: ('A' for Active; 'I' for Inactive)
ROOT
HETATM    1  C1  UNL     1     -33.859  18.294  -3.651  1.00 20.00     0.001 C 
HETATM    2  C2  UNL     1     -32.962  17.342  -3.307  1.00 20.00     0.001 C 
HETATM    3  C3  UNL     1     -36.865  15.067  -4.980  1.00 20.00     0.001 C 
HETATM    4  C4  UNL     1     -35.885  14.028  -4.607  1.00 20.00     0.001 C 
HETATM    5  C5  UNL     1     -36.932  16.370  -4.623  1.00 20.00     0.009 C 
HETATM    6  C6  UNL     1     -34.796  14.106  -3.810  1.00 20.00     0.009 C 
HETATM    7  C7  UNL     1     -35.200  18.024  -4.172  1.00 20.00     0.009 C 
HETATM    8  C8  UNL     1     -33.196  15.901  -3.407  1.00 20.00     0.009 C 
HETATM    9  C9  UNL     1     -35.971  17.007  -3.730  1.00 20.00    -0.039 C 
HETATM   10  C10 UNL     1     -34.388  15.329  -3.126  1.00 20.00    -0.039 C 
HETATM   11  C11 UNL     1     -35.560  16.105  -2.602  1.00 20.00     0.123 C 
HETATM   12 BR12 UNL     1     -35.258  17.003  -0.905  1.00 20.00    -0.081 Br
ENDROOT
TORSDOF 0
ENDMDL
MODEL 4
REMARK VINA RESULT:      -4.6      1.514      4.370
REMARK  0 active torsions:
REMARK  status: ('A' for Active; 'I' for Inactive)
ROOT
HETATM    1  C1  UNL     1     -33.569  17.816  -1.334  1.00 20.00     0.001 C 
HETATM    2  C2  UNL     1     -34.890  17.655  -1.091  1.00 20.00     0.001 C 
HETATM    3  C3  UNL     1     -33.621  14.292  -4.301  1.00 20.00     0.001 C 
HETATM    4  C4  UNL     1     -35.062  14.115  -4.034  1.00 20.00     0.001 C 
HETATM    5  C5  UNL     1     -32.816  15.353  -4.065  1.00 20.00     0.009 C 
HETATM    6  C6  UNL     1     -35.957  14.968  -3.484  1.00 20.00     0.009 C 
HETATM    7  C7  UNL     1     -32.793  17.015  -2.282  1.00 20.00     0.009 C 
HETATM    8  C8  UNL     1     -35.740  16.656  -1.739  1.00 20.00     0.009 C 
HETATM    9  C9  UNL     1     -33.285  16.599  -3.470  1.00 20.00    -0.039 C 
HETATM   10  C10 UNL     1     -35.614  16.314  -3.040  1.00 20.00    -0.039 C 
HETATM   11  C11 UNL     1     -34.646  16.989  -3.968  1.00 20.00     0.123 C 
HETATM   12 BR12 UNL     1     -34.920  18.901  -4.190  1.00 20.00    -0.081 Br
ENDROOT
TORSDOF 0
ENDMDL
MODEL 5
REMARK VINA RESULT:      -4.6      2.836      4.010
REMARK  0 active torsions:
REMARK  status: ('A' for Active; 'I' for Inactive)
ROOT
HETATM    1  C1  UNL     1     -37.026  14.410  -4.504  1.00 20.00     0.001 C 
HETATM    2  C2  UNL     1     -35.941  13.606  -4.431  1.00 20.00     0.001 C 
HETATM    3  C3  UNL     1     -34.620  17.920  -2.740  1.00 20.00     0.001 C 
HETATM    4  C4  UNL     1     -33.437  17.042  -2.658  1.00 20.00     0.001 C 
HETATM    5  C5  UNL     1     -35.757  17.785  -3.461  1.00 20.00     0.009 C 
HETATM    6  C6  UNL     1     -33.177  15.871  -3.283  1.00 20.00     0.009 C 
HETATM    7  C7  UNL     1     -37.043  15.822  -4.120  1.00 20.00     0.009 C 
HETATM    8  C8  UNL     1     -34.623  14.027  -3.956  1.00 20.00     0.009 C 
HETATM    9  C9  UNL     1     -36.010  16.661  -4.355  1.00 20.00    -0.039 C 
HETATM   10  C10 UNL     1     -34.097  15.243  -4.225  1.00 20.00    -0.039 C 
HETATM   11  C11 UNL     1     -34.779  16.246  -5.108  1.00 20.00     0.123 C 
HETATM   12 BR12 UNL     1     -35.096  15.653  -6.931  1.00 20.00    -0.081 Br
ENDROOT
TORSDOF 0
ENDMDL
MODEL 6
REMARK VINA RESULT:      -4.5      2.718      4.166
REMARK  0 active torsions:
REMARK  status: ('A' for Active; 'I' for Inactive)
ROOT
HETATM    1  C1  UNL     1     -36.031  18.545  -3.475  1.00 20.00     0.001 C 
HETATM    2  C2  UNL     1     -34.710  18.826  -3.390  1.00 20.00     0.001 C 
HETATM    3  C3  UNL     1     -35.095  14.108  -4.284  1.00 20.00     0.001 C 
HETATM    4  C4  UNL     1     -33.655  14.415  -4.194  1.00 20.00     0.001 C 
HETATM    5  C5  UNL     1     -36.166  14.813  -3.851  1.00 20.00     0.009 C 
HETATM    6  C6  UNL     1     -33.025  15.483  -3.653  1.00 20.00     0.009 C 
HETATM    7  C7  UNL     1     -36.584  17.209  -3.703  1.00 20.00     0.009 C 
HETATM    8  C8  UNL     1     -33.638  17.838  -3.514  1.00 20.00     0.009 C 
HETATM    9  C9  UNL     1     -36.056  16.091  -3.158  1.00 20.00    -0.039 C 
HETATM   10  C10 UNL     1     -33.728  16.588  -3.010  1.00 20.00    -0.039 C 
HETATM   11  C11 UNL     1     -34.901  16.120  -2.199  1.00 20.00     0.123 C 
HETATM   12 BR12 UNL     1     -35.219  17.121  -0.564  1.00 20.00    -0.081 Br
ENDROOT
TORSDOF 0
ENDMDL
MODEL 7
REMARK VINA RESULT:      -4.5      2.066      3.405
REMARK  0 active torsions:
REMARK  status: ('A' for Active; 'I' for Inactive)
ROOT
HETATM    1  C1  UNL     1     -34.684  17.613  -5.259  1.00 20.00     0.001 C 
HETATM    2  C2  UNL     1     -35.791  16.986  -4.799  1.00 20.00     0.001 C 
HETATM    3  C3  UNL     1     -33.140  18.174  -0.955  1.00 20.00     0.001 C 
HETATM    4  C4  UNL     1     -34.348  17.492  -0.454  1.00 20.00     0.001 C 
HETATM    5  C5  UNL     1     -32.594  18.182  -2.193  1.00 20.00     0.009 C 
HETATM    6  C6  UNL     1     -35.229  16.694  -1.100  1.00 20.00     0.009 C 
HETATM    7  C7  UNL     1     -33.596  18.107  -4.414  1.00 20.00     0.009 C 
HETATM    8  C8  UNL     1     -36.066  16.709  -3.389  1.00 20.00     0.009 C 
HETATM    9  C9  UNL     1     -33.155  17.447  -3.321  1.00 20.00    -0.039 C 
HETATM   10  C10 UNL     1     -35.107  16.342  -2.510  1.00 20.00    -0.039 C 
HETATM   11  C11 UNL     1     -33.682  16.101  -2.915  1.00 20.00     0.123 C 
HETATM   12 BR12 UNL     1     -33.431  14.692  -4.231  1.00 20.00    -0.081 Br
ENDROOT
TORSDOF 0
ENDMDL
MODEL 8
REMARK VINA RESULT:      -4.4      2.692      4.042
REMARK  0 active torsions:
REMARK  status: ('A' for Active; 'I' for Inactive)
ROOT
HETATM    1  C1  UNL     1     -35.961  13.976  -5.186  1.00 20.00     0.001 C 
HETATM    2  C2  UNL     1     -35.843  14.805  -6.249  1.00 20.00     0.001 C 
HETATM    3  C3  UNL     1     -33.498  16.867  -2.579  1.00 20.00     0.001 C 
HETATM    4  C4  UNL     1     -33.367  17.770  -3.739  1.00 20.00     0.001 C 
HETATM    5  C5  UNL     1     -34.372  15.859  -2.354  1.00 20.00     0.009 C 
HETATM    6  C6  UNL     1     -34.087  17.827  -4.883  1.00 20.00     0.009 C 
HETATM    7  C7  UNL     1     -35.419  14.248  -3.854  1.00 20.00     0.009 C 
HETATM    8  C8  UNL     1     -35.154  16.095  -6.226  1.00 20.00     0.009 C 
HETATM    9  C9  UNL     1     -35.417  15.479  -3.297  1.00 20.00    -0.039 C 
HETATM   10  C10 UNL     1     -35.207  16.939  -5.171  1.00 20.00    -0.039 C 
HETATM   11  C11 UNL     1     -36.047  16.672  -3.957  1.00 20.00     0.123 C 
HETATM   12 BR12 UNL     1     -37.953  16.506  -4.298  1.00 20.00    -0.081 Br
ENDROOT
TORSDOF 0
ENDMDL
MODEL 9
REMARK VINA RESULT:      -4.4      2.743      4.235
REMARK  0 active torsions:
REMARK  status: ('A' for Active; 'I' for Inactive)
ROOT
HETATM    1  C1  UNL     1     -33.640  14.773  -5.658  1.00 20.00     0.001 C 
HETATM    2  C2  UNL     1     -34.402  15.567  -6.445  1.00 20.00     0.001 C 
HETATM    3  C3  UNL     1     -34.397  17.525  -2.042  1.00 20.00     0.001 C 
HETATM    4  C4  UNL     1     -35.227  18.392  -2.901  1.00 20.00     0.001 C 
HETATM    5  C5  UNL     1     -33.996  16.245  -2.224  1.00 20.00     0.009 C 
HETATM    6  C6  UNL     1     -35.807  18.135  -4.095  1.00 20.00     0.009 C 
HETATM    7  C7  UNL     1     -33.406  14.994  -4.230  1.00 20.00     0.009 C 
HETATM    8  C8  UNL     1     -35.106  16.765  -5.986  1.00 20.00     0.009 C 
HETATM    9  C9  UNL     1     -34.361  15.449  -3.390  1.00 20.00    -0.039 C 
HETATM   10  C10 UNL     1     -35.704  16.849  -4.777  1.00 20.00    -0.039 C 
HETATM   11  C11 UNL     1     -35.778  15.693  -3.823  1.00 20.00     0.123 C 
HETATM   12 BR12 UNL     1     -36.707  14.127  -4.503  1.00 20.00    -0.081 Br
ENDROOT
TORSDOF 0
ENDMDL
