MODEL 1
REMARK VINA RESULT:      -4.7      0.000      0.000
REMARK  1 active torsions:
REMARK  status: ('A' for Active; 'I' for Inactive)
REMARK    1  A    between atoms: C4_4  and  C9_9 
ROOT
HETATM    1  C5  UNL     1     -34.100  16.613  -4.567  1.00 20.00     0.135 C 
HETATM    2  C6  UNL     1     -33.390  17.681  -3.774  1.00 20.00     0.079 C 
HETATM    3  C7  UNL     1     -33.191  16.997  -2.427  1.00 20.00     0.008 C 
HETATM    4  C8  UNL     1     -34.396  16.075  -2.286  1.00 20.00     0.017 C 
HETATM    5  C9  UNL     1     -34.574  15.474  -3.687  1.00 20.00     0.090 C 
HETATM    6  O10 UNL     1     -34.271  16.673  -5.778  1.00 20.00    -0.297 OA
ENDROOT
BRANCH   5   7
HETATM    7  C4  UNL     1     -35.974  15.002  -3.977  1.00 20.00    -0.023 A 
HETATM    8  C1  UNL     1     -37.168  15.753  -3.857  1.00 20.00     0.034 A 
HETATM    9  C2  UNL     1     -38.188  14.909  -4.229  1.00 20.00     0.142 A 
HETATM   10  O11 UNL     1     -37.699  13.688  -4.568  1.00 20.00    -0.334 OA
HETATM   11  C3  UNL     1     -36.350  13.753  -4.412  1.00 20.00     0.149 A 
ENDBRANCH   5   7
TORSDOF 1
ENDMDL
MODEL 2
REMARK VINA RESULT:      -4.6      1.096      1.165
REMARK  1 active torsions:
REMARK  status: ('A' for Active; 'I' for Inactive)
REMARK    1  A    between atoms: C4_4  and  C9_9 
ROOT
HETATM    1  C5  UNL     1     -33.494  15.903  -3.322  1.00 20.00     0.135 C 
HETATM    2  C6  UNL     1     -32.896  17.167  -2.756  1.00 20.00     0.079 C 
HETATM    3  C7  UNL     1     -33.704  17.357  -1.479  1.00 20.00     0.008 C 
HETATM    4  C8  UNL     1     -35.079  16.789  -1.810  1.00 20.00     0.017 C 
HETATM    5  C9  UNL     1     -34.774  15.514  -2.609  1.00 20.00     0.090 C 
HETATM    6  O10 UNL     1     -32.996  15.277  -4.249  1.00 20.00    -0.297 OA
ENDROOT
BRANCH   5   7
HETATM    7  C4  UNL     1     -35.891  15.084  -3.524  1.00 20.00    -0.023 A 
HETATM    8  C1  UNL     1     -37.024  15.844  -3.900  1.00 20.00     0.034 A 
HETATM    9  C2  UNL     1     -37.758  15.042  -4.743  1.00 20.00     0.142 A 
HETATM   10  O11 UNL     1     -37.150  13.838  -4.907  1.00 20.00    -0.334 OA
HETATM   11  C3  UNL     1     -36.014  13.872  -4.162  1.00 20.00     0.149 A 
ENDBRANCH   5   7
TORSDOF 1
ENDMDL
MODEL 3
REMARK VINA RESULT:      -4.4      2.408      2.926
REMARK  1 active torsions:
REMARK  status: ('A' for Active; 'I' for Inactive)
REMARK    1  A    between atoms: C4_4  and  C9_9 
ROOT
HETATM    1  C5  UNL     1     -33.420  17.634  -2.434  1.00 20.00     0.135 C 
HETATM    2  C6  UNL     1     -34.261  18.362  -1.416  1.00 20.00     0.079 C 
HETATM    3  C7  UNL     1     -34.972  17.214  -0.712  1.00 20.00     0.008 C 
HETATM    4  C8  UNL     1     -35.145  16.153  -1.792  1.00 20.00     0.017 C 
HETATM    5  C9  UNL     1     -33.813  16.175  -2.554  1.00 20.00     0.090 C 
HETATM    6  O10 UNL     1     -32.531  18.170  -3.084  1.00 20.00    -0.297 OA
ENDROOT
BRANCH   5   7
HETATM    7  C4  UNL     1     -33.910  15.670  -3.970  1.00 20.00    -0.023 A 
HETATM    8  C1  UNL     1     -34.704  16.204  -5.012  1.00 20.00     0.034 A 
HETATM    9  C2  UNL     1     -34.465  15.417  -6.115  1.00 20.00     0.142 A 
HETATM   10  O11 UNL     1     -33.576  14.435  -5.817  1.00 20.00    -0.334 OA
HETATM   11  C3  UNL     1     -33.243  14.595  -4.510  1.00 20.00     0.149 A 
ENDBRANCH   5   7
TORSDOF 1
ENDMDL
MODEL 4
REMARK VINA RESULT:      -4.4      2.140      4.756
REMARK  1 active torsions:
REMARK  status: ('A' for Active; 'I' for Inactive)
REMARK    1  A    between atoms: C4_4  and  C9_9 
ROOT
HETATM    1  C5  UNL     1     -35.444  16.063  -2.850  1.00 20.00     0.135 C 
HETATM    2  C6  UNL     1     -36.001  15.013  -3.778  1.00 20.00     0.079 C 
HETATM    3  C7  UNL     1     -34.803  14.091  -3.970  1.00 20.00     0.008 C 
HETATM    4  C8  UNL     1     -33.594  15.013  -3.878  1.00 20.00     0.017 C 
HETATM    5  C9  UNL     1     -33.936  15.965  -2.724  1.00 20.00     0.090 C 
HETATM    6  O10 UNL     1     -36.137  16.893  -2.275  1.00 20.00    -0.297 OA
ENDROOT
BRANCH   5   7
HETATM    7  C4  UNL     1     -33.218  17.288  -2.789  1.00 20.00    -0.023 A 
HETATM    8  C1  UNL     1     -33.223  18.208  -3.864  1.00 20.00     0.034 A 
HETATM    9  C2  UNL     1     -32.433  19.262  -3.467  1.00 20.00     0.142 A 
HETATM   10  O11 UNL     1     -31.943  19.048  -2.219  1.00 20.00    -0.334 OA
HETATM   11  C3  UNL     1     -32.425  17.844  -1.813  1.00 20.00     0.149 A 
ENDBRANCH   5   7
TORSDOF 1
ENDMDL
MODEL 5
REMARK VINA RESULT:      -4.3      1.859      4.268
REMARK  1 active torsions:
REMARK  status: ('A' for Active; 'I' for Inactive)
REMARK    1  A    between atoms: C4_4  and  C9_9 
ROOT
HETATM    1  C5  UNL     1     -36.479  15.867  -3.812  1.00 20.00     0.135 C 
HETATM    2  C6  UNL     1     -36.756  15.009  -5.021  1.00 20.00     0.079 C 
HETATM    3  C7  UNL     1     -36.016  13.723  -4.674  1.00 20.00     0.008 C 
HETATM    4  C8  UNL     1     -34.823  14.182  -3.844  1.00 20.00     0.017 C 
HETATM    5  C9  UNL     1     -35.401  15.270  -2.929  1.00 20.00     0.090 C 
HETATM    6  O10 UNL     1     -37.060  16.921  -3.584  1.00 20.00    -0.297 OA
ENDROOT
BRANCH   5   7
HETATM    7  C4  UNL     1     -34.379  16.261  -2.437  1.00 20.00    -0.023 A 
HETATM    8  C1  UNL     1     -34.491  17.112  -1.312  1.00 20.00     0.034 A 
HETATM    9  C2  UNL     1     -33.319  17.830  -1.259  1.00 20.00     0.142 A 
HETATM   10  O11 UNL     1     -32.495  17.476  -2.280  1.00 20.00    -0.334 OA
HETATM   11  C3  UNL     1     -33.148  16.521  -2.992  1.00 20.00     0.149 A 
ENDBRANCH   5   7
TORSDOF 1
ENDMDL
MODEL 6
REMARK VINA RESULT:      -4.2      1.865      2.593
REMARK  1 active torsions:
REMARK  status: ('A' for Active; 'I' for Inactive)
REMARK    1  A    between atoms: C4_4  and  C9_9 
ROOT
HETATM    1  C5  UNL     1     -35.467  13.918  -4.165  1.00 20.00     0.135 C 
HETATM    2  C6  UNL     1     -33.996  14.246  -4.128  1.00 20.00     0.079 C 
HETATM    3  C7  UNL     1     -33.967  15.476  -3.228  1.00 20.00     0.008 C 
HETATM    4  C8  UNL     1     -35.291  16.179  -3.502  1.00 20.00     0.017 C 
HETATM    5  C9  UNL     1     -36.312  15.035  -3.584  1.00 20.00     0.090 C 
HETATM    6  O10 UNL     1     -35.914  12.871  -4.615  1.00 20.00    -0.297 OA
ENDROOT
BRANCH   5   7
HETATM    7  C4  UNL     1     -37.541  15.369  -4.389  1.00 20.00    -0.023 A 
HETATM    8  C1  UNL     1     -37.649  16.336  -5.416  1.00 20.00     0.034 A 
HETATM    9  C2  UNL     1     -38.952  16.282  -5.854  1.00 20.00     0.142 A 
HETATM   10  O11 UNL     1     -39.651  15.346  -5.160  1.00 20.00    -0.334 OA
HETATM   11  C3  UNL     1     -38.785  14.795  -4.271  1.00 20.00     0.149 A 
ENDBRANCH   5   7
TORSDOF 1
ENDMDL
MODEL 7
REMARK VINA RESULT:      -4.2      1.572      1.835
REMARK  1 active torsions:
REMARK  status: ('A' for Active; 'I' for Inactive)
REMARK    1  A    between atoms: C4_4  and  C9_9 
ROOT
HETATM    1  C5  UNL     1     -35.295  16.958  -2.558  1.00 20.00     0.135 C 
HETATM    2  C6  UNL     1     -33.918  16.785  -1.967  1.00 20.00     0.079 C 
HETATM    3  C7  UNL     1     -33.133  16.227  -3.147  1.00 20.00     0.008 C 
HETATM    4  C8  UNL     1     -34.154  15.411  -3.931  1.00 20.00     0.017 C 
HETATM    5  C9  UNL     1     -35.423  16.273  -3.904  1.00 20.00     0.090 C 
HETATM    6  O10 UNL     1     -36.195  17.576  -2.004  1.00 20.00    -0.297 OA
ENDROOT
BRANCH   5   7
HETATM    7  C4  UNL     1     -36.697  15.492  -4.087  1.00 20.00    -0.023 A 
HETATM    8  C1  UNL     1     -38.017  16.002  -4.080  1.00 20.00     0.034 A 
HETATM    9  C2  UNL     1     -38.844  14.922  -4.285  1.00 20.00     0.142 A 
HETATM   10  O11 UNL     1     -38.117  13.782  -4.417  1.00 20.00    -0.334 OA
HETATM   11  C3  UNL     1     -36.812  14.138  -4.296  1.00 20.00     0.149 A 
ENDBRANCH   5   7
TORSDOF 1
ENDMDL
MODEL 8
REMARK VINA RESULT:      -4.2      1.807      2.227
REMARK  1 active torsions:
REMARK  status: ('A' for Active; 'I' for Inactive)
REMARK    1  A    between atoms: C4_4  and  C9_9 
ROOT
HETATM    1  C5  UNL     1     -35.101  17.145  -2.030  1.00 20.00     0.135 C 
HETATM    2  C6  UNL     1     -34.009  17.606  -1.096  1.00 20.00     0.079 C 
HETATM    3  C7  UNL     1     -32.788  17.598  -2.007  1.00 20.00     0.008 C 
HETATM    4  C8  UNL     1     -33.052  16.463  -2.989  1.00 20.00     0.017 C 
HETATM    5  C9  UNL     1     -34.542  16.603  -3.330  1.00 20.00     0.090 C 
HETATM    6  O10 UNL     1     -36.293  17.205  -1.756  1.00 20.00    -0.297 OA
ENDROOT
BRANCH   5   7
HETATM    7  C4  UNL     1     -35.185  15.324  -3.800  1.00 20.00    -0.023 A 
HETATM    8  C1  UNL     1     -36.504  15.162  -4.285  1.00 20.00     0.034 A 
HETATM    9  C2  UNL     1     -36.637  13.828  -4.590  1.00 20.00     0.142 A 
HETATM   10  O11 UNL     1     -35.484  13.159  -4.323  1.00 20.00    -0.334 OA
HETATM   11  C3  UNL     1     -34.606  14.077  -3.842  1.00 20.00     0.149 A 
ENDBRANCH   5   7
TORSDOF 1
ENDMDL
MODEL 9
REMARK VINA RESULT:      -4.1      2.135      4.666
REMARK  1 active torsions:
REMARK  status: ('A' for Active; 'I' for Inactive)
REMARK    1  A    between atoms: C4_4  and  C9_9 
ROOT
HETATM    1  C5  UNL     1     -33.703  15.042  -4.062  1.00 20.00     0.135 C 
HETATM    2  C6  UNL     1     -34.781  14.016  -3.814  1.00 20.00     0.079 C 
HETATM    3  C7  UNL     1     -36.046  14.861  -3.884  1.00 20.00     0.008 C 
HETATM    4  C8  UNL     1     -35.622  16.227  -3.357  1.00 20.00     0.017 C 
HETATM    5  C9  UNL     1     -34.241  16.457  -3.986  1.00 20.00     0.090 C 
HETATM    6  O10 UNL     1     -32.536  14.753  -4.294  1.00 20.00    -0.297 OA
ENDROOT
BRANCH   5   7
HETATM    7  C4  UNL     1     -33.369  17.414  -3.215  1.00 20.00    -0.023 A 
HETATM    8  C1  UNL     1     -33.009  17.326  -1.849  1.00 20.00     0.034 A 
HETATM    9  C2  UNL     1     -32.208  18.414  -1.595  1.00 20.00     0.142 A 
HETATM   10  O11 UNL     1     -32.053  19.166  -2.717  1.00 20.00    -0.334 OA
HETATM   11  C3  UNL     1     -32.763  18.550  -3.698  1.00 20.00     0.149 A 
ENDBRANCH   5   7
TORSDOF 1
ENDMDL
