MODEL 1
REMARK VINA RESULT:      -4.7      0.000      0.000
REMARK  1 active torsions:
REMARK  status: ('A' for Active; 'I' for Inactive)
REMARK    1  A    between atoms: C4_4  and  C9_9 
ROOT
HETATM    1  C5  UNL     1     -25.069  16.680  11.953  1.00 20.00     0.135 C 
HETATM    2  C6  UNL     1     -26.492  16.999  12.332  1.00 20.00     0.079 C 
HETATM    3  C7  UNL     1     -26.585  18.483  12.005  1.00 20.00     0.008 C 
HETATM    4  C8  UNL     1     -25.185  19.026  12.264  1.00 20.00     0.017 C 
HETATM    5  C9  UNL     1     -24.222  17.926  11.795  1.00 20.00     0.090 C 
HETATM    6  O10 UNL     1     -24.647  15.540  11.803  1.00 20.00    -0.297 OA
ENDROOT
BRANCH   5   7
HETATM    7  C4  UNL     1     -23.696  18.142  10.396  1.00 20.00    -0.023 A 
HETATM    8  C1  UNL     1     -24.451  18.462   9.241  1.00 20.00     0.034 A 
HETATM    9  C2  UNL     1     -23.546  18.559   8.209  1.00 20.00     0.142 A 
HETATM   10  O11 UNL     1     -22.286  18.320   8.655  1.00 20.00    -0.334 OA
HETATM   11  C3  UNL     1     -22.385  18.067   9.986  1.00 20.00     0.149 A 
ENDBRANCH   5   7
TORSDOF 1
ENDMDL
MODEL 2
REMARK VINA RESULT:      -4.7     16.870     18.190
REMARK  1 active torsions:
REMARK  status: ('A' for Active; 'I' for Inactive)
REMARK    1  A    between atoms: C4_4  and  C9_9 
ROOT
HETATM    1  C5  UNL     1     -34.724  15.336  -5.456  1.00 20.00     0.135 C 
HETATM    2  C6  UNL     1     -35.918  14.495  -5.826  1.00 20.00     0.079 C 
HETATM    3  C7  UNL     1     -36.170  13.717  -4.541  1.00 20.00     0.008 C 
HETATM    4  C8  UNL     1     -34.790  13.532  -3.921  1.00 20.00     0.017 C 
HETATM    5  C9  UNL     1     -34.033  14.838  -4.203  1.00 20.00     0.090 C 
HETATM    6  O10 UNL     1     -34.351  16.305  -6.106  1.00 20.00    -0.297 OA
ENDROOT
BRANCH   5   7
HETATM    7  C4  UNL     1     -34.064  15.814  -3.051  1.00 20.00    -0.023 A 
HETATM    8  C1  UNL     1     -35.123  16.016  -2.134  1.00 20.00     0.034 A 
HETATM    9  C2  UNL     1     -34.697  16.998  -1.269  1.00 20.00     0.142 A 
HETATM   10  O11 UNL     1     -33.446  17.412  -1.596  1.00 20.00    -0.334 OA
HETATM   11  C3  UNL     1     -33.067  16.686  -2.681  1.00 20.00     0.149 A 
ENDBRANCH   5   7
TORSDOF 1
ENDMDL
MODEL 3
REMARK VINA RESULT:      -4.7     18.205     19.456
REMARK  1 active torsions:
REMARK  status: ('A' for Active; 'I' for Inactive)
REMARK    1  A    between atoms: C4_4  and  C9_9 
ROOT
HETATM    1  C5  UNL     1     -34.132  15.246  -5.021  1.00 20.00     0.135 C 
HETATM    2  C6  UNL     1     -33.098  15.280  -3.926  1.00 20.00     0.079 C 
HETATM    3  C7  UNL     1     -33.863  15.937  -2.786  1.00 20.00     0.008 C 
HETATM    4  C8  UNL     1     -34.835  16.891  -3.469  1.00 20.00     0.017 C 
HETATM    5  C9  UNL     1     -35.302  16.166  -4.738  1.00 20.00     0.090 C 
HETATM    6  O10 UNL     1     -34.027  14.561  -6.031  1.00 20.00    -0.297 OA
ENDROOT
BRANCH   5   7
HETATM    7  C4  UNL     1     -36.623  15.452  -4.575  1.00 20.00    -0.023 A 
HETATM    8  C1  UNL     1     -37.906  16.044  -4.488  1.00 20.00     0.034 A 
HETATM    9  C2  UNL     1     -38.797  15.005  -4.348  1.00 20.00     0.142 A 
HETATM   10  O11 UNL     1     -38.144  13.814  -4.342  1.00 20.00    -0.334 OA
HETATM   11  C3  UNL     1     -36.822  14.095  -4.482  1.00 20.00     0.149 A 
ENDBRANCH   5   7
TORSDOF 1
ENDMDL
MODEL 4
REMARK VINA RESULT:      -4.6      1.456      4.430
REMARK  1 active torsions:
REMARK  status: ('A' for Active; 'I' for Inactive)
REMARK    1  A    between atoms: C4_4  and  C9_9 
ROOT
HETATM    1  C5  UNL     1     -23.244  18.201   8.151  1.00 20.00     0.135 C 
HETATM    2  C6  UNL     1     -22.029  17.512   7.587  1.00 20.00     0.079 C 
HETATM    3  C7  UNL     1     -21.293  17.082   8.848  1.00 20.00     0.008 C 
HETATM    4  C8  UNL     1     -21.622  18.157   9.876  1.00 20.00     0.017 C 
HETATM    5  C9  UNL     1     -23.086  18.540   9.619  1.00 20.00     0.090 C 
HETATM    6  O10 UNL     1     -24.241  18.467   7.489  1.00 20.00    -0.297 OA
ENDROOT
BRANCH   5   7
HETATM    7  C4  UNL     1     -24.064  17.830  10.525  1.00 20.00    -0.023 A 
HETATM    8  C1  UNL     1     -24.006  16.481  10.951  1.00 20.00     0.034 A 
HETATM    9  C2  UNL     1     -25.102  16.289  11.760  1.00 20.00     0.142 A 
HETATM   10  O11 UNL     1     -25.830  17.432  11.857  1.00 20.00    -0.334 OA
HETATM   11  C3  UNL     1     -25.190  18.365  11.104  1.00 20.00     0.149 A 
ENDBRANCH   5   7
TORSDOF 1
ENDMDL
MODEL 5
REMARK VINA RESULT:      -4.6     16.968     18.304
REMARK  1 active torsions:
REMARK  status: ('A' for Active; 'I' for Inactive)
REMARK    1  A    between atoms: C4_4  and  C9_9 
ROOT
HETATM    1  C5  UNL     1     -34.637  15.134  -5.567  1.00 20.00     0.135 C 
HETATM    2  C6  UNL     1     -35.901  14.412  -5.955  1.00 20.00     0.079 C 
HETATM    3  C7  UNL     1     -36.306  13.753  -4.643  1.00 20.00     0.008 C 
HETATM    4  C8  UNL     1     -34.990  13.453  -3.936  1.00 20.00     0.017 C 
HETATM    5  C9  UNL     1     -34.072  14.642  -4.250  1.00 20.00     0.090 C 
HETATM    6  O10 UNL     1     -34.120  16.010  -6.251  1.00 20.00    -0.297 OA
ENDROOT
BRANCH   5   7
HETATM    7  C4  UNL     1     -34.046  15.688  -3.161  1.00 20.00    -0.023 A 
HETATM    8  C1  UNL     1     -33.029  16.646  -2.924  1.00 20.00     0.034 A 
HETATM    9  C2  UNL     1     -33.441  17.377  -1.834  1.00 20.00     0.142 A 
HETATM   10  O11 UNL     1     -34.644  16.931  -1.387  1.00 20.00    -0.334 OA
HETATM   11  C3  UNL     1     -35.005  15.904  -2.200  1.00 20.00     0.149 A 
ENDBRANCH   5   7
TORSDOF 1
ENDMDL
MODEL 6
REMARK VINA RESULT:      -4.5     17.080     18.262
REMARK  1 active torsions:
REMARK  status: ('A' for Active; 'I' for Inactive)
REMARK    1  A    between atoms: C4_4  and  C9_9 
ROOT
HETATM    1  C5  UNL     1     -34.605  16.514  -1.901  1.00 20.00     0.135 C 
HETATM    2  C6  UNL     1     -33.677  17.642  -2.270  1.00 20.00     0.079 C 
HETATM    3  C7  UNL     1     -33.271  17.270  -3.689  1.00 20.00     0.008 C 
HETATM    4  C8  UNL     1     -33.281  15.746  -3.710  1.00 20.00     0.017 C 
HETATM    5  C9  UNL     1     -34.473  15.330  -2.837  1.00 20.00     0.090 C 
HETATM    6  O10 UNL     1     -35.368  16.550  -0.943  1.00 20.00    -0.297 OA
ENDROOT
BRANCH   5   7
HETATM    7  C4  UNL     1     -35.723  15.026  -3.628  1.00 20.00    -0.023 A 
HETATM    8  C1  UNL     1     -36.811  15.901  -3.871  1.00 20.00     0.034 A 
HETATM    9  C2  UNL     1     -37.709  15.189  -4.633  1.00 20.00     0.142 A 
HETATM   10  O11 UNL     1     -37.244  13.936  -4.873  1.00 20.00    -0.334 OA
HETATM   11  C3  UNL     1     -36.035  13.845  -4.259  1.00 20.00     0.149 A 
ENDBRANCH   5   7
TORSDOF 1
ENDMDL
MODEL 7
REMARK VINA RESULT:      -4.5     17.014     18.186
REMARK  1 active torsions:
REMARK  status: ('A' for Active; 'I' for Inactive)
REMARK    1  A    between atoms: C4_4  and  C9_9 
ROOT
HETATM    1  C5  UNL     1     -35.349  13.946  -4.312  1.00 20.00     0.135 C 
HETATM    2  C6  UNL     1     -35.893  14.161  -5.701  1.00 20.00     0.079 C 
HETATM    3  C7  UNL     1     -36.468  15.567  -5.603  1.00 20.00     0.008 C 
HETATM    4  C8  UNL     1     -36.939  15.696  -4.160  1.00 20.00     0.017 C 
HETATM    5  C9  UNL     1     -35.895  14.949  -3.317  1.00 20.00     0.090 C 
HETATM    6  O10 UNL     1     -34.565  13.049  -4.022  1.00 20.00    -0.297 OA
ENDROOT
BRANCH   5   7
HETATM    7  C4  UNL     1     -34.846  15.854  -2.715  1.00 20.00    -0.023 A 
HETATM    8  C1  UNL     1     -33.556  16.125  -3.232  1.00 20.00     0.034 A 
HETATM    9  C2  UNL     1     -32.967  16.999  -2.349  1.00 20.00     0.142 A 
HETATM   10  O11 UNL     1     -33.811  17.283  -1.323  1.00 20.00    -0.334 OA
HETATM   11  C3  UNL     1     -34.952  16.583  -1.554  1.00 20.00     0.149 A 
ENDBRANCH   5   7
TORSDOF 1
ENDMDL
MODEL 8
REMARK VINA RESULT:      -4.5     13.516     14.707
REMARK  1 active torsions:
REMARK  status: ('A' for Active; 'I' for Inactive)
REMARK    1  A    between atoms: C4_4  and  C9_9 
ROOT
HETATM    1  C5  UNL     1     -31.675  18.419  -0.032  1.00 20.00     0.135 C 
HETATM    2  C6  UNL     1     -31.708  18.379   1.474  1.00 20.00     0.079 C 
HETATM    3  C7  UNL     1     -33.195  18.214   1.755  1.00 20.00     0.008 C 
HETATM    4  C8  UNL     1     -33.890  18.951   0.617  1.00 20.00     0.017 C 
HETATM    5  C9  UNL     1     -33.042  18.675  -0.632  1.00 20.00     0.090 C 
HETATM    6  O10 UNL     1     -30.652  18.276  -0.691  1.00 20.00    -0.297 OA
ENDROOT
BRANCH   5   7
HETATM    7  C4  UNL     1     -33.565  17.539  -1.479  1.00 20.00    -0.023 A 
HETATM    8  C1  UNL     1     -34.789  16.845  -1.312  1.00 20.00     0.034 A 
HETATM    9  C2  UNL     1     -34.832  15.902  -2.312  1.00 20.00     0.142 A 
HETATM   10  O11 UNL     1     -33.716  15.971  -3.083  1.00 20.00    -0.334 OA
HETATM   11  C3  UNL     1     -32.951  16.970  -2.570  1.00 20.00     0.149 A 
ENDBRANCH   5   7
TORSDOF 1
ENDMDL
MODEL 9
REMARK VINA RESULT:      -4.4     13.495     14.767
REMARK  1 active torsions:
REMARK  status: ('A' for Active; 'I' for Inactive)
REMARK    1  A    between atoms: C4_4  and  C9_9 
ROOT
HETATM    1  C5  UNL     1     -34.579  17.059  -1.234  1.00 20.00     0.135 C 
HETATM    2  C6  UNL     1     -34.539  16.010  -2.313  1.00 20.00     0.079 C 
HETATM    3  C7  UNL     1     -33.219  16.316  -3.007  1.00 20.00     0.008 C 
HETATM    4  C8  UNL     1     -33.051  17.825  -2.874  1.00 20.00     0.017 C 
HETATM    5  C9  UNL     1     -33.589  18.179  -1.480  1.00 20.00     0.090 C 
HETATM    6  O10 UNL     1     -35.339  17.015  -0.273  1.00 20.00    -0.297 OA
ENDROOT
BRANCH   5   7
HETATM    7  C4  UNL     1     -32.510  18.292  -0.429  1.00 20.00    -0.023 A 
HETATM    8  C1  UNL     1     -32.695  18.454   0.966  1.00 20.00     0.034 A 
HETATM    9  C2  UNL     1     -31.434  18.507   1.513  1.00 20.00     0.142 A 
HETATM   10  O11 UNL     1     -30.488  18.388   0.546  1.00 20.00    -0.334 OA
HETATM   11  C3  UNL     1     -31.151  18.257  -0.632  1.00 20.00     0.149 A 
ENDBRANCH   5   7
TORSDOF 1
ENDMDL
