MODEL 1
REMARK VINA RESULT:      -5.6      0.000      0.000
REMARK  3 active torsions:
REMARK  status: ('A' for Active; 'I' for Inactive)
REMARK    1  A    between atoms: C5_5  and  C6_6 
REMARK    2  A    between atoms: C6_6  and  C7_7 
REMARK    3  A    between atoms: C7_7  and  C8_8 
ROOT
HETATM    1  C1  UNL     1     -34.487   6.436   6.170  1.00 20.00     0.004 C 
HETATM    2  C2  UNL     1     -34.839   5.032   5.691  1.00 20.00     0.026 C 
HETATM    3  C3  UNL     1     -33.289   6.981   5.397  1.00 20.00     0.032 C 
HETATM    4  C4  UNL     1     -34.974   4.998   4.175  1.00 20.00     0.168 C 
HETATM    5  C5  UNL     1     -33.514   6.848   3.890  1.00 20.00     0.121 C 
HETATM    6  O9  UNL     1     -33.788   5.485   3.549  1.00 20.00    -0.386 OA
ENDROOT
BRANCH   5   7
HETATM    7  C6  UNL     1     -32.279   7.284   3.111  1.00 20.00     0.033 C 
BRANCH   7   8
HETATM    8  C7  UNL     1     -32.537   7.276   1.605  1.00 20.00     0.017 C 
BRANCH   8   9
HETATM    9  C8  UNL     1     -32.620   8.695   1.058  1.00 20.00     0.115 C 
HETATM   10 CL10 UNL     1     -33.535   8.719  -0.468  1.00 20.00    -0.130 Cl
ENDBRANCH   8   9
ENDBRANCH   7   8
ENDBRANCH   5   7
TORSDOF 3
ENDMDL
MODEL 2
REMARK VINA RESULT:      -4.1     11.108     11.852
REMARK  3 active torsions:
REMARK  status: ('A' for Active; 'I' for Inactive)
REMARK    1  A    between atoms: C5_5  and  C6_6 
REMARK    2  A    between atoms: C6_6  and  C7_7 
REMARK    3  A    between atoms: C7_7  and  C8_8 
ROOT
HETATM    1  C1  UNL     1     -35.585  15.067  -3.308  1.00 20.00     0.004 C 
HETATM    2  C2  UNL     1     -34.639  14.071  -3.968  1.00 20.00     0.026 C 
HETATM    3  C3  UNL     1     -34.819  15.994  -2.368  1.00 20.00     0.032 C 
HETATM    4  C4  UNL     1     -33.451  14.790  -4.592  1.00 20.00     0.168 C 
HETATM    5  C5  UNL     1     -33.620  16.617  -3.085  1.00 20.00     0.121 C 
HETATM    6  O9  UNL     1     -32.777  15.592  -3.622  1.00 20.00    -0.386 OA
ENDROOT
BRANCH   5   7
HETATM    7  C6  UNL     1     -32.783  17.454  -2.127  1.00 20.00     0.033 C 
BRANCH   7   8
HETATM    8  C7  UNL     1     -33.589  17.868  -0.896  1.00 20.00     0.017 C 
BRANCH   8   9
HETATM    9  C8  UNL     1     -32.701  18.559   0.131  1.00 20.00     0.115 C 
HETATM   10 CL10 UNL     1     -30.985  18.267  -0.235  1.00 20.00    -0.130 Cl
ENDBRANCH   8   9
ENDBRANCH   7   8
ENDBRANCH   5   7
TORSDOF 3
ENDMDL
MODEL 3
REMARK VINA RESULT:      -4.0     15.317     15.807
REMARK  3 active torsions:
REMARK  status: ('A' for Active; 'I' for Inactive)
REMARK    1  A    between atoms: C5_5  and  C6_6 
REMARK    2  A    between atoms: C6_6  and  C7_7 
REMARK    3  A    between atoms: C7_7  and  C8_8 
ROOT
HETATM    1  C1  UNL     1     -24.485  15.915  11.526  1.00 20.00     0.004 C 
HETATM    2  C2  UNL     1     -25.698  16.689  12.031  1.00 20.00     0.026 C 
HETATM    3  C3  UNL     1     -23.892  16.591  10.293  1.00 20.00     0.032 C 
HETATM    4  C4  UNL     1     -25.362  18.165  12.198  1.00 20.00     0.168 C 
HETATM    5  C5  UNL     1     -23.645  18.077  10.560  1.00 20.00     0.121 C 
HETATM    6  O9  UNL     1     -24.858  18.712  10.980  1.00 20.00    -0.386 OA
ENDROOT
BRANCH   5   7
HETATM    7  C6  UNL     1     -23.160  18.786   9.302  1.00 20.00     0.033 C 
BRANCH   7   8
HETATM    8  C7  UNL     1     -23.819  18.213   8.049  1.00 20.00     0.017 C 
BRANCH   8   9
HETATM    9  C8  UNL     1     -24.675  19.263   7.353  1.00 20.00     0.115 C 
HETATM   10 CL10 UNL     1     -26.172  18.530   6.730  1.00 20.00    -0.130 Cl
ENDBRANCH   8   9
ENDBRANCH   7   8
ENDBRANCH   5   7
TORSDOF 3
ENDMDL
MODEL 4
REMARK VINA RESULT:      -4.0     11.354     11.909
REMARK  3 active torsions:
REMARK  status: ('A' for Active; 'I' for Inactive)
REMARK    1  A    between atoms: C5_5  and  C6_6 
REMARK    2  A    between atoms: C6_6  and  C7_7 
REMARK    3  A    between atoms: C7_7  and  C8_8 
ROOT
HETATM    1  C1  UNL     1     -33.509  14.590  -4.384  1.00 20.00     0.004 C 
HETATM    2  C2  UNL     1     -34.903  14.618  -5.001  1.00 20.00     0.026 C 
HETATM    3  C3  UNL     1     -33.318  15.771  -3.437  1.00 20.00     0.032 C 
HETATM    4  C4  UNL     1     -35.967  14.762  -3.921  1.00 20.00     0.168 C 
HETATM    5  C5  UNL     1     -34.469  15.848  -2.432  1.00 20.00     0.121 C 
HETATM    6  O9  UNL     1     -35.723  15.918  -3.120  1.00 20.00    -0.386 OA
ENDROOT
BRANCH   5   7
HETATM    7  C6  UNL     1     -34.349  17.087  -1.555  1.00 20.00     0.033 C 
BRANCH   7   8
HETATM    8  C7  UNL     1     -32.974  17.738  -1.693  1.00 20.00     0.017 C 
BRANCH   8   9
HETATM    9  C8  UNL     1     -32.571  18.443  -0.404  1.00 20.00     0.115 C 
HETATM   10 CL10 UNL     1     -30.841  18.192  -0.074  1.00 20.00    -0.130 Cl
ENDBRANCH   8   9
ENDBRANCH   7   8
ENDBRANCH   5   7
TORSDOF 3
ENDMDL
MODEL 5
REMARK VINA RESULT:      -3.9     11.432     12.102
REMARK  3 active torsions:
REMARK  status: ('A' for Active; 'I' for Inactive)
REMARK    1  A    between atoms: C5_5  and  C6_6 
REMARK    2  A    between atoms: C6_6  and  C7_7 
REMARK    3  A    between atoms: C7_7  and  C8_8 
ROOT
HETATM    1  C1  UNL     1     -35.439  16.190  -2.310  1.00 20.00     0.004 C 
HETATM    2  C2  UNL     1     -34.362  15.418  -3.064  1.00 20.00     0.026 C 
HETATM    3  C3  UNL     1     -34.827  16.968  -1.148  1.00 20.00     0.032 C 
HETATM    4  C4  UNL     1     -33.203  16.334  -3.435  1.00 20.00     0.168 C 
HETATM    5  C5  UNL     1     -33.643  17.810  -1.627  1.00 20.00     0.121 C 
HETATM    6  O9  UNL     1     -32.675  16.978  -2.275  1.00 20.00    -0.386 OA
ENDROOT
BRANCH   5   7
HETATM    7  C6  UNL     1     -32.954  18.502  -0.458  1.00 20.00     0.033 C 
BRANCH   7   8
HETATM    8  C7  UNL     1     -31.433  18.397  -0.564  1.00 20.00     0.017 C 
BRANCH   8   9
HETATM    9  C8  UNL     1     -30.802  18.206   0.809  1.00 20.00     0.115 C 
HETATM   10 CL10 UNL     1     -32.060  18.129   2.065  1.00 20.00    -0.130 Cl
ENDBRANCH   8   9
ENDBRANCH   7   8
ENDBRANCH   5   7
TORSDOF 3
ENDMDL
MODEL 6
REMARK VINA RESULT:      -3.9     10.883     11.770
REMARK  3 active torsions:
REMARK  status: ('A' for Active; 'I' for Inactive)
REMARK    1  A    between atoms: C5_5  and  C6_6 
REMARK    2  A    between atoms: C6_6  and  C7_7 
REMARK    3  A    between atoms: C7_7  and  C8_8 
ROOT
HETATM    1  C1  UNL     1     -32.965  17.353  -2.866  1.00 20.00     0.004 C 
HETATM    2  C2  UNL     1     -33.646  17.489  -1.509  1.00 20.00     0.026 C 
HETATM    3  C3  UNL     1     -33.136  15.938  -3.412  1.00 20.00     0.032 C 
HETATM    4  C4  UNL     1     -35.082  16.988  -1.575  1.00 20.00     0.168 C 
HETATM    5  C5  UNL     1     -34.608  15.523  -3.383  1.00 20.00     0.121 C 
HETATM    6  O9  UNL     1     -35.129  15.644  -2.055  1.00 20.00    -0.386 OA
ENDROOT
BRANCH   5   7
HETATM    7  C6  UNL     1     -34.778  14.074  -3.819  1.00 20.00     0.033 C 
BRANCH   7   8
HETATM    8  C7  UNL     1     -36.112  13.858  -4.533  1.00 20.00     0.017 C 
BRANCH   8   9
HETATM    9  C8  UNL     1     -36.381  14.973  -5.536  1.00 20.00     0.115 C 
HETATM   10 CL10 UNL     1     -35.231  14.881  -6.889  1.00 20.00    -0.130 Cl
ENDBRANCH   8   9
ENDBRANCH   7   8
ENDBRANCH   5   7
TORSDOF 3
ENDMDL
MODEL 7
REMARK VINA RESULT:      -3.9     11.028     11.725
REMARK  3 active torsions:
REMARK  status: ('A' for Active; 'I' for Inactive)
REMARK    1  A    between atoms: C5_5  and  C6_6 
REMARK    2  A    between atoms: C6_6  and  C7_7 
REMARK    3  A    between atoms: C7_7  and  C8_8 
ROOT
HETATM    1  C1  UNL     1     -34.989  17.012  -0.875  1.00 20.00     0.004 C 
HETATM    2  C2  UNL     1     -34.054  18.184  -1.150  1.00 20.00     0.026 C 
HETATM    3  C3  UNL     1     -35.228  16.206  -2.149  1.00 20.00     0.032 C 
HETATM    4  C4  UNL     1     -32.795  17.712  -1.865  1.00 20.00     0.168 C 
HETATM    5  C5  UNL     1     -33.899  15.833  -2.808  1.00 20.00     0.121 C 
HETATM    6  O9  UNL     1     -33.125  17.010  -3.064  1.00 20.00    -0.386 OA
ENDROOT
BRANCH   5   7
HETATM    7  C6  UNL     1     -34.126  15.127  -4.139  1.00 20.00     0.033 C 
BRANCH   7   8
HETATM    8  C7  UNL     1     -35.053  13.923  -3.981  1.00 20.00     0.017 C 
BRANCH   8   9
HETATM    9  C8  UNL     1     -36.165  13.950  -5.022  1.00 20.00     0.115 C 
HETATM   10 CL10 UNL     1     -37.699  14.460  -4.280  1.00 20.00    -0.130 Cl
ENDBRANCH   8   9
ENDBRANCH   7   8
ENDBRANCH   5   7
TORSDOF 3
ENDMDL
MODEL 8
REMARK VINA RESULT:      -3.9     11.080     11.727
REMARK  3 active torsions:
REMARK  status: ('A' for Active; 'I' for Inactive)
REMARK    1  A    between atoms: C5_5  and  C6_6 
REMARK    2  A    between atoms: C6_6  and  C7_7 
REMARK    3  A    between atoms: C7_7  and  C8_8 
ROOT
HETATM    1  C1  UNL     1     -33.111  18.017  -1.907  1.00 20.00     0.004 C 
HETATM    2  C2  UNL     1     -33.884  17.876  -0.600  1.00 20.00     0.026 C 
HETATM    3  C3  UNL     1     -33.131  16.705  -2.686  1.00 20.00     0.032 C 
HETATM    4  C4  UNL     1     -35.268  17.293  -0.854  1.00 20.00     0.168 C 
HETATM    5  C5  UNL     1     -34.564  16.188  -2.835  1.00 20.00     0.121 C 
HETATM    6  O9  UNL     1     -35.175  16.049  -1.547  1.00 20.00    -0.386 OA
ENDROOT
BRANCH   5   7
HETATM    7  C6  UNL     1     -34.587  14.824  -3.511  1.00 20.00     0.033 C 
BRANCH   7   8
HETATM    8  C7  UNL     1     -33.454  14.685  -4.527  1.00 20.00     0.017 C 
BRANCH   8   9
HETATM    9  C8  UNL     1     -33.957  14.935  -5.943  1.00 20.00     0.115 C 
HETATM   10 CL10 UNL     1     -35.686  14.533  -6.067  1.00 20.00    -0.130 Cl
ENDBRANCH   8   9
ENDBRANCH   7   8
ENDBRANCH   5   7
TORSDOF 3
ENDMDL
MODEL 9
REMARK VINA RESULT:      -3.8     11.272     11.945
REMARK  3 active torsions:
REMARK  status: ('A' for Active; 'I' for Inactive)
REMARK    1  A    between atoms: C5_5  and  C6_6 
REMARK    2  A    between atoms: C6_6  and  C7_7 
REMARK    3  A    between atoms: C7_7  and  C8_8 
ROOT
HETATM    1  C1  UNL     1     -34.120  15.930  -2.534  1.00 20.00     0.004 C 
HETATM    2  C2  UNL     1     -33.042  15.910  -3.612  1.00 20.00     0.026 C 
HETATM    3  C3  UNL     1     -35.477  15.556  -3.125  1.00 20.00     0.032 C 
HETATM    4  C4  UNL     1     -33.075  14.596  -4.382  1.00 20.00     0.168 C 
HETATM    5  C5  UNL     1     -35.378  14.251  -3.918  1.00 20.00     0.121 C 
HETATM    6  O9  UNL     1     -34.372  14.362  -4.930  1.00 20.00    -0.386 OA
ENDROOT
BRANCH   5   7
HETATM    7  C6  UNL     1     -36.698  13.927  -4.606  1.00 20.00     0.033 C 
BRANCH   7   8
HETATM    8  C7  UNL     1     -37.601  15.157  -4.689  1.00 20.00     0.017 C 
BRANCH   8   9
HETATM    9  C8  UNL     1     -39.000  14.843  -4.175  1.00 20.00     0.115 C 
HETATM   10 CL10 UNL     1     -39.773  16.315  -3.541  1.00 20.00    -0.130 Cl
ENDBRANCH   8   9
ENDBRANCH   7   8
ENDBRANCH   5   7
TORSDOF 3
ENDMDL
