MODEL 1
REMARK VINA RESULT:      -4.0      0.000      0.000
REMARK  2 active torsions:
REMARK  status: ('A' for Active; 'I' for Inactive)
REMARK    1  A    between atoms: C5_5  and  C6_6 
REMARK    2  A    between atoms: C6_6  and  C7_7 
ROOT
HETATM    1  C1  UNL     1     -33.857  14.880  -5.957  1.00 20.00     0.031 C 
HETATM    2  C2  UNL     1     -34.895  13.772  -3.957  1.00 20.00     0.031 C 
HETATM    3  C3  UNL     1     -35.246  14.887  -6.587  1.00 20.00     0.168 C 
HETATM    4  C4  UNL     1     -36.226  13.840  -4.699  1.00 20.00     0.168 C 
HETATM    5  C5  UNL     1     -33.918  14.859  -4.425  1.00 20.00    -0.010 C 
HETATM    6  O8  UNL     1     -36.022  13.788  -6.111  1.00 20.00    -0.391 OA
ENDROOT
BRANCH   5   7
HETATM    7  C6  UNL     1     -34.288  16.232  -3.856  1.00 20.00     0.020 C 
BRANCH   7   8
HETATM    8  C7  UNL     1     -33.795  16.445  -2.431  1.00 20.00     0.115 C 
HETATM    9 CL9  UNL     1     -35.135  16.523  -1.264  1.00 20.00    -0.130 Cl
ENDBRANCH   7   8
ENDBRANCH   5   7
TORSDOF 2
ENDMDL
MODEL 2
REMARK VINA RESULT:      -3.9     11.635     12.713
REMARK  2 active torsions:
REMARK  status: ('A' for Active; 'I' for Inactive)
REMARK    1  A    between atoms: C5_5  and  C6_6 
REMARK    2  A    between atoms: C6_6  and  C7_7 
ROOT
HETATM    1  C1  UNL     1     -34.245   7.300   4.677  1.00 20.00     0.031 C 
HETATM    2  C2  UNL     1     -35.142   5.019   4.134  1.00 20.00     0.031 C 
HETATM    3  C3  UNL     1     -33.697   6.700   5.969  1.00 20.00     0.168 C 
HETATM    4  C4  UNL     1     -34.545   4.547   5.455  1.00 20.00     0.168 C 
HETATM    5  C5  UNL     1     -34.410   6.246   3.576  1.00 20.00    -0.010 C 
HETATM    6  O8  UNL     1     -34.511   5.612   6.405  1.00 20.00    -0.391 OA
ENDROOT
BRANCH   5   7
HETATM    7  C6  UNL     1     -33.063   5.864   2.954  1.00 20.00     0.020 C 
BRANCH   7   8
HETATM    8  C7  UNL     1     -32.155   7.060   2.703  1.00 20.00     0.115 C 
HETATM    9 CL9  UNL     1     -32.644   7.980   1.261  1.00 20.00    -0.130 Cl
ENDBRANCH   7   8
ENDBRANCH   5   7
TORSDOF 2
ENDMDL
MODEL 3
REMARK VINA RESULT:      -3.8      1.183      1.468
REMARK  2 active torsions:
REMARK  status: ('A' for Active; 'I' for Inactive)
REMARK    1  A    between atoms: C5_5  and  C6_6 
REMARK    2  A    between atoms: C6_6  and  C7_7 
ROOT
HETATM    1  C1  UNL     1     -33.611  14.691  -4.345  1.00 20.00     0.031 C 
HETATM    2  C2  UNL     1     -35.976  13.847  -4.314  1.00 20.00     0.031 C 
HETATM    3  C3  UNL     1     -33.878  15.176  -5.767  1.00 20.00     0.168 C 
HETATM    4  C4  UNL     1     -36.109  14.378  -5.737  1.00 20.00     0.168 C 
HETATM    5  C5  UNL     1     -34.899  14.595  -3.517  1.00 20.00    -0.010 C 
HETATM    6  O8  UNL     1     -34.850  14.351  -6.408  1.00 20.00    -0.391 OA
ENDROOT
BRANCH   5   7
HETATM    7  C6  UNL     1     -35.386  15.976  -3.071  1.00 20.00     0.020 C 
BRANCH   7   8
HETATM    8  C7  UNL     1     -34.850  16.391  -1.707  1.00 20.00     0.115 C 
HETATM    9 CL9  UNL     1     -33.307  17.266  -1.834  1.00 20.00    -0.130 Cl
ENDBRANCH   7   8
ENDBRANCH   5   7
TORSDOF 2
ENDMDL
MODEL 4
REMARK VINA RESULT:      -3.7      1.276      2.169
REMARK  2 active torsions:
REMARK  status: ('A' for Active; 'I' for Inactive)
REMARK    1  A    between atoms: C5_5  and  C6_6 
REMARK    2  A    between atoms: C6_6  and  C7_7 
ROOT
HETATM    1  C1  UNL     1     -36.659  14.836  -3.926  1.00 20.00     0.031 C 
HETATM    2  C2  UNL     1     -35.051  16.119  -5.367  1.00 20.00     0.031 C 
HETATM    3  C3  UNL     1     -36.303  13.602  -4.751  1.00 20.00     0.168 C 
HETATM    4  C4  UNL     1     -34.786  14.814  -6.110  1.00 20.00     0.168 C 
HETATM    5  C5  UNL     1     -35.532  15.876  -3.930  1.00 20.00    -0.010 C 
HETATM    6  O8  UNL     1     -35.937  13.971  -6.080  1.00 20.00    -0.391 OA
ENDROOT
BRANCH   5   7
HETATM    7  C6  UNL     1     -34.379  15.462  -3.012  1.00 20.00     0.020 C 
BRANCH   7   8
HETATM    8  C7  UNL     1     -33.163  16.372  -3.124  1.00 20.00     0.115 C 
HETATM    9 CL9  UNL     1     -33.036  17.490  -1.746  1.00 20.00    -0.130 Cl
ENDBRANCH   7   8
ENDBRANCH   5   7
TORSDOF 2
ENDMDL
MODEL 5
REMARK VINA RESULT:      -3.6      2.513      3.532
REMARK  2 active torsions:
REMARK  status: ('A' for Active; 'I' for Inactive)
REMARK    1  A    between atoms: C5_5  and  C6_6 
REMARK    2  A    between atoms: C6_6  and  C7_7 
ROOT
HETATM    1  C1  UNL     1     -34.466  16.040  -2.311  1.00 20.00     0.031 C 
HETATM    2  C2  UNL     1     -34.773  14.173  -3.962  1.00 20.00     0.031 C 
HETATM    3  C3  UNL     1     -33.245  16.462  -3.122  1.00 20.00     0.168 C 
HETATM    4  C4  UNL     1     -33.535  14.700  -4.680  1.00 20.00     0.168 C 
HETATM    5  C5  UNL     1     -35.485  15.271  -3.160  1.00 20.00    -0.010 C 
HETATM    6  O8  UNL     1     -32.648  15.334  -3.760  1.00 20.00    -0.391 OA
ENDROOT
BRANCH   5   7
HETATM    7  C6  UNL     1     -36.281  16.208  -4.073  1.00 20.00     0.020 C 
BRANCH   7   8
HETATM    8  C7  UNL     1     -37.192  15.471  -5.045  1.00 20.00     0.115 C 
HETATM    9 CL9  UNL     1     -38.538  14.657  -4.214  1.00 20.00    -0.130 Cl
ENDBRANCH   7   8
ENDBRANCH   5   7
TORSDOF 2
ENDMDL
MODEL 6
REMARK VINA RESULT:      -3.6      1.546      2.212
REMARK  2 active torsions:
REMARK  status: ('A' for Active; 'I' for Inactive)
REMARK    1  A    between atoms: C5_5  and  C6_6 
REMARK    2  A    between atoms: C6_6  and  C7_7 
ROOT
HETATM    1  C1  UNL     1     -35.076  16.503  -4.726  1.00 20.00     0.031 C 
HETATM    2  C2  UNL     1     -32.944  15.682  -3.684  1.00 20.00     0.031 C 
HETATM    3  C3  UNL     1     -35.207  15.127  -5.372  1.00 20.00     0.168 C 
HETATM    4  C4  UNL     1     -33.194  14.354  -4.389  1.00 20.00     0.168 C 
HETATM    5  C5  UNL     1     -34.245  16.458  -3.438  1.00 20.00    -0.010 C 
HETATM    6  O8  UNL     1     -33.921  14.552  -5.601  1.00 20.00    -0.391 OA
ENDROOT
BRANCH   5   7
HETATM    7  C6  UNL     1     -35.042  15.867  -2.272  1.00 20.00     0.020 C 
BRANCH   7   8
HETATM    8  C7  UNL     1     -35.247  16.847  -1.125  1.00 20.00     0.115 C 
HETATM    9 CL9  UNL     1     -33.788  17.811  -0.801  1.00 20.00    -0.130 Cl
ENDBRANCH   7   8
ENDBRANCH   5   7
TORSDOF 2
ENDMDL
MODEL 7
REMARK VINA RESULT:      -3.5      3.039      4.387
REMARK  2 active torsions:
REMARK  status: ('A' for Active; 'I' for Inactive)
REMARK    1  A    between atoms: C5_5  and  C6_6 
REMARK    2  A    between atoms: C6_6  and  C7_7 
ROOT
HETATM    1  C1  UNL     1     -35.058  16.331  -1.513  1.00 20.00     0.031 C 
HETATM    2  C2  UNL     1     -33.379  15.885  -3.326  1.00 20.00     0.031 C 
HETATM    3  C3  UNL     1     -34.539  17.766  -1.483  1.00 20.00     0.168 C 
HETATM    4  C4  UNL     1     -32.955  17.343  -3.194  1.00 20.00     0.168 C 
HETATM    5  C5  UNL     1     -34.829  15.663  -2.874  1.00 20.00    -0.010 C 
HETATM    6  O8  UNL     1     -33.165  17.814  -1.864  1.00 20.00    -0.391 OA
ENDROOT
BRANCH   5   7
HETATM    7  C6  UNL     1     -35.828  16.160  -3.922  1.00 20.00     0.020 C 
BRANCH   7   8
HETATM    8  C7  UNL     1     -36.067  15.162  -5.047  1.00 20.00     0.115 C 
HETATM    9 CL9  UNL     1     -36.102  13.485  -4.456  1.00 20.00    -0.130 Cl
ENDBRANCH   7   8
ENDBRANCH   5   7
TORSDOF 2
ENDMDL
MODEL 8
REMARK VINA RESULT:      -3.4      2.847      4.071
REMARK  2 active torsions:
REMARK  status: ('A' for Active; 'I' for Inactive)
REMARK    1  A    between atoms: C5_5  and  C6_6 
REMARK    2  A    between atoms: C6_6  and  C7_7 
ROOT
HETATM    1  C1  UNL     1     -35.538  16.466  -2.599  1.00 20.00     0.031 C 
HETATM    2  C2  UNL     1     -33.065  16.901  -2.594  1.00 20.00     0.031 C 
HETATM    3  C3  UNL     1     -35.666  17.613  -3.598  1.00 20.00     0.168 C 
HETATM    4  C4  UNL     1     -33.332  18.023  -3.591  1.00 20.00     0.168 C 
HETATM    5  C5  UNL     1     -34.149  15.816  -2.642  1.00 20.00    -0.010 C 
HETATM    6  O8  UNL     1     -34.633  18.576  -3.396  1.00 20.00    -0.391 OA
ENDROOT
BRANCH   5   7
HETATM    7  C6  UNL     1     -33.987  14.912  -3.867  1.00 20.00     0.020 C 
BRANCH   7   8
HETATM    8  C7  UNL     1     -35.161  13.965  -4.076  1.00 20.00     0.115 C 
HETATM    9 CL9  UNL     1     -35.977  14.245  -5.631  1.00 20.00    -0.130 Cl
ENDBRANCH   7   8
ENDBRANCH   5   7
TORSDOF 2
ENDMDL
MODEL 9
REMARK VINA RESULT:      -3.3     11.143     12.140
REMARK  2 active torsions:
REMARK  status: ('A' for Active; 'I' for Inactive)
REMARK    1  A    between atoms: C5_5  and  C6_6 
REMARK    2  A    between atoms: C6_6  and  C7_7 
ROOT
HETATM    1  C1  UNL     1     -41.604   5.358  -1.382  1.00 20.00     0.031 C 
HETATM    2  C2  UNL     1     -42.078   6.384   0.860  1.00 20.00     0.031 C 
HETATM    3  C3  UNL     1     -42.972   4.688  -1.286  1.00 20.00     0.168 C 
HETATM    4  C4  UNL     1     -43.417   5.657   0.831  1.00 20.00     0.168 C 
HETATM    5  C5  UNL     1     -41.531   6.644  -0.550  1.00 20.00    -0.010 C 
HETATM    6  O8  UNL     1     -43.323   4.450   0.077  1.00 20.00    -0.391 OA
ENDROOT
BRANCH   5   7
HETATM    7  C6  UNL     1     -42.266   7.800  -1.234  1.00 20.00     0.020 C 
BRANCH   7   8
HETATM    8  C7  UNL     1     -42.614   8.938  -0.284  1.00 20.00     0.115 C 
HETATM    9 CL9  UNL     1     -41.163   9.755   0.342  1.00 20.00    -0.130 Cl
ENDBRANCH   7   8
ENDBRANCH   5   7
TORSDOF 2
ENDMDL
