MODEL 1
REMARK VINA RESULT:      -4.9      0.000      0.000
REMARK  1 active torsions:
REMARK  status: ('A' for Active; 'I' for Inactive)
REMARK    1  A    between atoms: C4_4  and  C8_8 
ROOT
HETATM    1  C5  UNL     1     -33.913  17.705  -1.220  1.00 20.00     0.002 C 
HETATM    2  C6  UNL     1     -34.986  16.673  -1.575  1.00 20.00     0.011 C 
HETATM    3  C7  UNL     1     -32.752  17.468  -2.184  1.00 20.00     0.021 C 
HETATM    4  C8  UNL     1     -34.318  15.702  -2.566  1.00 20.00     0.039 C 
HETATM    5  C9  UNL     1     -33.330  16.620  -3.313  1.00 20.00     0.090 C 
HETATM    6 CL11 UNL     1     -34.144  17.673  -4.513  1.00 20.00    -0.124 Cl
ENDROOT
BRANCH   4   7
HETATM    7  C4  UNL     1     -35.225  14.846  -3.423  1.00 20.00    -0.028 A 
HETATM    8  C1  UNL     1     -36.549  15.145  -3.828  1.00 20.00     0.034 A 
HETATM    9  C2  UNL     1     -36.966  14.079  -4.590  1.00 20.00     0.142 A 
HETATM   10  O10 UNL     1     -35.985  13.143  -4.679  1.00 20.00    -0.334 OA
HETATM   11  C3  UNL     1     -34.929  13.617  -3.968  1.00 20.00     0.148 A 
ENDBRANCH   4   7
TORSDOF 1
ENDMDL
MODEL 2
REMARK VINA RESULT:      -4.6      0.664      1.159
REMARK  1 active torsions:
REMARK  status: ('A' for Active; 'I' for Inactive)
REMARK    1  A    between atoms: C4_4  and  C8_8 
ROOT
HETATM    1  C5  UNL     1     -34.027  17.759  -1.066  1.00 20.00     0.002 C 
HETATM    2  C6  UNL     1     -35.154  16.836  -1.537  1.00 20.00     0.011 C 
HETATM    3  C7  UNL     1     -32.815  17.437  -1.939  1.00 20.00     0.021 C 
HETATM    4  C8  UNL     1     -34.495  15.829  -2.497  1.00 20.00     0.039 C 
HETATM    5  C9  UNL     1     -33.370  16.669  -3.135  1.00 20.00     0.090 C 
HETATM    6 CL11 UNL     1     -33.983  17.816  -4.367  1.00 20.00    -0.124 Cl
ENDROOT
BRANCH   4   7
HETATM    7  C4  UNL     1     -35.401  15.078  -3.449  1.00 20.00    -0.028 A 
HETATM    8  C1  UNL     1     -35.112  13.868  -4.125  1.00 20.00     0.034 A 
HETATM    9  C2  UNL     1     -36.228  13.572  -4.873  1.00 20.00     0.142 A 
HETATM   10  O10 UNL     1     -37.184  14.522  -4.701  1.00 20.00    -0.334 OA
HETATM   11  C3  UNL     1     -36.673  15.434  -3.832  1.00 20.00     0.148 A 
ENDBRANCH   4   7
TORSDOF 1
ENDMDL
MODEL 3
REMARK VINA RESULT:      -4.5      2.143      4.390
REMARK  1 active torsions:
REMARK  status: ('A' for Active; 'I' for Inactive)
REMARK    1  A    between atoms: C4_4  and  C8_8 
ROOT
HETATM    1  C5  UNL     1     -35.955  13.620  -4.624  1.00 20.00     0.002 C 
HETATM    2  C6  UNL     1     -34.768  14.201  -3.851  1.00 20.00     0.011 C 
HETATM    3  C7  UNL     1     -37.152  14.516  -4.311  1.00 20.00     0.021 C 
HETATM    4  C8  UNL     1     -35.364  15.266  -2.912  1.00 20.00     0.039 C 
HETATM    5  C9  UNL     1     -36.560  15.796  -3.730  1.00 20.00     0.090 C 
HETATM    6 CL11 UNL     1     -36.055  16.892  -5.054  1.00 20.00    -0.124 Cl
ENDROOT
BRANCH   4   7
HETATM    7  C4  UNL     1     -34.419  16.305  -2.347  1.00 20.00    -0.028 A 
HETATM    8  C1  UNL     1     -33.130  16.637  -2.828  1.00 20.00     0.034 A 
HETATM    9  C2  UNL     1     -32.657  17.629  -2.001  1.00 20.00     0.142 A 
HETATM   10  O10 UNL     1     -33.572  17.927  -1.041  1.00 20.00    -0.334 OA
HETATM   11  C3  UNL     1     -34.642  17.118  -1.260  1.00 20.00     0.148 A 
ENDBRANCH   4   7
TORSDOF 1
ENDMDL
MODEL 4
REMARK VINA RESULT:      -4.5      1.761      2.392
REMARK  1 active torsions:
REMARK  status: ('A' for Active; 'I' for Inactive)
REMARK    1  A    between atoms: C4_4  and  C8_8 
ROOT
HETATM    1  C5  UNL     1     -32.790  15.568  -3.644  1.00 20.00     0.002 C 
HETATM    2  C6  UNL     1     -34.025  14.785  -4.096  1.00 20.00     0.011 C 
HETATM    3  C7  UNL     1     -33.274  16.978  -3.308  1.00 20.00     0.021 C 
HETATM    4  C8  UNL     1     -35.146  15.829  -4.254  1.00 20.00     0.039 C 
HETATM    5  C9  UNL     1     -34.789  16.863  -3.167  1.00 20.00     0.090 C 
HETATM    6 CL11 UNL     1     -35.208  16.300  -1.518  1.00 20.00    -0.124 Cl
ENDROOT
BRANCH   4   7
HETATM    7  C4  UNL     1     -36.573  15.324  -4.263  1.00 20.00    -0.028 A 
HETATM    8  C1  UNL     1     -37.751  16.093  -4.105  1.00 20.00     0.034 A 
HETATM    9  C2  UNL     1     -38.800  15.206  -4.185  1.00 20.00     0.142 A 
HETATM   10  O10 UNL     1     -38.342  13.941  -4.381  1.00 20.00    -0.334 OA
HETATM   11  C3  UNL     1     -36.987  14.022  -4.429  1.00 20.00     0.148 A 
ENDBRANCH   4   7
TORSDOF 1
ENDMDL
MODEL 5
REMARK VINA RESULT:      -4.2      2.553      4.372
REMARK  1 active torsions:
REMARK  status: ('A' for Active; 'I' for Inactive)
REMARK    1  A    between atoms: C4_4  and  C8_8 
ROOT
HETATM    1  C5  UNL     1     -33.615  14.781  -4.423  1.00 20.00     0.002 C 
HETATM    2  C6  UNL     1     -33.278  15.864  -3.396  1.00 20.00     0.011 C 
HETATM    3  C7  UNL     1     -35.043  14.329  -4.120  1.00 20.00     0.021 C 
HETATM    4  C8  UNL     1     -34.423  15.833  -2.367  1.00 20.00     0.039 C 
HETATM    5  C9  UNL     1     -35.633  15.420  -3.231  1.00 20.00     0.090 C 
HETATM    6 CL11 UNL     1     -36.247  16.766  -4.242  1.00 20.00    -0.124 Cl
ENDROOT
BRANCH   4   7
HETATM    7  C4  UNL     1     -34.606  17.053  -1.489  1.00 20.00    -0.028 A 
HETATM    8  C1  UNL     1     -35.356  17.138  -0.292  1.00 20.00     0.034 A 
HETATM    9  C2  UNL     1     -35.229  18.435   0.148  1.00 20.00     0.142 A 
HETATM   10  O10 UNL     1     -34.450  19.153  -0.702  1.00 20.00    -0.334 OA
HETATM   11  C3  UNL     1     -34.074  18.305  -1.695  1.00 20.00     0.148 A 
ENDBRANCH   4   7
TORSDOF 1
ENDMDL
MODEL 6
REMARK VINA RESULT:      -4.2      1.487      2.030
REMARK  1 active torsions:
REMARK  status: ('A' for Active; 'I' for Inactive)
REMARK    1  A    between atoms: C4_4  and  C8_8 
ROOT
HETATM    1  C5  UNL     1     -33.120  16.573  -3.005  1.00 20.00     0.002 C 
HETATM    2  C6  UNL     1     -34.641  16.500  -2.857  1.00 20.00     0.011 C 
HETATM    3  C7  UNL     1     -32.716  15.393  -3.888  1.00 20.00     0.021 C 
HETATM    4  C8  UNL     1     -35.052  15.138  -3.447  1.00 20.00     0.039 C 
HETATM    5  C9  UNL     1     -34.005  14.930  -4.560  1.00 20.00     0.090 C 
HETATM    6 CL11 UNL     1     -34.333  15.933  -6.008  1.00 20.00    -0.124 Cl
ENDROOT
BRANCH   4   7
HETATM    7  C4  UNL     1     -36.502  14.957  -3.842  1.00 20.00    -0.028 A 
HETATM    8  C1  UNL     1     -37.535  15.922  -3.760  1.00 20.00     0.034 A 
HETATM    9  C2  UNL     1     -38.673  15.305  -4.227  1.00 20.00     0.142 A 
HETATM   10  O10 UNL     1     -38.405  14.023  -4.591  1.00 20.00    -0.334 OA
HETATM   11  C3  UNL     1     -37.083  13.820  -4.354  1.00 20.00     0.148 A 
ENDBRANCH   4   7
TORSDOF 1
ENDMDL
MODEL 7
REMARK VINA RESULT:      -4.2      1.663      2.035
REMARK  1 active torsions:
REMARK  status: ('A' for Active; 'I' for Inactive)
REMARK    1  A    between atoms: C4_4  and  C8_8 
ROOT
HETATM    1  C5  UNL     1     -35.625  18.088  -1.904  1.00 20.00     0.002 C 
HETATM    2  C6  UNL     1     -36.065  17.579  -3.279  1.00 20.00     0.011 C 
HETATM    3  C7  UNL     1     -35.037  16.885  -1.168  1.00 20.00     0.021 C 
HETATM    4  C8  UNL     1     -35.952  16.045  -3.211  1.00 20.00     0.039 C 
HETATM    5  C9  UNL     1     -34.764  15.842  -2.248  1.00 20.00     0.090 C 
HETATM    6 CL11 UNL     1     -33.185  16.169  -3.028  1.00 20.00    -0.124 Cl
ENDROOT
BRANCH   4   7
HETATM    7  C4  UNL     1     -35.895  15.290  -4.523  1.00 20.00    -0.028 A 
HETATM    8  C1  UNL     1     -35.525  15.806  -5.788  1.00 20.00     0.034 A 
HETATM    9  C2  UNL     1     -35.623  14.757  -6.672  1.00 20.00     0.142 A 
HETATM   10  O10 UNL     1     -36.030  13.630  -6.032  1.00 20.00    -0.334 OA
HETATM   11  C3  UNL     1     -36.192  13.962  -4.724  1.00 20.00     0.148 A 
ENDBRANCH   4   7
TORSDOF 1
ENDMDL
MODEL 8
REMARK VINA RESULT:      -4.1      2.738      4.566
REMARK  1 active torsions:
REMARK  status: ('A' for Active; 'I' for Inactive)
REMARK    1  A    between atoms: C4_4  and  C8_8 
ROOT
HETATM    1  C5  UNL     1     -35.859  14.500  -3.792  1.00 20.00     0.002 C 
HETATM    2  C6  UNL     1     -35.312  15.589  -2.867  1.00 20.00     0.011 C 
HETATM    3  C7  UNL     1     -35.190  14.712  -5.149  1.00 20.00     0.021 C 
HETATM    4  C8  UNL     1     -34.534  16.557  -3.777  1.00 20.00     0.039 C 
HETATM    5  C9  UNL     1     -33.993  15.617  -4.873  1.00 20.00     0.090 C 
HETATM    6 CL11 UNL     1     -32.602  14.636  -4.313  1.00 20.00    -0.124 Cl
ENDROOT
BRANCH   4   7
HETATM    7  C4  UNL     1     -33.527  17.477  -3.118  1.00 20.00    -0.028 A 
HETATM    8  C1  UNL     1     -33.077  17.429  -1.777  1.00 20.00     0.034 A 
HETATM    9  C2  UNL     1     -32.172  18.455  -1.640  1.00 20.00     0.142 A 
HETATM   10  O10 UNL     1     -32.037  19.132  -2.811  1.00 20.00    -0.334 OA
HETATM   11  C3  UNL     1     -32.864  18.529  -3.706  1.00 20.00     0.148 A 
ENDBRANCH   4   7
TORSDOF 1
ENDMDL
MODEL 9
REMARK VINA RESULT:      -4.0      1.594      2.146
REMARK  1 active torsions:
REMARK  status: ('A' for Active; 'I' for Inactive)
REMARK    1  A    between atoms: C4_4  and  C8_8 
ROOT
HETATM    1  C5  UNL     1     -32.645  17.895  -2.013  1.00 20.00     0.002 C 
HETATM    2  C6  UNL     1     -33.009  16.616  -2.773  1.00 20.00     0.011 C 
HETATM    3  C7  UNL     1     -33.949  18.670  -1.828  1.00 20.00     0.021 C 
HETATM    4  C8  UNL     1     -34.467  16.803  -3.230  1.00 20.00     0.039 C 
HETATM    5  C9  UNL     1     -35.062  17.661  -2.094  1.00 20.00     0.090 C 
HETATM    6 CL11 UNL     1     -35.390  16.708  -0.613  1.00 20.00    -0.124 Cl
ENDROOT
BRANCH   4   7
HETATM    7  C4  UNL     1     -35.242  15.561  -3.615  1.00 20.00    -0.028 A 
HETATM    8  C1  UNL     1     -34.710  14.293  -3.951  1.00 20.00     0.034 A 
HETATM    9  C2  UNL     1     -35.789  13.486  -4.226  1.00 20.00     0.142 A 
HETATM   10  O10 UNL     1     -36.951  14.176  -4.082  1.00 20.00    -0.334 OA
HETATM   11  C3  UNL     1     -36.609  15.437  -3.709  1.00 20.00     0.148 A 
ENDBRANCH   4   7
TORSDOF 1
ENDMDL
