MODEL 1
REMARK VINA RESULT:      -4.5      0.000      0.000
REMARK  1 active torsions:
REMARK  status: ('A' for Active; 'I' for Inactive)
REMARK    1  A    between atoms: C4_4  and  C8_8 
ROOT
HETATM    1  C5  UNL     1     -36.176  13.702  -4.564  1.00 20.00     0.002 C 
HETATM    2  C6  UNL     1     -34.794  13.577  -3.909  1.00 20.00     0.011 C 
HETATM    3  C7  UNL     1     -36.190  15.034  -5.310  1.00 20.00     0.021 C 
HETATM    4  C8  UNL     1     -34.049  14.897  -4.185  1.00 20.00     0.039 C 
HETATM    5  C9  UNL     1     -34.717  15.375  -5.488  1.00 20.00     0.090 C 
HETATM    6 CL11 UNL     1     -34.466  17.079  -5.899  1.00 20.00    -0.124 Cl
ENDROOT
BRANCH   4   7
HETATM    7  C4  UNL     1     -34.066  15.877  -3.023  1.00 20.00    -0.028 A 
HETATM    8  C1  UNL     1     -35.107  16.066  -2.082  1.00 20.00     0.034 A 
HETATM    9  C2  UNL     1     -34.674  17.050  -1.226  1.00 20.00     0.142 A 
HETATM   10  O10 UNL     1     -33.434  17.480  -1.579  1.00 20.00    -0.334 OA
HETATM   11  C3  UNL     1     -33.071  16.761  -2.674  1.00 20.00     0.148 A 
ENDBRANCH   4   7
TORSDOF 1
ENDMDL
MODEL 2
REMARK VINA RESULT:      -4.4      2.463      4.043
REMARK  1 active torsions:
REMARK  status: ('A' for Active; 'I' for Inactive)
REMARK    1  A    between atoms: C4_4  and  C8_8 
ROOT
HETATM    1  C5  UNL     1     -34.083  16.286  -2.429  1.00 20.00     0.002 C 
HETATM    2  C6  UNL     1     -33.015  15.868  -3.449  1.00 20.00     0.011 C 
HETATM    3  C7  UNL     1     -35.357  15.525  -2.790  1.00 20.00     0.021 C 
HETATM    4  C8  UNL     1     -33.711  14.949  -4.472  1.00 20.00     0.039 C 
HETATM    5  C9  UNL     1     -34.866  14.361  -3.639  1.00 20.00     0.090 C 
HETATM    6 CL11 UNL     1     -36.172  13.606  -4.565  1.00 20.00    -0.124 Cl
ENDROOT
BRANCH   4   7
HETATM    7  C4  UNL     1     -34.102  15.641  -5.767  1.00 20.00    -0.028 A 
HETATM    8  C1  UNL     1     -34.040  15.101  -7.075  1.00 20.00     0.034 A 
HETATM    9  C2  UNL     1     -34.493  16.088  -7.918  1.00 20.00     0.142 A 
HETATM   10  O10 UNL     1     -34.830  17.201  -7.214  1.00 20.00    -0.334 OA
HETATM   11  C3  UNL     1     -34.589  16.920  -5.905  1.00 20.00     0.148 A 
ENDBRANCH   4   7
TORSDOF 1
ENDMDL
MODEL 3
REMARK VINA RESULT:      -4.3      2.253      3.919
REMARK  1 active torsions:
REMARK  status: ('A' for Active; 'I' for Inactive)
REMARK    1  A    between atoms: C4_4  and  C8_8 
ROOT
HETATM    1  C5  UNL     1     -33.406  16.772  -2.258  1.00 20.00     0.002 C 
HETATM    2  C6  UNL     1     -34.826  16.465  -1.765  1.00 20.00     0.011 C 
HETATM    3  C7  UNL     1     -33.531  17.211  -3.715  1.00 20.00     0.021 C 
HETATM    4  C8  UNL     1     -35.762  16.618  -2.980  1.00 20.00     0.039 C 
HETATM    5  C9  UNL     1     -34.989  17.623  -3.854  1.00 20.00     0.090 C 
HETATM    6 CL11 UNL     1     -35.502  17.722  -5.546  1.00 20.00    -0.124 Cl
ENDROOT
BRANCH   4   7
HETATM    7  C4  UNL     1     -36.140  15.304  -3.644  1.00 20.00    -0.028 A 
HETATM    8  C1  UNL     1     -35.265  14.260  -4.030  1.00 20.00     0.034 A 
HETATM    9  C2  UNL     1     -36.056  13.282  -4.585  1.00 20.00     0.142 A 
HETATM   10  O10 UNL     1     -37.363  13.657  -4.566  1.00 20.00    -0.334 OA
HETATM   11  C3  UNL     1     -37.405  14.889  -3.992  1.00 20.00     0.148 A 
ENDBRANCH   4   7
TORSDOF 1
ENDMDL
MODEL 4
REMARK VINA RESULT:      -4.3     17.084     18.349
REMARK  1 active torsions:
REMARK  status: ('A' for Active; 'I' for Inactive)
REMARK    1  A    between atoms: C4_4  and  C8_8 
ROOT
HETATM    1  C5  UNL     1     -25.099  16.352  11.753  1.00 20.00     0.002 C 
HETATM    2  C6  UNL     1     -25.272  17.677  10.999  1.00 20.00     0.011 C 
HETATM    3  C7  UNL     1     -23.627  16.260  12.148  1.00 20.00     0.021 C 
HETATM    4  C8  UNL     1     -23.868  18.297  10.860  1.00 20.00     0.039 C 
HETATM    5  C9  UNL     1     -23.132  17.697  12.073  1.00 20.00     0.090 C 
HETATM    6 CL11 UNL     1     -21.365  17.799  12.025  1.00 20.00    -0.124 Cl
ENDROOT
BRANCH   4   7
HETATM    7  C4  UNL     1     -23.219  18.074   9.503  1.00 20.00    -0.028 A 
HETATM    8  C1  UNL     1     -22.085  17.274   9.222  1.00 20.00     0.034 A 
HETATM    9  C2  UNL     1     -21.871  17.378   7.868  1.00 20.00     0.142 A 
HETATM   10  O10 UNL     1     -22.800  18.189   7.298  1.00 20.00    -0.334 OA
HETATM   11  C3  UNL     1     -23.617  18.608   8.300  1.00 20.00     0.148 A 
ENDBRANCH   4   7
TORSDOF 1
ENDMDL
MODEL 5
REMARK VINA RESULT:      -4.3      2.515      3.645
REMARK  1 active torsions:
REMARK  status: ('A' for Active; 'I' for Inactive)
REMARK    1  A    between atoms: C4_4  and  C8_8 
ROOT
HETATM    1  C5  UNL     1     -33.449  14.608  -4.176  1.00 20.00     0.002 C 
HETATM    2  C6  UNL     1     -34.358  15.358  -3.193  1.00 20.00     0.011 C 
HETATM    3  C7  UNL     1     -33.867  15.041  -5.579  1.00 20.00     0.021 C 
HETATM    4  C8  UNL     1     -35.381  16.140  -4.040  1.00 20.00     0.039 C 
HETATM    5  C9  UNL     1     -34.611  16.350  -5.357  1.00 20.00     0.090 C 
HETATM    6 CL11 UNL     1     -35.594  16.810  -6.756  1.00 20.00    -0.124 Cl
ENDROOT
BRANCH   4   7
HETATM    7  C4  UNL     1     -36.739  15.467  -4.156  1.00 20.00    -0.028 A 
HETATM    8  C1  UNL     1     -38.008  16.091  -4.095  1.00 20.00     0.034 A 
HETATM    9  C2  UNL     1     -38.935  15.087  -4.249  1.00 20.00     0.142 A 
HETATM   10  O10 UNL     1     -38.319  13.886  -4.401  1.00 20.00    -0.334 OA
HETATM   11  C3  UNL     1     -36.982  14.126  -4.344  1.00 20.00     0.148 A 
ENDBRANCH   4   7
TORSDOF 1
ENDMDL
MODEL 6
REMARK VINA RESULT:      -4.2      2.063      3.796
REMARK  1 active torsions:
REMARK  status: ('A' for Active; 'I' for Inactive)
REMARK    1  A    between atoms: C4_4  and  C8_8 
ROOT
HETATM    1  C5  UNL     1     -34.626  18.396  -1.578  1.00 20.00     0.002 C 
HETATM    2  C6  UNL     1     -34.734  16.939  -1.108  1.00 20.00     0.011 C 
HETATM    3  C7  UNL     1     -35.400  18.493  -2.890  1.00 20.00     0.021 C 
HETATM    4  C8  UNL     1     -35.480  16.168  -2.215  1.00 20.00     0.039 C 
HETATM    5  C9  UNL     1     -36.320  17.280  -2.869  1.00 20.00     0.090 C 
HETATM    6 CL11 UNL     1     -36.976  16.906  -4.471  1.00 20.00    -0.124 Cl
ENDROOT
BRANCH   4   7
HETATM    7  C4  UNL     1     -34.571  15.378  -3.144  1.00 20.00    -0.028 A 
HETATM    8  C1  UNL     1     -33.245  15.703  -3.519  1.00 20.00     0.034 A 
HETATM    9  C2  UNL     1     -32.832  14.703  -4.367  1.00 20.00     0.142 A 
HETATM   10  O10 UNL     1     -33.818  13.783  -4.538  1.00 20.00    -0.334 OA
HETATM   11  C3  UNL     1     -34.874  14.202  -3.790  1.00 20.00     0.148 A 
ENDBRANCH   4   7
TORSDOF 1
ENDMDL
MODEL 7
REMARK VINA RESULT:      -4.1      2.472      4.161
REMARK  1 active torsions:
REMARK  status: ('A' for Active; 'I' for Inactive)
REMARK    1  A    between atoms: C4_4  and  C8_8 
ROOT
HETATM    1  C5  UNL     1     -33.196  17.587  -3.281  1.00 20.00     0.002 C 
HETATM    2  C6  UNL     1     -33.255  16.083  -2.984  1.00 20.00     0.011 C 
HETATM    3  C7  UNL     1     -34.640  18.078  -3.350  1.00 20.00     0.021 C 
HETATM    4  C8  UNL     1     -34.743  15.684  -2.996  1.00 20.00     0.039 C 
HETATM    5  C9  UNL     1     -35.432  17.007  -2.614  1.00 20.00     0.090 C 
HETATM    6 CL11 UNL     1     -37.166  17.097  -2.958  1.00 20.00    -0.124 Cl
ENDROOT
BRANCH   4   7
HETATM    7  C4  UNL     1     -35.204  15.037  -4.292  1.00 20.00    -0.028 A 
HETATM    8  C1  UNL     1     -34.935  15.481  -5.609  1.00 20.00     0.034 A 
HETATM    9  C2  UNL     1     -35.553  14.585  -6.449  1.00 20.00     0.142 A 
HETATM   10  O10 UNL     1     -36.186  13.618  -5.733  1.00 20.00    -0.334 OA
HETATM   11  C3  UNL     1     -35.969  13.901  -4.421  1.00 20.00     0.148 A 
ENDBRANCH   4   7
TORSDOF 1
ENDMDL
MODEL 8
REMARK VINA RESULT:      -4.0      2.745      4.032
REMARK  1 active torsions:
REMARK  status: ('A' for Active; 'I' for Inactive)
REMARK    1  A    between atoms: C4_4  and  C8_8 
ROOT
HETATM    1  C5  UNL     1     -34.441  17.705  -6.191  1.00 20.00     0.002 C 
HETATM    2  C6  UNL     1     -34.619  16.260  -6.675  1.00 20.00     0.011 C 
HETATM    3  C7  UNL     1     -34.283  17.644  -4.673  1.00 20.00     0.021 C 
HETATM    4  C8  UNL     1     -34.678  15.372  -5.416  1.00 20.00     0.039 C 
HETATM    5  C9  UNL     1     -33.873  16.204  -4.401  1.00 20.00     0.090 C 
HETATM    6 CL11 UNL     1     -34.084  15.755  -2.701  1.00 20.00    -0.124 Cl
ENDROOT
BRANCH   4   7
HETATM    7  C4  UNL     1     -36.085  14.979  -4.996  1.00 20.00    -0.028 A 
HETATM    8  C1  UNL     1     -37.214  15.828  -4.898  1.00 20.00     0.034 A 
HETATM    9  C2  UNL     1     -38.256  15.033  -4.484  1.00 20.00     0.142 A 
HETATM   10  O10 UNL     1     -37.841  13.748  -4.321  1.00 20.00    -0.334 OA
HETATM   11  C3  UNL     1     -36.519  13.725  -4.635  1.00 20.00     0.148 A 
ENDBRANCH   4   7
TORSDOF 1
ENDMDL
MODEL 9
REMARK VINA RESULT:      -4.0      1.724      2.141
REMARK  1 active torsions:
REMARK  status: ('A' for Active; 'I' for Inactive)
REMARK    1  A    between atoms: C4_4  and  C8_8 
ROOT
HETATM    1  C5  UNL     1     -35.807  14.388  -5.979  1.00 20.00     0.002 C 
HETATM    2  C6  UNL     1     -36.279  13.975  -4.579  1.00 20.00     0.011 C 
HETATM    3  C7  UNL     1     -34.435  15.035  -5.807  1.00 20.00     0.021 C 
HETATM    4  C8  UNL     1     -35.223  14.490  -3.582  1.00 20.00     0.039 C 
HETATM    5  C9  UNL     1     -33.954  14.531  -4.454  1.00 20.00     0.090 C 
HETATM    6 CL11 UNL     1     -32.614  15.496  -3.814  1.00 20.00    -0.124 Cl
ENDROOT
BRANCH   4   7
HETATM    7  C4  UNL     1     -35.603  15.789  -2.888  1.00 20.00    -0.028 A 
HETATM    8  C1  UNL     1     -35.080  16.289  -1.671  1.00 20.00     0.034 A 
HETATM    9  C2  UNL     1     -35.720  17.485  -1.444  1.00 20.00     0.142 A 
HETATM   10  O10 UNL     1     -36.602  17.752  -2.442  1.00 20.00    -0.334 OA
HETATM   11  C3  UNL     1     -36.524  16.715  -3.317  1.00 20.00     0.148 A 
ENDBRANCH   4   7
TORSDOF 1
ENDMDL
