MODEL 1
REMARK VINA RESULT:      -3.7      0.000      0.000
REMARK  4 active torsions:
REMARK  status: ('A' for Active; 'I' for Inactive)
REMARK    1  A    between atoms: C5_5  and  C8_8 
REMARK    2  A    between atoms: C7_7  and  N10_10 
REMARK    3  A    between atoms: C8_8  and  N10_10 
REMARK    4  A    between atoms: C9_9  and  N10_10 
ROOT
HETATM    1  C1  UNL     1     -26.357  19.263   7.615  1.00 20.00     0.013 C 
HETATM    2  C2  UNL     1     -25.243  18.925   7.908  1.00 20.00    -0.087 C 
HETATM    3  C7  UNL     1     -23.882  18.513   8.261  1.00 20.00     0.364 C 
ENDROOT
BRANCH   3   4
HETATM    4  N10 UNL     1     -23.701  18.520   9.712  1.00 20.00     0.099 N 
BRANCH   4   5
HETATM    5  C8  UNL     1     -24.670  17.632  10.352  1.00 20.00     0.278 C 
BRANCH   5   6
HETATM    6  C5  UNL     1     -25.058  18.140  11.698  1.00 20.00     0.014 A 
HETATM    7  C3  UNL     1     -26.098  19.218  11.831  1.00 20.00     0.007 A 
HETATM    8  C4  UNL     1     -26.411  17.814  12.269  1.00 20.00     0.007 A 
ENDBRANCH   5   6
ENDBRANCH   4   5
BRANCH   4   9
HETATM    9  C9  UNL     1     -22.337  18.122  10.059  1.00 20.00     0.269 C 
HETATM   10  C6  UNL     1     -21.691  17.381   8.937  1.00 20.00     0.037 C 
ENDBRANCH   4   9
ENDBRANCH   3   4
TORSDOF 4
ENDMDL
MODEL 2
REMARK VINA RESULT:      -3.7     15.384     16.599
REMARK  4 active torsions:
REMARK  status: ('A' for Active; 'I' for Inactive)
REMARK    1  A    between atoms: C5_5  and  C8_8 
REMARK    2  A    between atoms: C7_7  and  N10_10 
REMARK    3  A    between atoms: C8_8  and  N10_10 
REMARK    4  A    between atoms: C9_9  and  N10_10 
ROOT
HETATM    1  C1  UNL     1     -34.826   5.418   6.318  1.00 20.00     0.013 C 
HETATM    2  C2  UNL     1     -34.151   6.109   5.604  1.00 20.00    -0.087 C 
HETATM    3  C7  UNL     1     -33.326   6.954   4.737  1.00 20.00     0.364 C 
ENDROOT
BRANCH   3   4
HETATM    4  N10 UNL     1     -33.681   6.754   3.333  1.00 20.00     0.099 N 
BRANCH   4   5
HETATM    5  C8  UNL     1     -32.568   7.138   2.465  1.00 20.00     0.278 C 
BRANCH   5   6
HETATM    6  C5  UNL     1     -33.060   7.784   1.215  1.00 20.00     0.014 A 
HETATM    7  C3  UNL     1     -32.898   9.266   1.013  1.00 20.00     0.007 A 
HETATM    8  C4  UNL     1     -32.081   8.303   0.196  1.00 20.00     0.007 A 
ENDBRANCH   5   6
ENDBRANCH   4   5
BRANCH   4   9
HETATM    9  C9  UNL     1     -34.058   5.361   3.094  1.00 20.00     0.269 C 
HETATM   10  C6  UNL     1     -32.949   4.608   2.440  1.00 20.00     0.037 C 
ENDBRANCH   4   9
ENDBRANCH   3   4
TORSDOF 4
ENDMDL
MODEL 3
REMARK VINA RESULT:      -3.6     15.809     16.578
REMARK  4 active torsions:
REMARK  status: ('A' for Active; 'I' for Inactive)
REMARK    1  A    between atoms: C5_5  and  C8_8 
REMARK    2  A    between atoms: C7_7  and  N10_10 
REMARK    3  A    between atoms: C8_8  and  N10_10 
REMARK    4  A    between atoms: C9_9  and  N10_10 
ROOT
HETATM    1  C1  UNL     1     -32.880   8.476   0.697  1.00 20.00     0.013 C 
HETATM    2  C2  UNL     1     -32.490   7.911   1.682  1.00 20.00    -0.087 C 
HETATM    3  C7  UNL     1     -32.010   7.225   2.885  1.00 20.00     0.364 C 
ENDROOT
BRANCH   3   4
HETATM    4  N10 UNL     1     -32.960   6.196   3.305  1.00 20.00     0.099 N 
BRANCH   4   5
HETATM    5  C8  UNL     1     -34.057   6.793   4.066  1.00 20.00     0.278 C 
BRANCH   5   6
HETATM    6  C5  UNL     1     -34.922   5.743   4.674  1.00 20.00     0.014 A 
HETATM    7  C3  UNL     1     -34.306   4.544   5.341  1.00 20.00     0.007 A 
HETATM    8  C4  UNL     1     -34.994   5.594   6.170  1.00 20.00     0.007 A 
ENDBRANCH   5   6
ENDBRANCH   4   5
BRANCH   4   9
HETATM    9  C9  UNL     1     -33.477   5.474   2.143  1.00 20.00     0.269 C 
HETATM   10  C6  UNL     1     -32.958   4.076   2.103  1.00 20.00     0.037 C 
ENDBRANCH   4   9
ENDBRANCH   3   4
TORSDOF 4
ENDMDL
MODEL 4
REMARK VINA RESULT:      -3.6     16.190     18.629
REMARK  4 active torsions:
REMARK  status: ('A' for Active; 'I' for Inactive)
REMARK    1  A    between atoms: C5_5  and  C8_8 
REMARK    2  A    between atoms: C7_7  and  N10_10 
REMARK    3  A    between atoms: C8_8  and  N10_10 
REMARK    4  A    between atoms: C9_9  and  N10_10 
ROOT
HETATM    1  C1  UNL     1     -35.703  15.033  -7.102  1.00 20.00     0.013 C 
HETATM    2  C2  UNL     1     -35.856  14.467  -6.054  1.00 20.00    -0.087 C 
HETATM    3  C7  UNL     1     -36.040  13.772  -4.777  1.00 20.00     0.364 C 
ENDROOT
BRANCH   3   4
HETATM    4  N10 UNL     1     -36.761  14.619  -3.828  1.00 20.00     0.099 N 
BRANCH   4   5
HETATM    5  C8  UNL     1     -35.995  15.831  -3.541  1.00 20.00     0.278 C 
BRANCH   5   6
HETATM    6  C5  UNL     1     -34.761  15.517  -2.766  1.00 20.00     0.014 A 
HETATM    7  C3  UNL     1     -33.407  15.846  -3.331  1.00 20.00     0.007 A 
HETATM    8  C4  UNL     1     -33.944  16.626  -2.162  1.00 20.00     0.007 A 
ENDBRANCH   5   6
ENDBRANCH   4   5
BRANCH   4   9
HETATM    9  C9  UNL     1     -38.083  14.962  -4.352  1.00 20.00     0.269 C 
HETATM   10  C6  UNL     1     -38.407  16.395  -4.097  1.00 20.00     0.037 C 
ENDBRANCH   4   9
ENDBRANCH   3   4
TORSDOF 4
ENDMDL
MODEL 5
REMARK VINA RESULT:      -3.5      1.607      3.612
REMARK  4 active torsions:
REMARK  status: ('A' for Active; 'I' for Inactive)
REMARK    1  A    between atoms: C5_5  and  C8_8 
REMARK    2  A    between atoms: C7_7  and  N10_10 
REMARK    3  A    between atoms: C8_8  and  N10_10 
REMARK    4  A    between atoms: C9_9  and  N10_10 
ROOT
HETATM    1  C1  UNL     1     -21.572  17.329   7.488  1.00 20.00     0.013 C 
HETATM    2  C2  UNL     1     -21.782  17.648   8.626  1.00 20.00    -0.087 C 
HETATM    3  C7  UNL     1     -22.033  18.038  10.016  1.00 20.00     0.364 C 
ENDROOT
BRANCH   3   4
HETATM    4  N10 UNL     1     -23.467  18.191  10.258  1.00 20.00     0.099 N 
BRANCH   4   5
HETATM    5  C8  UNL     1     -24.038  19.177   9.341  1.00 20.00     0.278 C 
BRANCH   5   6
HETATM    6  C5  UNL     1     -24.939  18.527   8.347  1.00 20.00     0.014 A 
HETATM    7  C3  UNL     1     -26.139  19.263   7.818  1.00 20.00     0.007 A 
HETATM    8  C4  UNL     1     -24.960  19.004   6.921  1.00 20.00     0.007 A 
ENDBRANCH   5   6
ENDBRANCH   4   5
BRANCH   4   9
HETATM    9  C9  UNL     1     -24.149  16.905  10.115  1.00 20.00     0.269 C 
HETATM   10  C6  UNL     1     -24.285  16.219  11.432  1.00 20.00     0.037 C 
ENDBRANCH   4   9
ENDBRANCH   3   4
TORSDOF 4
ENDMDL
MODEL 6
REMARK VINA RESULT:      -3.5     15.584     17.755
REMARK  4 active torsions:
REMARK  status: ('A' for Active; 'I' for Inactive)
REMARK    1  A    between atoms: C5_5  and  C8_8 
REMARK    2  A    between atoms: C7_7  and  N10_10 
REMARK    3  A    between atoms: C8_8  and  N10_10 
REMARK    4  A    between atoms: C9_9  and  N10_10 
ROOT
HETATM    1  C1  UNL     1     -34.373  15.807  -6.895  1.00 20.00     0.013 C 
HETATM    2  C2  UNL     1     -34.148  15.171  -5.902  1.00 20.00    -0.087 C 
HETATM    3  C7  UNL     1     -33.869  14.396  -4.690  1.00 20.00     0.364 C 
ENDROOT
BRANCH   3   4
HETATM    4  N10 UNL     1     -35.067  14.287  -3.860  1.00 20.00     0.099 N 
BRANCH   4   5
HETATM    5  C8  UNL     1     -35.421  15.591  -3.300  1.00 20.00     0.278 C 
BRANCH   5   6
HETATM    6  C5  UNL     1     -34.547  15.934  -2.142  1.00 20.00     0.014 A 
HETATM    7  C3  UNL     1     -33.703  17.178  -2.171  1.00 20.00     0.007 A 
HETATM    8  C4  UNL     1     -34.892  17.098  -1.253  1.00 20.00     0.007 A 
ENDBRANCH   5   6
ENDBRANCH   4   5
BRANCH   4   9
HETATM    9  C9  UNL     1     -36.181  13.746  -4.638  1.00 20.00     0.269 C 
HETATM   10  C6  UNL     1     -37.444  14.488  -4.356  1.00 20.00     0.037 C 
ENDBRANCH   4   9
ENDBRANCH   3   4
TORSDOF 4
ENDMDL
MODEL 7
REMARK VINA RESULT:      -3.5     12.473     15.077
REMARK  4 active torsions:
REMARK  status: ('A' for Active; 'I' for Inactive)
REMARK    1  A    between atoms: C5_5  and  C8_8 
REMARK    2  A    between atoms: C7_7  and  N10_10 
REMARK    3  A    between atoms: C8_8  and  N10_10 
REMARK    4  A    between atoms: C9_9  and  N10_10 
ROOT
HETATM    1  C1  UNL     1     -35.496  17.216   0.738  1.00 20.00     0.013 C 
HETATM    2  C2  UNL     1     -34.925  17.833  -0.118  1.00 20.00    -0.087 C 
HETATM    3  C7  UNL     1     -34.229  18.589  -1.164  1.00 20.00     0.364 C 
ENDROOT
BRANCH   3   4
HETATM    4  N10 UNL     1     -32.991  17.916  -1.551  1.00 20.00     0.099 N 
BRANCH   4   5
HETATM    5  C8  UNL     1     -33.050  17.503  -2.952  1.00 20.00     0.278 C 
BRANCH   5   6
HETATM    6  C5  UNL     1     -33.219  16.026  -3.071  1.00 20.00     0.014 A 
HETATM    7  C3  UNL     1     -34.588  15.410  -2.985  1.00 20.00     0.007 A 
HETATM    8  C4  UNL     1     -33.856  15.434  -4.298  1.00 20.00     0.007 A 
ENDBRANCH   5   6
ENDBRANCH   4   5
BRANCH   4   9
HETATM    9  C9  UNL     1     -31.841  18.791  -1.325  1.00 20.00     0.269 C 
HETATM   10  C6  UNL     1     -31.037  18.332  -0.156  1.00 20.00     0.037 C 
ENDBRANCH   4   9
ENDBRANCH   3   4
TORSDOF 4
ENDMDL
MODEL 8
REMARK VINA RESULT:      -3.5     12.859     15.552
REMARK  4 active torsions:
REMARK  status: ('A' for Active; 'I' for Inactive)
REMARK    1  A    between atoms: C5_5  and  C8_8 
REMARK    2  A    between atoms: C7_7  and  N10_10 
REMARK    3  A    between atoms: C8_8  and  N10_10 
REMARK    4  A    between atoms: C9_9  and  N10_10 
ROOT
HETATM    1  C1  UNL     1     -31.138  18.289  -0.153  1.00 20.00     0.013 C 
HETATM    2  C2  UNL     1     -31.780  18.466  -1.151  1.00 20.00    -0.087 C 
HETATM    3  C7  UNL     1     -32.562  18.684  -2.372  1.00 20.00     0.364 C 
ENDROOT
BRANCH   3   4
HETATM    4  N10 UNL     1     -33.809  17.922  -2.329  1.00 20.00     0.099 N 
BRANCH   4   5
HETATM    5  C8  UNL     1     -33.533  16.486  -2.378  1.00 20.00     0.278 C 
BRANCH   5   6
HETATM    6  C5  UNL     1     -33.857  15.922  -3.719  1.00 20.00     0.014 A 
HETATM    7  C3  UNL     1     -33.074  14.759  -4.262  1.00 20.00     0.007 A 
HETATM    8  C4  UNL     1     -34.503  14.569  -3.835  1.00 20.00     0.007 A 
ENDBRANCH   5   6
ENDBRANCH   4   5
BRANCH   4   9
HETATM    9  C9  UNL     1     -34.570  18.254  -1.125  1.00 20.00     0.269 C 
HETATM   10  C6  UNL     1     -35.238  17.047  -0.561  1.00 20.00     0.037 C 
ENDBRANCH   4   9
ENDBRANCH   3   4
TORSDOF 4
ENDMDL
MODEL 9
REMARK VINA RESULT:      -3.4     16.070     18.378
REMARK  4 active torsions:
REMARK  status: ('A' for Active; 'I' for Inactive)
REMARK    1  A    between atoms: C5_5  and  C8_8 
REMARK    2  A    between atoms: C7_7  and  N10_10 
REMARK    3  A    between atoms: C8_8  and  N10_10 
REMARK    4  A    between atoms: C9_9  and  N10_10 
ROOT
HETATM    1  C1  UNL     1     -38.637  14.768  -4.182  1.00 20.00     0.013 C 
HETATM    2  C2  UNL     1     -37.494  14.505  -4.436  1.00 20.00    -0.087 C 
HETATM    3  C7  UNL     1     -36.099  14.179  -4.745  1.00 20.00     0.364 C 
ENDROOT
BRANCH   3   4
HETATM    4  N10 UNL     1     -35.454  15.287  -5.448  1.00 20.00     0.099 N 
BRANCH   4   5
HETATM    5  C8  UNL     1     -35.092  16.347  -4.508  1.00 20.00     0.278 C 
BRANCH   5   6
HETATM    6  C5  UNL     1     -34.338  15.799  -3.345  1.00 20.00     0.014 A 
HETATM    7  C3  UNL     1     -33.345  16.659  -2.611  1.00 20.00     0.007 A 
HETATM    8  C4  UNL     1     -34.642  16.279  -1.952  1.00 20.00     0.007 A 
ENDBRANCH   5   6
ENDBRANCH   4   5
BRANCH   4   9
HETATM    9  C9  UNL     1     -34.271  14.817  -6.168  1.00 20.00     0.269 C 
HETATM   10  C6  UNL     1     -34.067  15.586  -7.429  1.00 20.00     0.037 C 
ENDBRANCH   4   9
ENDBRANCH   3   4
TORSDOF 4
ENDMDL
