MODEL 1
REMARK VINA RESULT:      -3.2      0.000      0.000
REMARK  3 active torsions:
REMARK  status: ('A' for Active; 'I' for Inactive)
REMARK    1  A    between atoms: C3_3  and  C4_4 
REMARK    2  A    between atoms: C3_3  and  N5_5 
REMARK    3  A    between atoms: C4_4  and  S7_7 
ROOT
HETATM    1  C1  UNL     1     -32.541   7.749   1.652  1.00 20.00     0.157 C 
HETATM    2  N5  UNL     1     -32.234   6.959   2.464  1.00 20.00    -0.275 NA
HETATM    3  S6  UNL     1     -32.930   8.817   0.535  1.00 20.00    -0.055 SA
ENDROOT
BRANCH   2   4
HETATM    4  C3  UNL     1     -33.229   6.745   3.520  1.00 20.00     0.160 C 
BRANCH   4   5
HETATM    5  C4  UNL     1     -33.877   5.386   3.310  1.00 20.00     0.095 C 
BRANCH   5   6
HETATM    6  S7  UNL     1     -34.948   4.962   4.712  1.00 20.00    -0.172 SA
HETATM    7  C2  UNL     1     -34.329   6.181   5.894  1.00 20.00     0.089 C 
ENDBRANCH   5   6
ENDBRANCH   4   5
ENDBRANCH   2   4
TORSDOF 3
ENDMDL
MODEL 2
REMARK VINA RESULT:      -3.2      1.899      2.119
REMARK  3 active torsions:
REMARK  status: ('A' for Active; 'I' for Inactive)
REMARK    1  A    between atoms: C3_3  and  C4_4 
REMARK    2  A    between atoms: C3_3  and  N5_5 
REMARK    3  A    between atoms: C4_4  and  S7_7 
ROOT
HETATM    1  C1  UNL     1     -33.034   5.731   2.521  1.00 20.00     0.157 C 
HETATM    2  N5  UNL     1     -33.475   4.646   2.465  1.00 20.00    -0.275 NA
HETATM    3  S6  UNL     1     -32.426   7.204   2.567  1.00 20.00    -0.055 SA
ENDROOT
BRANCH   2   4
HETATM    4  C3  UNL     1     -34.048   4.149   3.720  1.00 20.00     0.160 C 
BRANCH   4   5
HETATM    5  C4  UNL     1     -35.030   5.182   4.249  1.00 20.00     0.095 C 
BRANCH   5   6
HETATM    6  S7  UNL     1     -34.816   5.416   6.036  1.00 20.00    -0.172 SA
HETATM    7  C2  UNL     1     -33.829   6.929   5.987  1.00 20.00     0.089 C 
ENDBRANCH   5   6
ENDBRANCH   4   5
ENDBRANCH   2   4
TORSDOF 3
ENDMDL
MODEL 3
REMARK VINA RESULT:      -3.0     15.852     16.334
REMARK  3 active torsions:
REMARK  status: ('A' for Active; 'I' for Inactive)
REMARK    1  A    between atoms: C3_3  and  C4_4 
REMARK    2  A    between atoms: C3_3  and  N5_5 
REMARK    3  A    between atoms: C4_4  and  S7_7 
ROOT
HETATM    1  C1  UNL     1     -24.359  18.892   7.612  1.00 20.00     0.157 C 
HETATM    2  N5  UNL     1     -23.251  18.709   7.951  1.00 20.00    -0.275 NA
HETATM    3  S6  UNL     1     -25.854  19.142   7.120  1.00 20.00    -0.055 SA
ENDROOT
BRANCH   2   4
HETATM    4  C3  UNL     1     -23.072  18.531   9.395  1.00 20.00     0.160 C 
BRANCH   4   5
HETATM    5  C4  UNL     1     -23.131  17.045   9.714  1.00 20.00     0.095 C 
BRANCH   5   6
HETATM    6  S7  UNL     1     -23.761  16.773  11.394  1.00 20.00    -0.172 SA
HETATM    7  C2  UNL     1     -22.519  17.725  12.298  1.00 20.00     0.089 C 
ENDBRANCH   5   6
ENDBRANCH   4   5
ENDBRANCH   2   4
TORSDOF 3
ENDMDL
MODEL 4
REMARK VINA RESULT:      -2.9     10.937     11.837
REMARK  3 active torsions:
REMARK  status: ('A' for Active; 'I' for Inactive)
REMARK    1  A    between atoms: C3_3  and  C4_4 
REMARK    2  A    between atoms: C3_3  and  N5_5 
REMARK    3  A    between atoms: C4_4  and  S7_7 
ROOT
HETATM    1  C1  UNL     1     -35.309  14.763  -6.479  1.00 20.00     0.157 C 
HETATM    2  N5  UNL     1     -35.949  13.902  -6.004  1.00 20.00    -0.275 NA
HETATM    3  S6  UNL     1     -34.441  15.917  -7.153  1.00 20.00    -0.055 SA
ENDROOT
BRANCH   2   4
HETATM    4  C3  UNL     1     -36.198  14.044  -4.566  1.00 20.00     0.160 C 
BRANCH   4   5
HETATM    5  C4  UNL     1     -34.861  14.109  -3.844  1.00 20.00     0.095 C 
BRANCH   5   6
HETATM    6  S7  UNL     1     -34.761  15.596  -2.810  1.00 20.00    -0.172 SA
HETATM    7  C2  UNL     1     -33.140  16.185  -3.351  1.00 20.00     0.089 C 
ENDBRANCH   5   6
ENDBRANCH   4   5
ENDBRANCH   2   4
TORSDOF 3
ENDMDL
MODEL 5
REMARK VINA RESULT:      -2.9     11.497     12.092
REMARK  3 active torsions:
REMARK  status: ('A' for Active; 'I' for Inactive)
REMARK    1  A    between atoms: C3_3  and  C4_4 
REMARK    2  A    between atoms: C3_3  and  N5_5 
REMARK    3  A    between atoms: C4_4  and  S7_7 
ROOT
HETATM    1  C1  UNL     1     -38.052  14.958  -4.260  1.00 20.00     0.157 C 
HETATM    2  N5  UNL     1     -37.734  13.842  -4.436  1.00 20.00    -0.275 NA
HETATM    3  S6  UNL     1     -38.513  16.465  -4.021  1.00 20.00    -0.055 SA
ENDROOT
BRANCH   2   4
HETATM    4  C3  UNL     1     -36.292  13.631  -4.590  1.00 20.00     0.160 C 
BRANCH   4   5
HETATM    5  C4  UNL     1     -35.811  14.413  -5.802  1.00 20.00     0.095 C 
BRANCH   5   6
HETATM    6  S7  UNL     1     -34.199  15.180  -5.473  1.00 20.00    -0.172 SA
HETATM    7  C2  UNL     1     -34.233  15.100  -3.667  1.00 20.00     0.089 C 
ENDBRANCH   5   6
ENDBRANCH   4   5
ENDBRANCH   2   4
TORSDOF 3
ENDMDL
MODEL 6
REMARK VINA RESULT:      -2.7     14.744     15.340
REMARK  3 active torsions:
REMARK  status: ('A' for Active; 'I' for Inactive)
REMARK    1  A    between atoms: C3_3  and  C4_4 
REMARK    2  A    between atoms: C3_3  and  N5_5 
REMARK    3  A    between atoms: C4_4  and  S7_7 
ROOT
HETATM    1  C1  UNL     1     -25.764  19.076   5.109  1.00 20.00     0.157 C 
HETATM    2  N5  UNL     1     -24.885  19.107   5.886  1.00 20.00    -0.275 NA
HETATM    3  S6  UNL     1     -26.936  19.036   4.030  1.00 20.00    -0.055 SA
ENDROOT
BRANCH   2   4
HETATM    4  C3  UNL     1     -25.304  19.051   7.290  1.00 20.00     0.160 C 
BRANCH   4   5
HETATM    5  C4  UNL     1     -24.066  18.910   8.162  1.00 20.00     0.095 C 
BRANCH   5   6
HETATM    6  S7  UNL     1     -24.510  18.298   9.812  1.00 20.00    -0.172 SA
HETATM    7  C2  UNL     1     -23.362  16.904   9.892  1.00 20.00     0.089 C 
ENDBRANCH   5   6
ENDBRANCH   4   5
ENDBRANCH   2   4
TORSDOF 3
ENDMDL
MODEL 7
REMARK VINA RESULT:      -2.7     11.145     11.654
REMARK  3 active torsions:
REMARK  status: ('A' for Active; 'I' for Inactive)
REMARK    1  A    between atoms: C3_3  and  C4_4 
REMARK    2  A    between atoms: C3_3  and  N5_5 
REMARK    3  A    between atoms: C4_4  and  S7_7 
ROOT
HETATM    1  C1  UNL     1     -33.962  16.059  -2.774  1.00 20.00     0.157 C 
HETATM    2  N5  UNL     1     -33.179  15.690  -3.566  1.00 20.00    -0.275 NA
HETATM    3  S6  UNL     1     -35.005  16.582  -1.688  1.00 20.00    -0.055 SA
ENDROOT
BRANCH   2   4
HETATM    4  C3  UNL     1     -33.598  14.521  -4.346  1.00 20.00     0.160 C 
BRANCH   4   5
HETATM    5  C4  UNL     1     -34.005  14.983  -5.736  1.00 20.00     0.095 C 
BRANCH   5   6
HETATM    6  S7  UNL     1     -35.788  14.765  -5.989  1.00 20.00    -0.172 SA
HETATM    7  C2  UNL     1     -36.121  13.673  -4.588  1.00 20.00     0.089 C 
ENDBRANCH   5   6
ENDBRANCH   4   5
ENDBRANCH   2   4
TORSDOF 3
ENDMDL
MODEL 8
REMARK VINA RESULT:      -2.6     11.096     11.905
REMARK  3 active torsions:
REMARK  status: ('A' for Active; 'I' for Inactive)
REMARK    1  A    between atoms: C3_3  and  C4_4 
REMARK    2  A    between atoms: C3_3  and  N5_5 
REMARK    3  A    between atoms: C4_4  and  S7_7 
ROOT
HETATM    1  C1  UNL     1     -34.416  15.254  -6.275  1.00 20.00     0.157 C 
HETATM    2  N5  UNL     1     -33.712  14.484  -5.737  1.00 20.00    -0.275 NA
HETATM    3  S6  UNL     1     -35.369  16.282  -7.033  1.00 20.00    -0.055 SA
ENDROOT
BRANCH   2   4
HETATM    4  C3  UNL     1     -33.417  14.797  -4.335  1.00 20.00     0.160 C 
BRANCH   4   5
HETATM    5  C4  UNL     1     -34.718  14.779  -3.548  1.00 20.00     0.095 C 
BRANCH   5   6
HETATM    6  S7  UNL     1     -34.745  16.115  -2.321  1.00 20.00    -0.172 SA
HETATM    7  C2  UNL     1     -33.116  16.821  -2.665  1.00 20.00     0.089 C 
ENDBRANCH   5   6
ENDBRANCH   4   5
ENDBRANCH   2   4
TORSDOF 3
ENDMDL
MODEL 9
REMARK VINA RESULT:      -2.6     15.886     16.592
REMARK  3 active torsions:
REMARK  status: ('A' for Active; 'I' for Inactive)
REMARK    1  A    between atoms: C3_3  and  C4_4 
REMARK    2  A    between atoms: C3_3  and  N5_5 
REMARK    3  A    between atoms: C4_4  and  S7_7 
ROOT
HETATM    1  C1  UNL     1     -25.413  16.862  11.905  1.00 20.00     0.157 C 
HETATM    2  N5  UNL     1     -24.525  16.167  11.580  1.00 20.00    -0.275 NA
HETATM    3  S6  UNL     1     -26.639  17.786  12.332  1.00 20.00    -0.055 SA
ENDROOT
BRANCH   2   4
HETATM    4  C3  UNL     1     -23.195  16.649  11.965  1.00 20.00     0.160 C 
BRANCH   4   5
HETATM    5  C4  UNL     1     -22.852  17.863  11.117  1.00 20.00     0.095 C 
BRANCH   5   6
HETATM    6  S7  UNL     1     -22.542  17.377   9.396  1.00 20.00    -0.172 SA
HETATM    7  C2  UNL     1     -23.886  18.301   8.616  1.00 20.00     0.089 C 
ENDBRANCH   5   6
ENDBRANCH   4   5
ENDBRANCH   2   4
TORSDOF 3
ENDMDL
