MODEL 1
REMARK VINA RESULT:      -4.2      0.000      0.000
REMARK  4 active torsions:
REMARK  status: ('A' for Active; 'I' for Inactive)
REMARK    1  A    between atoms: C1_1  and  C2_2 
REMARK    2  A    between atoms: C1_1  and  N9_9 
REMARK    3  A    between atoms: C7_7  and  C8_8 
REMARK    4  A    between atoms: C8_8  and  N9_9 
ROOT
HETATM    1  C4  UNL     1     -24.295  16.289  10.942  1.00 20.00     0.038 C 
HETATM    2  C5  UNL     1     -22.641  17.693  12.183  1.00 20.00     0.038 C 
HETATM    3  C8  UNL     1     -23.846  17.730  11.232  1.00 20.00     0.024 C 
ENDROOT
BRANCH   3   4
HETATM    4  C7  UNL     1     -25.033  18.506  11.850  1.00 20.00     0.026 C 
HETATM    5  C3  UNL     1     -26.190  17.639  12.331  1.00 20.00     0.007 C 
ENDBRANCH   3   4
BRANCH   3   6
HETATM    6  N9  UNL     1     -23.447  18.344   9.977  1.00 20.00    -0.383 N 
HETATM    7  C6  UNL     1     -24.507  18.978   9.200  1.00 20.00     0.150 C 
BRANCH   6   8
HETATM    8  C1  UNL     1     -22.205  18.138   9.442  1.00 20.00     0.127 C 
BRANCH   8   9
HETATM    9  C2  UNL     1     -21.887  17.474   8.317  1.00 20.00     0.275 C 
HETATM   10  O10 UNL     1     -22.043  17.763   7.101  1.00 20.00    -0.301 OA
ENDBRANCH   8   9
ENDBRANCH   6   8
ENDBRANCH   3   6
TORSDOF 4
ENDMDL
MODEL 2
REMARK VINA RESULT:      -4.2      1.099      2.353
REMARK  4 active torsions:
REMARK  status: ('A' for Active; 'I' for Inactive)
REMARK    1  A    between atoms: C1_1  and  C2_2 
REMARK    2  A    between atoms: C1_1  and  N9_9 
REMARK    3  A    between atoms: C7_7  and  C8_8 
REMARK    4  A    between atoms: C8_8  and  N9_9 
ROOT
HETATM    1  C4  UNL     1     -22.846  17.995  11.943  1.00 20.00     0.038 C 
HETATM    2  C5  UNL     1     -25.150  18.608  11.192  1.00 20.00     0.038 C 
HETATM    3  C8  UNL     1     -23.870  17.853  10.806  1.00 20.00     0.024 C 
ENDROOT
BRANCH   3   4
HETATM    4  C7  UNL     1     -24.148  16.350  10.570  1.00 20.00     0.026 C 
HETATM    5  C3  UNL     1     -24.677  15.594  11.783  1.00 20.00     0.007 C 
ENDBRANCH   3   4
BRANCH   3   6
HETATM    6  N9  UNL     1     -23.305  18.451   9.607  1.00 20.00    -0.383 N 
HETATM    7  C6  UNL     1     -21.857  18.350   9.454  1.00 20.00     0.150 C 
BRANCH   6   8
HETATM    8  C1  UNL     1     -24.048  19.259   8.792  1.00 20.00     0.127 C 
BRANCH   8   9
HETATM    9  C2  UNL     1     -24.452  19.018   7.532  1.00 20.00     0.275 C 
HETATM   10  O10 UNL     1     -23.813  18.925   6.451  1.00 20.00    -0.301 OA
ENDBRANCH   8   9
ENDBRANCH   6   8
ENDBRANCH   3   6
TORSDOF 4
ENDMDL
MODEL 3
REMARK VINA RESULT:      -3.9     16.972     18.146
REMARK  4 active torsions:
REMARK  status: ('A' for Active; 'I' for Inactive)
REMARK    1  A    between atoms: C1_1  and  C2_2 
REMARK    2  A    between atoms: C1_1  and  N9_9 
REMARK    3  A    between atoms: C7_7  and  C8_8 
REMARK    4  A    between atoms: C8_8  and  N9_9 
ROOT
HETATM    1  C4  UNL     1     -32.910  16.754  -2.929  1.00 20.00     0.038 C 
HETATM    2  C5  UNL     1     -35.026  17.546  -3.997  1.00 20.00     0.038 C 
HETATM    3  C8  UNL     1     -34.358  16.369  -3.271  1.00 20.00     0.024 C 
ENDROOT
BRANCH   3   4
HETATM    4  C7  UNL     1     -35.102  16.015  -1.961  1.00 20.00     0.026 C 
HETATM    5  C3  UNL     1     -35.040  17.083  -0.876  1.00 20.00     0.007 C 
ENDBRANCH   3   4
BRANCH   3   6
HETATM    6  N9  UNL     1     -34.326  15.216  -4.155  1.00 20.00    -0.383 N 
HETATM    7  C6  UNL     1     -33.015  14.628  -4.406  1.00 20.00     0.150 C 
BRANCH   6   8
HETATM    8  C1  UNL     1     -35.419  14.848  -4.891  1.00 20.00     0.127 C 
BRANCH   8   9
HETATM    9  C2  UNL     1     -36.176  13.746  -4.755  1.00 20.00     0.275 C 
HETATM   10  O10 UNL     1     -35.879  12.553  -4.479  1.00 20.00    -0.301 OA
ENDBRANCH   8   9
ENDBRANCH   6   8
ENDBRANCH   3   6
TORSDOF 4
ENDMDL
MODEL 4
REMARK VINA RESULT:      -3.9     16.605     17.836
REMARK  4 active torsions:
REMARK  status: ('A' for Active; 'I' for Inactive)
REMARK    1  A    between atoms: C1_1  and  C2_2 
REMARK    2  A    between atoms: C1_1  and  N9_9 
REMARK    3  A    between atoms: C7_7  and  C8_8 
REMARK    4  A    between atoms: C8_8  and  N9_9 
ROOT
HETATM    1  C4  UNL     1     -35.029  17.709  -3.666  1.00 20.00     0.038 C 
HETATM    2  C5  UNL     1     -35.122  16.512  -1.474  1.00 20.00     0.038 C 
HETATM    3  C8  UNL     1     -34.385  16.601  -2.818  1.00 20.00     0.024 C 
ENDROOT
BRANCH   3   4
HETATM    4  C7  UNL     1     -32.886  16.932  -2.622  1.00 20.00     0.026 C 
HETATM    5  C3  UNL     1     -32.585  17.916  -1.498  1.00 20.00     0.007 C 
ENDBRANCH   3   4
BRANCH   3   6
HETATM    6  N9  UNL     1     -34.529  15.341  -3.529  1.00 20.00    -0.383 N 
HETATM    7  C6  UNL     1     -33.348  14.856  -4.234  1.00 20.00     0.150 C 
BRANCH   6   8
HETATM    8  C1  UNL     1     -35.754  14.765  -3.722  1.00 20.00     0.127 C 
BRANCH   8   9
HETATM    9  C2  UNL     1     -36.074  13.759  -4.555  1.00 20.00     0.275 C 
HETATM   10  O10 UNL     1     -35.849  12.521  -4.499  1.00 20.00    -0.301 OA
ENDBRANCH   8   9
ENDBRANCH   6   8
ENDBRANCH   3   6
TORSDOF 4
ENDMDL
MODEL 5
REMARK VINA RESULT:      -3.8     17.269     18.420
REMARK  4 active torsions:
REMARK  status: ('A' for Active; 'I' for Inactive)
REMARK    1  A    between atoms: C1_1  and  C2_2 
REMARK    2  A    between atoms: C1_1  and  N9_9 
REMARK    3  A    between atoms: C7_7  and  C8_8 
REMARK    4  A    between atoms: C8_8  and  N9_9 
ROOT
HETATM    1  C4  UNL     1     -33.166  15.461  -3.762  1.00 20.00     0.038 C 
HETATM    2  C5  UNL     1     -34.063  17.790  -3.636  1.00 20.00     0.038 C 
HETATM    3  C8  UNL     1     -34.413  16.305  -3.459  1.00 20.00     0.024 C 
ENDROOT
BRANCH   3   4
HETATM    4  C7  UNL     1     -34.882  16.002  -2.016  1.00 20.00     0.026 C 
HETATM    5  C3  UNL     1     -34.862  17.195  -1.067  1.00 20.00     0.007 C 
ENDBRANCH   3   4
BRANCH   3   6
HETATM    6  N9  UNL     1     -35.452  15.941  -4.408  1.00 20.00    -0.383 N 
HETATM    7  C6  UNL     1     -35.694  16.883  -5.496  1.00 20.00     0.150 C 
BRANCH   6   8
HETATM    8  C1  UNL     1     -36.308  14.902  -4.169  1.00 20.00     0.127 C 
BRANCH   8   9
HETATM    9  C2  UNL     1     -36.310  13.683  -4.736  1.00 20.00     0.275 C 
HETATM   10  O10 UNL     1     -35.751  12.604  -4.406  1.00 20.00    -0.301 OA
ENDBRANCH   8   9
ENDBRANCH   6   8
ENDBRANCH   3   6
TORSDOF 4
ENDMDL
MODEL 6
REMARK VINA RESULT:      -3.7     17.331     18.542
REMARK  4 active torsions:
REMARK  status: ('A' for Active; 'I' for Inactive)
REMARK    1  A    between atoms: C1_1  and  C2_2 
REMARK    2  A    between atoms: C1_1  and  N9_9 
REMARK    3  A    between atoms: C7_7  and  C8_8 
REMARK    4  A    between atoms: C8_8  and  N9_9 
ROOT
HETATM    1  C4  UNL     1     -34.749  15.976  -2.194  1.00 20.00     0.038 C 
HETATM    2  C5  UNL     1     -33.155  15.226  -3.968  1.00 20.00     0.038 C 
HETATM    3  C8  UNL     1     -34.296  16.202  -3.645  1.00 20.00     0.024 C 
ENDROOT
BRANCH   3   4
HETATM    4  C7  UNL     1     -33.844  17.673  -3.803  1.00 20.00     0.026 C 
HETATM    5  C3  UNL     1     -32.772  18.127  -2.820  1.00 20.00     0.007 C 
ENDBRANCH   3   4
BRANCH   3   6
HETATM    6  N9  UNL     1     -35.423  15.929  -4.522  1.00 20.00    -0.383 N 
HETATM    7  C6  UNL     1     -35.697  16.924  -5.553  1.00 20.00     0.150 C 
BRANCH   6   8
HETATM    8  C1  UNL     1     -36.312  14.925  -4.253  1.00 20.00     0.127 C 
BRANCH   8   9
HETATM    9  C2  UNL     1     -36.363  13.696  -4.795  1.00 20.00     0.275 C 
HETATM   10  O10 UNL     1     -35.818  12.610  -4.463  1.00 20.00    -0.301 OA
ENDBRANCH   8   9
ENDBRANCH   6   8
ENDBRANCH   3   6
TORSDOF 4
ENDMDL
MODEL 7
REMARK VINA RESULT:      -3.6     23.540     24.395
REMARK  4 active torsions:
REMARK  status: ('A' for Active; 'I' for Inactive)
REMARK    1  A    between atoms: C1_1  and  C2_2 
REMARK    2  A    between atoms: C1_1  and  N9_9 
REMARK    3  A    between atoms: C7_7  and  C8_8 
REMARK    4  A    between atoms: C8_8  and  N9_9 
ROOT
HETATM    1  C4  UNL     1     -40.992   5.497  -0.833  1.00 20.00     0.038 C 
HETATM    2  C5  UNL     1     -42.603   5.206   1.055  1.00 20.00     0.038 C 
HETATM    3  C8  UNL     1     -42.425   5.781  -0.357  1.00 20.00     0.024 C 
ENDROOT
BRANCH   3   4
HETATM    4  C7  UNL     1     -43.417   5.143  -1.358  1.00 20.00     0.026 C 
HETATM    5  C3  UNL     1     -42.847   4.003  -2.194  1.00 20.00     0.007 C 
ENDBRANCH   3   4
BRANCH   3   6
HETATM    6  N9  UNL     1     -42.615   7.221  -0.316  1.00 20.00    -0.383 N 
HETATM    7  C6  UNL     1     -43.417   7.800  -1.388  1.00 20.00     0.150 C 
BRANCH   6   8
HETATM    8  C1  UNL     1     -41.896   8.014   0.536  1.00 20.00     0.127 C 
BRANCH   8   9
HETATM    9  C2  UNL     1     -41.228   9.144   0.250  1.00 20.00     0.275 C 
HETATM   10  O10 UNL     1     -41.562  10.357   0.320  1.00 20.00    -0.301 OA
ENDBRANCH   8   9
ENDBRANCH   6   8
ENDBRANCH   3   6
TORSDOF 4
ENDMDL
MODEL 8
REMARK VINA RESULT:      -3.6     17.447     18.673
REMARK  4 active torsions:
REMARK  status: ('A' for Active; 'I' for Inactive)
REMARK    1  A    between atoms: C1_1  and  C2_2 
REMARK    2  A    between atoms: C1_1  and  N9_9 
REMARK    3  A    between atoms: C7_7  and  C8_8 
REMARK    4  A    between atoms: C8_8  and  N9_9 
ROOT
HETATM    1  C4  UNL     1     -35.115  18.168  -3.260  1.00 20.00     0.038 C 
HETATM    2  C5  UNL     1     -35.117  16.081  -1.884  1.00 20.00     0.038 C 
HETATM    3  C8  UNL     1     -34.806  16.663  -3.271  1.00 20.00     0.024 C 
ENDROOT
BRANCH   3   4
HETATM    4  C7  UNL     1     -33.320  16.461  -3.650  1.00 20.00     0.026 C 
HETATM    5  C3  UNL     1     -32.950  15.045  -4.076  1.00 20.00     0.007 C 
ENDBRANCH   3   4
BRANCH   3   6
HETATM    6  N9  UNL     1     -35.664  16.029  -4.259  1.00 20.00    -0.383 N 
HETATM    7  C6  UNL     1     -35.921  16.791  -5.477  1.00 20.00     0.150 C 
BRANCH   6   8
HETATM    8  C1  UNL     1     -36.374  14.897  -3.970  1.00 20.00     0.127 C 
BRANCH   8   9
HETATM    9  C2  UNL     1     -36.404  13.740  -4.655  1.00 20.00     0.275 C 
HETATM   10  O10 UNL     1     -35.845  12.631  -4.451  1.00 20.00    -0.301 OA
ENDBRANCH   8   9
ENDBRANCH   6   8
ENDBRANCH   3   6
TORSDOF 4
ENDMDL
MODEL 9
REMARK VINA RESULT:      -3.6     17.567     18.660
REMARK  4 active torsions:
REMARK  status: ('A' for Active; 'I' for Inactive)
REMARK    1  A    between atoms: C1_1  and  C2_2 
REMARK    2  A    between atoms: C1_1  and  N9_9 
REMARK    3  A    between atoms: C7_7  and  C8_8 
REMARK    4  A    between atoms: C8_8  and  N9_9 
ROOT
HETATM    1  C4  UNL     1     -32.863  14.723  -4.221  1.00 20.00     0.038 C 
HETATM    2  C5  UNL     1     -33.019  17.055  -3.333  1.00 20.00     0.038 C 
HETATM    3  C8  UNL     1     -33.823  15.885  -3.920  1.00 20.00     0.024 C 
ENDROOT
BRANCH   3   4
HETATM    4  C7  UNL     1     -34.909  15.393  -2.935  1.00 20.00     0.026 C 
HETATM    5  C3  UNL     1     -35.089  16.255  -1.691  1.00 20.00     0.007 C 
ENDBRANCH   3   4
BRANCH   3   6
HETATM    6  N9  UNL     1     -34.436  16.305  -5.170  1.00 20.00    -0.383 N 
HETATM    7  C6  UNL     1     -35.119  17.594  -5.155  1.00 20.00     0.150 C 
BRANCH   6   8
HETATM    8  C1  UNL     1     -34.569  15.446  -6.226  1.00 20.00     0.127 C 
BRANCH   8   9
HETATM    9  C2  UNL     1     -35.619  14.662  -6.529  1.00 20.00     0.275 C 
HETATM   10  O10 UNL     1     -36.663  14.374  -5.886  1.00 20.00    -0.301 OA
ENDBRANCH   8   9
ENDBRANCH   6   8
ENDBRANCH   3   6
TORSDOF 4
ENDMDL
