MODEL 1
REMARK VINA RESULT:      -4.2      0.000      0.000
REMARK  4 active torsions:
REMARK  status: ('A' for Active; 'I' for Inactive)
REMARK    1  A    between atoms: C4_4  and  C6_6 
REMARK    2  A    between atoms: C6_6  and  C8_8 
REMARK    3  A    between atoms: C7_7  and  C8_8 
REMARK    4  A    between atoms: C8_8  and  N9_9 
ROOT
HETATM    1  C1  UNL     1     -38.141  14.529  -4.346  1.00 20.00     0.158 C 
HETATM    2  N9  UNL     1     -37.281  13.736  -4.417  1.00 20.00    -0.270 NA
HETATM    3  S10 UNL     1     -39.335  15.578  -4.243  1.00 20.00    -0.055 SA
ENDROOT
BRANCH   2   4
HETATM    4  C8  UNL     1     -35.947  14.301  -4.669  1.00 20.00     0.109 C 
BRANCH   4   5
HETATM    5  C6  UNL     1     -35.778  15.560  -3.811  1.00 20.00     0.032 C 
BRANCH   5   6
HETATM    6  C4  UNL     1     -34.621  15.445  -2.826  1.00 20.00    -0.013 A 
HETATM    7  C2  UNL     1     -33.316  16.139  -3.105  1.00 20.00     0.005 A 
HETATM    8  C3  UNL     1     -34.209  16.633  -2.002  1.00 20.00     0.005 A 
ENDBRANCH   5   6
ENDBRANCH   4   5
BRANCH   4   9
HETATM    9  C7  UNL     1     -35.830  14.636  -6.161  1.00 20.00     0.023 C 
HETATM   10  C5  UNL     1     -34.434  15.019  -6.558  1.00 20.00     0.007 C 
ENDBRANCH   4   9
ENDBRANCH   2   4
TORSDOF 4
ENDMDL
MODEL 2
REMARK VINA RESULT:      -4.0     16.308     18.313
REMARK  4 active torsions:
REMARK  status: ('A' for Active; 'I' for Inactive)
REMARK    1  A    between atoms: C4_4  and  C6_6 
REMARK    2  A    between atoms: C6_6  and  C8_8 
REMARK    3  A    between atoms: C7_7  and  C8_8 
REMARK    4  A    between atoms: C8_8  and  N9_9 
ROOT
HETATM    1  C1  UNL     1     -25.073  19.025   7.179  1.00 20.00     0.158 C 
HETATM    2  N9  UNL     1     -23.981  19.138   7.590  1.00 20.00    -0.270 NA
HETATM    3  S10 UNL     1     -26.550  18.896   6.597  1.00 20.00    -0.055 SA
ENDROOT
BRANCH   2   4
HETATM    4  C8  UNL     1     -23.657  18.258   8.722  1.00 20.00     0.109 C 
BRANCH   4   5
HETATM    5  C6  UNL     1     -24.679  18.501   9.839  1.00 20.00     0.032 C 
BRANCH   5   6
HETATM    6  C4  UNL     1     -24.327  17.759  11.123  1.00 20.00    -0.013 A 
HETATM    7  C2  UNL     1     -25.414  17.161  11.974  1.00 20.00     0.005 A 
HETATM    8  C3  UNL     1     -24.486  16.266  11.201  1.00 20.00     0.005 A 
ENDBRANCH   5   6
ENDBRANCH   4   5
BRANCH   4   9
HETATM    9  C7  UNL     1     -22.236  18.580   9.201  1.00 20.00     0.023 C 
HETATM   10  C5  UNL     1     -21.293  17.427   9.020  1.00 20.00     0.007 C 
ENDBRANCH   4   9
ENDBRANCH   2   4
TORSDOF 4
ENDMDL
MODEL 3
REMARK VINA RESULT:      -3.9     10.890     11.582
REMARK  4 active torsions:
REMARK  status: ('A' for Active; 'I' for Inactive)
REMARK    1  A    between atoms: C4_4  and  C6_6 
REMARK    2  A    between atoms: C6_6  and  C8_8 
REMARK    3  A    between atoms: C7_7  and  C8_8 
REMARK    4  A    between atoms: C8_8  and  N9_9 
ROOT
HETATM    1  C1  UNL     1     -34.100   6.351   4.886  1.00 20.00     0.158 C 
HETATM    2  N9  UNL     1     -33.608   7.078   4.110  1.00 20.00    -0.270 NA
HETATM    3  S10 UNL     1     -34.785   5.392   5.957  1.00 20.00    -0.055 SA
ENDROOT
BRANCH   2   4
HETATM    4  C8  UNL     1     -32.747   6.421   3.115  1.00 20.00     0.109 C 
BRANCH   4   5
HETATM    5  C6  UNL     1     -32.149   7.495   2.199  1.00 20.00     0.032 C 
BRANCH   5   6
HETATM    6  C4  UNL     1     -33.198   8.161   1.316  1.00 20.00    -0.013 A 
HETATM    7  C2  UNL     1     -32.947   9.527   0.739  1.00 20.00     0.005 A 
HETATM    8  C3  UNL     1     -32.954   8.321  -0.158  1.00 20.00     0.005 A 
ENDBRANCH   5   6
ENDBRANCH   4   5
BRANCH   4   9
HETATM    9  C7  UNL     1     -33.597   5.429   2.311  1.00 20.00     0.023 C 
HETATM   10  C5  UNL     1     -32.995   4.054   2.274  1.00 20.00     0.007 C 
ENDBRANCH   4   9
ENDBRANCH   2   4
TORSDOF 4
ENDMDL
MODEL 4
REMARK VINA RESULT:      -3.8      2.264      3.043
REMARK  4 active torsions:
REMARK  status: ('A' for Active; 'I' for Inactive)
REMARK    1  A    between atoms: C4_4  and  C6_6 
REMARK    2  A    between atoms: C6_6  and  C8_8 
REMARK    3  A    between atoms: C7_7  and  C8_8 
REMARK    4  A    between atoms: C8_8  and  N9_9 
ROOT
HETATM    1  C1  UNL     1     -35.146  14.784  -6.867  1.00 20.00     0.158 C 
HETATM    2  N9  UNL     1     -35.867  14.176  -6.172  1.00 20.00    -0.270 NA
HETATM    3  S10 UNL     1     -34.170  15.585  -7.837  1.00 20.00    -0.055 SA
ENDROOT
BRANCH   2   4
HETATM    4  C8  UNL     1     -36.083  14.769  -4.844  1.00 20.00     0.109 C 
BRANCH   4   5
HETATM    5  C6  UNL     1     -34.941  14.332  -3.920  1.00 20.00     0.032 C 
BRANCH   5   6
HETATM    6  C4  UNL     1     -34.517  15.433  -2.955  1.00 20.00    -0.013 A 
HETATM    7  C2  UNL     1     -33.207  16.145  -3.147  1.00 20.00     0.005 A 
HETATM    8  C3  UNL     1     -34.500  16.867  -3.404  1.00 20.00     0.005 A 
ENDBRANCH   5   6
ENDBRANCH   4   5
BRANCH   4   9
HETATM    9  C7  UNL     1     -37.436  14.287  -4.306  1.00 20.00     0.023 C 
HETATM   10  C5  UNL     1     -38.467  15.378  -4.279  1.00 20.00     0.007 C 
ENDBRANCH   4   9
ENDBRANCH   2   4
TORSDOF 4
ENDMDL
MODEL 5
REMARK VINA RESULT:      -3.8      0.874      2.996
REMARK  4 active torsions:
REMARK  status: ('A' for Active; 'I' for Inactive)
REMARK    1  A    between atoms: C4_4  and  C6_6 
REMARK    2  A    between atoms: C6_6  and  C8_8 
REMARK    3  A    between atoms: C7_7  and  C8_8 
REMARK    4  A    between atoms: C8_8  and  N9_9 
ROOT
HETATM    1  C1  UNL     1     -38.428  14.580  -4.274  1.00 20.00     0.158 C 
HETATM    2  N9  UNL     1     -37.465  13.934  -4.445  1.00 20.00    -0.270 NA
HETATM    3  S10 UNL     1     -39.756  15.427  -4.038  1.00 20.00    -0.055 SA
ENDROOT
BRANCH   2   4
HETATM    4  C8  UNL     1     -36.251  14.710  -4.742  1.00 20.00     0.109 C 
BRANCH   4   5
HETATM    5  C6  UNL     1     -35.770  14.346  -6.151  1.00 20.00     0.032 C 
BRANCH   5   6
HETATM    6  C4  UNL     1     -34.466  15.042  -6.520  1.00 20.00    -0.013 A 
HETATM    7  C2  UNL     1     -34.249  15.553  -7.918  1.00 20.00     0.005 A 
HETATM    8  C3  UNL     1     -34.447  16.521  -6.786  1.00 20.00     0.005 A 
ENDBRANCH   5   6
ENDBRANCH   4   5
BRANCH   4   9
HETATM    9  C7  UNL     1     -35.184  14.369  -3.694  1.00 20.00     0.023 C 
HETATM   10  C5  UNL     1     -34.842  15.539  -2.818  1.00 20.00     0.007 C 
ENDBRANCH   4   9
ENDBRANCH   2   4
TORSDOF 4
ENDMDL
MODEL 6
REMARK VINA RESULT:      -3.7     11.493     12.210
REMARK  4 active torsions:
REMARK  status: ('A' for Active; 'I' for Inactive)
REMARK    1  A    between atoms: C4_4  and  C6_6 
REMARK    2  A    between atoms: C6_6  and  C8_8 
REMARK    3  A    between atoms: C7_7  and  C8_8 
REMARK    4  A    between atoms: C8_8  and  N9_9 
ROOT
HETATM    1  C1  UNL     1     -32.602   8.080   1.372  1.00 20.00     0.158 C 
HETATM    2  N9  UNL     1     -32.237   7.508   2.328  1.00 20.00    -0.270 NA
HETATM    3  S10 UNL     1     -33.065   8.875   0.072  1.00 20.00    -0.055 SA
ENDROOT
BRANCH   2   4
HETATM    4  C8  UNL     1     -33.194   6.524   2.856  1.00 20.00     0.109 C 
BRANCH   4   5
HETATM    5  C6  UNL     1     -33.359   6.760   4.362  1.00 20.00     0.032 C 
BRANCH   5   6
HETATM    6  C4  UNL     1     -34.673   6.207   4.899  1.00 20.00    -0.013 A 
HETATM    7  C2  UNL     1     -34.778   4.762   5.305  1.00 20.00     0.005 A 
HETATM    8  C3  UNL     1     -34.802   5.841   6.351  1.00 20.00     0.005 A 
ENDBRANCH   5   6
ENDBRANCH   4   5
BRANCH   4   9
HETATM    9  C7  UNL     1     -32.653   5.117   2.578  1.00 20.00     0.023 C 
HETATM   10  C5  UNL     1     -33.643   4.251   1.855  1.00 20.00     0.007 C 
ENDBRANCH   4   9
ENDBRANCH   2   4
TORSDOF 4
ENDMDL
MODEL 7
REMARK VINA RESULT:      -3.7      4.580      6.296
REMARK  4 active torsions:
REMARK  status: ('A' for Active; 'I' for Inactive)
REMARK    1  A    between atoms: C4_4  and  C6_6 
REMARK    2  A    between atoms: C6_6  and  C8_8 
REMARK    3  A    between atoms: C7_7  and  C8_8 
REMARK    4  A    between atoms: C8_8  and  N9_9 
ROOT
HETATM    1  C1  UNL     1     -31.294  18.601  -0.386  1.00 20.00     0.158 C 
HETATM    2  N9  UNL     1     -31.725  18.492  -1.470  1.00 20.00    -0.270 NA
HETATM    3  S10 UNL     1     -30.682  18.772   1.075  1.00 20.00    -0.055 SA
ENDROOT
BRANCH   2   4
HETATM    4  C8  UNL     1     -32.884  17.594  -1.581  1.00 20.00     0.109 C 
BRANCH   4   5
HETATM    5  C6  UNL     1     -33.125  17.287  -3.063  1.00 20.00     0.032 C 
BRANCH   5   6
HETATM    6  C4  UNL     1     -33.248  15.793  -3.337  1.00 20.00    -0.013 A 
HETATM    7  C2  UNL     1     -34.597  15.129  -3.329  1.00 20.00     0.005 A 
HETATM    8  C3  UNL     1     -33.855  15.307  -4.624  1.00 20.00     0.005 A 
ENDBRANCH   5   6
ENDBRANCH   4   5
BRANCH   4   9
HETATM    9  C7  UNL     1     -34.103  18.289  -0.961  1.00 20.00     0.023 C 
HETATM   10  C5  UNL     1     -35.071  17.318  -0.351  1.00 20.00     0.007 C 
ENDBRANCH   4   9
ENDBRANCH   2   4
TORSDOF 4
ENDMDL
MODEL 8
REMARK VINA RESULT:      -3.5      2.323      3.960
REMARK  4 active torsions:
REMARK  status: ('A' for Active; 'I' for Inactive)
REMARK    1  A    between atoms: C4_4  and  C6_6 
REMARK    2  A    between atoms: C6_6  and  C8_8 
REMARK    3  A    between atoms: C7_7  and  C8_8 
REMARK    4  A    between atoms: C8_8  and  N9_9 
ROOT
HETATM    1  C1  UNL     1     -34.061  14.876  -5.991  1.00 20.00     0.158 C 
HETATM    2  N9  UNL     1     -33.625  14.376  -5.025  1.00 20.00    -0.270 NA
HETATM    3  S10 UNL     1     -34.621  15.551  -7.320  1.00 20.00    -0.055 SA
ENDROOT
BRANCH   2   4
HETATM    4  C8  UNL     1     -34.581  14.249  -3.915  1.00 20.00     0.109 C 
BRANCH   4   5
HETATM    5  C6  UNL     1     -35.966  13.937  -4.494  1.00 20.00     0.032 C 
BRANCH   5   6
HETATM    6  C4  UNL     1     -37.027  14.931  -4.039  1.00 20.00    -0.013 A 
HETATM    7  C2  UNL     1     -37.795  15.736  -5.052  1.00 20.00     0.005 A 
HETATM    8  C3  UNL     1     -38.483  14.646  -4.280  1.00 20.00     0.005 A 
ENDBRANCH   5   6
ENDBRANCH   4   5
BRANCH   4   9
HETATM    9  C7  UNL     1     -34.601  15.568  -3.132  1.00 20.00     0.023 C 
HETATM   10  C5  UNL     1     -33.236  16.179  -2.998  1.00 20.00     0.007 C 
ENDBRANCH   4   9
ENDBRANCH   2   4
TORSDOF 4
ENDMDL
MODEL 9
REMARK VINA RESULT:      -3.5     10.374     12.004
REMARK  4 active torsions:
REMARK  status: ('A' for Active; 'I' for Inactive)
REMARK    1  A    between atoms: C4_4  and  C6_6 
REMARK    2  A    between atoms: C6_6  and  C8_8 
REMARK    3  A    between atoms: C7_7  and  C8_8 
REMARK    4  A    between atoms: C8_8  and  N9_9 
ROOT
HETATM    1  C1  UNL     1     -41.909   3.886  -2.347  1.00 20.00     0.158 C 
HETATM    2  N9  UNL     1     -41.359   4.647  -1.646  1.00 20.00    -0.270 NA
HETATM    3  S10 UNL     1     -42.625   2.833  -3.304  1.00 20.00    -0.055 SA
ENDROOT
BRANCH   2   4
HETATM    4  C8  UNL     1     -42.217   5.710  -1.103  1.00 20.00     0.109 C 
BRANCH   4   5
HETATM    5  C6  UNL     1     -41.336   6.717  -0.354  1.00 20.00     0.032 C 
BRANCH   5   6
HETATM    6  C4  UNL     1     -41.664   8.160  -0.714  1.00 20.00    -0.013 A 
HETATM    7  C2  UNL     1     -42.808   8.868  -0.041  1.00 20.00     0.005 A 
HETATM    8  C3  UNL     1     -41.392   9.265   0.268  1.00 20.00     0.005 A 
ENDBRANCH   5   6
ENDBRANCH   4   5
BRANCH   4   9
HETATM    9  C7  UNL     1     -43.245   5.074  -0.158  1.00 20.00     0.023 C 
HETATM   10  C5  UNL     1     -42.877   5.239   1.288  1.00 20.00     0.007 C 
ENDBRANCH   4   9
ENDBRANCH   2   4
TORSDOF 4
ENDMDL
