MODEL 1
REMARK VINA RESULT:      -5.1      0.000      0.000
REMARK  3 active torsions:
REMARK  status: ('A' for Active; 'I' for Inactive)
REMARK    1  A    between atoms: C2_2  and  C3_3 
REMARK    2  A    between atoms: C3_3  and  C11_11 
REMARK    3  A    between atoms: C11_11  and  C12_12 
ROOT
HETATM    1  C3  UNL     1     -35.056  14.038  -4.179  1.00 20.00     0.159 C 
HETATM    2  O13 UNL     1     -34.649  12.910  -3.910  1.00 20.00    -0.292 OA
ENDROOT
BRANCH   1   3
HETATM    3  C2  UNL     1     -34.539  15.188  -3.434  1.00 20.00    -0.016 C 
HETATM    4  C1  UNL     1     -35.244  15.616  -2.377  1.00 20.00    -0.016 C 
HETATM    5  C4  UNL     1     -34.809  16.779  -1.532  1.00 20.00     0.028 C 
HETATM    6  C6  UNL     1     -33.364  17.214  -1.796  1.00 20.00     0.004 C 
HETATM    7  C7  UNL     1     -33.048  17.217  -3.290  1.00 20.00     0.005 C 
HETATM    8  C5  UNL     1     -33.270  15.832  -3.906  1.00 20.00     0.042 C 
ENDBRANCH   1   3
BRANCH   1   9
HETATM    9  C11 UNL     1     -36.081  14.320  -5.275  1.00 20.00     0.059 C 
HETATM   10  C8  UNL     1     -35.369  14.692  -6.579  1.00 20.00     0.018 C 
BRANCH   9  11
HETATM   11  C12 UNL     1     -37.121  15.362  -4.791  1.00 20.00    -0.012 C 
HETATM   12  C9  UNL     1     -37.500  16.392  -5.858  1.00 20.00     0.010 C 
HETATM   13  C10 UNL     1     -38.386  14.683  -4.258  1.00 20.00     0.010 C 
ENDBRANCH   9  11
ENDBRANCH   1   9
TORSDOF 3
ENDMDL
MODEL 2
REMARK VINA RESULT:      -5.1      1.394      2.503
REMARK  3 active torsions:
REMARK  status: ('A' for Active; 'I' for Inactive)
REMARK    1  A    between atoms: C2_2  and  C3_3 
REMARK    2  A    between atoms: C3_3  and  C11_11 
REMARK    3  A    between atoms: C11_11  and  C12_12 
ROOT
HETATM    1  C3  UNL     1     -34.218  14.854  -4.180  1.00 20.00     0.159 C 
HETATM    2  O13 UNL     1     -33.355  13.984  -4.263  1.00 20.00    -0.292 OA
ENDROOT
BRANCH   1   3
HETATM    3  C2  UNL     1     -34.135  15.853  -3.111  1.00 20.00    -0.016 C 
HETATM    4  C1  UNL     1     -32.979  16.514  -2.962  1.00 20.00    -0.016 C 
HETATM    5  C4  UNL     1     -32.779  17.566  -1.909  1.00 20.00     0.028 C 
HETATM    6  C6  UNL     1     -34.085  18.019  -1.249  1.00 20.00     0.004 C 
HETATM    7  C7  UNL     1     -35.002  16.833  -0.955  1.00 20.00     0.005 C 
HETATM    8  C5  UNL     1     -35.334  16.060  -2.235  1.00 20.00     0.042 C 
ENDBRANCH   1   3
BRANCH   1   9
HETATM    9  C11 UNL     1     -35.390  14.970  -5.153  1.00 20.00     0.059 C 
HETATM   10  C8  UNL     1     -36.291  13.737  -5.040  1.00 20.00     0.018 C 
BRANCH   9  11
HETATM   11  C12 UNL     1     -34.879  15.264  -6.586  1.00 20.00    -0.012 C 
HETATM   12  C9  UNL     1     -35.899  14.936  -7.680  1.00 20.00     0.010 C 
HETATM   13  C10 UNL     1     -34.419  16.718  -6.728  1.00 20.00     0.010 C 
ENDBRANCH   9  11
ENDBRANCH   1   9
TORSDOF 3
ENDMDL
MODEL 3
REMARK VINA RESULT:      -5.1      1.396      2.097
REMARK  3 active torsions:
REMARK  status: ('A' for Active; 'I' for Inactive)
REMARK    1  A    between atoms: C2_2  and  C3_3 
REMARK    2  A    between atoms: C3_3  and  C11_11 
REMARK    3  A    between atoms: C11_11  and  C12_12 
ROOT
HETATM    1  C3  UNL     1     -34.188  14.824  -4.159  1.00 20.00     0.159 C 
HETATM    2  O13 UNL     1     -33.339  13.942  -4.242  1.00 20.00    -0.292 OA
ENDROOT
BRANCH   1   3
HETATM    3  C2  UNL     1     -34.081  15.831  -3.099  1.00 20.00    -0.016 C 
HETATM    4  C1  UNL     1     -35.094  15.929  -2.226  1.00 20.00    -0.016 C 
HETATM    5  C4  UNL     1     -35.092  16.915  -1.094  1.00 20.00     0.028 C 
HETATM    6  C6  UNL     1     -33.723  17.560  -0.853  1.00 20.00     0.004 C 
HETATM    7  C7  UNL     1     -33.044  17.932  -2.168  1.00 20.00     0.005 C 
HETATM    8  C5  UNL     1     -32.863  16.704  -3.066  1.00 20.00     0.042 C 
ENDBRANCH   1   3
BRANCH   1   9
HETATM    9  C11 UNL     1     -35.369  14.948  -5.121  1.00 20.00     0.059 C 
HETATM   10  C8  UNL     1     -36.276  13.720  -5.001  1.00 20.00     0.018 C 
BRANCH   9  11
HETATM   11  C12 UNL     1     -34.869  15.240  -6.558  1.00 20.00    -0.012 C 
HETATM   12  C9  UNL     1     -35.898  14.912  -7.644  1.00 20.00     0.010 C 
HETATM   13  C10 UNL     1     -34.409  16.694  -6.705  1.00 20.00     0.010 C 
ENDBRANCH   9  11
ENDBRANCH   1   9
TORSDOF 3
ENDMDL
MODEL 4
REMARK VINA RESULT:      -5.0      1.150      1.969
REMARK  3 active torsions:
REMARK  status: ('A' for Active; 'I' for Inactive)
REMARK    1  A    between atoms: C2_2  and  C3_3 
REMARK    2  A    between atoms: C3_3  and  C11_11 
REMARK    3  A    between atoms: C11_11  and  C12_12 
ROOT
HETATM    1  C3  UNL     1     -34.617  14.518  -4.346  1.00 20.00     0.159 C 
HETATM    2  O13 UNL     1     -34.463  13.337  -4.047  1.00 20.00    -0.292 OA
ENDROOT
BRANCH   1   3
HETATM    3  C2  UNL     1     -34.387  15.554  -3.336  1.00 20.00    -0.016 C 
HETATM    4  C1  UNL     1     -33.173  16.121  -3.287  1.00 20.00    -0.016 C 
HETATM    5  C4  UNL     1     -32.824  17.199  -2.301  1.00 20.00     0.028 C 
HETATM    6  C6  UNL     1     -34.046  17.791  -1.592  1.00 20.00     0.004 C 
HETATM    7  C7  UNL     1     -35.036  16.703  -1.186  1.00 20.00     0.005 C 
HETATM    8  C5  UNL     1     -35.509  15.903  -2.404  1.00 20.00     0.042 C 
ENDBRANCH   1   3
BRANCH   1   9
HETATM    9  C11 UNL     1     -35.029  14.985  -5.741  1.00 20.00     0.059 C 
HETATM   10  C8  UNL     1     -33.820  14.966  -6.681  1.00 20.00     0.018 C 
BRANCH   9  11
HETATM   11  C12 UNL     1     -35.762  16.347  -5.664  1.00 20.00    -0.012 C 
HETATM   12  C9  UNL     1     -35.047  17.472  -6.417  1.00 20.00     0.010 C 
HETATM   13  C10 UNL     1     -37.207  16.233  -6.158  1.00 20.00     0.010 C 
ENDBRANCH   9  11
ENDBRANCH   1   9
TORSDOF 3
ENDMDL
MODEL 5
REMARK VINA RESULT:      -4.9      2.754      6.087
REMARK  3 active torsions:
REMARK  status: ('A' for Active; 'I' for Inactive)
REMARK    1  A    between atoms: C2_2  and  C3_3 
REMARK    2  A    between atoms: C3_3  and  C11_11 
REMARK    3  A    between atoms: C11_11  and  C12_12 
ROOT
HETATM    1  C3  UNL     1     -33.944  18.103  -1.293  1.00 20.00     0.159 C 
HETATM    2  O13 UNL     1     -34.071  19.235  -1.751  1.00 20.00    -0.292 OA
ENDROOT
BRANCH   1   3
HETATM    3  C2  UNL     1     -34.124  16.945  -2.173  1.00 20.00    -0.016 C 
HETATM    4  C1  UNL     1     -33.094  16.586  -2.952  1.00 20.00    -0.016 C 
HETATM    5  C4  UNL     1     -33.158  15.411  -3.885  1.00 20.00     0.028 C 
HETATM    6  C6  UNL     1     -34.366  14.502  -3.635  1.00 20.00     0.004 C 
HETATM    7  C7  UNL     1     -35.630  15.316  -3.372  1.00 20.00     0.005 C 
HETATM    8  C5  UNL     1     -35.450  16.245  -2.168  1.00 20.00     0.042 C 
ENDBRANCH   1   3
BRANCH   1   9
HETATM    9  C11 UNL     1     -33.589  17.822   0.166  1.00 20.00     0.059 C 
HETATM   10  C8  UNL     1     -34.818  18.026   1.056  1.00 20.00     0.018 C 
BRANCH   9  11
HETATM   11  C12 UNL     1     -32.345  18.643   0.590  1.00 20.00    -0.012 C 
HETATM   12  C9  UNL     1     -32.013  18.529   2.080  1.00 20.00     0.010 C 
HETATM   13  C10 UNL     1     -31.116  18.266  -0.243  1.00 20.00     0.010 C 
ENDBRANCH   9  11
ENDBRANCH   1   9
TORSDOF 3
ENDMDL
MODEL 6
REMARK VINA RESULT:      -4.9      1.217      1.748
REMARK  3 active torsions:
REMARK  status: ('A' for Active; 'I' for Inactive)
REMARK    1  A    between atoms: C2_2  and  C3_3 
REMARK    2  A    between atoms: C3_3  and  C11_11 
REMARK    3  A    between atoms: C11_11  and  C12_12 
ROOT
HETATM    1  C3  UNL     1     -34.295  15.068  -3.773  1.00 20.00     0.159 C 
HETATM    2  O13 UNL     1     -33.313  14.441  -4.162  1.00 20.00    -0.292 OA
ENDROOT
BRANCH   1   3
HETATM    3  C2  UNL     1     -34.138  16.077  -2.723  1.00 20.00    -0.016 C 
HETATM    4  C1  UNL     1     -35.128  16.206  -1.828  1.00 20.00    -0.016 C 
HETATM    5  C4  UNL     1     -35.075  17.198  -0.702  1.00 20.00     0.028 C 
HETATM    6  C6  UNL     1     -33.685  17.807  -0.495  1.00 20.00     0.004 C 
HETATM    7  C7  UNL     1     -33.025  18.155  -1.827  1.00 20.00     0.005 C 
HETATM    8  C5  UNL     1     -32.896  16.917  -2.721  1.00 20.00     0.042 C 
ENDBRANCH   1   3
BRANCH   1   9
HETATM    9  C11 UNL     1     -35.699  14.863  -4.340  1.00 20.00     0.059 C 
HETATM   10  C8  UNL     1     -35.987  13.369  -4.506  1.00 20.00     0.018 C 
BRANCH   9  11
HETATM   11  C12 UNL     1     -35.893  15.702  -5.628  1.00 20.00    -0.012 C 
HETATM   12  C9  UNL     1     -35.669  14.907  -6.917  1.00 20.00     0.010 C 
HETATM   13  C10 UNL     1     -37.273  16.364  -5.662  1.00 20.00     0.010 C 
ENDBRANCH   9  11
ENDBRANCH   1   9
TORSDOF 3
ENDMDL
MODEL 7
REMARK VINA RESULT:      -4.9      1.465      2.860
REMARK  3 active torsions:
REMARK  status: ('A' for Active; 'I' for Inactive)
REMARK    1  A    between atoms: C2_2  and  C3_3 
REMARK    2  A    between atoms: C3_3  and  C11_11 
REMARK    3  A    between atoms: C11_11  and  C12_12 
ROOT
HETATM    1  C3  UNL     1     -37.260  14.757  -4.187  1.00 20.00     0.159 C 
HETATM    2  O13 UNL     1     -37.558  13.595  -4.453  1.00 20.00    -0.292 OA
ENDROOT
BRANCH   1   3
HETATM    3  C2  UNL     1     -35.875  15.086  -3.843  1.00 20.00    -0.016 C 
HETATM    4  C1  UNL     1     -34.900  14.383  -4.436  1.00 20.00    -0.016 C 
HETATM    5  C4  UNL     1     -33.444  14.637  -4.169  1.00 20.00     0.028 C 
HETATM    6  C6  UNL     1     -33.184  15.948  -3.420  1.00 20.00     0.004 C 
HETATM    7  C7  UNL     1     -34.196  16.157  -2.296  1.00 20.00     0.005 C 
HETATM    8  C5  UNL     1     -35.629  16.170  -2.836  1.00 20.00     0.042 C 
ENDBRANCH   1   3
BRANCH   1   9
HETATM    9  C11 UNL     1     -38.267  15.906  -4.207  1.00 20.00     0.059 C 
HETATM   10  C8  UNL     1     -39.665  15.388  -3.857  1.00 20.00     0.018 C 
BRANCH   9  11
HETATM   11  C12 UNL     1     -38.184  16.677  -5.548  1.00 20.00    -0.012 C 
HETATM   12  C9  UNL     1     -39.491  16.661  -6.346  1.00 20.00     0.010 C 
HETATM   13  C10 UNL     1     -37.727  18.123  -5.335  1.00 20.00     0.010 C 
ENDBRANCH   9  11
ENDBRANCH   1   9
TORSDOF 3
ENDMDL
MODEL 8
REMARK VINA RESULT:      -4.8      3.076      4.989
REMARK  3 active torsions:
REMARK  status: ('A' for Active; 'I' for Inactive)
REMARK    1  A    between atoms: C2_2  and  C3_3 
REMARK    2  A    between atoms: C3_3  and  C11_11 
REMARK    3  A    between atoms: C11_11  and  C12_12 
ROOT
HETATM    1  C3  UNL     1     -33.702  18.501  -1.803  1.00 20.00     0.159 C 
HETATM    2  O13 UNL     1     -34.682  19.237  -1.894  1.00 20.00    -0.292 OA
ENDROOT
BRANCH   1   3
HETATM    3  C2  UNL     1     -32.959  18.442  -0.542  1.00 20.00    -0.016 C 
HETATM    4  C1  UNL     1     -31.624  18.337  -0.609  1.00 20.00    -0.016 C 
HETATM    5  C4  UNL     1     -30.756  18.278   0.616  1.00 20.00     0.028 C 
HETATM    6  C6  UNL     1     -31.495  18.658   1.902  1.00 20.00     0.004 C 
HETATM    7  C7  UNL     1     -32.891  18.040   1.947  1.00 20.00     0.005 C 
HETATM    8  C5  UNL     1     -33.730  18.481   0.743  1.00 20.00     0.042 C 
ENDBRANCH   1   3
BRANCH   1   9
HETATM    9  C11 UNL     1     -33.209  17.615  -2.946  1.00 20.00     0.059 C 
HETATM   10  C8  UNL     1     -33.683  18.176  -4.289  1.00 20.00     0.018 C 
BRANCH   9  11
HETATM   11  C12 UNL     1     -33.597  16.136  -2.693  1.00 20.00    -0.012 C 
HETATM   12  C9  UNL     1     -35.049  15.952  -2.242  1.00 20.00     0.010 C 
HETATM   13  C10 UNL     1     -33.325  15.268  -3.924  1.00 20.00     0.010 C 
ENDBRANCH   9  11
ENDBRANCH   1   9
TORSDOF 3
ENDMDL
MODEL 9
REMARK VINA RESULT:      -4.8      3.044      4.700
REMARK  3 active torsions:
REMARK  status: ('A' for Active; 'I' for Inactive)
REMARK    1  A    between atoms: C2_2  and  C3_3 
REMARK    2  A    between atoms: C3_3  and  C11_11 
REMARK    3  A    between atoms: C11_11  and  C12_12 
ROOT
HETATM    1  C3  UNL     1     -33.765  18.461  -1.944  1.00 20.00     0.159 C 
HETATM    2  O13 UNL     1     -34.756  19.181  -2.037  1.00 20.00    -0.292 OA
ENDROOT
BRANCH   1   3
HETATM    3  C2  UNL     1     -33.010  18.432  -0.689  1.00 20.00    -0.016 C 
HETATM    4  C1  UNL     1     -33.704  18.458   0.458  1.00 20.00    -0.016 C 
HETATM    5  C4  UNL     1     -33.040  18.423   1.805  1.00 20.00     0.028 C 
HETATM    6  C6  UNL     1     -31.556  18.045   1.740  1.00 20.00     0.004 C 
HETATM    7  C7  UNL     1     -30.853  18.745   0.580  1.00 20.00     0.005 C 
HETATM    8  C5  UNL     1     -31.512  18.397  -0.758  1.00 20.00     0.042 C 
ENDBRANCH   1   3
BRANCH   1   9
HETATM    9  C11 UNL     1     -33.269  17.565  -3.077  1.00 20.00     0.059 C 
HETATM   10  C8  UNL     1     -33.799  18.073  -4.421  1.00 20.00     0.018 C 
BRANCH   9  11
HETATM   11  C12 UNL     1     -33.596  16.080  -2.778  1.00 20.00    -0.012 C 
HETATM   12  C9  UNL     1     -35.043  15.848  -2.335  1.00 20.00     0.010 C 
HETATM   13  C10 UNL     1     -33.273  15.184  -3.977  1.00 20.00     0.010 C 
ENDBRANCH   9  11
ENDBRANCH   1   9
TORSDOF 3
ENDMDL
