MODEL 1
REMARK VINA RESULT:      -4.3      0.000      0.000
REMARK  3 active torsions:
REMARK  status: ('A' for Active; 'I' for Inactive)
REMARK    1  A    between atoms: C7_7  and  C8_8 
REMARK    2  A    between atoms: C8_8  and  N11_11 
REMARK    3  A    between atoms: C9_9  and  N11_11 
ROOT
HETATM    1  C1  UNL     1     -32.885  18.475  -3.686  1.00 20.00     0.015 C 
HETATM    2  C2  UNL     1     -33.465  17.424  -3.699  1.00 20.00    -0.076 C 
HETATM    3  C5  UNL     1     -33.188  15.003  -4.031  1.00 20.00     0.063 C 
HETATM    4  C6  UNL     1     -34.833  15.882  -2.353  1.00 20.00     0.063 C 
HETATM    5  C9  UNL     1     -34.177  16.130  -3.716  1.00 20.00     0.213 C 
ENDROOT
BRANCH   5   6
HETATM    6  N11 UNL     1     -35.206  16.170  -4.738  1.00 20.00     0.122 N 
HETATM    7  H25 UNL     1     -34.925  16.814  -5.480  1.00 20.00     0.319 HD
BRANCH   6   8
HETATM    8  C8  UNL     1     -35.426  14.849  -5.316  1.00 20.00     0.327 C 
HETATM    9  C3  UNL     1     -36.671  14.260  -4.801  1.00 20.00     0.095 C 
HETATM   10  N10 UNL     1     -37.652  13.794  -4.393  1.00 20.00    -0.195 NA
BRANCH   8  11
HETATM   11  C7  UNL     1     -35.393  14.898  -6.849  1.00 20.00     0.046 C 
HETATM   12  C4  UNL     1     -34.066  15.364  -7.441  1.00 20.00     0.008 C 
ENDBRANCH   8  11
ENDBRANCH   6   8
ENDBRANCH   5   6
TORSDOF 3
ENDMDL
MODEL 2
REMARK VINA RESULT:      -4.2      0.555      1.724
REMARK  3 active torsions:
REMARK  status: ('A' for Active; 'I' for Inactive)
REMARK    1  A    between atoms: C7_7  and  C8_8 
REMARK    2  A    between atoms: C8_8  and  N11_11 
REMARK    3  A    between atoms: C9_9  and  N11_11 
ROOT
HETATM    1  C1  UNL     1     -35.199  16.613  -1.186  1.00 20.00     0.015 C 
HETATM    2  C2  UNL     1     -34.774  16.569  -2.308  1.00 20.00    -0.076 C 
HETATM    3  C5  UNL     1     -33.467  17.799  -3.989  1.00 20.00     0.063 C 
HETATM    4  C6  UNL     1     -33.336  15.297  -3.849  1.00 20.00     0.063 C 
HETATM    5  C9  UNL     1     -34.250  16.516  -3.688  1.00 20.00     0.213 C 
ENDROOT
BRANCH   5   6
HETATM    6  N11 UNL     1     -35.362  16.402  -4.612  1.00 20.00     0.122 N 
HETATM    7  H25 UNL     1     -35.272  17.108  -5.345  1.00 20.00     0.319 HD
BRANCH   6   8
HETATM    8  C8  UNL     1     -35.402  15.081  -5.230  1.00 20.00     0.327 C 
HETATM    9  C3  UNL     1     -36.581  14.332  -4.774  1.00 20.00     0.095 C 
HETATM   10  N10 UNL     1     -37.511  13.739  -4.413  1.00 20.00    -0.195 NA
BRANCH   8  11
HETATM   11  C7  UNL     1     -35.324  15.177  -6.759  1.00 20.00     0.046 C 
HETATM   12  C4  UNL     1     -33.907  15.163  -7.325  1.00 20.00     0.008 C 
ENDBRANCH   8  11
ENDBRANCH   6   8
ENDBRANCH   5   6
TORSDOF 3
ENDMDL
MODEL 3
REMARK VINA RESULT:      -4.2      2.077      2.900
REMARK  3 active torsions:
REMARK  status: ('A' for Active; 'I' for Inactive)
REMARK    1  A    between atoms: C7_7  and  C8_8 
REMARK    2  A    between atoms: C8_8  and  N11_11 
REMARK    3  A    between atoms: C9_9  and  N11_11 
ROOT
HETATM    1  C1  UNL     1     -32.976  15.758  -3.454  1.00 20.00     0.015 C 
HETATM    2  C2  UNL     1     -34.033  16.158  -3.049  1.00 20.00    -0.076 C 
HETATM    3  C5  UNL     1     -35.239  16.915  -1.043  1.00 20.00     0.063 C 
HETATM    4  C6  UNL     1     -35.714  17.943  -3.282  1.00 20.00     0.063 C 
HETATM    5  C9  UNL     1     -35.333  16.651  -2.551  1.00 20.00     0.213 C 
ENDROOT
BRANCH   5   6
HETATM    6  N11 UNL     1     -36.348  15.646  -2.802  1.00 20.00     0.122 N 
HETATM    7  H25 UNL     1     -37.262  16.003  -2.515  1.00 20.00     0.319 HD
BRANCH   6   8
HETATM    8  C8  UNL     1     -36.401  15.291  -4.216  1.00 20.00     0.327 C 
HETATM    9  C3  UNL     1     -36.096  13.865  -4.403  1.00 20.00     0.095 C 
HETATM   10  N10 UNL     1     -35.853  12.741  -4.551  1.00 20.00    -0.195 NA
BRANCH   8  11
HETATM   11  C7  UNL     1     -37.745  15.689  -4.841  1.00 20.00     0.046 C 
HETATM   12  C4  UNL     1     -38.955  14.963  -4.261  1.00 20.00     0.008 C 
ENDBRANCH   8  11
ENDBRANCH   6   8
ENDBRANCH   5   6
TORSDOF 3
ENDMDL
MODEL 4
REMARK VINA RESULT:      -4.1      0.462      1.797
REMARK  3 active torsions:
REMARK  status: ('A' for Active; 'I' for Inactive)
REMARK    1  A    between atoms: C7_7  and  C8_8 
REMARK    2  A    between atoms: C8_8  and  N11_11 
REMARK    3  A    between atoms: C9_9  and  N11_11 
ROOT
HETATM    1  C1  UNL     1     -32.493  14.398  -4.307  1.00 20.00     0.015 C 
HETATM    2  C2  UNL     1     -33.329  15.212  -4.028  1.00 20.00    -0.076 C 
HETATM    3  C5  UNL     1     -34.994  15.856  -2.337  1.00 20.00     0.063 C 
HETATM    4  C6  UNL     1     -33.723  17.606  -3.607  1.00 20.00     0.063 C 
HETATM    5  C9  UNL     1     -34.359  16.214  -3.685  1.00 20.00     0.213 C 
ENDROOT
BRANCH   5   6
HETATM    6  N11 UNL     1     -35.380  16.215  -4.715  1.00 20.00     0.122 N 
HETATM    7  H25 UNL     1     -35.084  16.813  -5.489  1.00 20.00     0.319 HD
BRANCH   6   8
HETATM    8  C8  UNL     1     -35.619  14.868  -5.223  1.00 20.00     0.327 C 
HETATM    9  C3  UNL     1     -36.892  14.341  -4.710  1.00 20.00     0.095 C 
HETATM   10  N10 UNL     1     -37.895  13.923  -4.303  1.00 20.00    -0.195 NA
BRANCH   8  11
HETATM   11  C7  UNL     1     -35.544  14.828  -6.754  1.00 20.00     0.046 C 
HETATM   12  C4  UNL     1     -34.520  15.779  -7.365  1.00 20.00     0.008 C 
ENDBRANCH   8  11
ENDBRANCH   6   8
ENDBRANCH   5   6
TORSDOF 3
ENDMDL
MODEL 5
REMARK VINA RESULT:      -4.0      1.942      3.005
REMARK  3 active torsions:
REMARK  status: ('A' for Active; 'I' for Inactive)
REMARK    1  A    between atoms: C7_7  and  C8_8 
REMARK    2  A    between atoms: C8_8  and  N11_11 
REMARK    3  A    between atoms: C9_9  and  N11_11 
ROOT
HETATM    1  C1  UNL     1     -32.940  17.455  -1.882  1.00 20.00     0.015 C 
HETATM    2  C2  UNL     1     -33.659  16.839  -2.620  1.00 20.00    -0.076 C 
HETATM    3  C5  UNL     1     -34.730  16.865  -4.834  1.00 20.00     0.063 C 
HETATM    4  C6  UNL     1     -33.928  14.711  -3.828  1.00 20.00     0.063 C 
HETATM    5  C9  UNL     1     -34.543  16.082  -3.529  1.00 20.00     0.213 C 
ENDROOT
BRANCH   5   6
HETATM    6  N11 UNL     1     -35.831  15.896  -2.890  1.00 20.00     0.122 N 
HETATM    7  H25 UNL     1     -35.911  16.529  -2.092  1.00 20.00     0.319 HD
BRANCH   6   8
HETATM    8  C8  UNL     1     -36.925  16.162  -3.817  1.00 20.00     0.327 C 
HETATM    9  C3  UNL     1     -37.630  14.918  -4.157  1.00 20.00     0.095 C 
HETATM   10  N10 UNL     1     -38.185  13.935  -4.427  1.00 20.00    -0.195 NA
BRANCH   8  11
HETATM   11  C7  UNL     1     -37.870  17.240  -3.271  1.00 20.00     0.046 C 
HETATM   12  C4  UNL     1     -37.289  18.079  -2.137  1.00 20.00     0.008 C 
ENDBRANCH   8  11
ENDBRANCH   6   8
ENDBRANCH   5   6
TORSDOF 3
ENDMDL
MODEL 6
REMARK VINA RESULT:      -4.0      1.617      3.189
REMARK  3 active torsions:
REMARK  status: ('A' for Active; 'I' for Inactive)
REMARK    1  A    between atoms: C7_7  and  C8_8 
REMARK    2  A    between atoms: C8_8  and  N11_11 
REMARK    3  A    between atoms: C9_9  and  N11_11 
ROOT
HETATM    1  C1  UNL     1     -33.380  19.014  -4.601  1.00 20.00     0.015 C 
HETATM    2  C2  UNL     1     -34.009  18.134  -5.121  1.00 20.00    -0.076 C 
HETATM    3  C5  UNL     1     -36.271  17.218  -5.425  1.00 20.00     0.063 C 
HETATM    4  C6  UNL     1     -34.584  17.096  -7.278  1.00 20.00     0.063 C 
HETATM    5  C9  UNL     1     -34.784  17.051  -5.760  1.00 20.00     0.213 C 
ENDROOT
BRANCH   5   6
HETATM    6  N11 UNL     1     -34.316  15.774  -5.256  1.00 20.00     0.122 N 
HETATM    7  H25 UNL     1     -33.347  15.864  -4.946  1.00 20.00     0.319 HD
BRANCH   6   8
HETATM    8  C8  UNL     1     -35.132  15.316  -4.137  1.00 20.00     0.327 C 
HETATM    9  C3  UNL     1     -35.572  13.930  -4.350  1.00 20.00     0.095 C 
HETATM   10  N10 UNL     1     -35.922  12.837  -4.519  1.00 20.00    -0.195 NA
BRANCH   8  11
HETATM   11  C7  UNL     1     -34.399  15.499  -2.801  1.00 20.00     0.046 C 
HETATM   12  C4  UNL     1     -35.122  16.390  -1.797  1.00 20.00     0.008 C 
ENDBRANCH   8  11
ENDBRANCH   6   8
ENDBRANCH   5   6
TORSDOF 3
ENDMDL
MODEL 7
REMARK VINA RESULT:      -3.9      1.970      3.340
REMARK  3 active torsions:
REMARK  status: ('A' for Active; 'I' for Inactive)
REMARK    1  A    between atoms: C7_7  and  C8_8 
REMARK    2  A    between atoms: C8_8  and  N11_11 
REMARK    3  A    between atoms: C9_9  and  N11_11 
ROOT
HETATM    1  C1  UNL     1     -33.359  14.434  -4.236  1.00 20.00     0.015 C 
HETATM    2  C2  UNL     1     -33.909  15.376  -3.736  1.00 20.00    -0.076 C 
HETATM    3  C5  UNL     1     -33.772  17.024  -1.915  1.00 20.00     0.063 C 
HETATM    4  C6  UNL     1     -34.721  17.664  -4.147  1.00 20.00     0.063 C 
HETATM    5  C9  UNL     1     -34.585  16.536  -3.119  1.00 20.00     0.213 C 
ENDROOT
BRANCH   5   6
HETATM    6  N11 UNL     1     -35.907  16.133  -2.678  1.00 20.00     0.122 N 
HETATM    7  H25 UNL     1     -36.211  16.739  -1.913  1.00 20.00     0.319 HD
BRANCH   6   8
HETATM    8  C8  UNL     1     -36.876  16.219  -3.765  1.00 20.00     0.327 C 
HETATM    9  C3  UNL     1     -37.338  14.879  -4.153  1.00 20.00     0.095 C 
HETATM   10  N10 UNL     1     -37.702  13.821  -4.461  1.00 20.00    -0.195 NA
BRANCH   8  11
HETATM   11  C7  UNL     1     -38.035  17.157  -3.406  1.00 20.00     0.046 C 
HETATM   12  C4  UNL     1     -37.831  17.958  -2.123  1.00 20.00     0.008 C 
ENDBRANCH   8  11
ENDBRANCH   6   8
ENDBRANCH   5   6
TORSDOF 3
ENDMDL
MODEL 8
REMARK VINA RESULT:      -3.9      2.025      2.679
REMARK  3 active torsions:
REMARK  status: ('A' for Active; 'I' for Inactive)
REMARK    1  A    between atoms: C7_7  and  C8_8 
REMARK    2  A    between atoms: C8_8  and  N11_11 
REMARK    3  A    between atoms: C9_9  and  N11_11 
ROOT
HETATM    1  C1  UNL     1     -34.110  17.804  -0.612  1.00 20.00     0.015 C 
HETATM    2  C2  UNL     1     -34.325  17.250  -1.654  1.00 20.00    -0.076 C 
HETATM    3  C5  UNL     1     -34.949  17.608  -4.006  1.00 20.00     0.063 C 
HETATM    4  C6  UNL     1     -33.347  15.783  -3.374  1.00 20.00     0.063 C 
HETATM    5  C9  UNL     1     -34.589  16.569  -2.938  1.00 20.00     0.213 C 
ENDROOT
BRANCH   5   6
HETATM    6  N11 UNL     1     -35.697  15.649  -2.766  1.00 20.00     0.122 N 
HETATM    7  H25 UNL     1     -36.406  16.076  -2.166  1.00 20.00     0.319 HD
BRANCH   6   8
HETATM    8  C8  UNL     1     -36.305  15.308  -4.048  1.00 20.00     0.327 C 
HETATM    9  C3  UNL     1     -36.078  13.892  -4.368  1.00 20.00     0.095 C 
HETATM   10  N10 UNL     1     -35.898  12.774  -4.621  1.00 20.00    -0.195 NA
BRANCH   8  11
HETATM   11  C7  UNL     1     -37.791  15.685  -4.079  1.00 20.00     0.046 C 
HETATM   12  C4  UNL     1     -38.284  16.218  -5.421  1.00 20.00     0.008 C 
ENDBRANCH   8  11
ENDBRANCH   6   8
ENDBRANCH   5   6
TORSDOF 3
ENDMDL
MODEL 9
REMARK VINA RESULT:      -3.9      1.629      2.062
REMARK  3 active torsions:
REMARK  status: ('A' for Active; 'I' for Inactive)
REMARK    1  A    between atoms: C7_7  and  C8_8 
REMARK    2  A    between atoms: C8_8  and  N11_11 
REMARK    3  A    between atoms: C9_9  and  N11_11 
ROOT
HETATM    1  C1  UNL     1     -32.684  18.364  -3.097  1.00 20.00     0.015 C 
HETATM    2  C2  UNL     1     -33.746  17.808  -3.046  1.00 20.00    -0.076 C 
HETATM    3  C5  UNL     1     -35.158  16.334  -1.674  1.00 20.00     0.063 C 
HETATM    4  C6  UNL     1     -36.184  18.156  -3.060  1.00 20.00     0.063 C 
HETATM    5  C9  UNL     1     -35.054  17.124  -2.984  1.00 20.00     0.213 C 
ENDROOT
BRANCH   5   6
HETATM    6  N11 UNL     1     -35.166  16.213  -4.107  1.00 20.00     0.122 N 
HETATM    7  H25 UNL     1     -34.294  16.220  -4.640  1.00 20.00     0.319 HD
BRANCH   6   8
HETATM    8  C8  UNL     1     -35.434  14.851  -3.658  1.00 20.00     0.327 C 
HETATM    9  C3  UNL     1     -36.772  14.420  -4.087  1.00 20.00     0.095 C 
HETATM   10  N10 UNL     1     -37.830  14.080  -4.423  1.00 20.00    -0.195 NA
BRANCH   8  11
HETATM   11  C7  UNL     1     -34.334  13.885  -4.115  1.00 20.00     0.046 C 
HETATM   12  C4  UNL     1     -32.981  14.541  -4.373  1.00 20.00     0.008 C 
ENDBRANCH   8  11
ENDBRANCH   6   8
ENDBRANCH   5   6
TORSDOF 3
ENDMDL
