MODEL 1
REMARK VINA RESULT:      -4.0      0.000      0.000
REMARK  4 active torsions:
REMARK  status: ('A' for Active; 'I' for Inactive)
REMARK    1  A    between atoms: C4_4  and  C6_6 
REMARK    2  A    between atoms: C6_6  and  C8_8 
REMARK    3  A    between atoms: C7_7  and  C8_8 
REMARK    4  A    between atoms: C8_8  and  N9_9 
ROOT
HETATM    1  C1  UNL     1     -38.323  14.575  -4.297  1.00 20.00     0.158 C 
HETATM    2  N9  UNL     1     -37.353  13.937  -4.468  1.00 20.00    -0.270 NA
HETATM    3  S10 UNL     1     -39.656  15.412  -4.059  1.00 20.00    -0.055 SA
ENDROOT
BRANCH   2   4
HETATM    4  C8  UNL     1     -36.152  14.719  -4.791  1.00 20.00     0.109 C 
BRANCH   4   5
HETATM    5  C6  UNL     1     -35.030  14.313  -3.829  1.00 20.00     0.032 C 
BRANCH   5   6
HETATM    6  C4  UNL     1     -34.673  15.420  -2.846  1.00 20.00    -0.013 A 
HETATM    7  C2  UNL     1     -33.383  16.178  -2.994  1.00 20.00     0.005 A 
HETATM    8  C3  UNL     1     -34.692  16.858  -3.286  1.00 20.00     0.005 A 
ENDBRANCH   5   6
ENDBRANCH   4   5
BRANCH   4   9
HETATM    9  C7  UNL     1     -35.757  14.432  -6.245  1.00 20.00     0.023 C 
HETATM   10  C5  UNL     1     -34.490  15.128  -6.646  1.00 20.00     0.007 C 
ENDBRANCH   4   9
ENDBRANCH   2   4
TORSDOF 4
ENDMDL
MODEL 2
REMARK VINA RESULT:      -4.0     16.786     18.702
REMARK  4 active torsions:
REMARK  status: ('A' for Active; 'I' for Inactive)
REMARK    1  A    between atoms: C4_4  and  C6_6 
REMARK    2  A    between atoms: C6_6  and  C8_8 
REMARK    3  A    between atoms: C7_7  and  C8_8 
REMARK    4  A    between atoms: C8_8  and  N9_9 
ROOT
HETATM    1  C1  UNL     1     -24.633  18.889   7.182  1.00 20.00     0.158 C 
HETATM    2  N9  UNL     1     -23.540  18.608   7.502  1.00 20.00    -0.270 NA
HETATM    3  S10 UNL     1     -26.109  19.263   6.714  1.00 20.00    -0.055 SA
ENDROOT
BRANCH   2   4
HETATM    4  C8  UNL     1     -23.270  18.736   8.941  1.00 20.00     0.109 C 
BRANCH   4   5
HETATM    5  C6  UNL     1     -24.285  17.881   9.707  1.00 20.00     0.032 C 
BRANCH   5   6
HETATM    6  C4  UNL     1     -23.638  17.055  10.811  1.00 20.00    -0.013 A 
HETATM    7  C2  UNL     1     -23.901  17.382  12.255  1.00 20.00     0.005 A 
HETATM    8  C3  UNL     1     -24.474  16.129  11.652  1.00 20.00     0.005 A 
ENDBRANCH   5   6
ENDBRANCH   4   5
BRANCH   4   9
HETATM    9  C7  UNL     1     -21.837  18.260   9.215  1.00 20.00     0.023 C 
HETATM   10  C5  UNL     1     -21.303  17.381   8.123  1.00 20.00     0.007 C 
ENDBRANCH   4   9
ENDBRANCH   2   4
TORSDOF 4
ENDMDL
MODEL 3
REMARK VINA RESULT:      -3.9      2.066      2.951
REMARK  4 active torsions:
REMARK  status: ('A' for Active; 'I' for Inactive)
REMARK    1  A    between atoms: C4_4  and  C6_6 
REMARK    2  A    between atoms: C6_6  and  C8_8 
REMARK    3  A    between atoms: C7_7  and  C8_8 
REMARK    4  A    between atoms: C8_8  and  N9_9 
ROOT
HETATM    1  C1  UNL     1     -35.510  14.695  -6.514  1.00 20.00     0.158 C 
HETATM    2  N9  UNL     1     -35.982  13.785  -5.945  1.00 20.00    -0.270 NA
HETATM    3  S10 UNL     1     -34.867  15.912  -7.316  1.00 20.00    -0.055 SA
ENDROOT
BRANCH   2   4
HETATM    4  C8  UNL     1     -36.322  14.049  -4.540  1.00 20.00     0.109 C 
BRANCH   4   5
HETATM    5  C6  UNL     1     -35.031  14.355  -3.773  1.00 20.00     0.032 C 
BRANCH   5   6
HETATM    6  C4  UNL     1     -34.965  15.799  -3.291  1.00 20.00    -0.013 A 
HETATM    7  C2  UNL     1     -34.948  16.106  -1.819  1.00 20.00     0.005 A 
HETATM    8  C3  UNL     1     -33.712  16.325  -2.647  1.00 20.00     0.005 A 
ENDBRANCH   5   6
ENDBRANCH   4   5
BRANCH   4   9
HETATM    9  C7  UNL     1     -37.286  15.242  -4.486  1.00 20.00     0.023 C 
HETATM   10  C5  UNL     1     -38.699  14.828  -4.197  1.00 20.00     0.007 C 
ENDBRANCH   4   9
ENDBRANCH   2   4
TORSDOF 4
ENDMDL
MODEL 4
REMARK VINA RESULT:      -3.8      2.491      3.179
REMARK  4 active torsions:
REMARK  status: ('A' for Active; 'I' for Inactive)
REMARK    1  A    between atoms: C4_4  and  C6_6 
REMARK    2  A    between atoms: C6_6  and  C8_8 
REMARK    3  A    between atoms: C7_7  and  C8_8 
REMARK    4  A    between atoms: C8_8  and  N9_9 
ROOT
HETATM    1  C1  UNL     1     -34.155  14.993  -6.199  1.00 20.00     0.158 C 
HETATM    2  N9  UNL     1     -33.821  14.328  -5.293  1.00 20.00    -0.270 NA
HETATM    3  S10 UNL     1     -34.580  15.887  -7.447  1.00 20.00    -0.055 SA
ENDROOT
BRANCH   2   4
HETATM    4  C8  UNL     1     -34.767  14.302  -4.169  1.00 20.00     0.109 C 
BRANCH   4   5
HETATM    5  C6  UNL     1     -34.973  15.737  -3.669  1.00 20.00     0.032 C 
BRANCH   5   6
HETATM    6  C4  UNL     1     -34.448  15.944  -2.255  1.00 20.00    -0.013 A 
HETATM    7  C2  UNL     1     -33.890  17.278  -1.842  1.00 20.00     0.005 A 
HETATM    8  C3  UNL     1     -35.206  16.809  -1.285  1.00 20.00     0.005 A 
ENDBRANCH   5   6
ENDBRANCH   4   5
BRANCH   4   9
HETATM    9  C7  UNL     1     -36.090  13.698  -4.656  1.00 20.00     0.023 C 
HETATM   10  C5  UNL     1     -37.277  14.539  -4.292  1.00 20.00     0.007 C 
ENDBRANCH   4   9
ENDBRANCH   2   4
TORSDOF 4
ENDMDL
MODEL 5
REMARK VINA RESULT:      -3.7      1.289      1.644
REMARK  4 active torsions:
REMARK  status: ('A' for Active; 'I' for Inactive)
REMARK    1  A    between atoms: C4_4  and  C6_6 
REMARK    2  A    between atoms: C6_6  and  C8_8 
REMARK    3  A    between atoms: C7_7  and  C8_8 
REMARK    4  A    between atoms: C8_8  and  N9_9 
ROOT
HETATM    1  C1  UNL     1     -38.018  14.587  -4.235  1.00 20.00     0.158 C 
HETATM    2  N9  UNL     1     -36.990  14.022  -4.198  1.00 20.00    -0.270 NA
HETATM    3  S10 UNL     1     -39.430  15.322  -4.283  1.00 20.00    -0.055 SA
ENDROOT
BRANCH   2   4
HETATM    4  C8  UNL     1     -35.809  14.892  -4.286  1.00 20.00     0.109 C 
BRANCH   4   5
HETATM    5  C6  UNL     1     -35.983  16.054  -3.302  1.00 20.00     0.032 C 
BRANCH   5   6
HETATM    6  C4  UNL     1     -35.038  15.958  -2.112  1.00 20.00    -0.013 A 
HETATM    7  C2  UNL     1     -34.073  17.074  -1.818  1.00 20.00     0.005 A 
HETATM    8  C3  UNL     1     -35.246  16.834  -0.908  1.00 20.00     0.005 A 
ENDBRANCH   5   6
ENDBRANCH   4   5
BRANCH   4   9
HETATM    9  C7  UNL     1     -34.565  14.064  -3.941  1.00 20.00     0.023 C 
HETATM   10  C5  UNL     1     -33.345  14.520  -4.686  1.00 20.00     0.007 C 
ENDBRANCH   4   9
ENDBRANCH   2   4
TORSDOF 4
ENDMDL
MODEL 6
REMARK VINA RESULT:      -3.6      0.818      2.929
REMARK  4 active torsions:
REMARK  status: ('A' for Active; 'I' for Inactive)
REMARK    1  A    between atoms: C4_4  and  C6_6 
REMARK    2  A    between atoms: C6_6  and  C8_8 
REMARK    3  A    between atoms: C7_7  and  C8_8 
REMARK    4  A    between atoms: C8_8  and  N9_9 
ROOT
HETATM    1  C1  UNL     1     -38.104  14.541  -4.323  1.00 20.00     0.158 C 
HETATM    2  N9  UNL     1     -37.215  13.791  -4.475  1.00 20.00    -0.270 NA
HETATM    3  S10 UNL     1     -39.333  15.532  -4.114  1.00 20.00    -0.055 SA
ENDROOT
BRANCH   2   4
HETATM    4  C8  UNL     1     -35.894  14.423  -4.599  1.00 20.00     0.109 C 
BRANCH   4   5
HETATM    5  C6  UNL     1     -35.957  15.475  -5.711  1.00 20.00     0.032 C 
BRANCH   5   6
HETATM    6  C4  UNL     1     -35.181  15.059  -6.954  1.00 20.00    -0.013 A 
HETATM    7  C2  UNL     1     -34.368  16.070  -7.713  1.00 20.00     0.005 A 
HETATM    8  C3  UNL     1     -33.679  14.993  -6.922  1.00 20.00     0.005 A 
ENDBRANCH   5   6
ENDBRANCH   4   5
BRANCH   4   9
HETATM    9  C7  UNL     1     -35.533  15.068  -3.255  1.00 20.00     0.023 C 
HETATM   10  C5  UNL     1     -34.135  15.612  -3.234  1.00 20.00     0.007 C 
ENDBRANCH   4   9
ENDBRANCH   2   4
TORSDOF 4
ENDMDL
MODEL 7
REMARK VINA RESULT:      -3.5     10.271     11.947
REMARK  4 active torsions:
REMARK  status: ('A' for Active; 'I' for Inactive)
REMARK    1  A    between atoms: C4_4  and  C6_6 
REMARK    2  A    between atoms: C6_6  and  C8_8 
REMARK    3  A    between atoms: C7_7  and  C8_8 
REMARK    4  A    between atoms: C8_8  and  N9_9 
ROOT
HETATM    1  C1  UNL     1     -42.035   4.618  -1.885  1.00 20.00     0.158 C 
HETATM    2  N9  UNL     1     -41.419   5.448  -1.328  1.00 20.00    -0.270 NA
HETATM    3  S10 UNL     1     -42.858   3.504  -2.671  1.00 20.00    -0.055 SA
ENDROOT
BRANCH   2   4
HETATM    4  C8  UNL     1     -41.578   5.453   0.133  1.00 20.00     0.109 C 
BRANCH   4   5
HETATM    5  C6  UNL     1     -41.189   6.837   0.662  1.00 20.00     0.032 C 
BRANCH   5   6
HETATM    6  C4  UNL     1     -41.584   7.959  -0.289  1.00 20.00    -0.013 A 
HETATM    7  C2  UNL     1     -42.789   8.810   0.004  1.00 20.00     0.005 A 
HETATM    8  C3  UNL     1     -41.409   9.396   0.121  1.00 20.00     0.005 A 
ENDBRANCH   5   6
ENDBRANCH   4   5
BRANCH   4   9
HETATM    9  C7  UNL     1     -43.039   5.130   0.467  1.00 20.00     0.023 C 
HETATM   10  C5  UNL     1     -43.417   5.542   1.860  1.00 20.00     0.007 C 
ENDBRANCH   4   9
ENDBRANCH   2   4
TORSDOF 4
ENDMDL
MODEL 8
REMARK VINA RESULT:      -3.4      4.961      6.689
REMARK  4 active torsions:
REMARK  status: ('A' for Active; 'I' for Inactive)
REMARK    1  A    between atoms: C4_4  and  C6_6 
REMARK    2  A    between atoms: C6_6  and  C8_8 
REMARK    3  A    between atoms: C7_7  and  C8_8 
REMARK    4  A    between atoms: C8_8  and  N9_9 
ROOT
HETATM    1  C1  UNL     1     -31.101  18.521  -0.071  1.00 20.00     0.158 C 
HETATM    2  N9  UNL     1     -31.420  18.234  -1.163  1.00 20.00    -0.270 NA
HETATM    3  S10 UNL     1     -30.634  18.898   1.405  1.00 20.00    -0.055 SA
ENDROOT
BRANCH   2   4
HETATM    4  C8  UNL     1     -32.810  18.571  -1.503  1.00 20.00     0.109 C 
BRANCH   4   5
HETATM    5  C6  UNL     1     -33.185  17.845  -2.800  1.00 20.00     0.032 C 
BRANCH   5   6
HETATM    6  C4  UNL     1     -33.334  16.342  -2.607  1.00 20.00    -0.013 A 
HETATM    7  C2  UNL     1     -34.625  15.657  -2.963  1.00 20.00     0.005 A 
HETATM    8  C3  UNL     1     -33.396  15.429  -3.800  1.00 20.00     0.005 A 
ENDBRANCH   5   6
ENDBRANCH   4   5
BRANCH   4   9
HETATM    9  C7  UNL     1     -33.717  18.129  -0.348  1.00 20.00     0.023 C 
HETATM   10  C5  UNL     1     -34.826  19.104  -0.081  1.00 20.00     0.007 C 
ENDBRANCH   4   9
ENDBRANCH   2   4
TORSDOF 4
ENDMDL
MODEL 9
REMARK VINA RESULT:      -3.4      2.607      4.197
REMARK  4 active torsions:
REMARK  status: ('A' for Active; 'I' for Inactive)
REMARK    1  A    between atoms: C4_4  and  C6_6 
REMARK    2  A    between atoms: C6_6  and  C8_8 
REMARK    3  A    between atoms: C7_7  and  C8_8 
REMARK    4  A    between atoms: C8_8  and  N9_9 
ROOT
HETATM    1  C1  UNL     1     -34.033  14.941  -6.441  1.00 20.00     0.158 C 
HETATM    2  N9  UNL     1     -34.034  14.480  -5.362  1.00 20.00    -0.270 NA
HETATM    3  S10 UNL     1     -34.011  15.540  -7.916  1.00 20.00    -0.055 SA
ENDROOT
BRANCH   2   4
HETATM    4  C8  UNL     1     -34.878  15.191  -4.392  1.00 20.00     0.109 C 
BRANCH   4   5
HETATM    5  C6  UNL     1     -36.014  14.259  -3.956  1.00 20.00     0.032 C 
BRANCH   5   6
HETATM    6  C4  UNL     1     -37.275  14.446  -4.788  1.00 20.00    -0.013 A 
HETATM    7  C2  UNL     1     -38.558  14.880  -4.133  1.00 20.00     0.005 A 
HETATM    8  C3  UNL     1     -37.819  15.826  -5.039  1.00 20.00     0.005 A 
ENDBRANCH   5   6
ENDBRANCH   4   5
BRANCH   4   9
HETATM    9  C7  UNL     1     -34.011  15.595  -3.193  1.00 20.00     0.023 C 
HETATM   10  C5  UNL     1     -34.823  16.116  -2.044  1.00 20.00     0.007 C 
ENDBRANCH   4   9
ENDBRANCH   2   4
TORSDOF 4
ENDMDL
