MODEL 1
REMARK VINA RESULT:      -4.3      0.000      0.000
REMARK  3 active torsions:
REMARK  status: ('A' for Active; 'I' for Inactive)
REMARK    1  A    between atoms: C4_4  and  C8_8 
REMARK    2  A    between atoms: C8_8  and  N10_10 
REMARK    3  A    between atoms: C9_9  and  N10_10 
ROOT
HETATM    1  C1  UNL     1     -22.307  16.932   9.058  1.00 20.00     0.015 C 
HETATM    2  C2  UNL     1     -23.135  17.029   9.922  1.00 20.00    -0.076 C 
HETATM    3  C6  UNL     1     -24.477  15.759  11.545  1.00 20.00     0.063 C 
HETATM    4  C7  UNL     1     -23.627  18.051  12.107  1.00 20.00     0.063 C 
HETATM    5  C9  UNL     1     -24.153  17.149  10.986  1.00 20.00     0.212 C 
ENDROOT
BRANCH   5   6
HETATM    6  N10 UNL     1     -25.355  17.736  10.426  1.00 20.00     0.115 N 
HETATM    7  H23 UNL     1     -25.699  17.149   9.663  1.00 20.00     0.319 HD
BRANCH   6   8
HETATM    8  C8  UNL     1     -25.099  19.077   9.913  1.00 20.00     0.365 C 
BRANCH   8   9
HETATM    9  C4  UNL     1     -25.373  19.148   8.475  1.00 20.00    -0.077 C 
HETATM   10  C3  UNL     1     -25.598  19.200   7.296  1.00 20.00    -0.109 C 
HETATM   11  C5  UNL     1     -25.873  19.263   5.862  1.00 20.00     0.112 C 
ENDBRANCH   8   9
ENDBRANCH   6   8
ENDBRANCH   5   6
TORSDOF 3
ENDMDL
MODEL 2
REMARK VINA RESULT:      -4.2      1.134      2.106
REMARK  3 active torsions:
REMARK  status: ('A' for Active; 'I' for Inactive)
REMARK    1  A    between atoms: C4_4  and  C8_8 
REMARK    2  A    between atoms: C8_8  and  N10_10 
REMARK    3  A    between atoms: C9_9  and  N10_10 
ROOT
HETATM    1  C1  UNL     1     -24.750  15.600  11.374  1.00 20.00     0.015 C 
HETATM    2  C2  UNL     1     -24.008  16.515  11.137  1.00 20.00    -0.076 C 
HETATM    3  C6  UNL     1     -22.341  18.030  12.122  1.00 20.00     0.063 C 
HETATM    4  C7  UNL     1     -22.099  17.229   9.758  1.00 20.00     0.063 C 
HETATM    5  C9  UNL     1     -23.096  17.639  10.846  1.00 20.00     0.212 C 
ENDROOT
BRANCH   5   6
HETATM    6  N10 UNL     1     -23.873  18.770  10.380  1.00 20.00     0.115 N 
HETATM    7  H23 UNL     1     -24.869  18.544  10.427  1.00 20.00     0.319 HD
BRANCH   6   8
HETATM    8  C8  UNL     1     -23.530  19.115   9.004  1.00 20.00     0.365 C 
BRANCH   8   9
HETATM    9  C4  UNL     1     -24.705  19.019   8.133  1.00 20.00    -0.077 C 
HETATM   10  C3  UNL     1     -25.665  18.943   7.415  1.00 20.00    -0.109 C 
HETATM   11  C5  UNL     1     -26.832  18.848   6.539  1.00 20.00     0.112 C 
ENDBRANCH   8   9
ENDBRANCH   6   8
ENDBRANCH   5   6
TORSDOF 3
ENDMDL
MODEL 3
REMARK VINA RESULT:      -4.0     11.839     15.200
REMARK  3 active torsions:
REMARK  status: ('A' for Active; 'I' for Inactive)
REMARK    1  A    between atoms: C4_4  and  C8_8 
REMARK    2  A    between atoms: C8_8  and  N10_10 
REMARK    3  A    between atoms: C9_9  and  N10_10 
ROOT
HETATM    1  C1  UNL     1     -34.785  14.024  -3.849  1.00 20.00     0.015 C 
HETATM    2  C2  UNL     1     -34.612  15.113  -3.375  1.00 20.00    -0.076 C 
HETATM    3  C6  UNL     1     -34.966  17.519  -3.736  1.00 20.00     0.063 C 
HETATM    4  C7  UNL     1     -35.095  16.543  -1.430  1.00 20.00     0.063 C 
HETATM    5  C9  UNL     1     -34.399  16.453  -2.792  1.00 20.00     0.212 C 
ENDROOT
BRANCH   5   6
HETATM    6  N10 UNL     1     -32.977  16.673  -2.616  1.00 20.00     0.115 N 
HETATM    7  H23 UNL     1     -32.645  16.133  -1.814  1.00 20.00     0.319 HD
BRANCH   6   8
HETATM    8  C8  UNL     1     -32.684  18.084  -2.391  1.00 20.00     0.365 C 
BRANCH   8   9
HETATM    9  C4  UNL     1     -31.906  18.267  -1.162  1.00 20.00    -0.077 C 
HETATM   10  C3  UNL     1     -31.273  18.416  -0.153  1.00 20.00    -0.109 C 
HETATM   11  C5  UNL     1     -30.502  18.594   1.077  1.00 20.00     0.112 C 
ENDBRANCH   8   9
ENDBRANCH   6   8
ENDBRANCH   5   6
TORSDOF 3
ENDMDL
MODEL 4
REMARK VINA RESULT:      -3.9     15.174     16.087
REMARK  3 active torsions:
REMARK  status: ('A' for Active; 'I' for Inactive)
REMARK    1  A    between atoms: C4_4  and  C8_8 
REMARK    2  A    between atoms: C8_8  and  N10_10 
REMARK    3  A    between atoms: C9_9  and  N10_10 
ROOT
HETATM    1  C1  UNL     1     -33.625   7.167   5.952  1.00 20.00     0.015 C 
HETATM    2  C2  UNL     1     -33.969   6.347   5.145  1.00 20.00    -0.076 C 
HETATM    3  C6  UNL     1     -34.072   3.935   4.680  1.00 20.00     0.063 C 
HETATM    4  C7  UNL     1     -35.896   5.465   3.892  1.00 20.00     0.063 C 
HETATM    5  C9  UNL     1     -34.392   5.338   4.153  1.00 20.00     0.212 C 
ENDROOT
BRANCH   5   6
HETATM    6  N10 UNL     1     -33.673   5.562   2.914  1.00 20.00     0.115 N 
HETATM    7  H23 UNL     1     -33.228   4.692   2.614  1.00 20.00     0.319 HD
BRANCH   6   8
HETATM    8  C8  UNL     1     -32.648   6.587   3.076  1.00 20.00     0.365 C 
BRANCH   8   9
HETATM    9  C4  UNL     1     -32.685   7.545   1.967  1.00 20.00    -0.077 C 
HETATM   10  C3  UNL     1     -32.722   8.327   1.056  1.00 20.00    -0.109 C 
HETATM   11  C5  UNL     1     -32.768   9.280  -0.052  1.00 20.00     0.112 C 
ENDBRANCH   8   9
ENDBRANCH   6   8
ENDBRANCH   5   6
TORSDOF 3
ENDMDL
MODEL 5
REMARK VINA RESULT:      -3.8     15.065     18.158
REMARK  3 active torsions:
REMARK  status: ('A' for Active; 'I' for Inactive)
REMARK    1  A    between atoms: C4_4  and  C8_8 
REMARK    2  A    between atoms: C8_8  and  N10_10 
REMARK    3  A    between atoms: C9_9  and  N10_10 
ROOT
HETATM    1  C1  UNL     1     -34.777  17.981  -6.069  1.00 20.00     0.015 C 
HETATM    2  C2  UNL     1     -34.564  16.816  -6.264  1.00 20.00    -0.076 C 
HETATM    3  C6  UNL     1     -35.606  14.590  -6.345  1.00 20.00     0.063 C 
HETATM    4  C7  UNL     1     -33.746  15.186  -7.918  1.00 20.00     0.063 C 
HETATM    5  C9  UNL     1     -34.303  15.382  -6.504  1.00 20.00     0.212 C 
ENDROOT
BRANCH   5   6
HETATM    6  N10 UNL     1     -33.331  14.910  -5.539  1.00 20.00     0.115 N 
HETATM    7  H23 UNL     1     -32.786  14.147  -5.947  1.00 20.00     0.319 HD
BRANCH   6   8
HETATM    8  C8  UNL     1     -33.982  14.430  -4.325  1.00 20.00     0.365 C 
BRANCH   8   9
HETATM    9  C4  UNL     1     -33.976  15.462  -3.284  1.00 20.00    -0.077 C 
HETATM   10  C3  UNL     1     -33.965  16.310  -2.433  1.00 20.00    -0.109 C 
HETATM   11  C5  UNL     1     -33.951  17.343  -1.399  1.00 20.00     0.112 C 
ENDBRANCH   8   9
ENDBRANCH   6   8
ENDBRANCH   5   6
TORSDOF 3
ENDMDL
MODEL 6
REMARK VINA RESULT:      -3.8     15.145     17.232
REMARK  3 active torsions:
REMARK  status: ('A' for Active; 'I' for Inactive)
REMARK    1  A    between atoms: C4_4  and  C8_8 
REMARK    2  A    between atoms: C8_8  and  N10_10 
REMARK    3  A    between atoms: C9_9  and  N10_10 
ROOT
HETATM    1  C1  UNL     1     -36.559  13.952  -4.445  1.00 20.00     0.015 C 
HETATM    2  C2  UNL     1     -35.497  14.442  -4.721  1.00 20.00    -0.076 C 
HETATM    3  C6  UNL     1     -33.066  14.207  -4.440  1.00 20.00     0.063 C 
HETATM    4  C7  UNL     1     -34.023  15.093  -6.582  1.00 20.00     0.063 C 
HETATM    5  C9  UNL     1     -34.192  15.042  -5.060  1.00 20.00     0.212 C 
ENDROOT
BRANCH   5   6
HETATM    6  N10 UNL     1     -34.139  16.391  -4.530  1.00 20.00     0.115 N 
HETATM    7  H23 UNL     1     -33.759  17.022  -5.238  1.00 20.00     0.319 HD
BRANCH   6   8
HETATM    8  C8  UNL     1     -33.303  16.457  -3.337  1.00 20.00     0.365 C 
BRANCH   8   9
HETATM    9  C4  UNL     1     -34.111  16.739  -2.147  1.00 20.00    -0.077 C 
HETATM   10  C3  UNL     1     -34.774  16.974  -1.173  1.00 20.00    -0.109 C 
HETATM   11  C5  UNL     1     -35.583  17.263   0.010  1.00 20.00     0.112 C 
ENDBRANCH   8   9
ENDBRANCH   6   8
ENDBRANCH   5   6
TORSDOF 3
ENDMDL
MODEL 7
REMARK VINA RESULT:      -3.8     12.641     16.044
REMARK  3 active torsions:
REMARK  status: ('A' for Active; 'I' for Inactive)
REMARK    1  A    between atoms: C4_4  and  C8_8 
REMARK    2  A    between atoms: C8_8  and  N10_10 
REMARK    3  A    between atoms: C9_9  and  N10_10 
ROOT
HETATM    1  C1  UNL     1     -35.501  16.678  -5.949  1.00 20.00     0.015 C 
HETATM    2  C2  UNL     1     -34.784  16.290  -5.067  1.00 20.00    -0.076 C 
HETATM    3  C6  UNL     1     -34.727  15.610  -2.705  1.00 20.00     0.063 C 
HETATM    4  C7  UNL     1     -33.249  14.487  -4.392  1.00 20.00     0.063 C 
HETATM    5  C9  UNL     1     -33.904  15.810  -3.982  1.00 20.00     0.212 C 
ENDROOT
BRANCH   5   6
HETATM    6  N10 UNL     1     -32.872  16.798  -3.740  1.00 20.00     0.115 N 
HETATM    7  H23 UNL     1     -32.070  16.351  -3.290  1.00 20.00     0.319 HD
BRANCH   6   8
HETATM    8  C8  UNL     1     -33.359  17.872  -2.882  1.00 20.00     0.365 C 
BRANCH   8   9
HETATM    9  C4  UNL     1     -32.450  18.092  -1.752  1.00 20.00    -0.077 C 
HETATM   10  C3  UNL     1     -31.707  18.278  -0.828  1.00 20.00    -0.109 C 
HETATM   11  C5  UNL     1     -30.803  18.505   0.299  1.00 20.00     0.112 C 
ENDBRANCH   8   9
ENDBRANCH   6   8
ENDBRANCH   5   6
TORSDOF 3
ENDMDL
MODEL 8
REMARK VINA RESULT:      -3.8     15.106     17.099
REMARK  3 active torsions:
REMARK  status: ('A' for Active; 'I' for Inactive)
REMARK    1  A    between atoms: C4_4  and  C8_8 
REMARK    2  A    between atoms: C8_8  and  N10_10 
REMARK    3  A    between atoms: C9_9  and  N10_10 
ROOT
HETATM    1  C1  UNL     1     -34.070  15.205  -7.528  1.00 20.00     0.015 C 
HETATM    2  C2  UNL     1     -34.073  15.129  -6.329  1.00 20.00    -0.076 C 
HETATM    3  C6  UNL     1     -35.289  14.217  -4.397  1.00 20.00     0.063 C 
HETATM    4  C7  UNL     1     -32.785  14.364  -4.375  1.00 20.00     0.063 C 
HETATM    5  C9  UNL     1     -34.077  15.035  -4.856  1.00 20.00     0.212 C 
ENDROOT
BRANCH   5   6
HETATM    6  N10 UNL     1     -34.157  16.370  -4.296  1.00 20.00     0.115 N 
HETATM    7  H23 UNL     1     -33.822  17.049  -4.983  1.00 20.00     0.319 HD
BRANCH   6   8
HETATM    8  C8  UNL     1     -33.352  16.484  -3.085  1.00 20.00     0.365 C 
BRANCH   8   9
HETATM    9  C4  UNL     1     -34.195  16.782  -1.923  1.00 20.00    -0.077 C 
HETATM   10  C3  UNL     1     -34.882  17.024  -0.968  1.00 20.00    -0.109 C 
HETATM   11  C5  UNL     1     -35.716  17.319   0.196  1.00 20.00     0.112 C 
ENDBRANCH   8   9
ENDBRANCH   6   8
ENDBRANCH   5   6
TORSDOF 3
ENDMDL
MODEL 9
REMARK VINA RESULT:      -3.7     23.476     25.063
REMARK  3 active torsions:
REMARK  status: ('A' for Active; 'I' for Inactive)
REMARK    1  A    between atoms: C4_4  and  C8_8 
REMARK    2  A    between atoms: C8_8  and  N10_10 
REMARK    3  A    between atoms: C9_9  and  N10_10 
ROOT
HETATM    1  C1  UNL     1     -43.417   5.455   1.875  1.00 20.00     0.015 C 
HETATM    2  C2  UNL     1     -42.940   5.774   0.820  1.00 20.00    -0.076 C 
HETATM    3  C6  UNL     1     -43.399   6.924  -1.304  1.00 20.00     0.063 C 
HETATM    4  C7  UNL     1     -41.130   7.059  -0.244  1.00 20.00     0.063 C 
HETATM    5  C9  UNL     1     -42.354   6.167  -0.477  1.00 20.00     0.212 C 
ENDROOT
BRANCH   5   6
HETATM    6  N10 UNL     1     -41.945   4.974  -1.193  1.00 20.00     0.115 N 
HETATM    7  H23 UNL     1     -41.244   5.220  -1.895  1.00 20.00     0.319 HD
BRANCH   6   8
HETATM    8  C8  UNL     1     -43.079   4.342  -1.857  1.00 20.00     0.365 C 
BRANCH   8   9
HETATM    9  C4  UNL     1     -42.631   3.261  -2.740  1.00 20.00    -0.077 C 
HETATM   10  C3  UNL     1     -42.270   2.373  -3.464  1.00 20.00    -0.109 C 
HETATM   11  C5  UNL     1     -41.831   1.292  -4.346  1.00 20.00     0.112 C 
ENDBRANCH   8   9
ENDBRANCH   6   8
ENDBRANCH   5   6
TORSDOF 3
ENDMDL
