MODEL 1
REMARK VINA RESULT:      -4.1      0.000      0.000
REMARK  2 active torsions:
REMARK  status: ('A' for Active; 'I' for Inactive)
REMARK    1  A    between atoms: C7_7  and  N9_9 
REMARK    2  A    between atoms: C8_8  and  N9_9 
ROOT
HETATM    1  C1  UNL     1     -32.932   8.605   0.638  1.00 20.00     0.015 C 
HETATM    2  C2  UNL     1     -32.860   7.883   1.595  1.00 20.00    -0.076 C 
HETATM    3  C5  UNL     1     -32.676   5.537   2.310  1.00 20.00     0.063 C 
HETATM    4  C6  UNL     1     -31.537   7.359   3.605  1.00 20.00     0.063 C 
HETATM    5  C8  UNL     1     -32.772   6.996   2.773  1.00 20.00     0.212 C 
ENDROOT
BRANCH   5   6
HETATM    6  N9  UNL     1     -33.961   7.168   3.584  1.00 20.00     0.108 N 
HETATM    7  H24 UNL     1     -34.789   7.144   2.985  1.00 20.00     0.318 HD
BRANCH   6   8
HETATM    8  C7  UNL     1     -34.073   6.113   4.586  1.00 20.00     0.214 C 
HETATM    9  C3  UNL     1     -35.370   5.349   4.365  1.00 20.00     0.042 C 
HETATM   10  C4  UNL     1     -34.019   6.742   5.971  1.00 20.00     0.042 C 
ENDBRANCH   6   8
ENDBRANCH   5   6
TORSDOF 2
ENDMDL
MODEL 2
REMARK VINA RESULT:      -3.8     10.930     11.638
REMARK  2 active torsions:
REMARK  status: ('A' for Active; 'I' for Inactive)
REMARK    1  A    between atoms: C7_7  and  N9_9 
REMARK    2  A    between atoms: C8_8  and  N9_9 
ROOT
HETATM    1  C1  UNL     1     -36.387  13.634  -4.529  1.00 20.00     0.015 C 
HETATM    2  C2  UNL     1     -35.418  14.323  -4.700  1.00 20.00    -0.076 C 
HETATM    3  C5  UNL     1     -32.974  14.418  -4.447  1.00 20.00     0.063 C 
HETATM    4  C6  UNL     1     -34.100  15.527  -6.395  1.00 20.00     0.063 C 
HETATM    5  C8  UNL     1     -34.226  15.170  -4.911  1.00 20.00     0.212 C 
ENDROOT
BRANCH   5   6
HETATM    6  N9  UNL     1     -34.371  16.389  -4.138  1.00 20.00     0.108 N 
HETATM    7  H24 UNL     1     -35.358  16.651  -4.096  1.00 20.00     0.318 HD
BRANCH   6   8
HETATM    8  C7  UNL     1     -33.871  16.213  -2.779  1.00 20.00     0.214 C 
HETATM    9  C3  UNL     1     -35.047  16.184  -1.814  1.00 20.00     0.042 C 
HETATM   10  C4  UNL     1     -32.907  17.347  -2.459  1.00 20.00     0.042 C 
ENDBRANCH   6   8
ENDBRANCH   5   6
TORSDOF 2
ENDMDL
MODEL 3
REMARK VINA RESULT:      -3.7     10.857     11.661
REMARK  2 active torsions:
REMARK  status: ('A' for Active; 'I' for Inactive)
REMARK    1  A    between atoms: C7_7  and  N9_9 
REMARK    2  A    between atoms: C8_8  and  N9_9 
ROOT
HETATM    1  C1  UNL     1     -34.138  15.290  -7.418  1.00 20.00     0.015 C 
HETATM    2  C2  UNL     1     -34.146  15.131  -6.228  1.00 20.00    -0.076 C 
HETATM    3  C5  UNL     1     -35.313  14.006  -4.378  1.00 20.00     0.063 C 
HETATM    4  C6  UNL     1     -32.825  14.323  -4.313  1.00 20.00     0.063 C 
HETATM    5  C8  UNL     1     -34.155  14.935  -4.763  1.00 20.00     0.212 C 
ENDROOT
BRANCH   5   6
HETATM    6  N9  UNL     1     -34.332  16.220  -4.116  1.00 20.00     0.108 N 
HETATM    7  H24 UNL     1     -35.322  16.474  -4.125  1.00 20.00     0.318 HD
BRANCH   6   8
HETATM    8  C7  UNL     1     -33.868  16.182  -2.734  1.00 20.00     0.214 C 
HETATM    9  C3  UNL     1     -35.066  16.284  -1.801  1.00 20.00     0.042 C 
HETATM   10  C4  UNL     1     -32.884  17.323  -2.514  1.00 20.00     0.042 C 
ENDBRANCH   6   8
ENDBRANCH   5   6
TORSDOF 2
ENDMDL
MODEL 4
REMARK VINA RESULT:      -3.7     11.044     12.461
REMARK  2 active torsions:
REMARK  status: ('A' for Active; 'I' for Inactive)
REMARK    1  A    between atoms: C7_7  and  N9_9 
REMARK    2  A    between atoms: C8_8  and  N9_9 
ROOT
HETATM    1  C1  UNL     1     -34.130  16.642  -1.967  1.00 20.00     0.015 C 
HETATM    2  C2  UNL     1     -34.066  15.998  -2.978  1.00 20.00    -0.076 C 
HETATM    3  C5  UNL     1     -32.641  14.473  -4.280  1.00 20.00     0.063 C 
HETATM    4  C6  UNL     1     -35.133  14.189  -4.264  1.00 20.00     0.063 C 
HETATM    5  C8  UNL     1     -33.987  15.205  -4.223  1.00 20.00     0.212 C 
ENDROOT
BRANCH   5   6
HETATM    6  N9  UNL     1     -34.100  16.098  -5.359  1.00 20.00     0.108 N 
HETATM    7  H24 UNL     1     -33.166  16.341  -5.696  1.00 20.00     0.318 HD
BRANCH   6   8
HETATM    8  C7  UNL     1     -34.847  15.475  -6.447  1.00 20.00     0.214 C 
HETATM    9  C3  UNL     1     -33.909  15.230  -7.620  1.00 20.00     0.042 C 
HETATM   10  C4  UNL     1     -36.005  16.384  -6.832  1.00 20.00     0.042 C 
ENDBRANCH   6   8
ENDBRANCH   5   6
TORSDOF 2
ENDMDL
MODEL 5
REMARK VINA RESULT:      -3.7     10.500     11.638
REMARK  2 active torsions:
REMARK  status: ('A' for Active; 'I' for Inactive)
REMARK    1  A    between atoms: C7_7  and  N9_9 
REMARK    2  A    between atoms: C8_8  and  N9_9 
ROOT
HETATM    1  C1  UNL     1     -38.484  14.701  -4.225  1.00 20.00     0.015 C 
HETATM    2  C2  UNL     1     -37.307  14.702  -4.461  1.00 20.00    -0.076 C 
HETATM    3  C5  UNL     1     -35.201  13.488  -4.088  1.00 20.00     0.063 C 
HETATM    4  C6  UNL     1     -35.633  14.653  -6.267  1.00 20.00     0.063 C 
HETATM    5  C8  UNL     1     -35.858  14.703  -4.752  1.00 20.00     0.212 C 
ENDROOT
BRANCH   5   6
HETATM    6  N9  UNL     1     -35.272  15.919  -4.223  1.00 20.00     0.108 N 
HETATM    7  H24 UNL     1     -36.014  16.577  -3.978  1.00 20.00     0.318 HD
BRANCH   6   8
HETATM    8  C7  UNL     1     -34.472  15.644  -3.034  1.00 20.00     0.214 C 
HETATM    9  C3  UNL     1     -35.156  16.257  -1.820  1.00 20.00     0.042 C 
HETATM   10  C4  UNL     1     -33.075  16.210  -3.239  1.00 20.00     0.042 C 
ENDBRANCH   6   8
ENDBRANCH   5   6
TORSDOF 2
ENDMDL
MODEL 6
REMARK VINA RESULT:      -3.6     10.862     11.753
REMARK  2 active torsions:
REMARK  status: ('A' for Active; 'I' for Inactive)
REMARK    1  A    between atoms: C7_7  and  N9_9 
REMARK    2  A    between atoms: C8_8  and  N9_9 
ROOT
HETATM    1  C1  UNL     1     -33.926  15.022  -6.730  1.00 20.00     0.015 C 
HETATM    2  C2  UNL     1     -34.640  14.997  -5.765  1.00 20.00    -0.076 C 
HETATM    3  C5  UNL     1     -36.431  16.198  -4.582  1.00 20.00     0.063 C 
HETATM    4  C6  UNL     1     -36.366  13.690  -4.591  1.00 20.00     0.063 C 
HETATM    5  C8  UNL     1     -35.518  14.967  -4.576  1.00 20.00     0.212 C 
ENDROOT
BRANCH   5   6
HETATM    6  N9  UNL     1     -34.697  14.980  -3.382  1.00 20.00     0.108 N 
HETATM    7  H24 UNL     1     -33.777  14.590  -3.596  1.00 20.00     0.318 HD
BRANCH   6   8
HETATM    8  C7  UNL     1     -34.528  16.338  -2.875  1.00 20.00     0.214 C 
HETATM    9  C3  UNL     1     -33.055  16.716  -2.941  1.00 20.00     0.042 C 
HETATM   10  C4  UNL     1     -35.061  16.401  -1.451  1.00 20.00     0.042 C 
ENDBRANCH   6   8
ENDBRANCH   5   6
TORSDOF 2
ENDMDL
MODEL 7
REMARK VINA RESULT:      -3.5     11.089     12.057
REMARK  2 active torsions:
REMARK  status: ('A' for Active; 'I' for Inactive)
REMARK    1  A    between atoms: C7_7  and  N9_9 
REMARK    2  A    between atoms: C8_8  and  N9_9 
ROOT
HETATM    1  C1  UNL     1     -35.142  16.595  -1.209  1.00 20.00     0.015 C 
HETATM    2  C2  UNL     1     -34.770  16.520  -2.348  1.00 20.00    -0.076 C 
HETATM    3  C5  UNL     1     -33.731  17.777  -4.189  1.00 20.00     0.063 C 
HETATM    4  C6  UNL     1     -33.243  15.336  -3.875  1.00 20.00     0.063 C 
HETATM    5  C8  UNL     1     -34.311  16.428  -3.750  1.00 20.00     0.212 C 
ENDROOT
BRANCH   5   6
HETATM    6  N9  UNL     1     -35.440  16.089  -4.594  1.00 20.00     0.108 N 
HETATM    7  H24 UNL     1     -35.487  16.741  -5.379  1.00 20.00     0.318 HD
BRANCH   6   8
HETATM    8  C7  UNL     1     -35.321  14.731  -5.114  1.00 20.00     0.214 C 
HETATM    9  C3  UNL     1     -35.481  14.761  -6.628  1.00 20.00     0.042 C 
HETATM   10  C4  UNL     1     -36.376  13.856  -4.453  1.00 20.00     0.042 C 
ENDBRANCH   6   8
ENDBRANCH   5   6
TORSDOF 2
ENDMDL
MODEL 8
REMARK VINA RESULT:      -3.5     10.787     11.566
REMARK  2 active torsions:
REMARK  status: ('A' for Active; 'I' for Inactive)
REMARK    1  A    between atoms: C7_7  and  N9_9 
REMARK    2  A    between atoms: C8_8  and  N9_9 
ROOT
HETATM    1  C1  UNL     1     -35.645  17.289   0.023  1.00 20.00     0.015 C 
HETATM    2  C2  UNL     1     -35.106  17.066  -1.027  1.00 20.00    -0.076 C 
HETATM    3  C5  UNL     1     -35.178  17.536  -3.440  1.00 20.00     0.063 C 
HETATM    4  C6  UNL     1     -32.982  17.253  -2.259  1.00 20.00     0.063 C 
HETATM    5  C8  UNL     1     -34.443  16.792  -2.319  1.00 20.00     0.212 C 
ENDROOT
BRANCH   5   6
HETATM    6  N9  UNL     1     -34.483  15.367  -2.577  1.00 20.00     0.108 N 
HETATM    7  H24 UNL     1     -35.297  14.959  -2.114  1.00 20.00     0.318 HD
BRANCH   6   8
HETATM    8  C7  UNL     1     -34.568  15.092  -4.008  1.00 20.00     0.214 C 
HETATM    9  C3  UNL     1     -35.693  14.099  -4.260  1.00 20.00     0.042 C 
HETATM   10  C4  UNL     1     -33.226  14.557  -4.486  1.00 20.00     0.042 C 
ENDBRANCH   6   8
ENDBRANCH   5   6
TORSDOF 2
ENDMDL
MODEL 9
REMARK VINA RESULT:      -3.5      0.441      2.084
REMARK  2 active torsions:
REMARK  status: ('A' for Active; 'I' for Inactive)
REMARK    1  A    between atoms: C7_7  and  N9_9 
REMARK    2  A    between atoms: C8_8  and  N9_9 
ROOT
HETATM    1  C1  UNL     1     -32.896   4.345   2.100  1.00 20.00     0.015 C 
HETATM    2  C2  UNL     1     -32.894   5.505   2.412  1.00 20.00    -0.076 C 
HETATM    3  C5  UNL     1     -31.575   7.271   3.502  1.00 20.00     0.063 C 
HETATM    4  C6  UNL     1     -33.052   7.804   1.545  1.00 20.00     0.063 C 
HETATM    5  C8  UNL     1     -32.892   6.932   2.795  1.00 20.00     0.212 C 
ENDROOT
BRANCH   5   6
HETATM    6  N9  UNL     1     -34.002   7.181   3.694  1.00 20.00     0.108 N 
HETATM    7  H24 UNL     1     -34.876   7.185   3.166  1.00 20.00     0.318 HD
BRANCH   6   8
HETATM    8  C7  UNL     1     -34.081   6.155   4.729  1.00 20.00     0.214 C 
HETATM    9  C3  UNL     1     -35.373   5.370   4.557  1.00 20.00     0.042 C 
HETATM   10  C4  UNL     1     -34.006   6.825   6.093  1.00 20.00     0.042 C 
ENDBRANCH   6   8
ENDBRANCH   5   6
TORSDOF 2
ENDMDL
