MODEL 1
REMARK VINA RESULT:      -4.6      0.000      0.000
REMARK  1 active torsions:
REMARK  status: ('A' for Active; 'I' for Inactive)
REMARK    1  A    between atoms: C10_10  and  N11_11 
ROOT
HETATM    1  C1  UNL     1     -35.532  17.141   0.610  1.00 20.00     0.015 C 
HETATM    2  C2  UNL     1     -35.207  17.148  -0.546  1.00 20.00    -0.076 C 
HETATM    3  C8  UNL     1     -35.425  18.373  -2.667  1.00 20.00     0.063 C 
HETATM    4  C9  UNL     1     -33.280  17.215  -2.077  1.00 20.00     0.063 C 
HETATM    5  C10 UNL     1     -34.807  17.157  -1.967  1.00 20.00     0.214 C 
ENDROOT
BRANCH   5   6
HETATM    6  N11 UNL     1     -35.287  15.931  -2.606  1.00 20.00     0.110 N 
HETATM    7  C6  UNL     1     -34.198  15.284  -3.354  1.00 20.00     0.282 C 
HETATM    8  C4  UNL     1     -34.647  13.955  -3.953  1.00 20.00     0.108 C 
HETATM    9  C3  UNL     1     -35.911  14.139  -4.759  1.00 20.00     0.130 C 
HETATM   10  C5  UNL     1     -36.999  14.955  -4.104  1.00 20.00     0.108 C 
HETATM   11  O12 UNL     1     -36.085  13.565  -5.832  1.00 20.00    -0.298 OA
HETATM   12  C7  UNL     1     -36.419  16.228  -3.497  1.00 20.00     0.282 C 
ENDBRANCH   5   6
TORSDOF 1
ENDMDL
MODEL 2
REMARK VINA RESULT:      -4.5      1.120      1.215
REMARK  1 active torsions:
REMARK  status: ('A' for Active; 'I' for Inactive)
REMARK    1  A    between atoms: C10_10  and  N11_11 
ROOT
HETATM    1  C1  UNL     1     -35.340  17.341   0.752  1.00 20.00     0.015 C 
HETATM    2  C2  UNL     1     -34.761  17.454  -0.294  1.00 20.00    -0.076 C 
HETATM    3  C8  UNL     1     -34.679  18.728  -2.395  1.00 20.00     0.063 C 
HETATM    4  C9  UNL     1     -32.569  17.898  -1.323  1.00 20.00     0.063 C 
HETATM    5  C10 UNL     1     -34.048  17.594  -1.579  1.00 20.00     0.214 C 
ENDROOT
BRANCH   5   6
HETATM    6  N11 UNL     1     -34.157  16.339  -2.325  1.00 20.00     0.110 N 
HETATM    7  C6  UNL     1     -33.158  16.297  -3.403  1.00 20.00     0.282 C 
HETATM    8  C4  UNL     1     -33.187  14.960  -4.137  1.00 20.00     0.108 C 
HETATM    9  C3  UNL     1     -34.590  14.640  -4.597  1.00 20.00     0.130 C 
HETATM   10  C5  UNL     1     -35.682  14.841  -3.574  1.00 20.00     0.108 C 
HETATM   11  O12 UNL     1     -34.814  14.139  -5.696  1.00 20.00    -0.298 OA
HETATM   12  C7  UNL     1     -35.514  16.185  -2.871  1.00 20.00     0.282 C 
ENDBRANCH   5   6
TORSDOF 1
ENDMDL
MODEL 3
REMARK VINA RESULT:      -4.5      1.007      1.761
REMARK  1 active torsions:
REMARK  status: ('A' for Active; 'I' for Inactive)
REMARK    1  A    between atoms: C10_10  and  N11_11 
ROOT
HETATM    1  C1  UNL     1     -35.477  17.073   0.028  1.00 20.00     0.015 C 
HETATM    2  C2  UNL     1     -35.027  17.243  -1.073  1.00 20.00    -0.076 C 
HETATM    3  C8  UNL     1     -34.648  18.919  -2.831  1.00 20.00     0.063 C 
HETATM    4  C9  UNL     1     -32.985  17.083  -2.440  1.00 20.00     0.063 C 
HETATM    5  C10 UNL     1     -34.472  17.452  -2.425  1.00 20.00     0.214 C 
ENDROOT
BRANCH   5   6
HETATM    6  N11 UNL     1     -35.187  16.595  -3.372  1.00 20.00     0.110 N 
HETATM    7  C6  UNL     1     -36.628  16.889  -3.337  1.00 20.00     0.282 C 
HETATM    8  C4  UNL     1     -37.387  16.076  -4.382  1.00 20.00     0.108 C 
HETATM    9  C3  UNL     1     -37.063  14.607  -4.246  1.00 20.00     0.130 C 
HETATM   10  C5  UNL     1     -35.600  14.264  -4.096  1.00 20.00     0.108 C 
HETATM   11  O12 UNL     1     -37.924  13.739  -4.365  1.00 20.00    -0.298 OA
HETATM   12  C7  UNL     1     -34.941  15.178  -3.067  1.00 20.00     0.282 C 
ENDBRANCH   5   6
TORSDOF 1
ENDMDL
MODEL 4
REMARK VINA RESULT:      -4.5      1.384      2.141
REMARK  1 active torsions:
REMARK  status: ('A' for Active; 'I' for Inactive)
REMARK    1  A    between atoms: C10_10  and  N11_11 
ROOT
HETATM    1  C1  UNL     1     -32.185  18.388  -0.260  1.00 20.00     0.015 C 
HETATM    2  C2  UNL     1     -33.220  17.997  -0.727  1.00 20.00    -0.076 C 
HETATM    3  C8  UNL     1     -35.461  17.149  -0.169  1.00 20.00     0.063 C 
HETATM    4  C9  UNL     1     -35.113  18.608  -2.179  1.00 20.00     0.063 C 
HETATM    5  C10 UNL     1     -34.494  17.516  -1.301  1.00 20.00     0.214 C 
ENDROOT
BRANCH   5   6
HETATM    6  N11 UNL     1     -34.231  16.333  -2.121  1.00 20.00     0.110 N 
HETATM    7  C6  UNL     1     -33.194  16.625  -3.122  1.00 20.00     0.282 C 
HETATM    8  C4  UNL     1     -32.833  15.382  -3.929  1.00 20.00     0.108 C 
HETATM    9  C3  UNL     1     -34.076  14.751  -4.510  1.00 20.00     0.130 C 
HETATM   10  C5  UNL     1     -35.241  14.593  -3.563  1.00 20.00     0.108 C 
HETATM   11  O12 UNL     1     -34.099  14.291  -5.649  1.00 20.00    -0.298 OA
HETATM   12  C7  UNL     1     -35.468  15.880  -2.776  1.00 20.00     0.282 C 
ENDBRANCH   5   6
TORSDOF 1
ENDMDL
MODEL 5
REMARK VINA RESULT:      -4.4      0.877      2.447
REMARK  1 active torsions:
REMARK  status: ('A' for Active; 'I' for Inactive)
REMARK    1  A    between atoms: C10_10  and  N11_11 
ROOT
HETATM    1  C1  UNL     1     -32.549  18.653  -2.488  1.00 20.00     0.015 C 
HETATM    2  C2  UNL     1     -33.647  18.170  -2.424  1.00 20.00    -0.076 C 
HETATM    3  C8  UNL     1     -35.216  16.983  -0.948  1.00 20.00     0.063 C 
HETATM    4  C9  UNL     1     -36.053  18.651  -2.623  1.00 20.00     0.063 C 
HETATM    5  C10 UNL     1     -34.997  17.577  -2.344  1.00 20.00     0.214 C 
ENDROOT
BRANCH   5   6
HETATM    6  N11 UNL     1     -35.113  16.518  -3.347  1.00 20.00     0.110 N 
HETATM    7  C6  UNL     1     -36.508  16.063  -3.451  1.00 20.00     0.282 C 
HETATM    8  C4  UNL     1     -36.674  15.024  -4.556  1.00 20.00     0.108 C 
HETATM    9  C3  UNL     1     -35.681  13.900  -4.378  1.00 20.00     0.130 C 
HETATM   10  C5  UNL     1     -34.258  14.316  -4.088  1.00 20.00     0.108 C 
HETATM   11  O12 UNL     1     -35.988  12.726  -4.570  1.00 20.00    -0.298 OA
HETATM   12  C7  UNL     1     -34.227  15.394  -3.009  1.00 20.00     0.282 C 
ENDBRANCH   5   6
TORSDOF 1
ENDMDL
MODEL 6
REMARK VINA RESULT:      -4.3      1.614      2.980
REMARK  1 active torsions:
REMARK  status: ('A' for Active; 'I' for Inactive)
REMARK    1  A    between atoms: C10_10  and  N11_11 
ROOT
HETATM    1  C1  UNL     1     -33.466  19.021  -4.308  1.00 20.00     0.015 C 
HETATM    2  C2  UNL     1     -33.724  17.932  -3.872  1.00 20.00    -0.076 C 
HETATM    3  C8  UNL     1     -32.833  15.667  -3.521  1.00 20.00     0.063 C 
HETATM    4  C9  UNL     1     -34.391  16.699  -1.848  1.00 20.00     0.063 C 
HETATM    5  C10 UNL     1     -34.041  16.593  -3.336  1.00 20.00     0.214 C 
ENDROOT
BRANCH   5   6
HETATM    6  N11 UNL     1     -35.188  16.047  -4.062  1.00 20.00     0.110 N 
HETATM    7  C6  UNL     1     -36.441  16.600  -3.525  1.00 20.00     0.282 C 
HETATM    8  C4  UNL     1     -37.648  16.120  -4.325  1.00 20.00     0.108 C 
HETATM    9  C3  UNL     1     -37.646  14.613  -4.431  1.00 20.00     0.130 C 
HETATM   10  C5  UNL     1     -36.328  13.980  -4.806  1.00 20.00     0.108 C 
HETATM   11  O12 UNL     1     -38.678  13.954  -4.332  1.00 20.00    -0.298 OA
HETATM   12  C7  UNL     1     -35.194  14.579  -3.979  1.00 20.00     0.282 C 
ENDBRANCH   5   6
TORSDOF 1
ENDMDL
MODEL 7
REMARK VINA RESULT:      -4.3      2.739      4.744
REMARK  1 active torsions:
REMARK  status: ('A' for Active; 'I' for Inactive)
REMARK    1  A    between atoms: C10_10  and  N11_11 
ROOT
HETATM    1  C1  UNL     1     -34.564  16.047  -6.992  1.00 20.00     0.015 C 
HETATM    2  C2  UNL     1     -34.431  15.622  -5.876  1.00 20.00    -0.076 C 
HETATM    3  C8  UNL     1     -35.374  14.080  -4.209  1.00 20.00     0.063 C 
HETATM    4  C9  UNL     1     -32.895  14.431  -4.365  1.00 20.00     0.063 C 
HETATM    5  C10 UNL     1     -34.267  15.098  -4.505  1.00 20.00     0.214 C 
ENDROOT
BRANCH   5   6
HETATM    6  N11 UNL     1     -34.360  16.208  -3.556  1.00 20.00     0.110 N 
HETATM    7  C6  UNL     1     -33.018  16.719  -3.235  1.00 20.00     0.282 C 
HETATM    8  C4  UNL     1     -33.091  17.938  -2.320  1.00 20.00     0.108 C 
HETATM    9  C3  UNL     1     -33.932  17.634  -1.103  1.00 20.00     0.130 C 
HETATM   10  C5  UNL     1     -35.248  16.942  -1.365  1.00 20.00     0.108 C 
HETATM   11  O12 UNL     1     -33.618  18.029   0.017  1.00 20.00    -0.298 OA
HETATM   12  C7  UNL     1     -35.055  15.779  -2.333  1.00 20.00     0.282 C 
ENDBRANCH   5   6
TORSDOF 1
ENDMDL
MODEL 8
REMARK VINA RESULT:      -4.0      2.229      3.568
REMARK  1 active torsions:
REMARK  status: ('A' for Active; 'I' for Inactive)
REMARK    1  A    between atoms: C10_10  and  N11_11 
ROOT
HETATM    1  C1  UNL     1     -34.792  16.272  -1.806  1.00 20.00     0.015 C 
HETATM    2  C2  UNL     1     -34.665  15.647  -2.824  1.00 20.00    -0.076 C 
HETATM    3  C8  UNL     1     -33.018  14.699  -4.385  1.00 20.00     0.063 C 
HETATM    4  C9  UNL     1     -35.175  13.505  -3.926  1.00 20.00     0.063 C 
HETATM    5  C10 UNL     1     -34.509  14.876  -4.074  1.00 20.00     0.214 C 
ENDROOT
BRANCH   5   6
HETATM    6  N11 UNL     1     -35.151  15.607  -5.167  1.00 20.00     0.110 N 
HETATM    7  C6  UNL     1     -36.481  16.080  -4.754  1.00 20.00     0.282 C 
HETATM    8  C4  UNL     1     -37.135  16.925  -5.843  1.00 20.00     0.108 C 
HETATM    9  C3  UNL     1     -37.137  16.181  -7.158  1.00 20.00     0.130 C 
HETATM   10  C5  UNL     1     -35.836  15.520  -7.545  1.00 20.00     0.108 C 
HETATM   11  O12 UNL     1     -38.102  16.211  -7.918  1.00 20.00    -0.298 OA
HETATM   12  C7  UNL     1     -35.255  14.753  -6.361  1.00 20.00     0.282 C 
ENDBRANCH   5   6
TORSDOF 1
ENDMDL
MODEL 9
REMARK VINA RESULT:      -4.0      2.442      4.451
REMARK  1 active torsions:
REMARK  status: ('A' for Active; 'I' for Inactive)
REMARK    1  A    between atoms: C10_10  and  N11_11 
ROOT
HETATM    1  C1  UNL     1     -38.205  14.757  -4.205  1.00 20.00     0.015 C 
HETATM    2  C2  UNL     1     -37.013  14.807  -4.343  1.00 20.00    -0.076 C 
HETATM    3  C8  UNL     1     -34.914  13.582  -3.968  1.00 20.00     0.063 C 
HETATM    4  C9  UNL     1     -35.202  15.027  -5.997  1.00 20.00     0.063 C 
HETATM    5  C10 UNL     1     -35.547  14.867  -4.513  1.00 20.00     0.214 C 
ENDROOT
BRANCH   5   6
HETATM    6  N11 UNL     1     -35.028  16.018  -3.773  1.00 20.00     0.110 N 
HETATM    7  C6  UNL     1     -33.660  16.333  -4.213  1.00 20.00     0.282 C 
HETATM    8  C4  UNL     1     -33.129  17.587  -3.524  1.00 20.00     0.108 C 
HETATM    9  C3  UNL     1     -33.272  17.467  -2.025  1.00 20.00     0.130 C 
HETATM   10  C5  UNL     1     -34.608  16.971  -1.527  1.00 20.00     0.108 C 
HETATM   11  O12 UNL     1     -32.396  17.857  -1.257  1.00 20.00    -0.298 OA
HETATM   12  C7  UNL     1     -35.057  15.751  -2.327  1.00 20.00     0.282 C 
ENDBRANCH   5   6
TORSDOF 1
ENDMDL
