MODEL 1
REMARK VINA RESULT:      -4.9      0.000      0.000
REMARK  3 active torsions:
REMARK  status: ('A' for Active; 'I' for Inactive)
REMARK    1  A    between atoms: C2_2  and  C6_6 
REMARK    2  A    between atoms: C2_2  and  C7_7 
REMARK    3  A    between atoms: C7_7  and  C8_8 
ROOT
HETATM    1  C1  UNL     1     -32.753   8.532   0.987  1.00 20.00     0.066 C 
HETATM    2  C6  UNL     1     -32.600   7.137   1.408  1.00 20.00     0.202 C 
HETATM    3  N9  UNL     1     -32.876   9.636   0.649  1.00 20.00    -0.197 NA
ENDROOT
BRANCH   2   4
HETATM    4  C2  UNL     1     -32.374   7.005   2.904  1.00 20.00     0.143 C 
HETATM    5  O10 UNL     1     -31.686   7.801   3.543  1.00 20.00    -0.297 OA
BRANCH   4   6
HETATM    6  C7  UNL     1     -33.082   5.834   3.591  1.00 20.00     0.055 C 
HETATM    7  C3  UNL     1     -33.441   4.819   2.505  1.00 20.00     0.018 C 
BRANCH   6   8
HETATM    8  C8  UNL     1     -34.304   6.326   4.407  1.00 20.00    -0.012 C 
HETATM    9  C4  UNL     1     -33.896   6.681   5.844  1.00 20.00     0.010 C 
HETATM   10  C5  UNL     1     -35.429   5.287   4.454  1.00 20.00     0.010 C 
ENDBRANCH   6   8
ENDBRANCH   4   6
ENDBRANCH   2   4
TORSDOF 3
ENDMDL
MODEL 2
REMARK VINA RESULT:      -4.6      1.347      2.078
REMARK  3 active torsions:
REMARK  status: ('A' for Active; 'I' for Inactive)
REMARK    1  A    between atoms: C2_2  and  C6_6 
REMARK    2  A    between atoms: C2_2  and  C7_7 
REMARK    3  A    between atoms: C7_7  and  C8_8 
ROOT
HETATM    1  C1  UNL     1     -32.520   8.112   1.338  1.00 20.00     0.066 C 
HETATM    2  C6  UNL     1     -32.017   7.377   2.502  1.00 20.00     0.202 C 
HETATM    3  N9  UNL     1     -32.915   8.697   0.416  1.00 20.00    -0.197 NA
ENDROOT
BRANCH   2   4
HETATM    4  C2  UNL     1     -32.956   6.266   2.936  1.00 20.00     0.143 C 
HETATM    5  O10 UNL     1     -32.946   5.150   2.416  1.00 20.00    -0.297 OA
BRANCH   4   6
HETATM    6  C7  UNL     1     -33.906   6.600   4.089  1.00 20.00     0.055 C 
HETATM    7  C3  UNL     1     -33.090   7.335   5.152  1.00 20.00     0.018 C 
BRANCH   6   8
HETATM    8  C8  UNL     1     -34.606   5.323   4.619  1.00 20.00    -0.012 C 
HETATM    9  C4  UNL     1     -36.018   5.189   4.034  1.00 20.00     0.010 C 
HETATM   10  C5  UNL     1     -34.699   5.303   6.149  1.00 20.00     0.010 C 
ENDBRANCH   6   8
ENDBRANCH   4   6
ENDBRANCH   2   4
TORSDOF 3
ENDMDL
MODEL 3
REMARK VINA RESULT:      -4.5     10.622     11.636
REMARK  3 active torsions:
REMARK  status: ('A' for Active; 'I' for Inactive)
REMARK    1  A    between atoms: C2_2  and  C6_6 
REMARK    2  A    between atoms: C2_2  and  C7_7 
REMARK    3  A    between atoms: C7_7  and  C8_8 
ROOT
HETATM    1  C1  UNL     1     -36.744  13.837  -4.380  1.00 20.00     0.066 C 
HETATM    2  C6  UNL     1     -35.302  13.609  -4.246  1.00 20.00     0.202 C 
HETATM    3  N9  UNL     1     -37.887  14.014  -4.484  1.00 20.00    -0.197 NA
ENDROOT
BRANCH   2   4
HETATM    4  C2  UNL     1     -34.481  14.775  -4.766  1.00 20.00     0.143 C 
HETATM    5  O10 UNL     1     -33.705  14.667  -5.716  1.00 20.00    -0.297 OA
BRANCH   4   6
HETATM    6  C7  UNL     1     -34.695  16.117  -4.061  1.00 20.00     0.055 C 
HETATM    7  C3  UNL     1     -34.154  17.208  -4.986  1.00 20.00     0.018 C 
BRANCH   6   8
HETATM    8  C8  UNL     1     -34.042  16.117  -2.656  1.00 20.00    -0.012 C 
HETATM    9  C4  UNL     1     -35.097  16.338  -1.562  1.00 20.00     0.010 C 
HETATM   10  C5  UNL     1     -32.954  17.186  -2.519  1.00 20.00     0.010 C 
ENDBRANCH   6   8
ENDBRANCH   4   6
ENDBRANCH   2   4
TORSDOF 3
ENDMDL
MODEL 4
REMARK VINA RESULT:      -4.4     10.964     11.705
REMARK  3 active torsions:
REMARK  status: ('A' for Active; 'I' for Inactive)
REMARK    1  A    between atoms: C2_2  and  C6_6 
REMARK    2  A    between atoms: C2_2  and  C7_7 
REMARK    3  A    between atoms: C7_7  and  C8_8 
ROOT
HETATM    1  C1  UNL     1     -36.440  13.790  -4.475  1.00 20.00     0.066 C 
HETATM    2  C6  UNL     1     -37.162  15.057  -4.328  1.00 20.00     0.202 C 
HETATM    3  N9  UNL     1     -35.871  12.785  -4.593  1.00 20.00    -0.197 NA
ENDROOT
BRANCH   2   4
HETATM    4  C2  UNL     1     -36.287  16.161  -3.762  1.00 20.00     0.143 C 
HETATM    5  O10 UNL     1     -36.556  17.354  -3.898  1.00 20.00    -0.297 OA
BRANCH   4   6
HETATM    6  C7  UNL     1     -35.055  15.706  -2.976  1.00 20.00     0.055 C 
HETATM    7  C3  UNL     1     -35.187  16.266  -1.559  1.00 20.00     0.018 C 
BRANCH   6   8
HETATM    8  C8  UNL     1     -33.750  16.136  -3.692  1.00 20.00    -0.012 C 
HETATM    9  C4  UNL     1     -32.946  14.910  -4.147  1.00 20.00     0.010 C 
HETATM   10  C5  UNL     1     -32.859  17.010  -2.803  1.00 20.00     0.010 C 
ENDBRANCH   6   8
ENDBRANCH   4   6
ENDBRANCH   2   4
TORSDOF 3
ENDMDL
MODEL 5
REMARK VINA RESULT:      -4.4      0.657      1.764
REMARK  3 active torsions:
REMARK  status: ('A' for Active; 'I' for Inactive)
REMARK    1  A    between atoms: C2_2  and  C6_6 
REMARK    2  A    between atoms: C2_2  and  C7_7 
REMARK    3  A    between atoms: C7_7  and  C8_8 
ROOT
HETATM    1  C1  UNL     1     -32.741   8.467   1.066  1.00 20.00     0.066 C 
HETATM    2  C6  UNL     1     -32.585   7.131   1.648  1.00 20.00     0.202 C 
HETATM    3  N9  UNL     1     -32.865   9.523   0.601  1.00 20.00    -0.197 NA
ENDROOT
BRANCH   2   4
HETATM    4  C2  UNL     1     -32.521   7.163   3.165  1.00 20.00     0.143 C 
HETATM    5  O10 UNL     1     -31.504   7.490   3.777  1.00 20.00    -0.297 OA
BRANCH   4   6
HETATM    6  C7  UNL     1     -33.811   6.794   3.901  1.00 20.00     0.055 C 
HETATM    7  C3  UNL     1     -33.538   6.940   5.398  1.00 20.00     0.018 C 
BRANCH   6   8
HETATM    8  C8  UNL     1     -34.298   5.381   3.496  1.00 20.00    -0.012 C 
HETATM    9  C4  UNL     1     -34.816   4.608   4.717  1.00 20.00     0.010 C 
HETATM   10  C5  UNL     1     -33.197   4.558   2.818  1.00 20.00     0.010 C 
ENDBRANCH   6   8
ENDBRANCH   4   6
ENDBRANCH   2   4
TORSDOF 3
ENDMDL
MODEL 6
REMARK VINA RESULT:      -4.3     10.584     11.632
REMARK  3 active torsions:
REMARK  status: ('A' for Active; 'I' for Inactive)
REMARK    1  A    between atoms: C2_2  and  C6_6 
REMARK    2  A    between atoms: C2_2  and  C7_7 
REMARK    3  A    between atoms: C7_7  and  C8_8 
ROOT
HETATM    1  C1  UNL     1     -35.751  13.836  -4.231  1.00 20.00     0.066 C 
HETATM    2  C6  UNL     1     -35.444  15.234  -3.917  1.00 20.00     0.202 C 
HETATM    3  N9  UNL     1     -35.999  12.730  -4.481  1.00 20.00    -0.197 NA
ENDROOT
BRANCH   2   4
HETATM    4  C2  UNL     1     -33.987  15.436  -3.538  1.00 20.00     0.143 C 
HETATM    5  O10 UNL     1     -33.060  14.954  -4.189  1.00 20.00    -0.297 OA
BRANCH   4   6
HETATM    6  C7  UNL     1     -33.727  16.309  -2.307  1.00 20.00     0.055 C 
HETATM    7  C3  UNL     1     -35.079  16.583  -1.650  1.00 20.00     0.018 C 
BRANCH   6   8
HETATM    8  C8  UNL     1     -32.952  17.594  -2.691  1.00 20.00    -0.012 C 
HETATM    9  C4  UNL     1     -32.256  18.202  -1.465  1.00 20.00     0.010 C 
HETATM   10  C5  UNL     1     -33.861  18.654  -3.322  1.00 20.00     0.010 C 
ENDBRANCH   6   8
ENDBRANCH   4   6
ENDBRANCH   2   4
TORSDOF 3
ENDMDL
MODEL 7
REMARK VINA RESULT:      -4.3     10.561     12.039
REMARK  3 active torsions:
REMARK  status: ('A' for Active; 'I' for Inactive)
REMARK    1  A    between atoms: C2_2  and  C6_6 
REMARK    2  A    between atoms: C2_2  and  C7_7 
REMARK    3  A    between atoms: C7_7  and  C8_8 
ROOT
HETATM    1  C1  UNL     1     -37.454  14.415  -4.100  1.00 20.00     0.066 C 
HETATM    2  C6  UNL     1     -36.147  14.827  -3.581  1.00 20.00     0.202 C 
HETATM    3  N9  UNL     1     -38.491  14.092  -4.509  1.00 20.00    -0.197 NA
ENDROOT
BRANCH   2   4
HETATM    4  C2  UNL     1     -35.012  13.980  -4.129  1.00 20.00     0.143 C 
HETATM    5  O10 UNL     1     -34.989  12.754  -4.020  1.00 20.00    -0.297 OA
BRANCH   4   6
HETATM    6  C7  UNL     1     -33.901  14.736  -4.862  1.00 20.00     0.055 C 
HETATM    7  C3  UNL     1     -33.181  15.600  -3.828  1.00 20.00     0.018 C 
BRANCH   6   8
HETATM    8  C8  UNL     1     -34.472  15.543  -6.055  1.00 20.00    -0.012 C 
HETATM    9  C4  UNL     1     -33.781  15.146  -7.367  1.00 20.00     0.010 C 
HETATM   10  C5  UNL     1     -34.327  17.055  -5.856  1.00 20.00     0.010 C 
ENDBRANCH   6   8
ENDBRANCH   4   6
ENDBRANCH   2   4
TORSDOF 3
ENDMDL
MODEL 8
REMARK VINA RESULT:      -4.2     10.934     11.632
REMARK  3 active torsions:
REMARK  status: ('A' for Active; 'I' for Inactive)
REMARK    1  A    between atoms: C2_2  and  C6_6 
REMARK    2  A    between atoms: C2_2  and  C7_7 
REMARK    3  A    between atoms: C7_7  and  C8_8 
ROOT
HETATM    1  C1  UNL     1     -38.041  15.785  -4.145  1.00 20.00     0.066 C 
HETATM    2  C6  UNL     1     -37.846  14.368  -4.463  1.00 20.00     0.202 C 
HETATM    3  N9  UNL     1     -38.201  16.907  -3.893  1.00 20.00    -0.197 NA
ENDROOT
BRANCH   2   4
HETATM    4  C2  UNL     1     -36.378  13.979  -4.498  1.00 20.00     0.143 C 
HETATM    5  O10 UNL     1     -36.004  12.807  -4.506  1.00 20.00    -0.297 OA
BRANCH   4   6
HETATM    6  C7  UNL     1     -35.377  15.136  -4.557  1.00 20.00     0.055 C 
HETATM    7  C3  UNL     1     -34.639  15.032  -5.892  1.00 20.00     0.018 C 
BRANCH   6   8
HETATM    8  C8  UNL     1     -34.436  15.119  -3.326  1.00 20.00    -0.012 C 
HETATM    9  C4  UNL     1     -35.016  15.959  -2.180  1.00 20.00     0.010 C 
HETATM   10  C5  UNL     1     -33.033  15.637  -3.660  1.00 20.00     0.010 C 
ENDBRANCH   6   8
ENDBRANCH   4   6
ENDBRANCH   2   4
TORSDOF 3
ENDMDL
MODEL 9
REMARK VINA RESULT:      -4.2     10.764     11.459
REMARK  3 active torsions:
REMARK  status: ('A' for Active; 'I' for Inactive)
REMARK    1  A    between atoms: C2_2  and  C6_6 
REMARK    2  A    between atoms: C2_2  and  C7_7 
REMARK    3  A    between atoms: C7_7  and  C8_8 
ROOT
HETATM    1  C1  UNL     1     -37.473  14.473  -4.688  1.00 20.00     0.066 C 
HETATM    2  C6  UNL     1     -36.236  14.964  -5.303  1.00 20.00     0.202 C 
HETATM    3  N9  UNL     1     -38.455  14.086  -4.205  1.00 20.00    -0.197 NA
ENDROOT
BRANCH   2   4
HETATM    4  C2  UNL     1     -34.994  14.464  -4.585  1.00 20.00     0.143 C 
HETATM    5  O10 UNL     1     -34.893  13.312  -4.163  1.00 20.00    -0.297 OA
BRANCH   4   6
HETATM    6  C7  UNL     1     -33.849  15.469  -4.442  1.00 20.00     0.055 C 
HETATM    7  C3  UNL     1     -32.578  14.672  -4.148  1.00 20.00     0.018 C 
BRANCH   6   8
HETATM    8  C8  UNL     1     -34.175  16.533  -3.365  1.00 20.00    -0.012 C 
HETATM    9  C4  UNL     1     -32.898  17.238  -2.886  1.00 20.00     0.010 C 
HETATM   10  C5  UNL     1     -34.895  15.933  -2.153  1.00 20.00     0.010 C 
ENDBRANCH   6   8
ENDBRANCH   4   6
ENDBRANCH   2   4
TORSDOF 3
ENDMDL
