MODEL 1
REMARK VINA RESULT:      -4.6      0.000      0.000
REMARK  3 active torsions:
REMARK  status: ('A' for Active; 'I' for Inactive)
REMARK    1  A    between atoms: C4_4  and  C6_6 
REMARK    2  A    between atoms: C6_6  and  C7_7 
REMARK    3  A    between atoms: C7_7  and  N8_8 
ROOT
HETATM    1  C1  UNL     1     -32.599   7.981   1.297  1.00 20.00     0.158 C 
HETATM    2  N8  UNL     1     -32.247   7.204   2.103  1.00 20.00    -0.271 NA
HETATM    3  S9  UNL     1     -33.046   9.045   0.199  1.00 20.00    -0.055 SA
ENDROOT
BRANCH   2   4
HETATM    4  C7  UNL     1     -33.322   6.388   2.680  1.00 20.00     0.106 C 
HETATM    5  C5  UNL     1     -33.045   4.931   2.335  1.00 20.00     0.034 C 
BRANCH   4   6
HETATM    6  C6  UNL     1     -33.359   6.601   4.195  1.00 20.00     0.031 C 
BRANCH   6   7
HETATM    7  C4  UNL     1     -34.650   6.093   4.824  1.00 20.00    -0.013 A 
HETATM    8  C2  UNL     1     -34.714   4.709   5.409  1.00 20.00     0.005 A 
HETATM    9  C3  UNL     1     -34.746   5.910   6.313  1.00 20.00     0.005 A 
ENDBRANCH   6   7
ENDBRANCH   4   6
ENDBRANCH   2   4
TORSDOF 3
ENDMDL
MODEL 2
REMARK VINA RESULT:      -4.4      2.623      4.639
REMARK  3 active torsions:
REMARK  status: ('A' for Active; 'I' for Inactive)
REMARK    1  A    between atoms: C4_4  and  C6_6 
REMARK    2  A    between atoms: C6_6  and  C7_7 
REMARK    3  A    between atoms: C7_7  and  N8_8 
ROOT
HETATM    1  C1  UNL     1     -34.198   6.260   4.619  1.00 20.00     0.158 C 
HETATM    2  N8  UNL     1     -33.780   6.916   3.740  1.00 20.00    -0.271 NA
HETATM    3  S9  UNL     1     -34.788   5.393   5.818  1.00 20.00    -0.055 SA
ENDROOT
BRANCH   2   4
HETATM    4  C7  UNL     1     -32.675   6.306   2.990  1.00 20.00     0.106 C 
HETATM    5  C5  UNL     1     -33.214   5.075   2.273  1.00 20.00     0.034 C 
BRANCH   4   6
HETATM    6  C6  UNL     1     -32.118   7.327   1.995  1.00 20.00     0.031 C 
BRANCH   6   7
HETATM    7  C4  UNL     1     -33.214   8.151   1.330  1.00 20.00    -0.013 A 
HETATM    8  C2  UNL     1     -32.910   9.522   0.794  1.00 20.00     0.005 A 
HETATM    9  C3  UNL     1     -33.187   8.389  -0.154  1.00 20.00     0.005 A 
ENDBRANCH   6   7
ENDBRANCH   4   6
ENDBRANCH   2   4
TORSDOF 3
ENDMDL
MODEL 3
REMARK VINA RESULT:      -4.1     11.108     11.960
REMARK  3 active torsions:
REMARK  status: ('A' for Active; 'I' for Inactive)
REMARK    1  A    between atoms: C4_4  and  C6_6 
REMARK    2  A    between atoms: C6_6  and  C7_7 
REMARK    3  A    between atoms: C7_7  and  N8_8 
ROOT
HETATM    1  C1  UNL     1     -37.930  14.769  -4.290  1.00 20.00     0.158 C 
HETATM    2  N8  UNL     1     -37.426  13.723  -4.463  1.00 20.00    -0.271 NA
HETATM    3  S9  UNL     1     -38.641  16.173  -4.044  1.00 20.00    -0.055 SA
ENDROOT
BRANCH   2   4
HETATM    4  C7  UNL     1     -36.053  13.780  -4.978  1.00 20.00     0.106 C 
HETATM    5  C5  UNL     1     -35.981  14.905  -6.003  1.00 20.00     0.034 C 
BRANCH   4   6
HETATM    6  C6  UNL     1     -35.089  14.026  -3.816  1.00 20.00     0.031 C 
BRANCH   6   7
HETATM    7  C4  UNL     1     -34.600  15.468  -3.760  1.00 20.00    -0.013 A 
HETATM    8  C2  UNL     1     -34.201  16.082  -2.447  1.00 20.00     0.005 A 
HETATM    9  C3  UNL     1     -33.154  15.767  -3.479  1.00 20.00     0.005 A 
ENDBRANCH   6   7
ENDBRANCH   4   6
ENDBRANCH   2   4
TORSDOF 3
ENDMDL
MODEL 4
REMARK VINA RESULT:      -3.9     10.993     11.856
REMARK  3 active torsions:
REMARK  status: ('A' for Active; 'I' for Inactive)
REMARK    1  A    between atoms: C4_4  and  C6_6 
REMARK    2  A    between atoms: C6_6  and  C7_7 
REMARK    3  A    between atoms: C7_7  and  N8_8 
ROOT
HETATM    1  C1  UNL     1     -35.482  14.856  -6.383  1.00 20.00     0.158 C 
HETATM    2  N8  UNL     1     -36.500  14.544  -5.891  1.00 20.00    -0.271 NA
HETATM    3  S9  UNL     1     -34.114  15.281  -7.080  1.00 20.00    -0.055 SA
ENDROOT
BRANCH   2   4
HETATM    4  C7  UNL     1     -36.441  14.327  -4.441  1.00 20.00     0.106 C 
HETATM    5  C5  UNL     1     -35.434  13.216  -4.171  1.00 20.00     0.034 C 
BRANCH   4   6
HETATM    6  C6  UNL     1     -36.027  15.629  -3.753  1.00 20.00     0.031 C 
BRANCH   6   7
HETATM    7  C4  UNL     1     -34.857  15.437  -2.796  1.00 20.00    -0.013 A 
HETATM    8  C2  UNL     1     -33.554  16.145  -3.041  1.00 20.00     0.005 A 
HETATM    9  C3  UNL     1     -34.428  16.557  -1.890  1.00 20.00     0.005 A 
ENDBRANCH   6   7
ENDBRANCH   4   6
ENDBRANCH   2   4
TORSDOF 3
ENDMDL
MODEL 5
REMARK VINA RESULT:      -3.8     15.724     16.382
REMARK  3 active torsions:
REMARK  status: ('A' for Active; 'I' for Inactive)
REMARK    1  A    between atoms: C4_4  and  C6_6 
REMARK    2  A    between atoms: C6_6  and  C7_7 
REMARK    3  A    between atoms: C7_7  and  N8_8 
ROOT
HETATM    1  C1  UNL     1     -24.453  19.231   7.785  1.00 20.00     0.158 C 
HETATM    2  N8  UNL     1     -23.539  19.243   8.522  1.00 20.00    -0.271 NA
HETATM    3  S9  UNL     1     -25.690  19.248   6.782  1.00 20.00    -0.055 SA
ENDROOT
BRANCH   2   4
HETATM    4  C7  UNL     1     -23.158  17.928   9.049  1.00 20.00     0.106 C 
HETATM    5  C5  UNL     1     -22.077  17.351   8.145  1.00 20.00     0.034 C 
BRANCH   4   6
HETATM    6  C6  UNL     1     -22.652  18.088  10.485  1.00 20.00     0.031 C 
BRANCH   6   7
HETATM    7  C4  UNL     1     -23.242  17.048  11.430  1.00 20.00    -0.013 A 
HETATM    8  C2  UNL     1     -24.426  17.391  12.290  1.00 20.00     0.005 A 
HETATM    9  C3  UNL     1     -24.584  16.437  11.140  1.00 20.00     0.005 A 
ENDBRANCH   6   7
ENDBRANCH   4   6
ENDBRANCH   2   4
TORSDOF 3
ENDMDL
MODEL 6
REMARK VINA RESULT:      -3.8     11.275     11.829
REMARK  3 active torsions:
REMARK  status: ('A' for Active; 'I' for Inactive)
REMARK    1  A    between atoms: C4_4  and  C6_6 
REMARK    2  A    between atoms: C6_6  and  C7_7 
REMARK    3  A    between atoms: C7_7  and  N8_8 
ROOT
HETATM    1  C1  UNL     1     -35.466  14.760  -6.062  1.00 20.00     0.158 C 
HETATM    2  N8  UNL     1     -35.465  13.858  -5.310  1.00 20.00    -0.271 NA
HETATM    3  S9  UNL     1     -35.488  15.967  -7.101  1.00 20.00    -0.055 SA
ENDROOT
BRANCH   2   4
HETATM    4  C7  UNL     1     -34.687  14.080  -4.086  1.00 20.00     0.106 C 
HETATM    5  C5  UNL     1     -33.303  14.574  -4.489  1.00 20.00     0.034 C 
BRANCH   4   6
HETATM    6  C6  UNL     1     -35.408  15.108  -3.210  1.00 20.00     0.031 C 
BRANCH   6   7
HETATM    7  C4  UNL     1     -34.442  15.996  -2.437  1.00 20.00    -0.013 A 
HETATM    8  C2  UNL     1     -34.489  17.490  -2.601  1.00 20.00     0.005 A 
HETATM    9  C3  UNL     1     -34.942  16.861  -1.314  1.00 20.00     0.005 A 
ENDBRANCH   6   7
ENDBRANCH   4   6
ENDBRANCH   2   4
TORSDOF 3
ENDMDL
MODEL 7
REMARK VINA RESULT:      -3.7     11.642     12.784
REMARK  3 active torsions:
REMARK  status: ('A' for Active; 'I' for Inactive)
REMARK    1  A    between atoms: C4_4  and  C6_6 
REMARK    2  A    between atoms: C6_6  and  C7_7 
REMARK    3  A    between atoms: C7_7  and  N8_8 
ROOT
HETATM    1  C1  UNL     1     -31.245  18.665  -0.179  1.00 20.00     0.158 C 
HETATM    2  N8  UNL     1     -31.320  18.870  -1.333  1.00 20.00    -0.271 NA
HETATM    3  S9  UNL     1     -31.112  18.393   1.385  1.00 20.00    -0.055 SA
ENDROOT
BRANCH   2   4
HETATM    4  C7  UNL     1     -32.675  18.770  -1.888  1.00 20.00     0.106 C 
HETATM    5  C5  UNL     1     -32.607  19.134  -3.366  1.00 20.00     0.034 C 
BRANCH   4   6
HETATM    6  C6  UNL     1     -33.195  17.345  -1.692  1.00 20.00     0.031 C 
BRANCH   6   7
HETATM    7  C4  UNL     1     -33.867  16.793  -2.943  1.00 20.00    -0.013 A 
HETATM    8  C2  UNL     1     -33.349  15.538  -3.590  1.00 20.00     0.005 A 
HETATM    9  C3  UNL     1     -34.670  15.523  -2.873  1.00 20.00     0.005 A 
ENDBRANCH   6   7
ENDBRANCH   4   6
ENDBRANCH   2   4
TORSDOF 3
ENDMDL
MODEL 8
REMARK VINA RESULT:      -3.7      9.883     10.263
REMARK  3 active torsions:
REMARK  status: ('A' for Active; 'I' for Inactive)
REMARK    1  A    between atoms: C4_4  and  C6_6 
REMARK    2  A    between atoms: C6_6  and  C7_7 
REMARK    3  A    between atoms: C7_7  and  N8_8 
ROOT
HETATM    1  C1  UNL     1     -43.285   4.513  -1.651  1.00 20.00     0.158 C 
HETATM    2  N8  UNL     1     -43.239   5.434  -0.924  1.00 20.00    -0.271 NA
HETATM    3  S9  UNL     1     -43.376   3.274  -2.648  1.00 20.00    -0.055 SA
ENDROOT
BRANCH   2   4
HETATM    4  C7  UNL     1     -42.032   5.499  -0.092  1.00 20.00     0.106 C 
HETATM    5  C5  UNL     1     -40.820   5.391  -1.009  1.00 20.00     0.034 C 
BRANCH   4   6
HETATM    6  C6  UNL     1     -42.025   6.820   0.682  1.00 20.00     0.031 C 
BRANCH   6   7
HETATM    7  C4  UNL     1     -41.777   8.022  -0.220  1.00 20.00    -0.013 A 
HETATM    8  C2  UNL     1     -42.760   9.159  -0.254  1.00 20.00     0.005 A 
HETATM    9  C3  UNL     1     -41.409   9.352   0.376  1.00 20.00     0.005 A 
ENDBRANCH   6   7
ENDBRANCH   4   6
ENDBRANCH   2   4
TORSDOF 3
ENDMDL
MODEL 9
REMARK VINA RESULT:      -3.6     11.478     12.043
REMARK  3 active torsions:
REMARK  status: ('A' for Active; 'I' for Inactive)
REMARK    1  A    between atoms: C4_4  and  C6_6 
REMARK    2  A    between atoms: C6_6  and  C7_7 
REMARK    3  A    between atoms: C7_7  and  N8_8 
ROOT
HETATM    1  C1  UNL     1     -32.715  17.808  -2.313  1.00 20.00     0.158 C 
HETATM    2  N8  UNL     1     -33.182  17.158  -3.172  1.00 20.00    -0.271 NA
HETATM    3  S9  UNL     1     -32.073  18.711  -1.169  1.00 20.00    -0.055 SA
ENDROOT
BRANCH   2   4
HETATM    4  C7  UNL     1     -33.776  15.891  -2.730  1.00 20.00     0.106 C 
HETATM    5  C5  UNL     1     -35.086  16.206  -2.020  1.00 20.00     0.034 C 
BRANCH   4   6
HETATM    6  C6  UNL     1     -34.007  14.992  -3.947  1.00 20.00     0.031 C 
BRANCH   6   7
HETATM    7  C4  UNL     1     -35.469  14.955  -4.374  1.00 20.00    -0.013 A 
HETATM    8  C2  UNL     1     -35.845  14.474  -5.748  1.00 20.00     0.005 A 
HETATM    9  C3  UNL     1     -36.175  13.638  -4.543  1.00 20.00     0.005 A 
ENDBRANCH   6   7
ENDBRANCH   4   6
ENDBRANCH   2   4
TORSDOF 3
ENDMDL
