MODEL 1
REMARK VINA RESULT:      -4.0      0.000      0.000
REMARK  3 active torsions:
REMARK  status: ('A' for Active; 'I' for Inactive)
REMARK    1  A    between atoms: C1_1  and  C7_7 
REMARK       I    between atoms: C1_1  and  N9_9 
REMARK    2  A    between atoms: C7_7  and  C8_8 
REMARK    3  A    between atoms: N9_9  and  O11_11 
ROOT
HETATM    1  C1  UNL     1     -37.220  14.731  -4.417  1.00 20.00     0.247 C 
HETATM    2  C5  UNL     1     -39.586  15.505  -4.317  1.00 20.00     0.189 C 
HETATM    3  N9  UNL     1     -38.162  15.677  -4.091  1.00 20.00    -0.231 N 
HETATM    4  O10 UNL     1     -37.463  13.521  -4.416  1.00 20.00    -0.271 OA
ENDROOT
BRANCH   1   5
HETATM    5  C7  UNL     1     -35.815  15.243  -4.775  1.00 20.00     0.079 C 
HETATM    6  C2  UNL     1     -35.462  14.854  -6.215  1.00 20.00     0.020 C 
BRANCH   5   7
HETATM    7  C8  UNL     1     -34.779  14.766  -3.721  1.00 20.00    -0.010 C 
HETATM    8  C3  UNL     1     -34.703  15.734  -2.537  1.00 20.00     0.010 C 
HETATM    9  C4  UNL     1     -33.377  14.541  -4.296  1.00 20.00     0.010 C 
ENDBRANCH   5   7
ENDBRANCH   1   5
BRANCH   3  10
HETATM   10  O11 UNL     1     -37.850  16.915  -3.501  1.00 20.00    -0.281 OA
HETATM   11  C6  UNL     1     -39.041  17.496  -2.977  1.00 20.00     0.238 C 
ENDBRANCH   3  10
TORSDOF 3
ENDMDL
MODEL 2
REMARK VINA RESULT:      -3.8      1.446      3.275
REMARK  3 active torsions:
REMARK  status: ('A' for Active; 'I' for Inactive)
REMARK    1  A    between atoms: C1_1  and  C7_7 
REMARK       I    between atoms: C1_1  and  N9_9 
REMARK    2  A    between atoms: C7_7  and  C8_8 
REMARK    3  A    between atoms: N9_9  and  O11_11 
ROOT
HETATM    1  C1  UNL     1     -36.355  16.191  -3.396  1.00 20.00     0.247 C 
HETATM    2  C5  UNL     1     -38.384  15.016  -4.240  1.00 20.00     0.189 C 
HETATM    3  N9  UNL     1     -36.958  15.104  -3.984  1.00 20.00    -0.231 N 
HETATM    4  O10 UNL     1     -36.793  17.339  -3.515  1.00 20.00    -0.271 OA
ENDROOT
BRANCH   1   5
HETATM    5  C7  UNL     1     -35.077  15.923  -2.585  1.00 20.00     0.079 C 
HETATM    6  C2  UNL     1     -35.200  16.543  -1.188  1.00 20.00     0.020 C 
BRANCH   5   7
HETATM    7  C8  UNL     1     -33.825  16.392  -3.374  1.00 20.00    -0.010 C 
HETATM    8  C3  UNL     1     -33.028  15.200  -3.912  1.00 20.00     0.010 C 
HETATM    9  C4  UNL     1     -32.900  17.312  -2.570  1.00 20.00     0.010 C 
ENDBRANCH   5   7
ENDBRANCH   1   5
BRANCH   3  10
HETATM   10  O11 UNL     1     -36.258  13.957  -4.401  1.00 20.00    -0.281 OA
HETATM   11  C6  UNL     1     -35.929  14.088  -5.781  1.00 20.00     0.238 C 
ENDBRANCH   3  10
TORSDOF 3
ENDMDL
MODEL 3
REMARK VINA RESULT:      -3.6      2.707      4.003
REMARK  3 active torsions:
REMARK  status: ('A' for Active; 'I' for Inactive)
REMARK    1  A    between atoms: C1_1  and  C7_7 
REMARK       I    between atoms: C1_1  and  N9_9 
REMARK    2  A    between atoms: C7_7  and  C8_8 
REMARK    3  A    between atoms: N9_9  and  O11_11 
ROOT
HETATM    1  C1  UNL     1     -33.992  15.142  -5.043  1.00 20.00     0.247 C 
HETATM    2  C5  UNL     1     -33.766  15.123  -7.524  1.00 20.00     0.189 C 
HETATM    3  N9  UNL     1     -34.362  15.594  -6.287  1.00 20.00    -0.231 N 
HETATM    4  O10 UNL     1     -33.564  14.000  -4.850  1.00 20.00    -0.271 OA
ENDROOT
BRANCH   1   5
HETATM    5  C7  UNL     1     -34.150  16.123  -3.870  1.00 20.00     0.079 C 
HETATM    6  C2  UNL     1     -32.783  16.423  -3.245  1.00 20.00     0.020 C 
BRANCH   5   7
HETATM    7  C8  UNL     1     -35.204  15.596  -2.859  1.00 20.00    -0.010 C 
HETATM    8  C3  UNL     1     -36.606  15.575  -3.476  1.00 20.00     0.010 C 
HETATM    9  C4  UNL     1     -35.231  16.372  -1.538  1.00 20.00     0.010 C 
ENDBRANCH   5   7
ENDBRANCH   1   5
BRANCH   3  10
HETATM   10  O11 UNL     1     -35.360  16.563  -6.497  1.00 20.00    -0.281 OA
HETATM   11  C6  UNL     1     -36.419  15.984  -7.256  1.00 20.00     0.238 C 
ENDBRANCH   3  10
TORSDOF 3
ENDMDL
MODEL 4
REMARK VINA RESULT:      -3.6      3.938      5.603
REMARK  3 active torsions:
REMARK  status: ('A' for Active; 'I' for Inactive)
REMARK    1  A    between atoms: C1_1  and  C7_7 
REMARK       I    between atoms: C1_1  and  N9_9 
REMARK    2  A    between atoms: C7_7  and  C8_8 
REMARK    3  A    between atoms: N9_9  and  O11_11 
ROOT
HETATM    1  C1  UNL     1     -34.537  17.451  -0.660  1.00 20.00     0.247 C 
HETATM    2  C5  UNL     1     -33.291  18.878   0.958  1.00 20.00     0.189 C 
HETATM    3  N9  UNL     1     -33.394  18.105  -0.266  1.00 20.00    -0.231 N 
HETATM    4  O10 UNL     1     -35.358  17.002   0.145  1.00 20.00    -0.271 OA
ENDROOT
BRANCH   1   5
HETATM    5  C7  UNL     1     -34.754  17.278  -2.173  1.00 20.00     0.079 C 
HETATM    6  C2  UNL     1     -36.174  17.711  -2.555  1.00 20.00     0.020 C 
BRANCH   5   7
HETATM    7  C8  UNL     1     -34.396  15.832  -2.610  1.00 20.00    -0.010 C 
HETATM    8  C3  UNL     1     -33.147  15.812  -3.497  1.00 20.00     0.010 C 
HETATM    9  C4  UNL     1     -35.543  15.102  -3.316  1.00 20.00     0.010 C 
ENDBRANCH   5   7
ENDBRANCH   1   5
BRANCH   3  10
HETATM   10  O11 UNL     1     -32.198  18.095  -1.007  1.00 20.00    -0.281 OA
HETATM   11  C6  UNL     1     -31.111  18.412  -0.141  1.00 20.00     0.238 C 
ENDBRANCH   3  10
TORSDOF 3
ENDMDL
MODEL 5
REMARK VINA RESULT:      -3.5      2.704      3.751
REMARK  3 active torsions:
REMARK  status: ('A' for Active; 'I' for Inactive)
REMARK    1  A    between atoms: C1_1  and  C7_7 
REMARK       I    between atoms: C1_1  and  N9_9 
REMARK    2  A    between atoms: C7_7  and  C8_8 
REMARK    3  A    between atoms: N9_9  and  O11_11 
ROOT
HETATM    1  C1  UNL     1     -35.550  16.846  -2.566  1.00 20.00     0.247 C 
HETATM    2  C5  UNL     1     -36.590  18.631  -1.172  1.00 20.00     0.189 C 
HETATM    3  N9  UNL     1     -35.864  17.385  -1.341  1.00 20.00    -0.231 N 
HETATM    4  O10 UNL     1     -36.249  17.019  -3.568  1.00 20.00    -0.271 OA
ENDROOT
BRANCH   1   5
HETATM    5  C7  UNL     1     -34.278  15.986  -2.642  1.00 20.00     0.079 C 
HETATM    6  C2  UNL     1     -33.035  16.866  -2.476  1.00 20.00     0.020 C 
BRANCH   5   7
HETATM    7  C8  UNL     1     -34.277  15.132  -3.939  1.00 20.00    -0.010 C 
HETATM    8  C3  UNL     1     -35.178  13.902  -3.796  1.00 20.00     0.010 C 
HETATM    9  C4  UNL     1     -32.878  14.699  -4.388  1.00 20.00     0.010 C 
ENDBRANCH   5   7
ENDBRANCH   1   5
BRANCH   3  10
HETATM   10  O11 UNL     1     -35.518  16.787  -0.116  1.00 20.00    -0.281 OA
HETATM   11  C6  UNL     1     -34.874  17.754   0.710  1.00 20.00     0.238 C 
ENDBRANCH   3  10
TORSDOF 3
ENDMDL
MODEL 6
REMARK VINA RESULT:      -3.5      1.544      2.425
REMARK  3 active torsions:
REMARK  status: ('A' for Active; 'I' for Inactive)
REMARK    1  A    between atoms: C1_1  and  C7_7 
REMARK       I    between atoms: C1_1  and  N9_9 
REMARK    2  A    between atoms: C7_7  and  C8_8 
REMARK    3  A    between atoms: N9_9  and  O11_11 
ROOT
HETATM    1  C1  UNL     1     -35.867  13.984  -4.452  1.00 20.00     0.247 C 
HETATM    2  C5  UNL     1     -38.298  14.503  -4.277  1.00 20.00     0.189 C 
HETATM    3  N9  UNL     1     -36.895  14.810  -4.064  1.00 20.00    -0.231 N 
HETATM    4  O10 UNL     1     -35.984  12.757  -4.507  1.00 20.00    -0.271 OA
ENDROOT
BRANCH   1   5
HETATM    5  C7  UNL     1     -34.529  14.656  -4.804  1.00 20.00     0.079 C 
HETATM    6  C2  UNL     1     -33.913  15.293  -3.554  1.00 20.00     0.020 C 
BRANCH   5   7
HETATM    7  C8  UNL     1     -34.713  15.643  -5.989  1.00 20.00    -0.010 C 
HETATM    8  C3  UNL     1     -33.922  15.189  -7.219  1.00 20.00     0.010 C 
HETATM    9  C4  UNL     1     -34.349  17.091  -5.645  1.00 20.00     0.010 C 
ENDBRANCH   5   7
ENDBRANCH   1   5
BRANCH   3  10
HETATM   10  O11 UNL     1     -36.700  16.045  -3.418  1.00 20.00    -0.281 OA
HETATM   11  C6  UNL     1     -37.726  16.948  -3.821  1.00 20.00     0.238 C 
ENDBRANCH   3  10
TORSDOF 3
ENDMDL
MODEL 7
REMARK VINA RESULT:      -3.5      2.839      4.138
REMARK  3 active torsions:
REMARK  status: ('A' for Active; 'I' for Inactive)
REMARK    1  A    between atoms: C1_1  and  C7_7 
REMARK       I    between atoms: C1_1  and  N9_9 
REMARK    2  A    between atoms: C7_7  and  C8_8 
REMARK    3  A    between atoms: N9_9  and  O11_11 
ROOT
HETATM    1  C1  UNL     1     -33.830  16.592  -3.255  1.00 20.00     0.247 C 
HETATM    2  C5  UNL     1     -33.336  17.839  -1.155  1.00 20.00     0.189 C 
HETATM    3  N9  UNL     1     -34.110  16.898  -1.944  1.00 20.00    -0.231 N 
HETATM    4  O10 UNL     1     -33.305  17.398  -4.029  1.00 20.00    -0.271 OA
ENDROOT
BRANCH   1   5
HETATM    5  C7  UNL     1     -34.220  15.186  -3.740  1.00 20.00     0.079 C 
HETATM    6  C2  UNL     1     -33.011  14.495  -4.379  1.00 20.00     0.020 C 
BRANCH   5   7
HETATM    7  C8  UNL     1     -35.467  15.256  -4.662  1.00 20.00    -0.010 C 
HETATM    8  C3  UNL     1     -36.616  14.408  -4.111  1.00 20.00     0.010 C 
HETATM    9  C4  UNL     1     -35.180  14.859  -6.114  1.00 20.00     0.010 C 
ENDBRANCH   5   7
ENDBRANCH   1   5
BRANCH   3  10
HETATM   10  O11 UNL     1     -35.178  16.333  -1.225  1.00 20.00    -0.281 OA
HETATM   11  C6  UNL     1     -35.514  17.191  -0.138  1.00 20.00     0.238 C 
ENDBRANCH   3  10
TORSDOF 3
ENDMDL
MODEL 8
REMARK VINA RESULT:      -3.5      3.393      5.138
REMARK  3 active torsions:
REMARK  status: ('A' for Active; 'I' for Inactive)
REMARK    1  A    between atoms: C1_1  and  C7_7 
REMARK       I    between atoms: C1_1  and  N9_9 
REMARK    2  A    between atoms: C7_7  and  C8_8 
REMARK    3  A    between atoms: N9_9  and  O11_11 
ROOT
HETATM    1  C1  UNL     1     -33.628  17.426  -3.366  1.00 20.00     0.247 C 
HETATM    2  C5  UNL     1     -34.433  16.444  -5.510  1.00 20.00     0.189 C 
HETATM    3  N9  UNL     1     -33.811  16.350  -4.201  1.00 20.00    -0.231 N 
HETATM    4  O10 UNL     1     -33.457  18.573  -3.788  1.00 20.00    -0.271 OA
ENDROOT
BRANCH   1   5
HETATM    5  C7  UNL     1     -33.622  17.142  -1.855  1.00 20.00     0.079 C 
HETATM    6  C2  UNL     1     -35.018  16.705  -1.396  1.00 20.00     0.020 C 
BRANCH   5   7
HETATM    7  C8  UNL     1     -33.053  18.358  -1.076  1.00 20.00    -0.010 C 
HETATM    8  C3  UNL     1     -31.545  18.219  -0.851  1.00 20.00     0.010 C 
HETATM    9  C4  UNL     1     -33.755  18.614   0.262  1.00 20.00     0.010 C 
ENDBRANCH   5   7
ENDBRANCH   1   5
BRANCH   3  10
HETATM   10  O11 UNL     1     -33.417  15.038  -3.879  1.00 20.00    -0.281 OA
HETATM   11  C6  UNL     1     -34.540  14.170  -4.006  1.00 20.00     0.238 C 
ENDBRANCH   3  10
TORSDOF 3
ENDMDL
MODEL 9
REMARK VINA RESULT:      -3.5      2.267      3.253
REMARK  3 active torsions:
REMARK  status: ('A' for Active; 'I' for Inactive)
REMARK    1  A    between atoms: C1_1  and  C7_7 
REMARK       I    between atoms: C1_1  and  N9_9 
REMARK    2  A    between atoms: C7_7  and  C8_8 
REMARK    3  A    between atoms: N9_9  and  O11_11 
ROOT
HETATM    1  C1  UNL     1     -34.498  15.625  -4.824  1.00 20.00     0.247 C 
HETATM    2  C5  UNL     1     -35.661  14.679  -6.814  1.00 20.00     0.189 C 
HETATM    3  N9  UNL     1     -35.648  15.341  -5.522  1.00 20.00    -0.231 N 
HETATM    4  O10 UNL     1     -33.480  14.933  -4.909  1.00 20.00    -0.271 OA
ENDROOT
BRANCH   1   5
HETATM    5  C7  UNL     1     -34.531  16.852  -3.898  1.00 20.00     0.079 C 
HETATM    6  C2  UNL     1     -33.810  18.032  -4.560  1.00 20.00     0.020 C 
BRANCH   5   7
HETATM    7  C8  UNL     1     -33.985  16.487  -2.492  1.00 20.00    -0.010 C 
HETATM    8  C3  UNL     1     -35.109  16.440  -1.452  1.00 20.00     0.010 C 
HETATM    9  C4  UNL     1     -32.869  17.417  -2.005  1.00 20.00     0.010 C 
ENDBRANCH   5   7
ENDBRANCH   1   5
BRANCH   3  10
HETATM   10  O11 UNL     1     -36.938  15.660  -5.060  1.00 20.00    -0.281 OA
HETATM   11  C6  UNL     1     -37.455  14.555  -4.322  1.00 20.00     0.238 C 
ENDBRANCH   3  10
TORSDOF 3
ENDMDL
