MODEL 1
REMARK VINA RESULT:      -4.2      0.000      0.000
REMARK  2 active torsions:
REMARK  status: ('A' for Active; 'I' for Inactive)
REMARK    1  A    between atoms: C4_4  and  C5_5 
REMARK    2  A    between atoms: C5_5  and  N6_6 
ROOT
HETATM    1  C1  UNL     1     -34.101   6.603   5.997  1.00 20.00     0.012 C 
HETATM    2  C2  UNL     1     -34.261   5.975   4.986  1.00 20.00    -0.116 C 
HETATM    3  C4  UNL     1     -34.462   5.205   3.750  1.00 20.00     0.115 C 
ENDROOT
BRANCH   3   4
HETATM    4  C5  UNL     1     -33.328   5.419   2.756  1.00 20.00     0.162 C 
BRANCH   4   5
HETATM    5  N6  UNL     1     -32.712   6.730   2.982  1.00 20.00    -0.275 NA
HETATM    6  C3  UNL     1     -32.696   7.436   2.044  1.00 20.00     0.157 C 
HETATM    7  S7  UNL     1     -32.659   8.415   0.789  1.00 20.00    -0.055 SA
ENDBRANCH   4   5
ENDBRANCH   3   4
TORSDOF 2
ENDMDL
MODEL 2
REMARK VINA RESULT:      -4.2      1.458      1.603
REMARK  2 active torsions:
REMARK  status: ('A' for Active; 'I' for Inactive)
REMARK    1  A    between atoms: C4_4  and  C5_5 
REMARK    2  A    between atoms: C5_5  and  N6_6 
ROOT
HETATM    1  C1  UNL     1     -34.082   6.747   6.238  1.00 20.00     0.012 C 
HETATM    2  C2  UNL     1     -34.535   5.997   5.417  1.00 20.00    -0.116 C 
HETATM    3  C4  UNL     1     -35.094   5.081   4.413  1.00 20.00     0.115 C 
ENDROOT
BRANCH   3   4
HETATM    4  C5  UNL     1     -34.034   4.148   3.841  1.00 20.00     0.162 C 
BRANCH   4   5
HETATM    5  N6  UNL     1     -33.608   4.631   2.525  1.00 20.00    -0.275 NA
HETATM    6  C3  UNL     1     -33.106   5.692   2.528  1.00 20.00     0.157 C 
HETATM    7  S7  UNL     1     -32.422   7.129   2.500  1.00 20.00    -0.055 SA
ENDBRANCH   4   5
ENDBRANCH   3   4
TORSDOF 2
ENDMDL
MODEL 3
REMARK VINA RESULT:      -4.1      0.898      1.053
REMARK  2 active torsions:
REMARK  status: ('A' for Active; 'I' for Inactive)
REMARK    1  A    between atoms: C4_4  and  C5_5 
REMARK    2  A    between atoms: C5_5  and  N6_6 
ROOT
HETATM    1  C1  UNL     1     -34.815   5.059   5.970  1.00 20.00     0.012 C 
HETATM    2  C2  UNL     1     -34.429   5.845   5.148  1.00 20.00    -0.116 C 
HETATM    3  C4  UNL     1     -33.959   6.811   4.145  1.00 20.00     0.115 C 
ENDROOT
BRANCH   3   4
HETATM    4  C5  UNL     1     -33.196   6.132   3.015  1.00 20.00     0.162 C 
BRANCH   4   5
HETATM    5  N6  UNL     1     -32.160   7.034   2.504  1.00 20.00    -0.275 NA
HETATM    6  C3  UNL     1     -32.513   7.758   1.651  1.00 20.00     0.157 C 
HETATM    7  S7  UNL     1     -32.963   8.753   0.492  1.00 20.00    -0.055 SA
ENDBRANCH   4   5
ENDBRANCH   3   4
TORSDOF 2
ENDMDL
MODEL 4
REMARK VINA RESULT:      -4.1      2.687      4.027
REMARK  2 active torsions:
REMARK  status: ('A' for Active; 'I' for Inactive)
REMARK    1  A    between atoms: C4_4  and  C5_5 
REMARK    2  A    between atoms: C5_5  and  N6_6 
ROOT
HETATM    1  C1  UNL     1     -32.606   8.369   0.720  1.00 20.00     0.012 C 
HETATM    2  C2  UNL     1     -32.638   7.694   1.713  1.00 20.00    -0.116 C 
HETATM    3  C4  UNL     1     -32.676   6.872   2.931  1.00 20.00     0.115 C 
ENDROOT
BRANCH   3   4
HETATM    4  C5  UNL     1     -33.053   5.427   2.630  1.00 20.00     0.162 C 
BRANCH   4   5
HETATM    5  N6  UNL     1     -34.393   5.145   3.151  1.00 20.00    -0.275 NA
HETATM    6  C3  UNL     1     -34.510   5.283   4.312  1.00 20.00     0.157 C 
HETATM    7  S7  UNL     1     -34.699   5.460   5.883  1.00 20.00    -0.055 SA
ENDBRANCH   4   5
ENDBRANCH   3   4
TORSDOF 2
ENDMDL
MODEL 5
REMARK VINA RESULT:      -3.6     11.335     11.748
REMARK  2 active torsions:
REMARK  status: ('A' for Active; 'I' for Inactive)
REMARK    1  A    between atoms: C4_4  and  C5_5 
REMARK    2  A    between atoms: C5_5  and  N6_6 
ROOT
HETATM    1  C1  UNL     1     -34.707  16.114  -2.296  1.00 20.00     0.012 C 
HETATM    2  C2  UNL     1     -34.859  15.197  -3.057  1.00 20.00    -0.116 C 
HETATM    3  C4  UNL     1     -35.041  14.073  -3.986  1.00 20.00     0.115 C 
ENDROOT
BRANCH   3   4
HETATM    4  C5  UNL     1     -36.178  14.326  -4.969  1.00 20.00     0.162 C 
BRANCH   4   5
HETATM    5  N6  UNL     1     -37.425  13.770  -4.437  1.00 20.00    -0.275 NA
HETATM    6  C3  UNL     1     -38.289  14.551  -4.288  1.00 20.00     0.157 C 
HETATM    7  S7  UNL     1     -39.480  15.587  -4.076  1.00 20.00    -0.055 SA
ENDBRANCH   4   5
ENDBRANCH   3   4
TORSDOF 2
ENDMDL
MODEL 6
REMARK VINA RESULT:      -3.6     11.497     11.845
REMARK  2 active torsions:
REMARK  status: ('A' for Active; 'I' for Inactive)
REMARK    1  A    between atoms: C4_4  and  C5_5 
REMARK    2  A    between atoms: C5_5  and  N6_6 
ROOT
HETATM    1  C1  UNL     1     -34.815  16.244  -2.047  1.00 20.00     0.012 C 
HETATM    2  C2  UNL     1     -34.760  15.379  -2.879  1.00 20.00    -0.116 C 
HETATM    3  C4  UNL     1     -34.688  14.321  -3.896  1.00 20.00     0.115 C 
ENDROOT
BRANCH   3   4
HETATM    4  C5  UNL     1     -36.067  13.937  -4.417  1.00 20.00     0.162 C 
BRANCH   4   5
HETATM    5  N6  UNL     1     -36.008  13.726  -5.866  1.00 20.00    -0.275 NA
HETATM    6  C3  UNL     1     -35.649  14.656  -6.486  1.00 20.00     0.157 C 
HETATM    7  S7  UNL     1     -35.165  15.900  -7.353  1.00 20.00    -0.055 SA
ENDBRANCH   4   5
ENDBRANCH   3   4
TORSDOF 2
ENDMDL
MODEL 7
REMARK VINA RESULT:      -3.6      2.725      3.591
REMARK  2 active torsions:
REMARK  status: ('A' for Active; 'I' for Inactive)
REMARK    1  A    between atoms: C4_4  and  C5_5 
REMARK    2  A    between atoms: C5_5  and  N6_6 
ROOT
HETATM    1  C1  UNL     1     -32.300   7.114   2.825  1.00 20.00     0.012 C 
HETATM    2  C2  UNL     1     -32.893   6.091   2.615  1.00 20.00    -0.116 C 
HETATM    3  C4  UNL     1     -33.618   4.840   2.353  1.00 20.00     0.115 C 
ENDROOT
BRANCH   3   4
HETATM    4  C5  UNL     1     -33.899   4.066   3.635  1.00 20.00     0.162 C 
BRANCH   4   5
HETATM    5  N6  UNL     1     -34.997   4.702   4.367  1.00 20.00    -0.275 NA
HETATM    6  C3  UNL     1     -34.665   5.518   5.144  1.00 20.00     0.157 C 
HETATM    7  S7  UNL     1     -34.245   6.629   6.204  1.00 20.00    -0.055 SA
ENDBRANCH   4   5
ENDBRANCH   3   4
TORSDOF 2
ENDMDL
MODEL 8
REMARK VINA RESULT:      -3.4     11.546     11.898
REMARK  2 active torsions:
REMARK  status: ('A' for Active; 'I' for Inactive)
REMARK    1  A    between atoms: C4_4  and  C5_5 
REMARK    2  A    between atoms: C5_5  and  N6_6 
ROOT
HETATM    1  C1  UNL     1     -34.844  16.607  -1.604  1.00 20.00     0.012 C 
HETATM    2  C2  UNL     1     -34.780  15.780  -2.473  1.00 20.00    -0.116 C 
HETATM    3  C4  UNL     1     -34.706  14.767  -3.536  1.00 20.00     0.115 C 
ENDROOT
BRANCH   3   4
HETATM    4  C5  UNL     1     -33.421  14.885  -4.346  1.00 20.00     0.162 C 
BRANCH   4   5
HETATM    5  N6  UNL     1     -33.672  14.483  -5.733  1.00 20.00    -0.275 NA
HETATM    6  C3  UNL     1     -34.490  15.116  -6.289  1.00 20.00     0.157 C 
HETATM    7  S7  UNL     1     -35.595  15.956  -7.070  1.00 20.00    -0.055 SA
ENDBRANCH   4   5
ENDBRANCH   3   4
TORSDOF 2
ENDMDL
MODEL 9
REMARK VINA RESULT:      -3.4     10.798     11.545
REMARK  2 active torsions:
REMARK  status: ('A' for Active; 'I' for Inactive)
REMARK    1  A    between atoms: C4_4  and  C5_5 
REMARK    2  A    between atoms: C5_5  and  N6_6 
ROOT
HETATM    1  C1  UNL     1     -33.289  16.495  -2.732  1.00 20.00     0.012 C 
HETATM    2  C2  UNL     1     -33.671  15.712  -3.558  1.00 20.00    -0.116 C 
HETATM    3  C4  UNL     1     -34.136  14.757  -4.574  1.00 20.00     0.115 C 
ENDROOT
BRANCH   3   4
HETATM    4  C5  UNL     1     -34.799  13.537  -3.946  1.00 20.00     0.162 C 
BRANCH   4   5
HETATM    5  N6  UNL     1     -36.054  13.241  -4.644  1.00 20.00    -0.275 NA
HETATM    6  C3  UNL     1     -36.895  14.050  -4.510  1.00 20.00     0.157 C 
HETATM    7  S7  UNL     1     -38.054  15.129  -4.347  1.00 20.00    -0.055 SA
ENDBRANCH   4   5
ENDBRANCH   3   4
TORSDOF 2
ENDMDL
