MODEL 1
REMARK VINA RESULT:      -4.5      0.000      0.000
REMARK  1 active torsions:
REMARK  status: ('A' for Active; 'I' for Inactive)
REMARK    1  A    between atoms: C7_7  and  N9_9 
ROOT
HETATM    1  C1  UNL     1     -22.211  17.440   8.181  1.00 20.00     0.089 C 
HETATM    2  C7  UNL     1     -22.407  17.009   9.564  1.00 20.00     0.396 C 
HETATM    3  N8  UNL     1     -22.053  17.779   7.083  1.00 20.00    -0.195 NA
ENDROOT
BRANCH   2   4
HETATM    4  N9  UNL     1     -23.390  17.856  10.239  1.00 20.00     0.107 N 
HETATM    5  C2  UNL     1     -24.514  18.157   9.346  1.00 20.00     0.284 C 
HETATM    6  C3  UNL     1     -25.432  19.250   9.889  1.00 20.00     0.104 C 
HETATM    7  S10 UNL     1     -26.177  18.788  11.474  1.00 20.00    -0.165 SA
HETATM    8  C4  UNL     1     -24.642  18.338  12.332  1.00 20.00     0.109 C 
HETATM    9  C5  UNL     1     -23.791  17.319  11.556  1.00 20.00     0.229 C 
HETATM   10  C6  UNL     1     -24.452  15.929  11.530  1.00 20.00     0.043 C 
ENDBRANCH   2   4
TORSDOF 1
ENDMDL
MODEL 2
REMARK VINA RESULT:      -4.1     17.026     17.967
REMARK  1 active torsions:
REMARK  status: ('A' for Active; 'I' for Inactive)
REMARK    1  A    between atoms: C7_7  and  N9_9 
ROOT
HETATM    1  C1  UNL     1     -36.103  13.850  -4.360  1.00 20.00     0.089 C 
HETATM    2  C7  UNL     1     -36.371  15.254  -4.056  1.00 20.00     0.396 C 
HETATM    3  N8  UNL     1     -35.893  12.734  -4.600  1.00 20.00    -0.195 NA
ENDROOT
BRANCH   2   4
HETATM    4  N9  UNL     1     -35.135  16.035  -4.070  1.00 20.00     0.107 N 
HETATM    5  C2  UNL     1     -35.398  17.413  -4.504  1.00 20.00     0.284 C 
HETATM    6  C3  UNL     1     -34.123  18.198  -4.802  1.00 20.00     0.104 C 
HETATM    7  S10 UNL     1     -33.055  18.340  -3.347  1.00 20.00    -0.165 SA
HETATM    8  C4  UNL     1     -32.995  16.575  -2.927  1.00 20.00     0.109 C 
HETATM    9  C5  UNL     1     -34.387  15.934  -2.800  1.00 20.00     0.229 C 
HETATM   10  C6  UNL     1     -35.132  16.438  -1.552  1.00 20.00     0.043 C 
ENDBRANCH   2   4
TORSDOF 1
ENDMDL
MODEL 3
REMARK VINA RESULT:      -3.8     17.585     18.602
REMARK  1 active torsions:
REMARK  status: ('A' for Active; 'I' for Inactive)
REMARK    1  A    between atoms: C7_7  and  N9_9 
ROOT
HETATM    1  C1  UNL     1     -36.793  14.108  -4.401  1.00 20.00     0.089 C 
HETATM    2  C7  UNL     1     -35.339  14.248  -4.436  1.00 20.00     0.396 C 
HETATM    3  N8  UNL     1     -37.948  13.992  -4.376  1.00 20.00    -0.195 NA
ENDROOT
BRANCH   2   4
HETATM    4  N9  UNL     1     -34.933  15.568  -3.954  1.00 20.00     0.107 N 
HETATM    5  C2  UNL     1     -33.531  15.550  -3.517  1.00 20.00     0.284 C 
HETATM    6  C3  UNL     1     -33.127  16.810  -2.755  1.00 20.00     0.104 C 
HETATM    7  S10 UNL     1     -33.306  18.303  -3.764  1.00 20.00    -0.165 SA
HETATM    8  C4  UNL     1     -35.024  18.030  -4.285  1.00 20.00     0.109 C 
HETATM    9  C5  UNL     1     -35.253  16.645  -4.913  1.00 20.00     0.229 C 
HETATM   10  C6  UNL     1     -34.578  16.527  -6.290  1.00 20.00     0.043 C 
ENDBRANCH   2   4
TORSDOF 1
ENDMDL
MODEL 4
REMARK VINA RESULT:      -3.6     17.001     17.975
REMARK  1 active torsions:
REMARK  status: ('A' for Active; 'I' for Inactive)
REMARK    1  A    between atoms: C7_7  and  N9_9 
ROOT
HETATM    1  C1  UNL     1     -35.323  13.736  -4.126  1.00 20.00     0.089 C 
HETATM    2  C7  UNL     1     -34.562  14.853  -3.572  1.00 20.00     0.396 C 
HETATM    3  N8  UNL     1     -35.924  12.847  -4.568  1.00 20.00    -0.195 NA
ENDROOT
BRANCH   2   4
HETATM    4  N9  UNL     1     -35.434  15.757  -2.822  1.00 20.00     0.107 N 
HETATM    5  C2  UNL     1     -34.674  16.476  -1.794  1.00 20.00     0.284 C 
HETATM    6  C3  UNL     1     -35.565  17.223  -0.805  1.00 20.00     0.104 C 
HETATM    7  S10 UNL     1     -36.589  18.475  -1.622  1.00 20.00    -0.165 SA
HETATM    8  C4  UNL     1     -37.298  17.400  -2.900  1.00 20.00     0.109 C 
HETATM    9  C5  UNL     1     -36.236  16.631  -3.704  1.00 20.00     0.229 C 
HETATM   10  C6  UNL     1     -35.428  17.567  -4.619  1.00 20.00     0.043 C 
ENDBRANCH   2   4
TORSDOF 1
ENDMDL
MODEL 5
REMARK VINA RESULT:      -3.5     17.019     17.974
REMARK  1 active torsions:
REMARK  status: ('A' for Active; 'I' for Inactive)
REMARK    1  A    between atoms: C7_7  and  N9_9 
ROOT
HETATM    1  C1  UNL     1     -35.218  13.683  -4.214  1.00 20.00     0.089 C 
HETATM    2  C7  UNL     1     -34.237  14.673  -3.775  1.00 20.00     0.396 C 
HETATM    3  N8  UNL     1     -35.995  12.895  -4.562  1.00 20.00    -0.195 NA
ENDROOT
BRANCH   2   4
HETATM    4  N9  UNL     1     -34.733  16.031  -3.995  1.00 20.00     0.107 N 
HETATM    5  C2  UNL     1     -35.948  16.272  -3.208  1.00 20.00     0.284 C 
HETATM    6  C3  UNL     1     -36.665  17.563  -3.597  1.00 20.00     0.104 C 
HETATM    7  S10 UNL     1     -35.623  19.023  -3.346  1.00 20.00    -0.165 SA
HETATM    8  C4  UNL     1     -34.173  18.438  -4.269  1.00 20.00     0.109 C 
HETATM    9  C5  UNL     1     -33.682  17.054  -3.812  1.00 20.00     0.229 C 
HETATM   10  C6  UNL     1     -33.050  17.110  -2.410  1.00 20.00     0.043 C 
ENDBRANCH   2   4
TORSDOF 1
ENDMDL
MODEL 6
REMARK VINA RESULT:      -3.5     17.208     18.215
REMARK  1 active torsions:
REMARK  status: ('A' for Active; 'I' for Inactive)
REMARK    1  A    between atoms: C7_7  and  N9_9 
ROOT
HETATM    1  C1  UNL     1     -37.346  14.782  -4.584  1.00 20.00     0.089 C 
HETATM    2  C7  UNL     1     -36.374  15.828  -4.897  1.00 20.00     0.396 C 
HETATM    3  N8  UNL     1     -38.120  13.953  -4.339  1.00 20.00    -0.195 NA
ENDROOT
BRANCH   2   4
HETATM    4  N9  UNL     1     -35.432  16.010  -3.793  1.00 20.00     0.107 N 
HETATM    5  C2  UNL     1     -34.148  16.521  -4.288  1.00 20.00     0.284 C 
HETATM    6  C3  UNL     1     -33.042  16.474  -3.236  1.00 20.00     0.104 C 
HETATM    7  S10 UNL     1     -33.441  17.479  -1.783  1.00 20.00    -0.165 SA
HETATM    8  C4  UNL     1     -35.081  16.774  -1.454  1.00 20.00     0.109 C 
HETATM    9  C5  UNL     1     -36.007  16.795  -2.682  1.00 20.00     0.229 C 
HETATM   10  C6  UNL     1     -36.443  18.226  -3.039  1.00 20.00     0.043 C 
ENDBRANCH   2   4
TORSDOF 1
ENDMDL
MODEL 7
REMARK VINA RESULT:      -3.5     14.766     15.852
REMARK  1 active torsions:
REMARK  status: ('A' for Active; 'I' for Inactive)
REMARK    1  A    between atoms: C7_7  and  N9_9 
ROOT
HETATM    1  C1  UNL     1     -31.584  18.403  -0.562  1.00 20.00     0.089 C 
HETATM    2  C7  UNL     1     -33.006  18.513  -0.882  1.00 20.00     0.396 C 
HETATM    3  N8  UNL     1     -30.456  18.319  -0.306  1.00 20.00    -0.195 NA
ENDROOT
BRANCH   2   4
HETATM    4  N9  UNL     1     -33.462  17.345  -1.634  1.00 20.00     0.107 N 
HETATM    5  C2  UNL     1     -34.928  17.285  -1.658  1.00 20.00     0.284 C 
HETATM    6  C3  UNL     1     -35.463  15.956  -2.187  1.00 20.00     0.104 C 
HETATM    7  S10 UNL     1     -34.933  15.638  -3.889  1.00 20.00    -0.165 SA
HETATM    8  C4  UNL     1     -33.155  15.902  -3.635  1.00 20.00     0.109 C 
HETATM    9  C5  UNL     1     -32.832  17.249  -2.967  1.00 20.00     0.229 C 
HETATM   10  C6  UNL     1     -33.102  18.431  -3.914  1.00 20.00     0.043 C 
ENDBRANCH   2   4
TORSDOF 1
ENDMDL
MODEL 8
REMARK VINA RESULT:      -3.4     18.201     19.172
REMARK  1 active torsions:
REMARK  status: ('A' for Active; 'I' for Inactive)
REMARK    1  A    between atoms: C7_7  and  N9_9 
ROOT
HETATM    1  C1  UNL     1     -34.728  15.977  -2.310  1.00 20.00     0.089 C 
HETATM    2  C7  UNL     1     -34.113  15.163  -3.356  1.00 20.00     0.396 C 
HETATM    3  N8  UNL     1     -35.215  16.621  -1.476  1.00 20.00    -0.195 NA
ENDROOT
BRANCH   2   4
HETATM    4  N9  UNL     1     -34.627  15.534  -4.674  1.00 20.00     0.107 N 
HETATM    5  C2  UNL     1     -33.815  14.928  -5.736  1.00 20.00     0.284 C 
HETATM    6  C3  UNL     1     -34.127  15.490  -7.121  1.00 20.00     0.104 C 
HETATM    7  S10 UNL     1     -35.851  15.204  -7.599  1.00 20.00    -0.165 SA
HETATM    8  C4  UNL     1     -36.626  15.893  -6.109  1.00 20.00     0.109 C 
HETATM    9  C5  UNL     1     -36.078  15.286  -4.806  1.00 20.00     0.229 C 
HETATM   10  C6  UNL     1     -36.517  13.822  -4.633  1.00 20.00     0.043 C 
ENDBRANCH   2   4
TORSDOF 1
ENDMDL
MODEL 9
REMARK VINA RESULT:      -3.3     17.313     18.280
REMARK  1 active torsions:
REMARK  status: ('A' for Active; 'I' for Inactive)
REMARK    1  A    between atoms: C7_7  and  N9_9 
ROOT
HETATM    1  C1  UNL     1     -35.169  16.876  -1.193  1.00 20.00     0.089 C 
HETATM    2  C7  UNL     1     -34.332  16.286  -2.235  1.00 20.00     0.396 C 
HETATM    3  N8  UNL     1     -35.831  17.345  -0.364  1.00 20.00    -0.195 NA
ENDROOT
BRANCH   2   4
HETATM    4  N9  UNL     1     -35.143  15.857  -3.375  1.00 20.00     0.107 N 
HETATM    5  C2  UNL     1     -35.169  16.897  -4.411  1.00 20.00     0.284 C 
HETATM    6  C3  UNL     1     -36.209  16.631  -5.496  1.00 20.00     0.104 C 
HETATM    7  S10 UNL     1     -35.898  15.076  -6.371  1.00 20.00    -0.165 SA
HETATM    8  C4  UNL     1     -35.770  14.006  -4.911  1.00 20.00     0.109 C 
HETATM    9  C5  UNL     1     -34.760  14.519  -3.870  1.00 20.00     0.229 C 
HETATM   10  C6  UNL     1     -33.312  14.390  -4.374  1.00 20.00     0.043 C 
ENDBRANCH   2   4
TORSDOF 1
ENDMDL
