MODEL 1
REMARK VINA RESULT:      -4.4      0.000      0.000
REMARK  1 active torsions:
REMARK  status: ('A' for Active; 'I' for Inactive)
REMARK    1  A    between atoms: C6_6  and  C8_8 
ROOT
HETATM    1  C3  UNL     1     -35.349  15.577  -7.456  1.00 20.00     0.046 C 
HETATM    2  C4  UNL     1     -35.604  16.396  -5.065  1.00 20.00     0.058 C 
HETATM    3  C5  UNL     1     -34.062  15.070  -6.827  1.00 20.00     0.170 C 
HETATM    4  C7  UNL     1     -36.034  16.575  -6.524  1.00 20.00     0.087 C 
HETATM    5  C8  UNL     1     -35.207  14.949  -4.687  1.00 20.00     0.062 C 
HETATM    6  C9  UNL     1     -36.442  14.046  -4.556  1.00 20.00     0.046 C 
HETATM    7  O10 UNL     1     -34.339  14.322  -5.646  1.00 20.00    -0.380 OA
HETATM    8 CL11 UNL     1     -37.810  16.475  -6.702  1.00 20.00    -0.125 Cl
ENDROOT
BRANCH   5   9
HETATM    9  C6  UNL     1     -34.468  14.965  -3.362  1.00 20.00     0.020 A 
HETATM   10  C1  UNL     1     -33.576  16.121  -3.006  1.00 20.00     0.008 A 
HETATM   11  C2  UNL     1     -34.877  15.925  -2.279  1.00 20.00     0.008 A 
ENDBRANCH   5   9
TORSDOF 1
ENDMDL
MODEL 2
REMARK VINA RESULT:      -4.3      2.027      2.770
REMARK  1 active torsions:
REMARK  status: ('A' for Active; 'I' for Inactive)
REMARK    1  A    between atoms: C6_6  and  C8_8 
ROOT
HETATM    1  C3  UNL     1     -36.146  15.925  -5.362  1.00 20.00     0.046 C 
HETATM    2  C4  UNL     1     -35.223  15.456  -3.041  1.00 20.00     0.058 C 
HETATM    3  C5  UNL     1     -35.420  17.225  -5.060  1.00 20.00     0.170 C 
HETATM    4  C7  UNL     1     -36.276  15.086  -4.091  1.00 20.00     0.087 C 
HETATM    5  C8  UNL     1     -33.895  15.989  -3.627  1.00 20.00     0.062 C 
HETATM    6  C9  UNL     1     -33.057  14.856  -4.237  1.00 20.00     0.046 C 
HETATM    7  O10 UNL     1     -34.076  16.969  -4.662  1.00 20.00    -0.380 OA
HETATM    8 CL11 UNL     1     -36.224  13.343  -4.488  1.00 20.00    -0.125 Cl
ENDROOT
BRANCH   5   9
HETATM    9  C6  UNL     1     -33.094  16.651  -2.522  1.00 20.00     0.020 A 
HETATM   10  C1  UNL     1     -32.731  18.106  -2.617  1.00 20.00     0.008 A 
HETATM   11  C2  UNL     1     -33.747  17.650  -1.608  1.00 20.00     0.008 A 
ENDBRANCH   5   9
TORSDOF 1
ENDMDL
MODEL 3
REMARK VINA RESULT:      -4.2      1.814      2.453
REMARK  1 active torsions:
REMARK  status: ('A' for Active; 'I' for Inactive)
REMARK    1  A    between atoms: C6_6  and  C8_8 
ROOT
HETATM    1  C3  UNL     1     -35.907  14.408  -5.992  1.00 20.00     0.046 C 
HETATM    2  C4  UNL     1     -33.885  15.278  -4.723  1.00 20.00     0.058 C 
HETATM    3  C5  UNL     1     -36.255  14.012  -4.567  1.00 20.00     0.170 C 
HETATM    4  C7  UNL     1     -34.442  14.832  -6.079  1.00 20.00     0.087 C 
HETATM    5  C8  UNL     1     -34.936  15.892  -3.770  1.00 20.00     0.062 C 
HETATM    6  C9  UNL     1     -35.327  17.311  -4.206  1.00 20.00     0.046 C 
HETATM    7  O10 UNL     1     -36.156  15.135  -3.694  1.00 20.00    -0.380 OA
HETATM    8 CL11 UNL     1     -34.234  16.099  -7.324  1.00 20.00    -0.125 Cl
ENDROOT
BRANCH   5   9
HETATM    9  C6  UNL     1     -34.361  15.951  -2.367  1.00 20.00     0.020 A 
HETATM   10  C1  UNL     1     -33.838  17.249  -1.817  1.00 20.00     0.008 A 
HETATM   11  C2  UNL     1     -35.110  16.660  -1.272  1.00 20.00     0.008 A 
ENDBRANCH   5   9
TORSDOF 1
ENDMDL
MODEL 4
REMARK VINA RESULT:      -4.1      3.204      4.451
REMARK  1 active torsions:
REMARK  status: ('A' for Active; 'I' for Inactive)
REMARK    1  A    between atoms: C6_6  and  C8_8 
ROOT
HETATM    1  C3  UNL     1     -33.696  19.180  -3.178  1.00 20.00     0.046 C 
HETATM    2  C4  UNL     1     -32.935  16.821  -2.619  1.00 20.00     0.058 C 
HETATM    3  C5  UNL     1     -34.410  18.373  -4.249  1.00 20.00     0.170 C 
HETATM    4  C7  UNL     1     -32.641  18.319  -2.485  1.00 20.00     0.087 C 
HETATM    5  C8  UNL     1     -34.437  16.471  -2.737  1.00 20.00     0.062 C 
HETATM    6  C9  UNL     1     -35.151  16.608  -1.384  1.00 20.00     0.046 C 
HETATM    7  O10 UNL     1     -35.151  17.304  -3.665  1.00 20.00    -0.380 OA
HETATM    8 CL11 UNL     1     -32.471  18.804  -0.772  1.00 20.00    -0.125 Cl
ENDROOT
BRANCH   5   9
HETATM    9  C6  UNL     1     -34.578  15.041  -3.223  1.00 20.00     0.020 A 
HETATM   10  C1  UNL     1     -35.199  14.754  -4.561  1.00 20.00     0.008 A 
HETATM   11  C2  UNL     1     -33.725  14.539  -4.356  1.00 20.00     0.008 A 
ENDBRANCH   5   9
TORSDOF 1
ENDMDL
MODEL 5
REMARK VINA RESULT:      -4.0      2.454      3.887
REMARK  1 active torsions:
REMARK  status: ('A' for Active; 'I' for Inactive)
REMARK    1  A    between atoms: C6_6  and  C8_8 
ROOT
HETATM    1  C3  UNL     1     -33.067  16.734  -2.685  1.00 20.00     0.046 C 
HETATM    2  C4  UNL     1     -35.481  15.948  -2.578  1.00 20.00     0.058 C 
HETATM    3  C5  UNL     1     -33.087  15.677  -3.777  1.00 20.00     0.170 C 
HETATM    4  C7  UNL     1     -34.332  16.636  -1.834  1.00 20.00     0.087 C 
HETATM    5  C8  UNL     1     -35.450  16.133  -4.114  1.00 20.00     0.062 C 
HETATM    6  C9  UNL     1     -35.883  17.550  -4.516  1.00 20.00     0.046 C 
HETATM    7  O10 UNL     1     -34.152  15.920  -4.692  1.00 20.00    -0.380 OA
HETATM    8 CL11 UNL     1     -34.809  18.254  -1.240  1.00 20.00    -0.125 Cl
ENDROOT
BRANCH   5   9
HETATM    9  C6  UNL     1     -36.393  15.131  -4.754  1.00 20.00     0.020 A 
HETATM   10  C1  UNL     1     -35.933  14.293  -5.914  1.00 20.00     0.008 A 
HETATM   11  C2  UNL     1     -36.167  13.656  -4.573  1.00 20.00     0.008 A 
ENDBRANCH   5   9
TORSDOF 1
ENDMDL
MODEL 6
REMARK VINA RESULT:      -4.0      1.561      1.926
REMARK  1 active torsions:
REMARK  status: ('A' for Active; 'I' for Inactive)
REMARK    1  A    between atoms: C6_6  and  C8_8 
ROOT
HETATM    1  C3  UNL     1     -37.424  16.438  -5.887  1.00 20.00     0.046 C 
HETATM    2  C4  UNL     1     -36.785  15.851  -3.499  1.00 20.00     0.058 C 
HETATM    3  C5  UNL     1     -35.939  16.758  -5.887  1.00 20.00     0.170 C 
HETATM    4  C7  UNL     1     -37.919  16.233  -4.456  1.00 20.00     0.087 C 
HETATM    5  C8  UNL     1     -35.621  15.076  -4.162  1.00 20.00     0.062 C 
HETATM    6  C9  UNL     1     -36.015  13.622  -4.460  1.00 20.00     0.046 C 
HETATM    7  O10 UNL     1     -35.185  15.648  -5.406  1.00 20.00    -0.380 OA
HETATM    8 CL11 UNL     1     -39.240  15.028  -4.422  1.00 20.00    -0.125 Cl
ENDROOT
BRANCH   5   9
HETATM    9  C6  UNL     1     -34.426  15.078  -3.228  1.00 20.00     0.020 A 
HETATM   10  C1  UNL     1     -33.213  15.904  -3.552  1.00 20.00     0.008 A 
HETATM   11  C2  UNL     1     -34.107  16.299  -2.410  1.00 20.00     0.008 A 
ENDBRANCH   5   9
TORSDOF 1
ENDMDL
MODEL 7
REMARK VINA RESULT:      -3.9      3.134      4.486
REMARK  1 active torsions:
REMARK  status: ('A' for Active; 'I' for Inactive)
REMARK    1  A    between atoms: C6_6  and  C8_8 
ROOT
HETATM    1  C3  UNL     1     -35.254  15.701  -2.770  1.00 20.00     0.046 C 
HETATM    2  C4  UNL     1     -32.837  16.439  -3.039  1.00 20.00     0.058 C 
HETATM    3  C5  UNL     1     -35.080  16.606  -1.562  1.00 20.00     0.170 C 
HETATM    4  C7  UNL     1     -33.894  15.388  -3.394  1.00 20.00     0.087 C 
HETATM    5  C8  UNL     1     -33.402  17.858  -2.795  1.00 20.00     0.062 C 
HETATM    6  C9  UNL     1     -33.801  18.536  -4.113  1.00 20.00     0.046 C 
HETATM    7  O10 UNL     1     -34.567  17.876  -1.954  1.00 20.00    -0.380 OA
HETATM    8 CL11 UNL     1     -34.053  15.187  -5.164  1.00 20.00    -0.125 Cl
ENDROOT
BRANCH   5   9
HETATM    9  C6  UNL     1     -32.345  18.703  -2.110  1.00 20.00     0.020 A 
HETATM   10  C1  UNL     1     -32.594  19.263  -0.737  1.00 20.00     0.008 A 
HETATM   11  C2  UNL     1     -31.590  18.160  -0.928  1.00 20.00     0.008 A 
ENDBRANCH   5   9
TORSDOF 1
ENDMDL
MODEL 8
REMARK VINA RESULT:      -3.9      2.445      4.075
REMARK  1 active torsions:
REMARK  status: ('A' for Active; 'I' for Inactive)
REMARK    1  A    between atoms: C6_6  and  C8_8 
ROOT
HETATM    1  C3  UNL     1     -35.141  16.117  -2.224  1.00 20.00     0.046 C 
HETATM    2  C4  UNL     1     -34.063  16.876  -4.396  1.00 20.00     0.058 C 
HETATM    3  C5  UNL     1     -36.045  15.459  -3.253  1.00 20.00     0.170 C 
HETATM    4  C7  UNL     1     -34.238  17.149  -2.899  1.00 20.00     0.087 C 
HETATM    5  C8  UNL     1     -34.166  15.384  -4.792  1.00 20.00     0.062 C 
HETATM    6  C9  UNL     1     -32.904  14.610  -4.386  1.00 20.00     0.046 C 
HETATM    7  O10 UNL     1     -35.278  14.704  -4.187  1.00 20.00    -0.380 OA
HETATM    8 CL11 UNL     1     -32.661  17.238  -2.060  1.00 20.00    -0.125 Cl
ENDROOT
BRANCH   5   9
HETATM    9  C6  UNL     1     -34.344  15.279  -6.295  1.00 20.00     0.020 A 
HETATM   10  C1  UNL     1     -35.599  14.685  -6.870  1.00 20.00     0.008 A 
HETATM   11  C2  UNL     1     -35.336  16.159  -7.003  1.00 20.00     0.008 A 
ENDBRANCH   5   9
TORSDOF 1
ENDMDL
MODEL 9
REMARK VINA RESULT:      -3.9      2.628      4.285
REMARK  1 active torsions:
REMARK  status: ('A' for Active; 'I' for Inactive)
REMARK    1  A    between atoms: C6_6  and  C8_8 
ROOT
HETATM    1  C3  UNL     1     -33.837  18.199  -1.379  1.00 20.00     0.046 C 
HETATM    2  C4  UNL     1     -35.043  16.022  -1.894  1.00 20.00     0.058 C 
HETATM    3  C5  UNL     1     -32.804  17.477  -2.228  1.00 20.00     0.170 C 
HETATM    4  C7  UNL     1     -34.942  17.230  -0.958  1.00 20.00     0.087 C 
HETATM    5  C8  UNL     1     -34.611  16.304  -3.352  1.00 20.00     0.062 C 
HETATM    6  C9  UNL     1     -35.672  17.121  -4.103  1.00 20.00     0.046 C 
HETATM    7  O10 UNL     1     -33.379  17.038  -3.455  1.00 20.00    -0.380 OA
HETATM    8 CL11 UNL     1     -36.504  18.090  -0.824  1.00 20.00    -0.125 Cl
ENDROOT
BRANCH   5   9
HETATM    9  C6  UNL     1     -34.405  14.986  -4.074  1.00 20.00     0.020 A 
HETATM   10  C1  UNL     1     -33.920  14.969  -5.497  1.00 20.00     0.008 A 
HETATM   11  C2  UNL     1     -33.016  14.504  -4.389  1.00 20.00     0.008 A 
ENDBRANCH   5   9
TORSDOF 1
ENDMDL
