MODEL 1
REMARK VINA RESULT:      -4.2      0.000      0.000
REMARK  2 active torsions:
REMARK  status: ('A' for Active; 'I' for Inactive)
REMARK    1  A    between atoms: C5_5  and  C8_8 
REMARK    2  A    between atoms: C5_5  and  C9_9 
ROOT
HETATM    1  C1  UNL     1     -32.987  15.850  -3.775  1.00 20.00     0.046 C 
HETATM    2  C2  UNL     1     -35.246  16.276  -4.794  1.00 20.00     0.058 C 
HETATM    3  C3  UNL     1     -33.100  14.423  -4.288  1.00 20.00     0.170 C 
HETATM    4  C4  UNL     1     -34.356  16.494  -3.569  1.00 20.00     0.087 C 
HETATM    5  C5  UNL     1     -35.207  14.850  -5.391  1.00 20.00     0.061 C 
HETATM    6  O10 UNL     1     -33.858  14.373  -5.494  1.00 20.00    -0.380 OA
HETATM    7 CL11 UNL     1     -35.128  15.886  -2.076  1.00 20.00    -0.125 Cl
ENDROOT
BRANCH   5   8
HETATM    8  C8  UNL     1     -36.078  13.843  -4.628  1.00 20.00     0.033 C 
HETATM    9  C6  UNL     1     -37.439  14.390  -4.365  1.00 20.00     0.008 C 
ENDBRANCH   5   8
BRANCH   5  10
HETATM   10  C9  UNL     1     -35.735  14.912  -6.836  1.00 20.00     0.033 C 
HETATM   11  C7  UNL     1     -34.700  15.439  -7.770  1.00 20.00     0.008 C 
ENDBRANCH   5  10
TORSDOF 2
ENDMDL
MODEL 2
REMARK VINA RESULT:      -4.0      2.221      4.075
REMARK  2 active torsions:
REMARK  status: ('A' for Active; 'I' for Inactive)
REMARK    1  A    between atoms: C5_5  and  C8_8 
REMARK    2  A    between atoms: C5_5  and  C9_9 
ROOT
HETATM    1  C1  UNL     1     -34.590  15.996  -5.586  1.00 20.00     0.046 C 
HETATM    2  C2  UNL     1     -33.185  15.577  -3.543  1.00 20.00     0.058 C 
HETATM    3  C3  UNL     1     -35.364  17.013  -4.762  1.00 20.00     0.170 C 
HETATM    4  C4  UNL     1     -33.932  14.932  -4.712  1.00 20.00     0.087 C 
HETATM    5  C5  UNL     1     -33.940  16.725  -2.832  1.00 20.00     0.061 C 
HETATM    6  O10 UNL     1     -34.526  17.623  -3.785  1.00 20.00    -0.380 OA
HETATM    7 CL11 UNL     1     -35.138  13.739  -4.145  1.00 20.00    -0.125 Cl
ENDROOT
BRANCH   5   8
HETATM    8  C8  UNL     1     -34.997  16.234  -1.833  1.00 20.00     0.033 C 
HETATM    9  C6  UNL     1     -35.114  17.156  -0.667  1.00 20.00     0.008 C 
ENDBRANCH   5   8
BRANCH   5  10
HETATM   10  C9  UNL     1     -32.919  17.565  -2.044  1.00 20.00     0.033 C 
HETATM   11  C7  UNL     1     -32.526  18.789  -2.799  1.00 20.00     0.008 C 
ENDBRANCH   5  10
TORSDOF 2
ENDMDL
MODEL 3
REMARK VINA RESULT:      -3.9      1.612      3.024
REMARK  2 active torsions:
REMARK  status: ('A' for Active; 'I' for Inactive)
REMARK    1  A    between atoms: C5_5  and  C8_8 
REMARK    2  A    between atoms: C5_5  and  C9_9 
ROOT
HETATM    1  C1  UNL     1     -34.728  16.465  -7.352  1.00 20.00     0.046 C 
HETATM    2  C2  UNL     1     -35.930  16.284  -5.151  1.00 20.00     0.058 C 
HETATM    3  C3  UNL     1     -33.944  15.226  -6.948  1.00 20.00     0.170 C 
HETATM    4  C4  UNL     1     -35.250  17.232  -6.140  1.00 20.00     0.087 C 
HETATM    5  C5  UNL     1     -35.182  14.955  -4.891  1.00 20.00     0.061 C 
HETATM    6  O10 UNL     1     -34.729  14.372  -6.121  1.00 20.00    -0.380 OA
HETATM    7 CL11 UNL     1     -33.937  18.164  -5.363  1.00 20.00    -0.125 Cl
ENDROOT
BRANCH   5   8
HETATM    8  C8  UNL     1     -34.019  15.092  -3.899  1.00 20.00     0.033 C 
HETATM    9  C6  UNL     1     -34.448  15.783  -2.650  1.00 20.00     0.008 C 
ENDBRANCH   5   8
BRANCH   5  10
HETATM   10  C9  UNL     1     -36.178  13.943  -4.296  1.00 20.00     0.033 C 
HETATM   11  C7  UNL     1     -37.576  14.453  -4.366  1.00 20.00     0.008 C 
ENDBRANCH   5  10
TORSDOF 2
ENDMDL
MODEL 4
REMARK VINA RESULT:      -3.8      2.250      4.024
REMARK  2 active torsions:
REMARK  status: ('A' for Active; 'I' for Inactive)
REMARK    1  A    between atoms: C5_5  and  C8_8 
REMARK    2  A    between atoms: C5_5  and  C9_9 
ROOT
HETATM    1  C1  UNL     1     -37.314  15.954  -5.404  1.00 20.00     0.046 C 
HETATM    2  C2  UNL     1     -34.910  16.532  -4.950  1.00 20.00     0.058 C 
HETATM    3  C3  UNL     1     -37.214  14.943  -4.273  1.00 20.00     0.170 C 
HETATM    4  C4  UNL     1     -35.954  16.247  -6.032  1.00 20.00     0.087 C 
HETATM    5  C5  UNL     1     -34.948  15.581  -3.731  1.00 20.00     0.061 C 
HETATM    6  O10 UNL     1     -36.294  15.381  -3.277  1.00 20.00    -0.380 OA
HETATM    7 CL11 UNL     1     -35.446  14.911  -7.104  1.00 20.00    -0.125 Cl
ENDROOT
BRANCH   5   8
HETATM    8  C8  UNL     1     -34.259  14.233  -3.986  1.00 20.00     0.033 C 
HETATM    9  C6  UNL     1     -32.845  14.417  -4.421  1.00 20.00     0.008 C 
ENDBRANCH   5   8
BRANCH   5  10
HETATM   10  C9  UNL     1     -34.212  16.259  -2.561  1.00 20.00     0.033 C 
HETATM   11  C7  UNL     1     -35.135  16.528  -1.423  1.00 20.00     0.008 C 
ENDBRANCH   5  10
TORSDOF 2
ENDMDL
MODEL 5
REMARK VINA RESULT:      -3.8      2.034      3.234
REMARK  2 active torsions:
REMARK  status: ('A' for Active; 'I' for Inactive)
REMARK    1  A    between atoms: C5_5  and  C8_8 
REMARK    2  A    between atoms: C5_5  and  C9_9 
ROOT
HETATM    1  C1  UNL     1     -33.971  17.265  -1.465  1.00 20.00     0.046 C 
HETATM    2  C2  UNL     1     -33.240  15.864  -3.421  1.00 20.00     0.058 C 
HETATM    3  C3  UNL     1     -35.403  17.029  -1.918  1.00 20.00     0.170 C 
HETATM    4  C4  UNL     1     -32.978  17.139  -2.617  1.00 20.00     0.087 C 
HETATM    5  C5  UNL     1     -34.729  15.568  -3.720  1.00 20.00     0.061 C 
HETATM    6  O10 UNL     1     -35.536  15.758  -2.550  1.00 20.00    -0.380 OA
HETATM    7 CL11 UNL     1     -33.021  18.593  -3.657  1.00 20.00    -0.125 Cl
ENDROOT
BRANCH   5   8
HETATM    8  C8  UNL     1     -35.288  16.377  -4.898  1.00 20.00     0.033 C 
HETATM    9  C6  UNL     1     -34.402  16.282  -6.094  1.00 20.00     0.008 C 
ENDBRANCH   5   8
BRANCH   5  10
HETATM   10  C9  UNL     1     -34.867  14.078  -4.080  1.00 20.00     0.033 C 
HETATM   11  C7  UNL     1     -36.274  13.731  -4.429  1.00 20.00     0.008 C 
ENDBRANCH   5  10
TORSDOF 2
ENDMDL
MODEL 6
REMARK VINA RESULT:      -3.7      2.246      4.212
REMARK  2 active torsions:
REMARK  status: ('A' for Active; 'I' for Inactive)
REMARK    1  A    between atoms: C5_5  and  C8_8 
REMARK    2  A    between atoms: C5_5  and  C9_9 
ROOT
HETATM    1  C1  UNL     1     -34.639  14.081  -3.940  1.00 20.00     0.046 C 
HETATM    2  C2  UNL     1     -35.099  16.135  -2.566  1.00 20.00     0.058 C 
HETATM    3  C3  UNL     1     -33.428  14.810  -4.500  1.00 20.00     0.170 C 
HETATM    4  C4  UNL     1     -35.713  15.048  -3.450  1.00 20.00     0.087 C 
HETATM    5  C5  UNL     1     -33.774  16.739  -3.087  1.00 20.00     0.061 C 
HETATM    6  O10 UNL     1     -32.883  15.709  -3.539  1.00 20.00    -0.380 OA
HETATM    7 CL11 UNL     1     -36.615  15.749  -4.825  1.00 20.00    -0.125 Cl
ENDROOT
BRANCH   5   8
HETATM    8  C8  UNL     1     -33.973  17.797  -4.181  1.00 20.00     0.033 C 
HETATM    9  C6  UNL     1     -32.904  18.834  -4.136  1.00 20.00     0.008 C 
ENDBRANCH   5   8
BRANCH   5  10
HETATM   10  C9  UNL     1     -33.054  17.423  -1.911  1.00 20.00     0.033 C 
HETATM   11  C7  UNL     1     -34.000  17.737  -0.804  1.00 20.00     0.008 C 
ENDBRANCH   5  10
TORSDOF 2
ENDMDL
MODEL 7
REMARK VINA RESULT:      -3.7      1.338      2.297
REMARK  2 active torsions:
REMARK  status: ('A' for Active; 'I' for Inactive)
REMARK    1  A    between atoms: C5_5  and  C8_8 
REMARK    2  A    between atoms: C5_5  and  C9_9 
ROOT
HETATM    1  C1  UNL     1     -34.925  13.426  -3.922  1.00 20.00     0.046 C 
HETATM    2  C2  UNL     1     -34.168  15.348  -5.354  1.00 20.00     0.058 C 
HETATM    3  C3  UNL     1     -36.268  13.516  -4.629  1.00 20.00     0.170 C 
HETATM    4  C4  UNL     1     -34.177  14.756  -3.943  1.00 20.00     0.087 C 
HETATM    5  C5  UNL     1     -35.516  15.271  -6.109  1.00 20.00     0.061 C 
HETATM    6  O10 UNL     1     -36.109  13.973  -5.970  1.00 20.00    -0.380 OA
HETATM    7 CL11 UNL     1     -34.868  15.896  -2.753  1.00 20.00    -0.125 Cl
ENDROOT
BRANCH   5   8
HETATM    8  C8  UNL     1     -36.511  16.365  -5.698  1.00 20.00     0.033 C 
HETATM    9  C6  UNL     1     -35.889  17.719  -5.762  1.00 20.00     0.008 C 
ENDBRANCH   5   8
BRANCH   5  10
HETATM   10  C9  UNL     1     -35.241  15.442  -7.614  1.00 20.00     0.033 C 
HETATM   11  C7  UNL     1     -33.785  15.346  -7.915  1.00 20.00     0.008 C 
ENDBRANCH   5  10
TORSDOF 2
ENDMDL
MODEL 8
REMARK VINA RESULT:      -3.7      2.089      3.415
REMARK  2 active torsions:
REMARK  status: ('A' for Active; 'I' for Inactive)
REMARK    1  A    between atoms: C5_5  and  C8_8 
REMARK    2  A    between atoms: C5_5  and  C9_9 
ROOT
HETATM    1  C1  UNL     1     -35.652  18.314  -2.501  1.00 20.00     0.046 C 
HETATM    2  C2  UNL     1     -35.072  15.935  -1.933  1.00 20.00     0.058 C 
HETATM    3  C3  UNL     1     -35.171  18.023  -3.913  1.00 20.00     0.170 C 
HETATM    4  C4  UNL     1     -35.002  17.392  -1.473  1.00 20.00     0.087 C 
HETATM    5  C5  UNL     1     -34.737  15.697  -3.424  1.00 20.00     0.061 C 
HETATM    6  O10 UNL     1     -35.397  16.659  -4.259  1.00 20.00    -0.380 OA
HETATM    7 CL11 UNL     1     -33.320  17.897  -1.138  1.00 20.00    -0.125 Cl
ENDROOT
BRANCH   5   8
HETATM    8  C8  UNL     1     -33.230  15.674  -3.715  1.00 20.00     0.033 C 
HETATM    9  C6  UNL     1     -32.835  14.435  -4.443  1.00 20.00     0.008 C 
ENDBRANCH   5   8
BRANCH   5  10
HETATM   10  C9  UNL     1     -35.306  14.328  -3.839  1.00 20.00     0.033 C 
HETATM   11  C7  UNL     1     -36.715  14.446  -4.310  1.00 20.00     0.008 C 
ENDBRANCH   5  10
TORSDOF 2
ENDMDL
MODEL 9
REMARK VINA RESULT:      -3.7      2.305      3.660
REMARK  2 active torsions:
REMARK  status: ('A' for Active; 'I' for Inactive)
REMARK    1  A    between atoms: C5_5  and  C8_8 
REMARK    2  A    between atoms: C5_5  and  C9_9 
ROOT
HETATM    1  C1  UNL     1     -34.340  17.086  -7.259  1.00 20.00     0.046 C 
HETATM    2  C2  UNL     1     -33.985  14.990  -5.916  1.00 20.00     0.058 C 
HETATM    3  C3  UNL     1     -35.152  17.617  -6.089  1.00 20.00     0.170 C 
HETATM    4  C4  UNL     1     -34.319  15.560  -7.296  1.00 20.00     0.087 C 
HETATM    5  C5  UNL     1     -34.708  15.670  -4.730  1.00 20.00     0.061 C 
HETATM    6  O10 UNL     1     -34.668  17.098  -4.853  1.00 20.00    -0.380 OA
HETATM    7 CL11 UNL     1     -35.867  14.917  -7.918  1.00 20.00    -0.125 Cl
ENDROOT
BRANCH   5   8
HETATM    8  C8  UNL     1     -36.152  15.186  -4.536  1.00 20.00     0.033 C 
HETATM    9  C6  UNL     1     -36.233  13.698  -4.536  1.00 20.00     0.008 C 
ENDBRANCH   5   8
BRANCH   5  10
HETATM   10  C9  UNL     1     -33.937  15.344  -3.438  1.00 20.00     0.033 C 
HETATM   11  C7  UNL     1     -34.488  16.092  -2.273  1.00 20.00     0.008 C 
ENDBRANCH   5  10
TORSDOF 2
ENDMDL
