MODEL 1
REMARK VINA RESULT:      -4.5      0.000      0.000
REMARK  0 active torsions:
REMARK  status: ('A' for Active; 'I' for Inactive)
ROOT
HETATM    1  C1  UNL     1     -33.939  17.347  -1.673  1.00 20.00     0.088 C 
HETATM    2  C2  UNL     1     -33.747  15.601  -3.320  1.00 20.00    -0.066 C 
HETATM    3  C3  UNL     1     -33.207  16.629  -2.652  1.00 20.00     0.096 C 
HETATM    4  C4  UNL     1     -32.999  14.817  -4.364  1.00 20.00     0.061 C 
HETATM    5  C5  UNL     1     -35.167  15.143  -3.119  1.00 20.00     0.066 C 
HETATM    6  C6  UNL     1     -33.829  14.753  -5.643  1.00 20.00     0.172 C 
HETATM    7  C7  UNL     1     -35.874  15.068  -4.478  1.00 20.00     0.121 C 
HETATM    8  C8  UNL     1     -37.270  14.476  -4.335  1.00 20.00     0.040 C 
HETATM    9  N9  UNL     1     -34.533  17.940  -0.871  1.00 20.00    -0.192 NA
HETATM   10  O10 UNL     1     -35.134  14.227  -5.376  1.00 20.00    -0.386 OA
ENDROOT
TORSDOF 0
ENDMDL
MODEL 2
REMARK VINA RESULT:      -4.4      1.299      2.458
REMARK  0 active torsions:
REMARK  status: ('A' for Active; 'I' for Inactive)
ROOT
HETATM    1  C1  UNL     1     -33.662  16.727  -2.277  1.00 20.00     0.088 C 
HETATM    2  C2  UNL     1     -35.276  15.559  -3.630  1.00 20.00    -0.066 C 
HETATM    3  C3  UNL     1     -34.787  15.878  -2.424  1.00 20.00     0.096 C 
HETATM    4  C4  UNL     1     -36.469  14.661  -3.821  1.00 20.00     0.061 C 
HETATM    5  C5  UNL     1     -34.665  16.040  -4.919  1.00 20.00     0.066 C 
HETATM    6  C6  UNL     1     -36.114  13.551  -4.806  1.00 20.00     0.172 C 
HETATM    7  C7  UNL     1     -34.410  14.840  -5.839  1.00 20.00     0.121 C 
HETATM    8  C8  UNL     1     -33.921  15.296  -7.207  1.00 20.00     0.040 C 
HETATM    9  N9  UNL     1     -32.741  17.422  -2.150  1.00 20.00    -0.192 NA
HETATM   10  O10 UNL     1     -35.623  14.098  -6.035  1.00 20.00    -0.386 OA
ENDROOT
TORSDOF 0
ENDMDL
MODEL 3
REMARK VINA RESULT:      -4.4      2.394      3.797
REMARK  0 active torsions:
REMARK  status: ('A' for Active; 'I' for Inactive)
ROOT
HETATM    1  C1  UNL     1     -37.447  14.164  -4.644  1.00 20.00     0.088 C 
HETATM    2  C2  UNL     1     -35.171  14.931  -4.813  1.00 20.00    -0.066 C 
HETATM    3  C3  UNL     1     -36.147  14.102  -5.205  1.00 20.00     0.096 C 
HETATM    4  C4  UNL     1     -33.781  14.893  -5.388  1.00 20.00     0.061 C 
HETATM    5  C5  UNL     1     -35.354  15.965  -3.734  1.00 20.00     0.066 C 
HETATM    6  C6  UNL     1     -32.764  14.809  -4.252  1.00 20.00     0.172 C 
HETATM    7  C7  UNL     1     -34.243  15.811  -2.688  1.00 20.00     0.121 C 
HETATM    8  C8  UNL     1     -34.310  16.925  -1.652  1.00 20.00     0.040 C 
HETATM    9  N9  UNL     1     -38.514  14.208  -4.188  1.00 20.00    -0.192 NA
HETATM   10  O10 UNL     1     -32.955  15.878  -3.319  1.00 20.00    -0.386 OA
ENDROOT
TORSDOF 0
ENDMDL
MODEL 4
REMARK VINA RESULT:      -4.3     11.186     11.734
REMARK  0 active torsions:
REMARK  status: ('A' for Active; 'I' for Inactive)
ROOT
HETATM    1  C1  UNL     1     -32.829   8.317   1.174  1.00 20.00     0.088 C 
HETATM    2  C2  UNL     1     -32.967   6.254   2.408  1.00 20.00    -0.066 C 
HETATM    3  C3  UNL     1     -32.925   6.905   1.237  1.00 20.00     0.096 C 
HETATM    4  C4  UNL     1     -33.068   4.756   2.511  1.00 20.00     0.061 C 
HETATM    5  C5  UNL     1     -32.950   6.955   3.740  1.00 20.00     0.066 C 
HETATM    6  C6  UNL     1     -34.227   4.388   3.434  1.00 20.00     0.172 C 
HETATM    7  C7  UNL     1     -34.126   6.460   4.591  1.00 20.00     0.121 C 
HETATM    8  C8  UNL     1     -34.065   7.040   5.997  1.00 20.00     0.040 C 
HETATM    9  N9  UNL     1     -32.751   9.474   1.115  1.00 20.00    -0.192 NA
HETATM   10  O10 UNL     1     -34.085   5.029   4.707  1.00 20.00    -0.386 OA
ENDROOT
TORSDOF 0
ENDMDL
MODEL 5
REMARK VINA RESULT:      -4.3      2.660      3.918
REMARK  0 active torsions:
REMARK  status: ('A' for Active; 'I' for Inactive)
ROOT
HETATM    1  C1  UNL     1     -37.313  14.306  -4.531  1.00 20.00     0.088 C 
HETATM    2  C2  UNL     1     -35.305  15.593  -4.200  1.00 20.00    -0.066 C 
HETATM    3  C3  UNL     1     -35.987  14.662  -4.881  1.00 20.00     0.096 C 
HETATM    4  C4  UNL     1     -33.897  15.996  -4.544  1.00 20.00     0.061 C 
HETATM    5  C5  UNL     1     -35.866  16.310  -3.000  1.00 20.00     0.066 C 
HETATM    6  C6  UNL     1     -33.026  15.913  -3.295  1.00 20.00     0.172 C 
HETATM    7  C7  UNL     1     -34.876  16.201  -1.834  1.00 20.00     0.121 C 
HETATM    8  C8  UNL     1     -35.340  17.030  -0.644  1.00 20.00     0.040 C 
HETATM    9  N9  UNL     1     -38.400  14.009  -4.249  1.00 20.00    -0.192 NA
HETATM   10  O10 UNL     1     -33.586  16.692  -2.232  1.00 20.00    -0.386 OA
ENDROOT
TORSDOF 0
ENDMDL
MODEL 6
REMARK VINA RESULT:      -4.2      2.986      3.893
REMARK  0 active torsions:
REMARK  status: ('A' for Active; 'I' for Inactive)
ROOT
HETATM    1  C1  UNL     1     -35.145  13.624  -4.182  1.00 20.00     0.088 C 
HETATM    2  C2  UNL     1     -34.265  15.747  -3.461  1.00 20.00    -0.066 C 
HETATM    3  C3  UNL     1     -34.073  14.459  -3.779  1.00 20.00     0.096 C 
HETATM    4  C4  UNL     1     -33.151  16.661  -3.029  1.00 20.00     0.061 C 
HETATM    5  C5  UNL     1     -35.619  16.404  -3.472  1.00 20.00     0.066 C 
HETATM    6  C6  UNL     1     -33.533  17.343  -1.719  1.00 20.00     0.172 C 
HETATM    7  C7  UNL     1     -35.859  17.098  -2.126  1.00 20.00     0.121 C 
HETATM    8  C8  UNL     1     -37.159  17.892  -2.145  1.00 20.00     0.040 C 
HETATM    9  N9  UNL     1     -36.018  12.934  -4.514  1.00 20.00    -0.192 NA
HETATM   10  O10 UNL     1     -34.791  18.015  -1.844  1.00 20.00    -0.386 OA
ENDROOT
TORSDOF 0
ENDMDL
MODEL 7
REMARK VINA RESULT:      -4.2      2.926      3.925
REMARK  0 active torsions:
REMARK  status: ('A' for Active; 'I' for Inactive)
ROOT
HETATM    1  C1  UNL     1     -36.194  14.000  -4.249  1.00 20.00     0.088 C 
HETATM    2  C2  UNL     1     -34.496  15.635  -3.756  1.00 20.00    -0.066 C 
HETATM    3  C3  UNL     1     -34.888  14.356  -3.828  1.00 20.00     0.096 C 
HETATM    4  C4  UNL     1     -33.118  16.048  -3.314  1.00 20.00     0.061 C 
HETATM    5  C5  UNL     1     -35.402  16.793  -4.081  1.00 20.00     0.066 C 
HETATM    6  C6  UNL     1     -33.232  17.091  -2.206  1.00 20.00     0.172 C 
HETATM    7  C7  UNL     1     -35.386  17.792  -2.917  1.00 20.00     0.121 C 
HETATM    8  C8  UNL     1     -36.181  19.044  -3.263  1.00 20.00     0.040 C 
HETATM    9  N9  UNL     1     -37.261  13.701  -4.593  1.00 20.00    -0.192 NA
HETATM   10  O10 UNL     1     -34.039  18.196  -2.629  1.00 20.00    -0.386 OA
ENDROOT
TORSDOF 0
ENDMDL
MODEL 8
REMARK VINA RESULT:      -4.2      2.193      3.440
REMARK  0 active torsions:
REMARK  status: ('A' for Active; 'I' for Inactive)
ROOT
HETATM    1  C1  UNL     1     -31.680  18.357  -0.622  1.00 20.00     0.088 C 
HETATM    2  C2  UNL     1     -33.732  17.930  -1.807  1.00 20.00    -0.066 C 
HETATM    3  C3  UNL     1     -33.083  18.486  -0.775  1.00 20.00     0.096 C 
HETATM    4  C4  UNL     1     -35.220  18.047  -2.000  1.00 20.00     0.061 C 
HETATM    5  C5  UNL     1     -33.046  17.105  -2.863  1.00 20.00     0.066 C 
HETATM    6  C6  UNL     1     -35.815  16.656  -2.203  1.00 20.00     0.172 C 
HETATM    7  C7  UNL     1     -33.769  15.761  -3.009  1.00 20.00     0.121 C 
HETATM    8  C8  UNL     1     -33.192  14.953  -4.163  1.00 20.00     0.040 C 
HETATM    9  N9  UNL     1     -30.531  18.256  -0.491  1.00 20.00    -0.192 NA
HETATM   10  O10 UNL     1     -35.163  15.976  -3.281  1.00 20.00    -0.386 OA
ENDROOT
TORSDOF 0
ENDMDL
MODEL 9
REMARK VINA RESULT:      -4.1      2.957      4.122
REMARK  0 active torsions:
REMARK  status: ('A' for Active; 'I' for Inactive)
ROOT
HETATM    1  C1  UNL     1     -34.523  14.177  -3.967  1.00 20.00     0.088 C 
HETATM    2  C2  UNL     1     -33.805  16.337  -3.180  1.00 20.00    -0.066 C 
HETATM    3  C3  UNL     1     -33.558  15.210  -3.860  1.00 20.00     0.096 C 
HETATM    4  C4  UNL     1     -32.804  17.452  -3.046  1.00 20.00     0.061 C 
HETATM    5  C5  UNL     1     -35.098  16.592  -2.452  1.00 20.00     0.066 C 
HETATM    6  C6  UNL     1     -32.640  17.813  -1.573  1.00 20.00     0.172 C 
HETATM    7  C7  UNL     1     -34.796  16.998  -1.004  1.00 20.00     0.121 C 
HETATM    8  C8  UNL     1     -36.070  17.399  -0.273  1.00 20.00     0.040 C 
HETATM    9  N9  UNL     1     -35.309  13.328  -4.059  1.00 20.00    -0.192 NA
HETATM   10  O10 UNL     1     -33.906  18.125  -0.982  1.00 20.00    -0.386 OA
ENDROOT
TORSDOF 0
ENDMDL
