MODEL 1
REMARK VINA RESULT:      -4.4      0.000      0.000
REMARK  1 active torsions:
REMARK  status: ('A' for Active; 'I' for Inactive)
REMARK    1  A    between atoms: C5_5  and  C9_9 
ROOT
HETATM    1  C1  UNL     1     -37.464  14.459  -4.363  1.00 20.00     0.046 C 
HETATM    2  C2  UNL     1     -34.999  14.445  -3.873  1.00 20.00     0.058 C 
HETATM    3  C3  UNL     1     -37.436  15.959  -4.110  1.00 20.00     0.170 C 
HETATM    4  C4  UNL     1     -36.103  13.931  -4.800  1.00 20.00     0.087 C 
HETATM    5  C5  UNL     1     -35.099  15.942  -3.483  1.00 20.00     0.061 C 
HETATM    6  C6  UNL     1     -34.563  16.885  -4.573  1.00 20.00     0.046 C 
HETATM    7  O10 UNL     1     -36.448  16.296  -3.142  1.00 20.00    -0.380 OA
HETATM    8 CL11 UNL     1     -35.775  14.348  -6.507  1.00 20.00    -0.125 Cl
ENDROOT
BRANCH   5   9
HETATM    9  C9  UNL     1     -34.270  16.167  -2.226  1.00 20.00     0.012 C 
HETATM   10  C7  UNL     1     -33.056  17.033  -2.544  1.00 20.00     0.012 C 
HETATM   11  C8  UNL     1     -35.124  16.803  -1.138  1.00 20.00     0.012 C 
ENDBRANCH   5   9
TORSDOF 1
ENDMDL
MODEL 2
REMARK VINA RESULT:      -4.3      1.590      1.940
REMARK  1 active torsions:
REMARK  status: ('A' for Active; 'I' for Inactive)
REMARK    1  A    between atoms: C5_5  and  C9_9 
ROOT
HETATM    1  C1  UNL     1     -36.562  15.952  -5.133  1.00 20.00     0.046 C 
HETATM    2  C2  UNL     1     -35.286  15.478  -3.020  1.00 20.00     0.058 C 
HETATM    3  C3  UNL     1     -35.225  16.265  -5.788  1.00 20.00     0.170 C 
HETATM    4  C4  UNL     1     -36.406  15.004  -3.949  1.00 20.00     0.087 C 
HETATM    5  C5  UNL     1     -33.995  15.967  -3.726  1.00 20.00     0.061 C 
HETATM    6  C6  UNL     1     -33.080  14.814  -4.171  1.00 20.00     0.046 C 
HETATM    7  O10 UNL     1     -34.309  16.810  -4.844  1.00 20.00    -0.380 OA
HETATM    8 CL11 UNL     1     -36.133  13.328  -4.505  1.00 20.00    -0.125 Cl
ENDROOT
BRANCH   5   9
HETATM    9  C9  UNL     1     -33.211  16.831  -2.749  1.00 20.00     0.012 C 
HETATM   10  C7  UNL     1     -32.813  18.146  -3.409  1.00 20.00     0.012 C 
HETATM   11  C8  UNL     1     -34.030  17.079  -1.489  1.00 20.00     0.012 C 
ENDBRANCH   5   9
TORSDOF 1
ENDMDL
MODEL 3
REMARK VINA RESULT:      -4.1      1.924      2.800
REMARK  1 active torsions:
REMARK  status: ('A' for Active; 'I' for Inactive)
REMARK    1  A    between atoms: C5_5  and  C9_9 
ROOT
HETATM    1  C1  UNL     1     -34.516  16.478  -7.029  1.00 20.00     0.046 C 
HETATM    2  C2  UNL     1     -35.416  16.851  -4.712  1.00 20.00     0.058 C 
HETATM    3  C3  UNL     1     -34.109  15.085  -6.572  1.00 20.00     0.170 C 
HETATM    4  C4  UNL     1     -35.677  17.028  -6.209  1.00 20.00     0.087 C 
HETATM    5  C5  UNL     1     -34.826  15.479  -4.295  1.00 20.00     0.061 C 
HETATM    6  C6  UNL     1     -35.890  14.373  -4.196  1.00 20.00     0.046 C 
HETATM    7  O10 UNL     1     -33.776  15.078  -5.187  1.00 20.00    -0.380 OA
HETATM    8 CL11 UNL     1     -37.219  16.270  -6.701  1.00 20.00    -0.125 Cl
ENDROOT
BRANCH   5   9
HETATM    9  C9  UNL     1     -34.185  15.629  -2.923  1.00 20.00     0.012 C 
HETATM   10  C7  UNL     1     -32.959  16.531  -3.010  1.00 20.00     0.012 C 
HETATM   11  C8  UNL     1     -35.196  16.177  -1.925  1.00 20.00     0.012 C 
ENDBRANCH   5   9
TORSDOF 1
ENDMDL
MODEL 4
REMARK VINA RESULT:      -4.1      1.423      1.971
REMARK  1 active torsions:
REMARK  status: ('A' for Active; 'I' for Inactive)
REMARK    1  A    between atoms: C5_5  and  C9_9 
ROOT
HETATM    1  C1  UNL     1     -36.048  16.843  -5.896  1.00 20.00     0.046 C 
HETATM    2  C2  UNL     1     -35.704  15.445  -3.836  1.00 20.00     0.058 C 
HETATM    3  C3  UNL     1     -34.558  17.150  -5.852  1.00 20.00     0.170 C 
HETATM    4  C4  UNL     1     -36.376  15.523  -5.208  1.00 20.00     0.087 C 
HETATM    5  C5  UNL     1     -34.235  15.938  -3.782  1.00 20.00     0.061 C 
HETATM    6  C6  UNL     1     -33.230  14.889  -4.287  1.00 20.00     0.046 C 
HETATM    7  O10 UNL     1     -34.078  17.164  -4.511  1.00 20.00    -0.380 OA
HETATM    8 CL11 UNL     1     -35.924  14.137  -6.241  1.00 20.00    -0.125 Cl
ENDROOT
BRANCH   5   9
HETATM    9  C9  UNL     1     -33.887  16.256  -2.335  1.00 20.00     0.012 C 
HETATM   10  C7  UNL     1     -32.925  17.435  -2.271  1.00 20.00     0.012 C 
HETATM   11  C8  UNL     1     -35.154  16.541  -1.539  1.00 20.00     0.012 C 
ENDBRANCH   5   9
TORSDOF 1
ENDMDL
MODEL 5
REMARK VINA RESULT:      -4.1      2.265      3.108
REMARK  1 active torsions:
REMARK  status: ('A' for Active; 'I' for Inactive)
REMARK    1  A    between atoms: C5_5  and  C9_9 
ROOT
HETATM    1  C1  UNL     1     -35.757  16.414  -7.347  1.00 20.00     0.046 C 
HETATM    2  C2  UNL     1     -35.763  16.476  -4.834  1.00 20.00     0.058 C 
HETATM    3  C3  UNL     1     -35.659  14.900  -7.240  1.00 20.00     0.170 C 
HETATM    4  C4  UNL     1     -36.401  17.030  -6.110  1.00 20.00     0.087 C 
HETATM    5  C5  UNL     1     -35.505  14.947  -4.826  1.00 20.00     0.061 C 
HETATM    6  C6  UNL     1     -36.765  14.127  -4.501  1.00 20.00     0.046 C 
HETATM    7  O10 UNL     1     -34.941  14.515  -6.073  1.00 20.00    -0.380 OA
HETATM    8 CL11 UNL     1     -38.171  16.780  -6.121  1.00 20.00    -0.125 Cl
ENDROOT
BRANCH   5   9
HETATM    9  C9  UNL     1     -34.465  14.641  -3.759  1.00 20.00     0.012 C 
HETATM   10  C7  UNL     1     -33.079  14.545  -4.386  1.00 20.00     0.012 C 
HETATM   11  C8  UNL     1     -34.498  15.704  -2.669  1.00 20.00     0.012 C 
ENDBRANCH   5   9
TORSDOF 1
ENDMDL
MODEL 6
REMARK VINA RESULT:      -4.0      2.549      4.309
REMARK  1 active torsions:
REMARK  status: ('A' for Active; 'I' for Inactive)
REMARK    1  A    between atoms: C5_5  and  C9_9 
ROOT
HETATM    1  C1  UNL     1     -33.511  17.843  -0.800  1.00 20.00     0.046 C 
HETATM    2  C2  UNL     1     -35.187  16.263  -1.806  1.00 20.00     0.058 C 
HETATM    3  C3  UNL     1     -32.784  17.812  -2.136  1.00 20.00     0.170 C 
HETATM    4  C4  UNL     1     -34.992  17.518  -0.953  1.00 20.00     0.087 C 
HETATM    5  C5  UNL     1     -34.296  16.171  -3.072  1.00 20.00     0.061 C 
HETATM    6  C6  UNL     1     -34.835  17.002  -4.248  1.00 20.00     0.046 C 
HETATM    7  O10 UNL     1     -32.944  16.550  -2.776  1.00 20.00    -0.380 OA
HETATM    8 CL11 UNL     1     -35.885  18.914  -1.624  1.00 20.00    -0.125 Cl
ENDROOT
BRANCH   5   9
HETATM    9  C9  UNL     1     -34.243  14.717  -3.517  1.00 20.00     0.012 C 
HETATM   10  C7  UNL     1     -35.569  14.310  -4.148  1.00 20.00     0.012 C 
HETATM   11  C8  UNL     1     -33.089  14.504  -4.488  1.00 20.00     0.012 C 
ENDBRANCH   5   9
TORSDOF 1
ENDMDL
MODEL 7
REMARK VINA RESULT:      -4.0      2.588      4.223
REMARK  1 active torsions:
REMARK  status: ('A' for Active; 'I' for Inactive)
REMARK    1  A    between atoms: C5_5  and  C9_9 
ROOT
HETATM    1  C1  UNL     1     -33.651  18.857  -4.039  1.00 20.00     0.046 C 
HETATM    2  C2  UNL     1     -32.944  16.714  -2.933  1.00 20.00     0.058 C 
HETATM    3  C3  UNL     1     -35.080  18.338  -3.975  1.00 20.00     0.170 C 
HETATM    4  C4  UNL     1     -32.772  18.234  -2.960  1.00 20.00     0.087 C 
HETATM    5  C5  UNL     1     -34.404  16.205  -3.055  1.00 20.00     0.061 C 
HETATM    6  C6  UNL     1     -35.177  16.274  -1.728  1.00 20.00     0.046 C 
HETATM    7  O10 UNL     1     -35.113  16.918  -4.079  1.00 20.00    -0.380 OA
HETATM    8 CL11 UNL     1     -33.109  18.963  -1.364  1.00 20.00    -0.125 Cl
ENDROOT
BRANCH   5   9
HETATM    9  C9  UNL     1     -34.369  14.749  -3.497  1.00 20.00     0.012 C 
HETATM   10  C7  UNL     1     -35.696  14.360  -4.137  1.00 20.00     0.012 C 
HETATM   11  C8  UNL     1     -33.211  14.516  -4.458  1.00 20.00     0.012 C 
ENDBRANCH   5   9
TORSDOF 1
ENDMDL
MODEL 8
REMARK VINA RESULT:      -4.0      2.226      3.963
REMARK  1 active torsions:
REMARK  status: ('A' for Active; 'I' for Inactive)
REMARK    1  A    between atoms: C5_5  and  C9_9 
ROOT
HETATM    1  C1  UNL     1     -33.137  17.058  -3.324  1.00 20.00     0.046 C 
HETATM    2  C2  UNL     1     -34.882  15.254  -3.205  1.00 20.00     0.058 C 
HETATM    3  C3  UNL     1     -34.045  17.776  -4.311  1.00 20.00     0.170 C 
HETATM    4  C4  UNL     1     -33.920  16.131  -2.402  1.00 20.00     0.087 C 
HETATM    5  C5  UNL     1     -35.664  15.977  -4.332  1.00 20.00     0.061 C 
HETATM    6  C6  UNL     1     -36.881  16.760  -3.811  1.00 20.00     0.046 C 
HETATM    7  O10 UNL     1     -34.801  16.845  -5.081  1.00 20.00    -0.380 OA
HETATM    8 CL11 UNL     1     -34.778  17.063  -1.141  1.00 20.00    -0.125 Cl
ENDROOT
BRANCH   5   9
HETATM    9  C9  UNL     1     -36.171  14.931  -5.314  1.00 20.00     0.012 C 
HETATM   10  C7  UNL     1     -35.243  14.846  -6.520  1.00 20.00     0.012 C 
HETATM   11  C8  UNL     1     -36.295  13.578  -4.625  1.00 20.00     0.012 C 
ENDBRANCH   5   9
TORSDOF 1
ENDMDL
MODEL 9
REMARK VINA RESULT:      -3.9      2.477      4.179
REMARK  1 active torsions:
REMARK  status: ('A' for Active; 'I' for Inactive)
REMARK    1  A    between atoms: C5_5  and  C9_9 
ROOT
HETATM    1  C1  UNL     1     -33.130  17.091  -3.150  1.00 20.00     0.046 C 
HETATM    2  C2  UNL     1     -34.526  15.114  -3.827  1.00 20.00     0.058 C 
HETATM    3  C3  UNL     1     -33.906  17.903  -4.176  1.00 20.00     0.170 C 
HETATM    4  C4  UNL     1     -33.928  15.891  -2.653  1.00 20.00     0.087 C 
HETATM    5  C5  UNL     1     -35.151  15.978  -4.952  1.00 20.00     0.061 C 
HETATM    6  C6  UNL     1     -36.568  16.472  -4.613  1.00 20.00     0.046 C 
HETATM    7  O10 UNL     1     -34.304  17.091  -5.276  1.00 20.00    -0.380 OA
HETATM    8 CL11 UNL     1     -35.188  16.401  -1.493  1.00 20.00    -0.125 Cl
ENDROOT
BRANCH   5   9
HETATM    9  C9  UNL     1     -35.244  15.132  -6.213  1.00 20.00     0.012 C 
HETATM   10  C7  UNL     1     -36.259  15.734  -7.178  1.00 20.00     0.012 C 
HETATM   11  C8  UNL     1     -33.874  15.010  -6.868  1.00 20.00     0.012 C 
ENDBRANCH   5   9
TORSDOF 1
ENDMDL
