MODEL 1
REMARK VINA RESULT:      -4.1      0.000      0.000
REMARK  0 active torsions:
REMARK  status: ('A' for Active; 'I' for Inactive)
ROOT
HETATM    1  C1  UNL     1     -24.264  18.525   8.574  1.00 20.00     0.046 C 
HETATM    2  C2  UNL     1     -23.304  16.560   9.816  1.00 20.00     0.057 C 
HETATM    3  C3  UNL     1     -24.842  18.993   9.901  1.00 20.00     0.170 C 
HETATM    4  C4  UNL     1     -23.035  17.642   8.767  1.00 20.00     0.087 C 
HETATM    5  C5  UNL     1     -24.047  17.043  11.084  1.00 20.00     0.055 C 
HETATM    6  C6  UNL     1     -23.132  17.743  12.099  1.00 20.00     0.045 C 
HETATM    7  C7  UNL     1     -24.660  15.818  11.786  1.00 20.00     0.045 C 
HETATM    8  O8  UNL     1     -25.156  17.886  10.741  1.00 20.00    -0.381 OA
HETATM    9 CL9  UNL     1     -21.603  18.625   9.189  1.00 20.00    -0.125 Cl
ENDROOT
TORSDOF 0
ENDMDL
MODEL 2
REMARK VINA RESULT:      -3.9     18.166     19.188
REMARK  0 active torsions:
REMARK  status: ('A' for Active; 'I' for Inactive)
ROOT
HETATM    1  C1  UNL     1     -36.952  14.847  -4.052  1.00 20.00     0.046 C 
HETATM    2  C2  UNL     1     -35.075  16.239  -4.982  1.00 20.00     0.057 C 
HETATM    3  C3  UNL     1     -36.163  13.620  -4.484  1.00 20.00     0.170 C 
HETATM    4  C4  UNL     1     -36.047  16.053  -3.814  1.00 20.00     0.087 C 
HETATM    5  C5  UNL     1     -34.417  14.941  -5.505  1.00 20.00     0.055 C 
HETATM    6  C6  UNL     1     -33.235  14.467  -4.648  1.00 20.00     0.045 C 
HETATM    7  C7  UNL     1     -33.881  15.204  -6.924  1.00 20.00     0.045 C 
HETATM    8  O8  UNL     1     -35.388  13.894  -5.647  1.00 20.00    -0.381 OA
HETATM    9 CL9  UNL     1     -35.183  15.905  -2.257  1.00 20.00    -0.125 Cl
ENDROOT
TORSDOF 0
ENDMDL
MODEL 3
REMARK VINA RESULT:      -3.8     23.403     23.979
REMARK  0 active torsions:
REMARK  status: ('A' for Active; 'I' for Inactive)
ROOT
HETATM    1  C1  UNL     1     -42.344   5.245   1.017  1.00 20.00     0.046 C 
HETATM    2  C2  UNL     1     -41.152   6.866  -0.491  1.00 20.00     0.057 C 
HETATM    3  C3  UNL     1     -43.417   6.307   1.196  1.00 20.00     0.170 C 
HETATM    4  C4  UNL     1     -41.588   5.411  -0.298  1.00 20.00     0.087 C 
HETATM    5  C5  UNL     1     -42.220   7.926  -0.138  1.00 20.00     0.055 C 
HETATM    6  C6  UNL     1     -43.263   8.135  -1.244  1.00 20.00     0.045 C 
HETATM    7  C7  UNL     1     -41.511   9.275   0.087  1.00 20.00     0.045 C 
HETATM    8  O8  UNL     1     -42.861   7.616   1.107  1.00 20.00    -0.381 OA
HETATM    9 CL9  UNL     1     -42.570   4.831  -1.675  1.00 20.00    -0.125 Cl
ENDROOT
TORSDOF 0
ENDMDL
MODEL 4
REMARK VINA RESULT:      -3.8     23.895     24.414
REMARK  0 active torsions:
REMARK  status: ('A' for Active; 'I' for Inactive)
ROOT
HETATM    1  C1  UNL     1     -43.417   7.608   0.867  1.00 20.00     0.046 C 
HETATM    2  C2  UNL     1     -42.965   6.972  -1.524  1.00 20.00     0.057 C 
HETATM    3  C3  UNL     1     -42.822   6.266   1.264  1.00 20.00     0.170 C 
HETATM    4  C4  UNL     1     -42.890   8.091  -0.481  1.00 20.00     0.087 C 
HETATM    5  C5  UNL     1     -42.507   5.581  -1.031  1.00 20.00     0.055 C 
HETATM    6  C6  UNL     1     -40.981   5.410  -1.016  1.00 20.00     0.045 C 
HETATM    7  C7  UNL     1     -43.080   4.514  -1.982  1.00 20.00     0.045 C 
HETATM    8  O8  UNL     1     -43.059   5.284   0.259  1.00 20.00    -0.381 OA
HETATM    9 CL9  UNL     1     -41.229   8.732  -0.323  1.00 20.00    -0.125 Cl
ENDROOT
TORSDOF 0
ENDMDL
MODEL 5
REMARK VINA RESULT:      -3.8     17.367     18.494
REMARK  0 active torsions:
REMARK  status: ('A' for Active; 'I' for Inactive)
ROOT
HETATM    1  C1  UNL     1     -36.526  16.107  -5.037  1.00 20.00     0.046 C 
HETATM    2  C2  UNL     1     -35.208  15.475  -2.990  1.00 20.00     0.057 C 
HETATM    3  C3  UNL     1     -35.198  16.406  -5.715  1.00 20.00     0.170 C 
HETATM    4  C4  UNL     1     -36.375  15.094  -3.906  1.00 20.00     0.087 C 
HETATM    5  C5  UNL     1     -33.924  15.936  -3.718  1.00 20.00     0.055 C 
HETATM    6  C6  UNL     1     -33.073  14.775  -4.251  1.00 20.00     0.045 C 
HETATM    7  C7  UNL     1     -33.054  16.722  -2.720  1.00 20.00     0.045 C 
HETATM    8  O8  UNL     1     -34.233  16.860  -4.771  1.00 20.00    -0.381 OA
HETATM    9 CL9  UNL     1     -36.188  13.438  -4.553  1.00 20.00    -0.125 Cl
ENDROOT
TORSDOF 0
ENDMDL
MODEL 6
REMARK VINA RESULT:      -3.7      1.666      2.489
REMARK  0 active torsions:
REMARK  status: ('A' for Active; 'I' for Inactive)
ROOT
HETATM    1  C1  UNL     1     -21.737  18.320  10.624  1.00 20.00     0.046 C 
HETATM    2  C2  UNL     1     -24.172  18.451  10.009  1.00 20.00     0.057 C 
HETATM    3  C3  UNL     1     -22.170  17.623  11.904  1.00 20.00     0.170 C 
HETATM    4  C4  UNL     1     -22.759  18.144   9.504  1.00 20.00     0.087 C 
HETATM    5  C5  UNL     1     -24.519  17.863  11.396  1.00 20.00     0.055 C 
HETATM    6  C6  UNL     1     -24.901  16.376  11.351  1.00 20.00     0.045 C 
HETATM    7  C7  UNL     1     -25.726  18.631  11.963  1.00 20.00     0.045 C 
HETATM    8  O8  UNL     1     -23.450  18.080  12.328  1.00 20.00    -0.381 OA
HETATM    9 CL9  UNL     1     -22.655  16.506   8.797  1.00 20.00    -0.125 Cl
ENDROOT
TORSDOF 0
ENDMDL
MODEL 7
REMARK VINA RESULT:      -3.6     16.564     17.706
REMARK  0 active torsions:
REMARK  status: ('A' for Active; 'I' for Inactive)
ROOT
HETATM    1  C1  UNL     1     -34.935  13.992  -3.907  1.00 20.00     0.046 C 
HETATM    2  C2  UNL     1     -33.057  15.638  -3.610  1.00 20.00     0.057 C 
HETATM    3  C3  UNL     1     -35.885  15.107  -3.496  1.00 20.00     0.170 C 
HETATM    4  C4  UNL     1     -33.638  14.536  -4.500  1.00 20.00     0.087 C 
HETATM    5  C5  UNL     1     -34.085  16.661  -3.072  1.00 20.00     0.055 C 
HETATM    6  C6  UNL     1     -34.464  17.741  -4.094  1.00 20.00     0.045 C 
HETATM    7  C7  UNL     1     -33.470  17.374  -1.854  1.00 20.00     0.045 C 
HETATM    8  O8  UNL     1     -35.259  15.999  -2.579  1.00 20.00    -0.381 OA
HETATM    9 CL9  UNL     1     -33.892  15.109  -6.173  1.00 20.00    -0.125 Cl
ENDROOT
TORSDOF 0
ENDMDL
MODEL 8
REMARK VINA RESULT:      -3.6     17.462     18.615
REMARK  0 active torsions:
REMARK  status: ('A' for Active; 'I' for Inactive)
ROOT
HETATM    1  C1  UNL     1     -32.980  14.816  -4.230  1.00 20.00     0.046 C 
HETATM    2  C2  UNL     1     -35.198  15.346  -3.169  1.00 20.00     0.057 C 
HETATM    3  C3  UNL     1     -33.710  14.762  -5.563  1.00 20.00     0.170 C 
HETATM    4  C4  UNL     1     -33.708  15.695  -3.216  1.00 20.00     0.087 C 
HETATM    5  C5  UNL     1     -35.869  15.133  -4.545  1.00 20.00     0.055 C 
HETATM    6  C6  UNL     1     -36.239  16.443  -5.255  1.00 20.00     0.045 C 
HETATM    7  C7  UNL     1     -37.171  14.339  -4.335  1.00 20.00     0.045 C 
HETATM    8  O8  UNL     1     -35.052  14.314  -5.394  1.00 20.00    -0.381 OA
HETATM    9 CL9  UNL     1     -33.449  17.427  -3.572  1.00 20.00    -0.125 Cl
ENDROOT
TORSDOF 0
ENDMDL
MODEL 9
REMARK VINA RESULT:      -3.5     15.978     17.196
REMARK  0 active torsions:
REMARK  status: ('A' for Active; 'I' for Inactive)
ROOT
HETATM    1  C1  UNL     1     -33.848  17.390  -1.380  1.00 20.00     0.046 C 
HETATM    2  C2  UNL     1     -34.917  15.513  -2.667  1.00 20.00     0.057 C 
HETATM    3  C3  UNL     1     -33.003  17.664  -2.615  1.00 20.00     0.170 C 
HETATM    4  C4  UNL     1     -35.162  16.697  -1.728  1.00 20.00     0.087 C 
HETATM    5  C5  UNL     1     -33.919  15.780  -3.818  1.00 20.00     0.055 C 
HETATM    6  C6  UNL     1     -34.539  16.537  -5.001  1.00 20.00     0.045 C 
HETATM    7  C7  UNL     1     -33.417  14.425  -4.351  1.00 20.00     0.045 C 
HETATM    8  O8  UNL     1     -32.752  16.462  -3.338  1.00 20.00    -0.381 OA
HETATM    9 CL9  UNL     1     -36.329  17.857  -2.425  1.00 20.00    -0.125 Cl
ENDROOT
TORSDOF 0
ENDMDL
