MODEL 1
REMARK VINA RESULT:      -4.4      0.000      0.000
REMARK  2 active torsions:
REMARK  status: ('A' for Active; 'I' for Inactive)
REMARK    1  A    between atoms: C5_5  and  C8_8 
REMARK    2  A    between atoms: C8_8  and  C9_9 
ROOT
HETATM    1  C1  UNL     1     -35.828  14.576  -6.142  1.00 20.00     0.046 C 
HETATM    2  C2  UNL     1     -35.258  14.459  -3.706  1.00 20.00     0.052 C 
HETATM    3  C3  UNL     1     -34.403  15.046  -6.397  1.00 20.00     0.169 C 
HETATM    4  C4  UNL     1     -36.266  14.968  -4.735  1.00 20.00     0.086 C 
HETATM    5  C5  UNL     1     -33.823  14.863  -4.064  1.00 20.00     0.123 C 
HETATM    6  O10 UNL     1     -33.500  14.531  -5.421  1.00 20.00    -0.386 OA
HETATM    7 CL11 UNL     1     -37.888  14.308  -4.388  1.00 20.00    -0.125 Cl
ENDROOT
BRANCH   5   8
HETATM    8  C8  UNL     1     -33.512  16.303  -3.763  1.00 20.00     0.035 C 
BRANCH   8   9
HETATM    9  C9  UNL     1     -33.428  16.612  -2.259  1.00 20.00    -0.020 C 
HETATM   10  C6  UNL     1     -32.490  17.782  -1.956  1.00 20.00     0.009 C 
HETATM   11  C7  UNL     1     -34.826  16.916  -1.713  1.00 20.00     0.009 C 
ENDBRANCH   8   9
ENDBRANCH   5   8
TORSDOF 2
ENDMDL
MODEL 2
REMARK VINA RESULT:      -4.3      2.150      2.486
REMARK  2 active torsions:
REMARK  status: ('A' for Active; 'I' for Inactive)
REMARK    1  A    between atoms: C5_5  and  C8_8 
REMARK    2  A    between atoms: C8_8  and  C9_9 
ROOT
HETATM    1  C1  UNL     1     -35.857  14.245  -6.142  1.00 20.00     0.046 C 
HETATM    2  C2  UNL     1     -34.731  16.320  -5.304  1.00 20.00     0.052 C 
HETATM    3  C3  UNL     1     -36.476  14.090  -4.760  1.00 20.00     0.169 C 
HETATM    4  C4  UNL     1     -34.533  14.996  -6.041  1.00 20.00     0.086 C 
HETATM    5  C5  UNL     1     -35.458  16.127  -3.968  1.00 20.00     0.123 C 
HETATM    6  O10 UNL     1     -36.655  15.353  -4.122  1.00 20.00    -0.386 OA
HETATM    7 CL11 UNL     1     -33.866  15.292  -7.670  1.00 20.00    -0.125 Cl
ENDROOT
BRANCH   5   8
HETATM    8  C8  UNL     1     -34.581  15.570  -2.881  1.00 20.00     0.035 C 
BRANCH   8   9
HETATM    9  C9  UNL     1     -34.219  16.597  -1.797  1.00 20.00    -0.020 C 
HETATM   10  C6  UNL     1     -32.975  17.412  -2.156  1.00 20.00     0.009 C 
HETATM   11  C7  UNL     1     -35.403  17.538  -1.558  1.00 20.00     0.009 C 
ENDBRANCH   8   9
ENDBRANCH   5   8
TORSDOF 2
ENDMDL
MODEL 3
REMARK VINA RESULT:      -4.3     10.719     11.634
REMARK  2 active torsions:
REMARK  status: ('A' for Active; 'I' for Inactive)
REMARK    1  A    between atoms: C5_5  and  C8_8 
REMARK    2  A    between atoms: C8_8  and  C9_9 
ROOT
HETATM    1  C1  UNL     1     -34.174   4.515   3.961  1.00 20.00     0.046 C 
HETATM    2  C2  UNL     1     -33.212   6.803   4.298  1.00 20.00     0.052 C 
HETATM    3  C3  UNL     1     -33.705   4.592   2.515  1.00 20.00     0.169 C 
HETATM    4  C4  UNL     1     -34.440   5.917   4.501  1.00 20.00     0.086 C 
HETATM    5  C5  UNL     1     -32.709   6.761   2.851  1.00 20.00     0.123 C 
HETATM    6  O10 UNL     1     -32.549   5.416   2.383  1.00 20.00    -0.386 OA
HETATM    7 CL11 UNL     1     -34.867   5.840   6.232  1.00 20.00    -0.125 Cl
ENDROOT
BRANCH   5   8
HETATM    8  C8  UNL     1     -33.543   7.577   1.902  1.00 20.00     0.035 C 
BRANCH   8   9
HETATM    9  C9  UNL     1     -32.712   8.408   0.912  1.00 20.00    -0.020 C 
HETATM   10  C6  UNL     1     -33.102   8.144  -0.544  1.00 20.00     0.009 C 
HETATM   11  C7  UNL     1     -32.867   9.898   1.227  1.00 20.00     0.009 C 
ENDBRANCH   8   9
ENDBRANCH   5   8
TORSDOF 2
ENDMDL
MODEL 4
REMARK VINA RESULT:      -4.1      1.988      2.512
REMARK  2 active torsions:
REMARK  status: ('A' for Active; 'I' for Inactive)
REMARK    1  A    between atoms: C5_5  and  C8_8 
REMARK    2  A    between atoms: C8_8  and  C9_9 
ROOT
HETATM    1  C1  UNL     1     -34.405  16.183  -6.943  1.00 20.00     0.046 C 
HETATM    2  C2  UNL     1     -35.937  16.426  -4.977  1.00 20.00     0.052 C 
HETATM    3  C3  UNL     1     -33.920  14.876  -6.334  1.00 20.00     0.169 C 
HETATM    4  C4  UNL     1     -34.892  17.124  -5.846  1.00 20.00     0.086 C 
HETATM    5  C5  UNL     1     -35.445  15.063  -4.477  1.00 20.00     0.123 C 
HETATM    6  O10 UNL     1     -34.935  14.256  -5.547  1.00 20.00    -0.386 OA
HETATM    7 CL11 UNL     1     -35.579  18.607  -6.565  1.00 20.00    -0.125 Cl
ENDROOT
BRANCH   5   8
HETATM    8  C8  UNL     1     -34.461  15.157  -3.344  1.00 20.00     0.035 C 
BRANCH   8   9
HETATM    9  C9  UNL     1     -34.443  16.533  -2.659  1.00 20.00    -0.020 C 
HETATM   10  C6  UNL     1     -35.150  16.517  -1.302  1.00 20.00     0.009 C 
HETATM   11  C7  UNL     1     -32.998  17.007  -2.483  1.00 20.00     0.009 C 
ENDBRANCH   8   9
ENDBRANCH   5   8
TORSDOF 2
ENDMDL
MODEL 5
REMARK VINA RESULT:      -4.1      2.400      4.502
REMARK  2 active torsions:
REMARK  status: ('A' for Active; 'I' for Inactive)
REMARK    1  A    between atoms: C5_5  and  C8_8 
REMARK    2  A    between atoms: C8_8  and  C9_9 
ROOT
HETATM    1  C1  UNL     1     -35.050  16.221  -1.909  1.00 20.00     0.046 C 
HETATM    2  C2  UNL     1     -32.980  16.091  -3.313  1.00 20.00     0.052 C 
HETATM    3  C3  UNL     1     -35.778  15.462  -3.009  1.00 20.00     0.169 C 
HETATM    4  C4  UNL     1     -33.887  17.012  -2.499  1.00 20.00     0.086 C 
HETATM    5  C5  UNL     1     -33.773  15.265  -4.333  1.00 20.00     0.123 C 
HETATM    6  O10 UNL     1     -34.892  14.605  -3.728  1.00 20.00    -0.386 OA
HETATM    7 CL11 UNL     1     -32.955  17.801  -1.197  1.00 20.00    -0.125 Cl
ENDROOT
BRANCH   5   8
HETATM    8  C8  UNL     1     -34.188  16.049  -5.547  1.00 20.00     0.035 C 
BRANCH   8   9
HETATM    9  C9  UNL     1     -34.771  15.176  -6.671  1.00 20.00    -0.020 C 
HETATM   10  C6  UNL     1     -36.209  15.563  -7.024  1.00 20.00     0.009 C 
HETATM   11  C7  UNL     1     -33.888  15.278  -7.918  1.00 20.00     0.009 C 
ENDBRANCH   8   9
ENDBRANCH   5   8
TORSDOF 2
ENDMDL
MODEL 6
REMARK VINA RESULT:      -4.1      3.559      5.744
REMARK  2 active torsions:
REMARK  status: ('A' for Active; 'I' for Inactive)
REMARK    1  A    between atoms: C5_5  and  C8_8 
REMARK    2  A    between atoms: C8_8  and  C9_9 
ROOT
HETATM    1  C1  UNL     1     -31.923  18.735   0.877  1.00 20.00     0.046 C 
HETATM    2  C2  UNL     1     -33.856  18.667  -0.714  1.00 20.00     0.052 C 
HETATM    3  C3  UNL     1     -31.020  18.367  -0.292  1.00 20.00     0.169 C 
HETATM    4  C4  UNL     1     -33.330  18.197   0.641  1.00 20.00     0.086 C 
HETATM    5  C5  UNL     1     -32.863  18.374  -1.845  1.00 20.00     0.123 C 
HETATM    6  O10 UNL     1     -31.545  18.842  -1.530  1.00 20.00    -0.386 OA
HETATM    7 CL11 UNL     1     -34.422  18.734   1.947  1.00 20.00    -0.125 Cl
ENDROOT
BRANCH   5   8
HETATM    8  C8  UNL     1     -32.845  16.932  -2.271  1.00 20.00     0.035 C 
BRANCH   8   9
HETATM    9  C9  UNL     1     -34.048  16.534  -3.142  1.00 20.00    -0.020 C 
HETATM   10  C6  UNL     1     -33.658  15.579  -4.272  1.00 20.00     0.009 C 
HETATM   11  C7  UNL     1     -35.130  15.891  -2.272  1.00 20.00     0.009 C 
ENDBRANCH   8   9
ENDBRANCH   5   8
TORSDOF 2
ENDMDL
MODEL 7
REMARK VINA RESULT:      -4.0      3.011      4.880
REMARK  2 active torsions:
REMARK  status: ('A' for Active; 'I' for Inactive)
REMARK    1  A    between atoms: C5_5  and  C8_8 
REMARK    2  A    between atoms: C8_8  and  C9_9 
ROOT
HETATM    1  C1  UNL     1     -32.531  19.263  -2.675  1.00 20.00     0.046 C 
HETATM    2  C2  UNL     1     -33.676  17.330  -1.568  1.00 20.00     0.052 C 
HETATM    3  C3  UNL     1     -32.935  18.664  -4.014  1.00 20.00     0.169 C 
HETATM    4  C4  UNL     1     -32.396  18.163  -1.628  1.00 20.00     0.086 C 
HETATM    5  C5  UNL     1     -34.106  16.842  -2.955  1.00 20.00     0.123 C 
HETATM    6  O10 UNL     1     -34.143  17.912  -3.908  1.00 20.00    -0.386 OA
HETATM    7 CL11 UNL     1     -32.046  18.873  -0.028  1.00 20.00    -0.125 Cl
ENDROOT
BRANCH   5   8
HETATM    8  C8  UNL     1     -33.292  15.684  -3.463  1.00 20.00     0.035 C 
BRANCH   8   9
HETATM    9  C9  UNL     1     -34.115  14.655  -4.256  1.00 20.00    -0.020 C 
HETATM   10  C6  UNL     1     -35.584  14.630  -3.830  1.00 20.00     0.009 C 
HETATM   11  C7  UNL     1     -34.016  14.955  -5.754  1.00 20.00     0.009 C 
ENDBRANCH   8   9
ENDBRANCH   5   8
TORSDOF 2
ENDMDL
MODEL 8
REMARK VINA RESULT:      -4.0      1.768      2.420
REMARK  2 active torsions:
REMARK  status: ('A' for Active; 'I' for Inactive)
REMARK    1  A    between atoms: C5_5  and  C8_8 
REMARK    2  A    between atoms: C8_8  and  C9_9 
ROOT
HETATM    1  C1  UNL     1     -35.624  16.292  -4.991  1.00 20.00     0.046 C 
HETATM    2  C2  UNL     1     -34.043  15.152  -3.418  1.00 20.00     0.052 C 
HETATM    3  C3  UNL     1     -35.086  17.621  -4.480  1.00 20.00     0.169 C 
HETATM    4  C4  UNL     1     -35.486  15.222  -3.912  1.00 20.00     0.086 C 
HETATM    5  C5  UNL     1     -33.507  16.532  -3.020  1.00 20.00     0.123 C 
HETATM    6  O10 UNL     1     -33.732  17.507  -4.047  1.00 20.00    -0.386 OA
HETATM    7 CL11 UNL     1     -35.998  13.635  -4.549  1.00 20.00    -0.125 Cl
ENDROOT
BRANCH   5   8
HETATM    8  C8  UNL     1     -34.016  17.013  -1.688  1.00 20.00     0.035 C 
BRANCH   8   9
HETATM    9  C9  UNL     1     -33.352  18.315  -1.211  1.00 20.00    -0.020 C 
HETATM   10  C6  UNL     1     -33.859  18.758   0.163  1.00 20.00     0.009 C 
HETATM   11  C7  UNL     1     -31.832  18.138  -1.168  1.00 20.00     0.009 C 
ENDBRANCH   8   9
ENDBRANCH   5   8
TORSDOF 2
ENDMDL
MODEL 9
REMARK VINA RESULT:      -3.9      2.514      3.547
REMARK  2 active torsions:
REMARK  status: ('A' for Active; 'I' for Inactive)
REMARK    1  A    between atoms: C5_5  and  C8_8 
REMARK    2  A    between atoms: C8_8  and  C9_9 
ROOT
HETATM    1  C1  UNL     1     -35.597  16.586  -3.824  1.00 20.00     0.046 C 
HETATM    2  C2  UNL     1     -33.352  16.263  -2.763  1.00 20.00     0.052 C 
HETATM    3  C3  UNL     1     -35.636  17.969  -3.189  1.00 20.00     0.169 C 
HETATM    4  C4  UNL     1     -34.733  15.650  -2.987  1.00 20.00     0.086 C 
HETATM    5  C5  UNL     1     -33.442  17.696  -2.228  1.00 20.00     0.123 C 
HETATM    6  O10 UNL     1     -34.325  18.504  -3.018  1.00 20.00    -0.386 OA
HETATM    7 CL11 UNL     1     -34.581  14.064  -3.793  1.00 20.00    -0.125 Cl
ENDROOT
BRANCH   5   8
HETATM    8  C8  UNL     1     -33.792  17.771  -0.767  1.00 20.00     0.035 C 
BRANCH   8   9
HETATM    9  C9  UNL     1     -32.858  18.687   0.042  1.00 20.00    -0.020 C 
HETATM   10  C6  UNL     1     -32.936  18.418   1.546  1.00 20.00     0.009 C 
HETATM   11  C7  UNL     1     -31.415  18.513  -0.440  1.00 20.00     0.009 C 
ENDBRANCH   8   9
ENDBRANCH   5   8
TORSDOF 2
ENDMDL
