MODEL 1
REMARK VINA RESULT:      -4.1      0.000      0.000
REMARK  3 active torsions:
REMARK  status: ('A' for Active; 'I' for Inactive)
REMARK    1  A    between atoms: C4_4  and  N8_8 
REMARK    2  A    between atoms: C6_6  and  C7_7 
REMARK    3  A    between atoms: C6_6  and  N8_8 
ROOT
HETATM    1  C1  UNL     1     -34.447   4.918   4.562  1.00 20.00     0.064 C 
HETATM    2  C2  UNL     1     -35.159   5.304   5.840  1.00 20.00     0.170 C 
HETATM    3  C3  UNL     1     -33.569   6.944   5.379  1.00 20.00     0.203 C 
HETATM    4  C4  UNL     1     -33.938   6.257   4.077  1.00 20.00     0.248 C 
HETATM    5  O9  UNL     1     -34.436   6.411   6.393  1.00 20.00    -0.389 OA
ENDROOT
BRANCH   4   6
HETATM    6  N8  UNL     1     -32.841   6.149   3.162  1.00 20.00     0.092 N 
HETATM    7  C5  UNL     1     -33.202   5.296   2.031  1.00 20.00     0.310 C 
BRANCH   6   8
HETATM    8  C6  UNL     1     -32.434   7.474   2.695  1.00 20.00     0.287 C 
BRANCH   8   9
HETATM    9  C7  UNL     1     -32.483   7.599   1.181  1.00 20.00     0.144 C 
HETATM   10 CL10 UNL     1     -32.936   9.247   0.682  1.00 20.00    -0.129 Cl
ENDBRANCH   8   9
ENDBRANCH   6   8
ENDBRANCH   4   6
TORSDOF 3
ENDMDL
MODEL 2
REMARK VINA RESULT:      -3.9     16.045     16.694
REMARK  3 active torsions:
REMARK  status: ('A' for Active; 'I' for Inactive)
REMARK    1  A    between atoms: C4_4  and  N8_8 
REMARK    2  A    between atoms: C6_6  and  C7_7 
REMARK    3  A    between atoms: C6_6  and  N8_8 
ROOT
HETATM    1  C1  UNL     1     -24.404  18.817   9.203  1.00 20.00     0.064 C 
HETATM    2  C2  UNL     1     -24.179  18.887   7.709  1.00 20.00     0.170 C 
HETATM    3  C3  UNL     1     -22.661  17.358   8.594  1.00 20.00     0.203 C 
HETATM    4  C4  UNL     1     -23.848  17.451   9.534  1.00 20.00     0.248 C 
HETATM    5  O9  UNL     1     -22.976  18.155   7.442  1.00 20.00    -0.389 OA
ENDROOT
BRANCH   4   6
HETATM    6  N8  UNL     1     -23.492  17.302  10.914  1.00 20.00     0.092 N 
HETATM    7  C5  UNL     1     -22.126  17.768  11.141  1.00 20.00     0.310 C 
BRANCH   6   8
HETATM    8  C6  UNL     1     -24.430  18.034  11.765  1.00 20.00     0.287 C 
BRANCH   8   9
HETATM    9  C7  UNL     1     -25.522  17.141  12.332  1.00 20.00     0.144 C 
HETATM   10 CL10 UNL     1     -27.116  17.930  12.243  1.00 20.00    -0.129 Cl
ENDBRANCH   8   9
ENDBRANCH   6   8
ENDBRANCH   4   6
TORSDOF 3
ENDMDL
MODEL 3
REMARK VINA RESULT:      -3.9     16.051     16.621
REMARK  3 active torsions:
REMARK  status: ('A' for Active; 'I' for Inactive)
REMARK    1  A    between atoms: C4_4  and  N8_8 
REMARK    2  A    between atoms: C6_6  and  C7_7 
REMARK    3  A    between atoms: C6_6  and  N8_8 
ROOT
HETATM    1  C1  UNL     1     -25.299  19.263   8.306  1.00 20.00     0.064 C 
HETATM    2  C2  UNL     1     -24.754  19.263   6.895  1.00 20.00     0.170 C 
HETATM    3  C3  UNL     1     -23.223  18.154   8.257  1.00 20.00     0.203 C 
HETATM    4  C4  UNL     1     -24.591  18.071   8.910  1.00 20.00     0.248 C 
HETATM    5  O9  UNL     1     -23.408  18.776   6.976  1.00 20.00    -0.389 OA
ENDROOT
BRANCH   4   6
HETATM    6  N8  UNL     1     -24.540  18.106  10.341  1.00 20.00     0.092 N 
HETATM    7  C5  UNL     1     -25.662  18.876  10.873  1.00 20.00     0.310 C 
BRANCH   6   8
HETATM    8  C6  UNL     1     -24.547  16.748  10.885  1.00 20.00     0.287 C 
BRANCH   8   9
HETATM    9  C7  UNL     1     -23.493  16.545  11.961  1.00 20.00     0.144 C 
HETATM   10 CL10 UNL     1     -22.245  17.813  11.893  1.00 20.00    -0.129 Cl
ENDBRANCH   8   9
ENDBRANCH   6   8
ENDBRANCH   4   6
TORSDOF 3
ENDMDL
MODEL 4
REMARK VINA RESULT:      -3.8      9.788     10.191
REMARK  3 active torsions:
REMARK  status: ('A' for Active; 'I' for Inactive)
REMARK    1  A    between atoms: C4_4  and  N8_8 
REMARK    2  A    between atoms: C6_6  and  C7_7 
REMARK    3  A    between atoms: C6_6  and  N8_8 
ROOT
HETATM    1  C1  UNL     1     -41.190   7.874  -0.173  1.00 20.00     0.064 C 
HETATM    2  C2  UNL     1     -41.775   9.246   0.079  1.00 20.00     0.170 C 
HETATM    3  C3  UNL     1     -43.361   7.661   0.712  1.00 20.00     0.203 C 
HETATM    4  C4  UNL     1     -41.988   7.019   0.785  1.00 20.00     0.248 C 
HETATM    5  O9  UNL     1     -43.157   9.049   0.403  1.00 20.00    -0.389 OA
ENDROOT
BRANCH   4   6
HETATM    6  N8  UNL     1     -41.993   5.629   0.435  1.00 20.00     0.092 N 
HETATM    7  C5  UNL     1     -43.258   5.010   0.824  1.00 20.00     0.310 C 
BRANCH   6   8
HETATM    8  C6  UNL     1     -41.761   5.463  -0.999  1.00 20.00     0.287 C 
BRANCH   8   9
HETATM    9  C7  UNL     1     -42.886   4.708  -1.688  1.00 20.00     0.144 C 
HETATM   10 CL10 UNL     1     -42.253   3.412  -2.732  1.00 20.00    -0.129 Cl
ENDBRANCH   8   9
ENDBRANCH   6   8
ENDBRANCH   4   6
TORSDOF 3
ENDMDL
MODEL 5
REMARK VINA RESULT:      -3.7     11.604     12.287
REMARK  3 active torsions:
REMARK  status: ('A' for Active; 'I' for Inactive)
REMARK    1  A    between atoms: C4_4  and  N8_8 
REMARK    2  A    between atoms: C6_6  and  C7_7 
REMARK    3  A    between atoms: C6_6  and  N8_8 
ROOT
HETATM    1  C1  UNL     1     -37.041  15.926  -4.518  1.00 20.00     0.064 C 
HETATM    2  C2  UNL     1     -38.189  14.983  -4.234  1.00 20.00     0.170 C 
HETATM    3  C3  UNL     1     -36.263  13.705  -4.525  1.00 20.00     0.203 C 
HETATM    4  C4  UNL     1     -35.850  15.099  -4.090  1.00 20.00     0.248 C 
HETATM    5  O9  UNL     1     -37.698  13.657  -4.470  1.00 20.00    -0.389 OA
ENDROOT
BRANCH   4   6
HETATM    6  N8  UNL     1     -34.617  15.534  -4.677  1.00 20.00     0.092 N 
HETATM    7  C5  UNL     1     -34.768  16.869  -5.251  1.00 20.00     0.310 C 
BRANCH   6   8
HETATM    8  C6  UNL     1     -33.547  15.523  -3.680  1.00 20.00     0.287 C 
BRANCH   8   9
HETATM    9  C7  UNL     1     -33.928  16.258  -2.406  1.00 20.00     0.144 C 
HETATM   10 CL10 UNL     1     -32.730  17.510  -1.997  1.00 20.00    -0.129 Cl
ENDBRANCH   8   9
ENDBRANCH   6   8
ENDBRANCH   4   6
TORSDOF 3
ENDMDL
MODEL 6
REMARK VINA RESULT:      -3.6     11.760     12.467
REMARK  3 active torsions:
REMARK  status: ('A' for Active; 'I' for Inactive)
REMARK    1  A    between atoms: C4_4  and  N8_8 
REMARK    2  A    between atoms: C6_6  and  C7_7 
REMARK    3  A    between atoms: C6_6  and  N8_8 
ROOT
HETATM    1  C1  UNL     1     -37.150  15.960  -4.421  1.00 20.00     0.064 C 
HETATM    2  C2  UNL     1     -38.265  14.955  -4.236  1.00 20.00     0.170 C 
HETATM    3  C3  UNL     1     -36.261  13.781  -4.417  1.00 20.00     0.203 C 
HETATM    4  C4  UNL     1     -35.950  15.183  -3.928  1.00 20.00     0.248 C 
HETATM    5  O9  UNL     1     -37.691  13.661  -4.463  1.00 20.00    -0.389 OA
ENDROOT
BRANCH   4   6
HETATM    6  N8  UNL     1     -34.703  15.692  -4.419  1.00 20.00     0.092 N 
HETATM    7  C5  UNL     1     -33.712  15.733  -3.346  1.00 20.00     0.310 C 
BRANCH   6   8
HETATM    8  C6  UNL     1     -34.222  14.873  -5.531  1.00 20.00     0.287 C 
BRANCH   8   9
HETATM    9  C7  UNL     1     -34.316  15.590  -6.867  1.00 20.00     0.144 C 
HETATM   10 CL10 UNL     1     -35.748  15.066  -7.785  1.00 20.00    -0.129 Cl
ENDBRANCH   8   9
ENDBRANCH   6   8
ENDBRANCH   4   6
TORSDOF 3
ENDMDL
MODEL 7
REMARK VINA RESULT:      -3.6     11.790     12.430
REMARK  3 active torsions:
REMARK  status: ('A' for Active; 'I' for Inactive)
REMARK    1  A    between atoms: C4_4  and  N8_8 
REMARK    2  A    between atoms: C6_6  and  C7_7 
REMARK    3  A    between atoms: C6_6  and  N8_8 
ROOT
HETATM    1  C1  UNL     1     -35.673  14.686  -3.878  1.00 20.00     0.064 C 
HETATM    2  C2  UNL     1     -36.308  13.618  -4.740  1.00 20.00     0.170 C 
HETATM    3  C3  UNL     1     -34.859  14.856  -6.080  1.00 20.00     0.203 C 
HETATM    4  C4  UNL     1     -34.399  14.979  -4.639  1.00 20.00     0.248 C 
HETATM    5  O9  UNL     1     -35.943  13.915  -6.095  1.00 20.00    -0.389 OA
ENDROOT
BRANCH   4   6
HETATM    6  N8  UNL     1     -33.836  16.260  -4.330  1.00 20.00     0.092 N 
HETATM    7  C5  UNL     1     -34.839  17.310  -4.492  1.00 20.00     0.310 C 
BRANCH   6   8
HETATM    8  C6  UNL     1     -33.301  16.267  -2.969  1.00 20.00     0.287 C 
BRANCH   8   9
HETATM    9  C7  UNL     1     -33.865  17.399  -2.127  1.00 20.00     0.144 C 
HETATM   10 CL10 UNL     1     -35.067  16.801  -0.958  1.00 20.00    -0.129 Cl
ENDBRANCH   8   9
ENDBRANCH   6   8
ENDBRANCH   4   6
TORSDOF 3
ENDMDL
MODEL 8
REMARK VINA RESULT:      -3.5     11.458     12.264
REMARK  3 active torsions:
REMARK  status: ('A' for Active; 'I' for Inactive)
REMARK    1  A    between atoms: C4_4  and  N8_8 
REMARK    2  A    between atoms: C6_6  and  C7_7 
REMARK    3  A    between atoms: C6_6  and  N8_8 
ROOT
HETATM    1  C1  UNL     1     -34.768  15.554  -5.444  1.00 20.00     0.064 C 
HETATM    2  C2  UNL     1     -35.654  14.834  -6.435  1.00 20.00     0.170 C 
HETATM    3  C3  UNL     1     -35.835  13.744  -4.384  1.00 20.00     0.203 C 
HETATM    4  C4  UNL     1     -35.408  15.177  -4.127  1.00 20.00     0.248 C 
HETATM    5  O9  UNL     1     -36.093  13.630  -5.791  1.00 20.00    -0.389 OA
ENDROOT
BRANCH   4   6
HETATM    6  N8  UNL     1     -34.525  15.314  -3.007  1.00 20.00     0.092 N 
HETATM    7  C5  UNL     1     -33.237  15.856  -3.436  1.00 20.00     0.310 C 
BRANCH   6   8
HETATM    8  C6  UNL     1     -35.126  16.171  -1.985  1.00 20.00     0.287 C 
BRANCH   8   9
HETATM    9  C7  UNL     1     -34.184  17.266  -1.514  1.00 20.00     0.144 C 
HETATM   10 CL10 UNL     1     -34.540  17.751   0.162  1.00 20.00    -0.129 Cl
ENDBRANCH   8   9
ENDBRANCH   6   8
ENDBRANCH   4   6
TORSDOF 3
ENDMDL
MODEL 9
REMARK VINA RESULT:      -3.5     11.496     12.185
REMARK  3 active torsions:
REMARK  status: ('A' for Active; 'I' for Inactive)
REMARK    1  A    between atoms: C4_4  and  N8_8 
REMARK    2  A    between atoms: C6_6  and  C7_7 
REMARK    3  A    between atoms: C6_6  and  N8_8 
ROOT
HETATM    1  C1  UNL     1     -35.239  14.423  -3.910  1.00 20.00     0.064 C 
HETATM    2  C2  UNL     1     -36.041  13.352  -4.615  1.00 20.00     0.170 C 
HETATM    3  C3  UNL     1     -37.480  15.113  -4.110  1.00 20.00     0.203 C 
HETATM    4  C4  UNL     1     -36.066  15.658  -4.184  1.00 20.00     0.248 C 
HETATM    5  O9  UNL     1     -37.418  13.734  -4.506  1.00 20.00    -0.389 OA
ENDROOT
BRANCH   4   6
HETATM    6  N8  UNL     1     -35.820  16.724  -3.258  1.00 20.00     0.092 N 
HETATM    7  C5  UNL     1     -37.073  17.384  -2.896  1.00 20.00     0.310 C 
BRANCH   6   8
HETATM    8  C6  UNL     1     -35.145  16.216  -2.065  1.00 20.00     0.287 C 
BRANCH   8   9
HETATM    9  C7  UNL     1     -34.343  17.289  -1.347  1.00 20.00     0.144 C 
HETATM   10 CL10 UNL     1     -32.719  17.468  -2.056  1.00 20.00    -0.129 Cl
ENDBRANCH   8   9
ENDBRANCH   6   8
ENDBRANCH   4   6
TORSDOF 3
ENDMDL
