MODEL 1
REMARK VINA RESULT:      -4.7      0.000      0.000
REMARK  0 active torsions:
REMARK  status: ('A' for Active; 'I' for Inactive)
ROOT
HETATM    1  C1  UNL     1     -32.338  18.640  -0.807  1.00 20.00     0.000 C 
HETATM    2  C2  UNL     1     -33.376  18.156   0.198  1.00 20.00     0.000 C 
HETATM    3  C3  UNL     1     -32.582  18.292  -2.270  1.00 20.00     0.003 C 
HETATM    4  C4  UNL     1     -34.810  18.133  -0.319  1.00 20.00     0.003 C 
HETATM    5  C5  UNL     1     -33.065  16.862  -2.528  1.00 20.00     0.038 C 
HETATM    6  C6  UNL     1     -35.151  16.831  -1.050  1.00 20.00     0.038 C 
HETATM    7  C7  UNL     1     -35.714  16.236  -5.180  1.00 20.00     0.046 C 
HETATM    8  C8  UNL     1     -35.022  15.246  -2.968  1.00 20.00     0.058 C 
HETATM    9  C9  UNL     1     -35.118  17.544  -4.689  1.00 20.00     0.170 C 
HETATM   10  C10 UNL     1     -35.088  15.032  -4.484  1.00 20.00     0.087 C 
HETATM   11  C11 UNL     1     -34.603  16.670  -2.491  1.00 20.00     0.062 C 
HETATM   12  O12 UNL     1     -35.274  17.667  -3.278  1.00 20.00    -0.380 OA
HETATM   13 CL13 UNL     1     -33.484  14.658  -5.177  1.00 20.00    -0.125 Cl
ENDROOT
TORSDOF 0
ENDMDL
MODEL 2
REMARK VINA RESULT:      -4.5      1.635      2.701
REMARK  0 active torsions:
REMARK  status: ('A' for Active; 'I' for Inactive)
ROOT
HETATM    1  C1  UNL     1     -34.737  17.343  -0.466  1.00 20.00     0.000 C 
HETATM    2  C2  UNL     1     -33.665  18.366  -0.818  1.00 20.00     0.000 C 
HETATM    3  C3  UNL     1     -35.112  16.339  -1.549  1.00 20.00     0.003 C 
HETATM    4  C4  UNL     1     -32.574  17.858  -1.753  1.00 20.00     0.003 C 
HETATM    5  C5  UNL     1     -35.261  16.924  -2.956  1.00 20.00     0.038 C 
HETATM    6  C6  UNL     1     -32.955  17.995  -3.231  1.00 20.00     0.038 C 
HETATM    7  C7  UNL     1     -33.992  14.945  -5.942  1.00 20.00     0.046 C 
HETATM    8  C8  UNL     1     -34.231  17.363  -5.276  1.00 20.00     0.058 C 
HETATM    9  C9  UNL     1     -33.910  14.628  -4.459  1.00 20.00     0.170 C 
HETATM   10  C10 UNL     1     -34.734  16.251  -6.203  1.00 20.00     0.087 C 
HETATM   11  C11 UNL     1     -33.958  16.956  -3.796  1.00 20.00     0.062 C 
HETATM   12  O12 UNL     1     -33.276  15.691  -3.754  1.00 20.00    -0.380 OA
HETATM   13 CL13 UNL     1     -36.501  16.018  -6.069  1.00 20.00    -0.125 Cl
ENDROOT
TORSDOF 0
ENDMDL
MODEL 3
REMARK VINA RESULT:      -4.5      2.241      4.603
REMARK  0 active torsions:
REMARK  status: ('A' for Active; 'I' for Inactive)
ROOT
HETATM    1  C1  UNL     1     -37.314  14.591  -4.214  1.00 20.00     0.000 C 
HETATM    2  C2  UNL     1     -36.245  13.753  -4.904  1.00 20.00     0.000 C 
HETATM    3  C3  UNL     1     -36.874  15.934  -3.645  1.00 20.00     0.003 C 
HETATM    4  C4  UNL     1     -35.185  14.552  -5.653  1.00 20.00     0.003 C 
HETATM    5  C5  UNL     1     -35.533  15.921  -2.906  1.00 20.00     0.038 C 
HETATM    6  C6  UNL     1     -34.027  14.985  -4.748  1.00 20.00     0.038 C 
HETATM    7  C7  UNL     1     -33.144  18.847  -3.321  1.00 20.00     0.046 C 
HETATM    8  C8  UNL     1     -32.996  16.360  -2.944  1.00 20.00     0.058 C 
HETATM    9  C9  UNL     1     -34.487  18.585  -3.983  1.00 20.00     0.170 C 
HETATM   10  C10 UNL     1     -32.776  17.748  -2.331  1.00 20.00     0.087 C 
HETATM   11  C11 UNL     1     -34.289  16.180  -3.795  1.00 20.00     0.062 C 
HETATM   12  O12 UNL     1     -34.481  17.323  -4.643  1.00 20.00    -0.380 OA
HETATM   13 CL13 UNL     1     -33.667  17.948  -0.795  1.00 20.00    -0.125 Cl
ENDROOT
TORSDOF 0
ENDMDL
MODEL 4
REMARK VINA RESULT:      -4.5      2.136      4.536
REMARK  0 active torsions:
REMARK  status: ('A' for Active; 'I' for Inactive)
ROOT
HETATM    1  C1  UNL     1     -34.677  16.553  -6.390  1.00 20.00     0.000 C 
HETATM    2  C2  UNL     1     -34.727  15.094  -5.954  1.00 20.00     0.000 C 
HETATM    3  C3  UNL     1     -34.367  17.584  -5.311  1.00 20.00     0.003 C 
HETATM    4  C4  UNL     1     -33.752  14.720  -4.844  1.00 20.00     0.003 C 
HETATM    5  C5  UNL     1     -35.088  17.367  -3.978  1.00 20.00     0.038 C 
HETATM    6  C6  UNL     1     -34.321  14.987  -3.447  1.00 20.00     0.038 C 
HETATM    7  C7  UNL     1     -33.230  18.009  -0.726  1.00 20.00     0.046 C 
HETATM    8  C8  UNL     1     -35.031  16.461  -1.568  1.00 20.00     0.058 C 
HETATM    9  C9  UNL     1     -32.735  18.083  -2.161  1.00 20.00     0.170 C 
HETATM   10  C10 UNL     1     -34.710  17.649  -0.654  1.00 20.00     0.087 C 
HETATM   11  C11 UNL     1     -34.342  16.461  -2.966  1.00 20.00     0.062 C 
HETATM   12  O12 UNL     1     -32.964  16.848  -2.833  1.00 20.00    -0.380 OA
HETATM   13 CL13 UNL     1     -35.730  19.070  -1.022  1.00 20.00    -0.125 Cl
ENDROOT
TORSDOF 0
ENDMDL
MODEL 5
REMARK VINA RESULT:      -4.4      1.765      2.509
REMARK  0 active torsions:
REMARK  status: ('A' for Active; 'I' for Inactive)
ROOT
HETATM    1  C1  UNL     1     -34.423  18.719  -2.370  1.00 20.00     0.000 C 
HETATM    2  C2  UNL     1     -34.044  17.472  -1.580  1.00 20.00     0.000 C 
HETATM    3  C3  UNL     1     -34.926  18.506  -3.792  1.00 20.00     0.003 C 
HETATM    4  C4  UNL     1     -34.888  16.240  -1.880  1.00 20.00     0.003 C 
HETATM    5  C5  UNL     1     -34.144  17.475  -4.611  1.00 20.00     0.038 C 
HETATM    6  C6  UNL     1     -34.360  15.442  -3.076  1.00 20.00     0.038 C 
HETATM    7  C7  UNL     1     -36.024  15.123  -6.930  1.00 20.00     0.046 C 
HETATM    8  C8  UNL     1     -33.947  15.067  -5.505  1.00 20.00     0.058 C 
HETATM    9  C9  UNL     1     -36.555  16.176  -5.974  1.00 20.00     0.170 C 
HETATM   10  C10 UNL     1     -34.500  15.076  -6.934  1.00 20.00     0.087 C 
HETATM   11  C11 UNL     1     -34.652  16.014  -4.487  1.00 20.00     0.062 C 
HETATM   12  O12 UNL     1     -36.077  15.939  -4.653  1.00 20.00    -0.380 OA
HETATM   13 CL13 UNL     1     -33.824  16.418  -7.902  1.00 20.00    -0.125 Cl
ENDROOT
TORSDOF 0
ENDMDL
MODEL 6
REMARK VINA RESULT:      -4.3      1.626      1.904
REMARK  0 active torsions:
REMARK  status: ('A' for Active; 'I' for Inactive)
ROOT
HETATM    1  C1  UNL     1     -32.991  17.856  -1.598  1.00 20.00     0.000 C 
HETATM    2  C2  UNL     1     -34.286  18.633  -1.397  1.00 20.00     0.000 C 
HETATM    3  C3  UNL     1     -32.996  16.777  -2.674  1.00 20.00     0.003 C 
HETATM    4  C4  UNL     1     -35.098  18.869  -2.665  1.00 20.00     0.003 C 
HETATM    5  C5  UNL     1     -34.250  15.899  -2.710  1.00 20.00     0.038 C 
HETATM    6  C6  UNL     1     -36.040  17.704  -2.985  1.00 20.00     0.038 C 
HETATM    7  C7  UNL     1     -35.698  14.851  -6.063  1.00 20.00     0.046 C 
HETATM    8  C8  UNL     1     -36.549  15.389  -3.754  1.00 20.00     0.058 C 
HETATM    9  C9  UNL     1     -34.520  15.758  -5.753  1.00 20.00     0.170 C 
HETATM   10  C10 UNL     1     -36.329  14.287  -4.796  1.00 20.00     0.087 C 
HETATM   11  C11 UNL     1     -35.401  16.432  -3.602  1.00 20.00     0.062 C 
HETATM   12  O12 UNL     1     -34.921  16.825  -4.898  1.00 20.00    -0.380 OA
HETATM   13 CL13 UNL     1     -35.354  12.938  -4.145  1.00 20.00    -0.125 Cl
ENDROOT
TORSDOF 0
ENDMDL
MODEL 7
REMARK VINA RESULT:      -4.2      1.941      4.552
REMARK  0 active torsions:
REMARK  status: ('A' for Active; 'I' for Inactive)
ROOT
HETATM    1  C1  UNL     1     -34.484  14.576  -4.487  1.00 20.00     0.000 C 
HETATM    2  C2  UNL     1     -34.629  15.568  -5.634  1.00 20.00     0.000 C 
HETATM    3  C3  UNL     1     -34.193  15.158  -3.108  1.00 20.00     0.003 C 
HETATM    4  C4  UNL     1     -35.260  16.902  -5.256  1.00 20.00     0.003 C 
HETATM    5  C5  UNL     1     -33.155  16.283  -3.082  1.00 20.00     0.038 C 
HETATM    6  C6  UNL     1     -34.233  17.911  -4.733  1.00 20.00     0.038 C 
HETATM    7  C7  UNL     1     -33.690  19.261  -0.782  1.00 20.00     0.046 C 
HETATM    8  C8  UNL     1     -32.649  18.808  -3.031  1.00 20.00     0.058 C 
HETATM    9  C9  UNL     1     -34.584  18.060  -1.044  1.00 20.00     0.170 C 
HETATM   10  C10 UNL     1     -32.387  19.179  -1.567  1.00 20.00     0.087 C 
HETATM   11  C11 UNL     1     -33.728  17.711  -3.281  1.00 20.00     0.062 C 
HETATM   12  O12 UNL     1     -34.866  17.941  -2.435  1.00 20.00    -0.380 OA
HETATM   13 CL13 UNL     1     -31.242  18.050  -0.787  1.00 20.00    -0.125 Cl
ENDROOT
TORSDOF 0
ENDMDL
MODEL 8
REMARK VINA RESULT:      -4.0      1.528      2.010
REMARK  0 active torsions:
REMARK  status: ('A' for Active; 'I' for Inactive)
ROOT
HETATM    1  C1  UNL     1     -31.348  19.047   0.473  1.00 20.00     0.000 C 
HETATM    2  C2  UNL     1     -32.253  18.474   1.557  1.00 20.00     0.000 C 
HETATM    3  C3  UNL     1     -31.906  19.075  -0.945  1.00 20.00     0.003 C 
HETATM    4  C4  UNL     1     -33.740  18.743   1.362  1.00 20.00     0.003 C 
HETATM    5  C5  UNL     1     -32.654  17.810  -1.375  1.00 20.00     0.038 C 
HETATM    6  C6  UNL     1     -34.416  17.693   0.474  1.00 20.00     0.038 C 
HETATM    7  C7  UNL     1     -35.803  18.130  -3.477  1.00 20.00     0.046 C 
HETATM    8  C8  UNL     1     -34.895  16.585  -1.706  1.00 20.00     0.058 C 
HETATM    9  C9  UNL     1     -34.923  19.210  -2.872  1.00 20.00     0.170 C 
HETATM   10  C10 UNL     1     -35.268  16.733  -3.185  1.00 20.00     0.087 C 
HETATM   11  C11 UNL     1     -34.171  17.801  -1.054  1.00 20.00     0.062 C 
HETATM   12  O12 UNL     1     -34.800  19.025  -1.465  1.00 20.00    -0.380 OA
HETATM   13 CL13 UNL     1     -33.898  16.338  -4.262  1.00 20.00    -0.125 Cl
ENDROOT
TORSDOF 0
ENDMDL
MODEL 9
REMARK VINA RESULT:      -4.0      2.138      5.022
REMARK  0 active torsions:
REMARK  status: ('A' for Active; 'I' for Inactive)
ROOT
HETATM    1  C1  UNL     1     -36.706  16.628  -7.347  1.00 20.00     0.000 C 
HETATM    2  C2  UNL     1     -35.917  15.357  -7.634  1.00 20.00     0.000 C 
HETATM    3  C3  UNL     1     -36.338  17.396  -6.084  1.00 20.00     0.003 C 
HETATM    4  C4  UNL     1     -34.456  15.395  -7.203  1.00 20.00     0.003 C 
HETATM    5  C5  UNL     1     -36.094  16.532  -4.844  1.00 20.00     0.038 C 
HETATM    6  C6  UNL     1     -34.264  14.987  -5.739  1.00 20.00     0.038 C 
HETATM    7  C7  UNL     1     -33.276  17.438  -2.461  1.00 20.00     0.046 C 
HETATM    8  C8  UNL     1     -34.425  15.350  -3.279  1.00 20.00     0.058 C 
HETATM    9  C9  UNL     1     -33.683  18.080  -3.777  1.00 20.00     0.170 C 
HETATM   10  C10 UNL     1     -34.197  16.284  -2.085  1.00 20.00     0.087 C 
HETATM   11  C11 UNL     1     -34.636  16.038  -4.661  1.00 20.00     0.062 C 
HETATM   12  O12 UNL     1     -33.695  17.112  -4.822  1.00 20.00    -0.380 OA
HETATM   13 CL13 UNL     1     -35.737  16.891  -1.410  1.00 20.00    -0.125 Cl
ENDROOT
TORSDOF 0
ENDMDL
