MODEL 1
REMARK VINA RESULT:      -4.6      0.000      0.000
REMARK  1 active torsions:
REMARK  status: ('A' for Active; 'I' for Inactive)
REMARK    1  A    between atoms: C5_5  and  C7_7 
ROOT
HETATM    1  C1  UNL     1     -34.153   4.230   4.093  1.00 20.00     0.046 C 
HETATM    2  C2  UNL     1     -33.665   6.691   4.115  1.00 20.00     0.052 C 
HETATM    3  C3  UNL     1     -33.771   4.237   2.618  1.00 20.00     0.169 C 
HETATM    4  C4  UNL     1     -34.665   5.607   4.511  1.00 20.00     0.086 C 
HETATM    5  C5  UNL     1     -33.316   6.569   2.629  1.00 20.00     0.122 C 
HETATM    6  O8  UNL     1     -32.812   5.259   2.346  1.00 20.00    -0.386 OA
HETATM    7 CL9  UNL     1     -34.962   5.648   6.269  1.00 20.00    -0.125 Cl
ENDROOT
BRANCH   5   8
HETATM    8  C7  UNL     1     -32.243   7.574   2.233  1.00 20.00     0.027 C 
HETATM    9  C6  UNL     1     -32.615   8.325   0.994  1.00 20.00     0.007 C 
ENDBRANCH   5   8
TORSDOF 1
ENDMDL
MODEL 2
REMARK VINA RESULT:      -4.1     16.325     16.967
REMARK  1 active torsions:
REMARK  status: ('A' for Active; 'I' for Inactive)
REMARK    1  A    between atoms: C5_5  and  C7_7 
ROOT
HETATM    1  C1  UNL     1     -21.759  17.673   9.688  1.00 20.00     0.046 C 
HETATM    2  C2  UNL     1     -24.133  18.406  10.039  1.00 20.00     0.052 C 
HETATM    3  C3  UNL     1     -22.081  17.578   8.201  1.00 20.00     0.169 C 
HETATM    4  C4  UNL     1     -23.026  17.468  10.515  1.00 20.00     0.086 C 
HETATM    5  C5  UNL     1     -24.332  18.264   8.527  1.00 20.00     0.122 C 
HETATM    6  O8  UNL     1     -23.100  18.511   7.841  1.00 20.00    -0.386 OA
HETATM    7 CL9  UNL     1     -22.687  17.735  12.245  1.00 20.00    -0.125 Cl
ENDROOT
BRANCH   5   8
HETATM    8  C7  UNL     1     -25.359  19.263   8.012  1.00 20.00     0.027 C 
HETATM    9  C6  UNL     1     -25.439  19.259   6.519  1.00 20.00     0.007 C 
ENDBRANCH   5   8
TORSDOF 1
ENDMDL
MODEL 3
REMARK VINA RESULT:      -4.0     17.016     17.482
REMARK  1 active torsions:
REMARK  status: ('A' for Active; 'I' for Inactive)
REMARK    1  A    between atoms: C5_5  and  C7_7 
ROOT
HETATM    1  C1  UNL     1     -24.097  18.147  12.332  1.00 20.00     0.046 C 
HETATM    2  C2  UNL     1     -23.872  18.473   9.854  1.00 20.00     0.052 C 
HETATM    3  C3  UNL     1     -22.789  17.366  12.279  1.00 20.00     0.169 C 
HETATM    4  C4  UNL     1     -24.814  18.067  10.985  1.00 20.00     0.086 C 
HETATM    5  C5  UNL     1     -22.574  17.664   9.931  1.00 20.00     0.122 C 
HETATM    6  O8  UNL     1     -21.961  17.834  11.214  1.00 20.00    -0.386 OA
HETATM    7 CL9  UNL     1     -26.262  19.107  10.992  1.00 20.00    -0.125 Cl
ENDROOT
BRANCH   5   8
HETATM    8  C7  UNL     1     -21.577  18.123   8.876  1.00 20.00     0.027 C 
HETATM    9  C6  UNL     1     -21.622  17.260   7.655  1.00 20.00     0.007 C 
ENDBRANCH   5   8
TORSDOF 1
ENDMDL
MODEL 4
REMARK VINA RESULT:      -4.0     11.403     11.950
REMARK  1 active torsions:
REMARK  status: ('A' for Active; 'I' for Inactive)
REMARK    1  A    between atoms: C5_5  and  C7_7 
ROOT
HETATM    1  C1  UNL     1     -33.064  16.069  -3.545  1.00 20.00     0.046 C 
HETATM    2  C2  UNL     1     -35.446  15.405  -3.118  1.00 20.00     0.052 C 
HETATM    3  C3  UNL     1     -32.914  14.769  -4.327  1.00 20.00     0.169 C 
HETATM    4  C4  UNL     1     -34.156  15.924  -2.487  1.00 20.00     0.086 C 
HETATM    5  C5  UNL     1     -35.165  14.130  -3.919  1.00 20.00     0.122 C 
HETATM    6  O8  UNL     1     -34.158  14.378  -4.907  1.00 20.00    -0.386 OA
HETATM    7 CL9  UNL     1     -34.445  17.487  -1.679  1.00 20.00    -0.125 Cl
ENDROOT
BRANCH   5   8
HETATM    8  C7  UNL     1     -36.416  13.650  -4.642  1.00 20.00     0.027 C 
HETATM    9  C6  UNL     1     -37.587  14.542  -4.381  1.00 20.00     0.007 C 
ENDBRANCH   5   8
TORSDOF 1
ENDMDL
MODEL 5
REMARK VINA RESULT:      -3.9     16.627     17.503
REMARK  1 active torsions:
REMARK  status: ('A' for Active; 'I' for Inactive)
REMARK    1  A    between atoms: C5_5  and  C7_7 
ROOT
HETATM    1  C1  UNL     1     -22.843  18.155  10.110  1.00 20.00     0.046 C 
HETATM    2  C2  UNL     1     -24.010  18.136  12.332  1.00 20.00     0.052 C 
HETATM    3  C3  UNL     1     -24.220  18.071   9.463  1.00 20.00     0.169 C 
HETATM    4  C4  UNL     1     -22.877  17.532  11.505  1.00 20.00     0.086 C 
HETATM    5  C5  UNL     1     -25.332  18.044  11.563  1.00 20.00     0.122 C 
HETATM    6  O8  UNL     1     -25.209  18.687  10.289  1.00 20.00    -0.386 OA
HETATM    7 CL9  UNL     1     -21.313  17.770  12.327  1.00 20.00    -0.125 Cl
ENDROOT
BRANCH   5   8
HETATM    8  C7  UNL     1     -26.458  18.732  12.323  1.00 20.00     0.027 C 
HETATM    9  C6  UNL     1     -27.770  18.044  12.116  1.00 20.00     0.007 C 
ENDBRANCH   5   8
TORSDOF 1
ENDMDL
MODEL 6
REMARK VINA RESULT:      -3.8     12.050     12.602
REMARK  1 active torsions:
REMARK  status: ('A' for Active; 'I' for Inactive)
REMARK    1  A    between atoms: C5_5  and  C7_7 
ROOT
HETATM    1  C1  UNL     1     -35.885  14.413  -5.937  1.00 20.00     0.046 C 
HETATM    2  C2  UNL     1     -34.132  15.720  -4.707  1.00 20.00     0.052 C 
HETATM    3  C3  UNL     1     -36.350  13.892  -4.583  1.00 20.00     0.169 C 
HETATM    4  C4  UNL     1     -34.404  14.781  -5.880  1.00 20.00     0.086 C 
HETATM    5  C5  UNL     1     -34.687  15.120  -3.411  1.00 20.00     0.122 C 
HETATM    6  O8  UNL     1     -36.086  14.845  -3.554  1.00 20.00    -0.386 OA
HETATM    7 CL9  UNL     1     -33.895  15.540  -7.412  1.00 20.00    -0.125 Cl
ENDROOT
BRANCH   5   8
HETATM    8  C7  UNL     1     -34.520  16.083  -2.244  1.00 20.00     0.027 C 
HETATM    9  C6  UNL     1     -33.287  16.918  -2.385  1.00 20.00     0.007 C 
ENDBRANCH   5   8
TORSDOF 1
ENDMDL
MODEL 7
REMARK VINA RESULT:      -3.7     11.573     12.337
REMARK  1 active torsions:
REMARK  status: ('A' for Active; 'I' for Inactive)
REMARK    1  A    between atoms: C5_5  and  C7_7 
ROOT
HETATM    1  C1  UNL     1     -34.236  17.577  -0.750  1.00 20.00     0.046 C 
HETATM    2  C2  UNL     1     -32.989  16.624  -2.708  1.00 20.00     0.052 C 
HETATM    3  C3  UNL     1     -35.494  16.939  -1.328  1.00 20.00     0.169 C 
HETATM    4  C4  UNL     1     -33.236  17.874  -1.866  1.00 20.00     0.086 C 
HETATM    5  C5  UNL     1     -34.321  16.041  -3.189  1.00 20.00     0.122 C 
HETATM    6  O8  UNL     1     -35.172  15.763  -2.071  1.00 20.00    -0.386 OA
HETATM    7 CL9  UNL     1     -31.702  18.471  -1.179  1.00 20.00    -0.125 Cl
ENDROOT
BRANCH   5   8
HETATM    8  C7  UNL     1     -34.108  14.737  -3.946  1.00 20.00     0.027 C 
HETATM    9  C6  UNL     1     -35.388  13.985  -4.130  1.00 20.00     0.007 C 
ENDBRANCH   5   8
TORSDOF 1
ENDMDL
MODEL 8
REMARK VINA RESULT:      -3.7     11.627     12.122
REMARK  1 active torsions:
REMARK  status: ('A' for Active; 'I' for Inactive)
REMARK    1  A    between atoms: C5_5  and  C7_7 
ROOT
HETATM    1  C1  UNL     1     -33.428  16.365  -2.885  1.00 20.00     0.046 C 
HETATM    2  C2  UNL     1     -35.732  15.442  -3.263  1.00 20.00     0.052 C 
HETATM    3  C3  UNL     1     -32.929  15.352  -3.908  1.00 20.00     0.169 C 
HETATM    4  C4  UNL     1     -34.701  15.852  -2.213  1.00 20.00     0.086 C 
HETATM    5  C5  UNL     1     -35.105  14.468  -4.265  1.00 20.00     0.122 C 
HETATM    6  O8  UNL     1     -33.945  15.054  -4.866  1.00 20.00    -0.386 OA
HETATM    7 CL9  UNL     1     -35.377  17.100  -1.134  1.00 20.00    -0.125 Cl
ENDROOT
BRANCH   5   8
HETATM    8  C7  UNL     1     -36.082  14.124  -5.381  1.00 20.00     0.027 C 
HETATM    9  C6  UNL     1     -35.684  14.747  -6.681  1.00 20.00     0.007 C 
ENDBRANCH   5   8
TORSDOF 1
ENDMDL
MODEL 9
REMARK VINA RESULT:      -3.6     11.668     12.371
REMARK  1 active torsions:
REMARK  status: ('A' for Active; 'I' for Inactive)
REMARK    1  A    between atoms: C5_5  and  C7_7 
ROOT
HETATM    1  C1  UNL     1     -33.031  16.177  -3.298  1.00 20.00     0.046 C 
HETATM    2  C2  UNL     1     -35.125  15.914  -1.940  1.00 20.00     0.052 C 
HETATM    3  C3  UNL     1     -32.874  17.553  -2.662  1.00 20.00     0.169 C 
HETATM    4  C4  UNL     1     -34.504  15.776  -3.329  1.00 20.00     0.086 C 
HETATM    5  C5  UNL     1     -34.860  17.315  -1.380  1.00 20.00     0.122 C 
HETATM    6  O8  UNL     1     -33.453  17.580  -1.357  1.00 20.00    -0.386 OA
HETATM    7 CL9  UNL     1     -34.679  14.104  -3.924  1.00 20.00    -0.125 Cl
ENDROOT
BRANCH   5   8
HETATM    8  C7  UNL     1     -35.380  17.443   0.045  1.00 20.00     0.027 C 
HETATM    9  C6  UNL     1     -34.345  18.006   0.967  1.00 20.00     0.007 C 
ENDBRANCH   5   8
TORSDOF 1
ENDMDL
