MODEL 1
REMARK VINA RESULT:      -4.0      0.000      0.000
REMARK  2 active torsions:
REMARK  status: ('A' for Active; 'I' for Inactive)
REMARK    1  A    between atoms: C5_5  and  C8_8 
REMARK    2  A    between atoms: C8_8  and  C9_9 
ROOT
HETATM    1  C1  UNL     1     -34.460  16.718  -6.740  1.00 20.00     0.046 C 
HETATM    2  C2  UNL     1     -36.079  16.072  -4.945  1.00 20.00     0.057 C 
HETATM    3  C3  UNL     1     -34.070  15.254  -6.927  1.00 20.00     0.170 C 
HETATM    4  C4  UNL     1     -35.896  16.837  -6.257  1.00 20.00     0.087 C 
HETATM    5  C5  UNL     1     -35.358  14.702  -4.953  1.00 20.00     0.058 C 
HETATM    6  C6  UNL     1     -36.330  13.604  -4.497  1.00 20.00     0.046 C 
HETATM    7  O10 UNL     1     -34.957  14.343  -6.281  1.00 20.00    -0.380 OA
HETATM    8 CL11 UNL     1     -36.348  18.550  -6.047  1.00 20.00    -0.125 Cl
ENDROOT
BRANCH   5   9
HETATM    9  C8  UNL     1     -34.148  14.695  -4.006  1.00 20.00     0.037 C 
BRANCH   9  10
HETATM   10  C9  UNL     1     -34.346  15.678  -2.862  1.00 20.00    -0.002 C 
HETATM   11  C7  UNL     1     -33.162  16.626  -2.748  1.00 20.00     0.005 C 
ENDBRANCH   9  10
ENDBRANCH   5   9
TORSDOF 2
ENDMDL
MODEL 2
REMARK VINA RESULT:      -3.9      1.954      2.618
REMARK  2 active torsions:
REMARK  status: ('A' for Active; 'I' for Inactive)
REMARK    1  A    between atoms: C5_5  and  C8_8 
REMARK    2  A    between atoms: C8_8  and  C9_9 
ROOT
HETATM    1  C1  UNL     1     -36.631  16.518  -5.096  1.00 20.00     0.046 C 
HETATM    2  C2  UNL     1     -35.495  14.577  -4.001  1.00 20.00     0.057 C 
HETATM    3  C3  UNL     1     -35.286  17.027  -5.609  1.00 20.00     0.170 C 
HETATM    4  C4  UNL     1     -36.616  15.006  -4.948  1.00 20.00     0.087 C 
HETATM    5  C5  UNL     1     -34.182  15.360  -4.243  1.00 20.00     0.058 C 
HETATM    6  C6  UNL     1     -33.009  14.378  -4.371  1.00 20.00     0.046 C 
HETATM    7  O10 UNL     1     -34.233  16.073  -5.485  1.00 20.00    -0.380 OA
HETATM    8 CL11 UNL     1     -38.192  14.417  -4.356  1.00 20.00    -0.125 Cl
ENDROOT
BRANCH   5   9
HETATM    9  C8  UNL     1     -33.877  16.323  -3.084  1.00 20.00     0.037 C 
BRANCH   9  10
HETATM   10  C9  UNL     1     -34.867  16.134  -1.944  1.00 20.00    -0.002 C 
HETATM   11  C7  UNL     1     -34.718  17.235  -0.906  1.00 20.00     0.005 C 
ENDBRANCH   9  10
ENDBRANCH   5   9
TORSDOF 2
ENDMDL
MODEL 3
REMARK VINA RESULT:      -3.8     11.923     13.521
REMARK  2 active torsions:
REMARK  status: ('A' for Active; 'I' for Inactive)
REMARK    1  A    between atoms: C5_5  and  C8_8 
REMARK    2  A    between atoms: C8_8  and  C9_9 
ROOT
HETATM    1  C1  UNL     1     -43.059   7.373   1.079  1.00 20.00     0.046 C 
HETATM    2  C2  UNL     1     -41.440   7.036  -0.798  1.00 20.00     0.057 C 
HETATM    3  C3  UNL     1     -43.179   5.862   1.259  1.00 20.00     0.170 C 
HETATM    4  C4  UNL     1     -41.691   7.745   0.533  1.00 20.00     0.087 C 
HETATM    5  C5  UNL     1     -41.909   5.560  -0.781  1.00 20.00     0.058 C 
HETATM    6  C6  UNL     1     -40.784   4.653  -1.298  1.00 20.00     0.046 C 
HETATM    7  O10 UNL     1     -42.179   5.126   0.558  1.00 20.00    -0.380 OA
HETATM    8 CL11 UNL     1     -41.554   9.512   0.331  1.00 20.00    -0.125 Cl
ENDROOT
BRANCH   5   9
HETATM    9  C8  UNL     1     -43.144   5.350  -1.672  1.00 20.00     0.037 C 
BRANCH   9  10
HETATM   10  C9  UNL     1     -43.417   3.868  -1.882  1.00 20.00    -0.002 C 
HETATM   11  C7  UNL     1     -43.374   3.510  -3.359  1.00 20.00     0.005 C 
ENDBRANCH   9  10
ENDBRANCH   5   9
TORSDOF 2
ENDMDL
MODEL 4
REMARK VINA RESULT:      -3.8      1.736      2.491
REMARK  2 active torsions:
REMARK  status: ('A' for Active; 'I' for Inactive)
REMARK    1  A    between atoms: C5_5  and  C8_8 
REMARK    2  A    between atoms: C8_8  and  C9_9 
ROOT
HETATM    1  C1  UNL     1     -35.451  14.395  -5.743  1.00 20.00     0.046 C 
HETATM    2  C2  UNL     1     -35.312  16.744  -4.894  1.00 20.00     0.057 C 
HETATM    3  C3  UNL     1     -36.352  14.015  -4.571  1.00 20.00     0.170 C 
HETATM    4  C4  UNL     1     -35.622  15.861  -6.103  1.00 20.00     0.087 C 
HETATM    5  C5  UNL     1     -35.904  16.178  -3.580  1.00 20.00     0.058 C 
HETATM    6  C6  UNL     1     -36.685  17.280  -2.849  1.00 20.00     0.046 C 
HETATM    7  O10 UNL     1     -36.854  15.140  -3.853  1.00 20.00    -0.380 OA
HETATM    8 CL11 UNL     1     -34.572  16.297  -7.478  1.00 20.00    -0.125 Cl
ENDROOT
BRANCH   5   9
HETATM    9  C8  UNL     1     -34.803  15.665  -2.639  1.00 20.00     0.037 C 
BRANCH   9  10
HETATM   10  C9  UNL     1     -33.446  16.233  -3.028  1.00 20.00    -0.002 C 
HETATM   11  C7  UNL     1     -33.023  17.336  -2.070  1.00 20.00     0.005 C 
ENDBRANCH   9  10
ENDBRANCH   5   9
TORSDOF 2
ENDMDL
MODEL 5
REMARK VINA RESULT:      -3.8      3.786      5.731
REMARK  2 active torsions:
REMARK  status: ('A' for Active; 'I' for Inactive)
REMARK    1  A    between atoms: C5_5  and  C8_8 
REMARK    2  A    between atoms: C8_8  and  C9_9 
ROOT
HETATM    1  C1  UNL     1     -32.543  18.411   0.355  1.00 20.00     0.046 C 
HETATM    2  C2  UNL     1     -34.208  18.710  -1.488  1.00 20.00     0.057 C 
HETATM    3  C3  UNL     1     -31.405  18.400  -0.663  1.00 20.00     0.170 C 
HETATM    4  C4  UNL     1     -33.708  19.248  -0.147  1.00 20.00     0.087 C 
HETATM    5  C5  UNL     1     -33.050  18.318  -2.438  1.00 20.00     0.058 C 
HETATM    6  C6  UNL     1     -33.272  18.958  -3.815  1.00 20.00     0.046 C 
HETATM    7  O10 UNL     1     -31.802  18.836  -1.962  1.00 20.00    -0.380 OA
HETATM    8 CL11 UNL     1     -35.031  19.263   1.050  1.00 20.00    -0.125 Cl
ENDROOT
BRANCH   5   9
HETATM    9  C8  UNL     1     -32.964  16.794  -2.625  1.00 20.00     0.037 C 
BRANCH   9  10
HETATM   10  C9  UNL     1     -34.283  16.127  -2.266  1.00 20.00    -0.002 C 
HETATM   11  C7  UNL     1     -34.713  15.152  -3.352  1.00 20.00     0.005 C 
ENDBRANCH   9  10
ENDBRANCH   5   9
TORSDOF 2
ENDMDL
MODEL 6
REMARK VINA RESULT:      -3.7      1.670      2.991
REMARK  2 active torsions:
REMARK  status: ('A' for Active; 'I' for Inactive)
REMARK    1  A    between atoms: C5_5  and  C8_8 
REMARK    2  A    between atoms: C8_8  and  C9_9 
ROOT
HETATM    1  C1  UNL     1     -33.452  15.755  -3.585  1.00 20.00     0.046 C 
HETATM    2  C2  UNL     1     -35.300  16.412  -5.137  1.00 20.00     0.057 C 
HETATM    3  C3  UNL     1     -33.189  14.501  -4.414  1.00 20.00     0.170 C 
HETATM    4  C4  UNL     1     -34.012  16.869  -4.453  1.00 20.00     0.087 C 
HETATM    5  C5  UNL     1     -35.203  14.963  -5.676  1.00 20.00     0.058 C 
HETATM    6  C6  UNL     1     -35.665  14.923  -7.139  1.00 20.00     0.046 C 
HETATM    7  O10 UNL     1     -33.843  14.511  -5.681  1.00 20.00    -0.380 OA
HETATM    8 CL11 UNL     1     -34.311  18.334  -3.480  1.00 20.00    -0.125 Cl
ENDROOT
BRANCH   5   9
HETATM    9  C8  UNL     1     -36.087  13.999  -4.867  1.00 20.00     0.037 C 
BRANCH   9  10
HETATM   10  C9  UNL     1     -37.020  14.764  -3.940  1.00 20.00    -0.002 C 
HETATM   11  C7  UNL     1     -38.471  14.583  -4.359  1.00 20.00     0.005 C 
ENDBRANCH   9  10
ENDBRANCH   5   9
TORSDOF 2
ENDMDL
MODEL 7
REMARK VINA RESULT:      -3.7      2.224      2.832
REMARK  2 active torsions:
REMARK  status: ('A' for Active; 'I' for Inactive)
REMARK    1  A    between atoms: C5_5  and  C8_8 
REMARK    2  A    between atoms: C8_8  and  C9_9 
ROOT
HETATM    1  C1  UNL     1     -37.186  16.835  -4.284  1.00 20.00     0.046 C 
HETATM    2  C2  UNL     1     -36.065  14.634  -3.888  1.00 20.00     0.057 C 
HETATM    3  C3  UNL     1     -35.842  17.465  -4.640  1.00 20.00     0.170 C 
HETATM    4  C4  UNL     1     -37.195  15.354  -4.625  1.00 20.00     0.087 C 
HETATM    5  C5  UNL     1     -34.743  15.439  -3.899  1.00 20.00     0.058 C 
HETATM    6  C6  UNL     1     -33.591  14.535  -4.359  1.00 20.00     0.046 C 
HETATM    7  O10 UNL     1     -34.804  16.510  -4.849  1.00 20.00    -0.380 OA
HETATM    8 CL11 UNL     1     -38.770  14.625  -4.214  1.00 20.00    -0.125 Cl
ENDROOT
BRANCH   5   9
HETATM    9  C8  UNL     1     -34.400  15.981  -2.501  1.00 20.00     0.037 C 
BRANCH   9  10
HETATM   10  C9  UNL     1     -33.076  16.730  -2.518  1.00 20.00    -0.002 C 
HETATM   11  C7  UNL     1     -33.057  17.826  -1.464  1.00 20.00     0.005 C 
ENDBRANCH   9  10
ENDBRANCH   5   9
TORSDOF 2
ENDMDL
MODEL 8
REMARK VINA RESULT:      -3.7      2.050      3.503
REMARK  2 active torsions:
REMARK  status: ('A' for Active; 'I' for Inactive)
REMARK    1  A    between atoms: C5_5  and  C8_8 
REMARK    2  A    between atoms: C8_8  and  C9_9 
ROOT
HETATM    1  C1  UNL     1     -35.235  14.446  -3.710  1.00 20.00     0.046 C 
HETATM    2  C2  UNL     1     -34.525  15.820  -5.677  1.00 20.00     0.057 C 
HETATM    3  C3  UNL     1     -36.180  13.643  -4.601  1.00 20.00     0.170 C 
HETATM    4  C4  UNL     1     -34.047  14.959  -4.508  1.00 20.00     0.087 C 
HETATM    5  C5  UNL     1     -35.756  15.214  -6.395  1.00 20.00     0.058 C 
HETATM    6  C6  UNL     1     -35.504  15.173  -7.908  1.00 20.00     0.046 C 
HETATM    7  O10 UNL     1     -35.962  13.853  -5.995  1.00 20.00    -0.380 OA
HETATM    8 CL11 UNL     1     -32.943  15.889  -3.460  1.00 20.00    -0.125 Cl
ENDROOT
BRANCH   5   9
HETATM    9  C8  UNL     1     -37.024  16.046  -6.141  1.00 20.00     0.037 C 
BRANCH   9  10
HETATM   10  C9  UNL     1     -36.682  17.368  -5.471  1.00 20.00    -0.002 C 
HETATM   11  C7  UNL     1     -37.414  17.512  -4.146  1.00 20.00     0.005 C 
ENDBRANCH   9  10
ENDBRANCH   5   9
TORSDOF 2
ENDMDL
MODEL 9
REMARK VINA RESULT:      -3.7      2.231      3.906
REMARK  2 active torsions:
REMARK  status: ('A' for Active; 'I' for Inactive)
REMARK    1  A    between atoms: C5_5  and  C8_8 
REMARK    2  A    between atoms: C8_8  and  C9_9 
ROOT
HETATM    1  C1  UNL     1     -35.930  16.414  -2.631  1.00 20.00     0.046 C 
HETATM    2  C2  UNL     1     -33.474  16.203  -3.057  1.00 20.00     0.057 C 
HETATM    3  C3  UNL     1     -36.199  15.214  -3.535  1.00 20.00     0.170 C 
HETATM    4  C4  UNL     1     -34.559  16.306  -1.985  1.00 20.00     0.087 C 
HETATM    5  C5  UNL     1     -33.876  15.261  -4.218  1.00 20.00     0.058 C 
HETATM    6  C6  UNL     1     -32.747  14.256  -4.483  1.00 20.00     0.046 C 
HETATM    7  O10 UNL     1     -35.023  14.477  -3.866  1.00 20.00    -0.380 OA
HETATM    8 CL11 UNL     1     -34.254  17.708  -0.924  1.00 20.00    -0.125 Cl
ENDROOT
BRANCH   5   9
HETATM    9  C8  UNL     1     -34.138  16.043  -5.516  1.00 20.00     0.037 C 
BRANCH   9  10
HETATM   10  C9  UNL     1     -34.168  15.109  -6.717  1.00 20.00    -0.002 C 
HETATM   11  C7  UNL     1     -35.562  15.042  -7.319  1.00 20.00     0.005 C 
ENDBRANCH   9  10
ENDBRANCH   5   9
TORSDOF 2
ENDMDL
