MODEL 1
REMARK VINA RESULT:      -4.7      0.000      0.000
REMARK  2 active torsions:
REMARK  status: ('A' for Active; 'I' for Inactive)
REMARK    1  A    between atoms: C6_6  and  C8_8 
REMARK    2  A    between atoms: C7_7  and  O11_11 
ROOT
HETATM    1  C3  UNL     1     -35.847  14.484  -5.854  1.00 20.00     0.058 C 
HETATM    2  C4  UNL     1     -34.744  14.475  -3.613  1.00 20.00     0.069 C 
HETATM    3  C5  UNL     1     -35.777  16.000  -5.823  1.00 20.00     0.171 C 
HETATM    4  C7  UNL     1     -35.900  13.918  -4.441  1.00 20.00     0.123 C 
HETATM    5  C8  UNL     1     -34.656  16.013  -3.675  1.00 20.00     0.063 C 
HETATM    6  C9  UNL     1     -35.787  16.681  -2.877  1.00 20.00     0.046 C 
HETATM    7  O10 UNL     1     -34.675  16.457  -5.041  1.00 20.00    -0.380 OA
ENDROOT
BRANCH   5   8
HETATM    8  C6  UNL     1     -33.327  16.458  -3.095  1.00 20.00     0.020 A 
HETATM    9  C1  UNL     1     -32.883  17.888  -3.227  1.00 20.00     0.008 A 
HETATM   10  C2  UNL     1     -33.290  17.348  -1.884  1.00 20.00     0.008 A 
ENDBRANCH   5   8
BRANCH   4  11
HETATM   11  O11 UNL     1     -35.797  12.500  -4.482  1.00 20.00    -0.395 OA
HETATM   12  H27 UNL     1     -35.351  12.276  -5.314  1.00 20.00     0.210 HD
ENDBRANCH   4  11
TORSDOF 2
ENDMDL
MODEL 2
REMARK VINA RESULT:      -4.7      1.690      2.210
REMARK  2 active torsions:
REMARK  status: ('A' for Active; 'I' for Inactive)
REMARK    1  A    between atoms: C6_6  and  C8_8 
REMARK    2  A    between atoms: C7_7  and  O11_11 
ROOT
HETATM    1  C3  UNL     1     -34.742  16.352  -6.803  1.00 20.00     0.058 C 
HETATM    2  C4  UNL     1     -34.011  14.829  -4.962  1.00 20.00     0.069 C 
HETATM    3  C5  UNL     1     -35.875  16.810  -5.902  1.00 20.00     0.171 C 
HETATM    4  C7  UNL     1     -34.318  14.930  -6.454  1.00 20.00     0.123 C 
HETATM    5  C8  UNL     1     -35.151  15.382  -4.083  1.00 20.00     0.063 C 
HETATM    6  C9  UNL     1     -36.373  14.448  -4.079  1.00 20.00     0.046 C 
HETATM    7  O10 UNL     1     -35.526  16.697  -4.523  1.00 20.00    -0.380 OA
ENDROOT
BRANCH   5   8
HETATM    8  C6  UNL     1     -34.651  15.530  -2.657  1.00 20.00     0.020 A 
HETATM    9  C1  UNL     1     -33.779  16.693  -2.277  1.00 20.00     0.008 A 
HETATM   10  C2  UNL     1     -35.194  16.618  -1.774  1.00 20.00     0.008 A 
ENDBRANCH   5   8
BRANCH   4  11
HETATM   11  O11 UNL     1     -33.152  14.578  -7.189  1.00 20.00    -0.395 OA
HETATM   12  H27 UNL     1     -33.406  14.563  -8.126  1.00 20.00     0.210 HD
ENDBRANCH   4  11
TORSDOF 2
ENDMDL
MODEL 3
REMARK VINA RESULT:      -4.5      1.227      1.252
REMARK  2 active torsions:
REMARK  status: ('A' for Active; 'I' for Inactive)
REMARK    1  A    between atoms: C6_6  and  C8_8 
REMARK    2  A    between atoms: C7_7  and  O11_11 
ROOT
HETATM    1  C3  UNL     1     -35.856  14.281  -5.862  1.00 20.00     0.058 C 
HETATM    2  C4  UNL     1     -36.010  15.122  -3.515  1.00 20.00     0.069 C 
HETATM    3  C5  UNL     1     -34.734  15.279  -6.089  1.00 20.00     0.171 C 
HETATM    4  C7  UNL     1     -36.801  14.773  -4.773  1.00 20.00     0.123 C 
HETATM    5  C8  UNL     1     -34.828  16.070  -3.800  1.00 20.00     0.063 C 
HETATM    6  C9  UNL     1     -35.306  17.498  -4.115  1.00 20.00     0.046 C 
HETATM    7  O10 UNL     1     -34.031  15.559  -4.880  1.00 20.00    -0.380 OA
ENDROOT
BRANCH   5   8
HETATM    8  C6  UNL     1     -33.926  16.121  -2.582  1.00 20.00     0.020 A 
HETATM    9  C1  UNL     1     -32.948  17.249  -2.411  1.00 20.00     0.008 A 
HETATM   10  C2  UNL     1     -34.152  17.156  -1.515  1.00 20.00     0.008 A 
ENDBRANCH   5   8
BRANCH   4  11
HETATM   11  O11 UNL     1     -37.746  13.757  -4.456  1.00 20.00    -0.395 OA
HETATM   12  H27 UNL     1     -38.203  14.043  -3.649  1.00 20.00     0.210 HD
ENDBRANCH   4  11
TORSDOF 2
ENDMDL
MODEL 4
REMARK VINA RESULT:      -4.4      1.774      1.874
REMARK  2 active torsions:
REMARK  status: ('A' for Active; 'I' for Inactive)
REMARK    1  A    between atoms: C6_6  and  C8_8 
REMARK    2  A    between atoms: C7_7  and  O11_11 
ROOT
HETATM    1  C3  UNL     1     -34.623  16.388  -6.177  1.00 20.00     0.058 C 
HETATM    2  C4  UNL     1     -33.244  15.459  -4.313  1.00 20.00     0.069 C 
HETATM    3  C5  UNL     1     -35.364  17.218  -5.144  1.00 20.00     0.171 C 
HETATM    4  C7  UNL     1     -34.070  15.115  -5.550  1.00 20.00     0.123 C 
HETATM    5  C8  UNL     1     -34.001  16.372  -3.328  1.00 20.00     0.063 C 
HETATM    6  C9  UNL     1     -35.118  15.614  -2.592  1.00 20.00     0.046 C 
HETATM    7  O10 UNL     1     -34.538  17.511  -4.018  1.00 20.00    -0.380 OA
ENDROOT
BRANCH   5   8
HETATM    8  C6  UNL     1     -33.024  16.911  -2.299  1.00 20.00     0.020 A 
HETATM    9  C1  UNL     1     -32.611  18.356  -2.332  1.00 20.00     0.008 A 
HETATM   10  C2  UNL     1     -33.498  17.852  -1.227  1.00 20.00     0.008 A 
ENDBRANCH   5   8
BRANCH   4  11
HETATM   11  O11 UNL     1     -33.240  14.434  -6.484  1.00 20.00    -0.395 OA
HETATM   12  H27 UNL     1     -33.220  14.977  -7.287  1.00 20.00     0.210 HD
ENDBRANCH   4  11
TORSDOF 2
ENDMDL
MODEL 5
REMARK VINA RESULT:      -4.3      1.556      2.141
REMARK  2 active torsions:
REMARK  status: ('A' for Active; 'I' for Inactive)
REMARK    1  A    between atoms: C6_6  and  C8_8 
REMARK    2  A    between atoms: C7_7  and  O11_11 
ROOT
HETATM    1  C3  UNL     1     -35.353  13.503  -4.160  1.00 20.00     0.058 C 
HETATM    2  C4  UNL     1     -36.495  15.655  -3.611  1.00 20.00     0.069 C 
HETATM    3  C5  UNL     1     -34.034  14.254  -4.120  1.00 20.00     0.171 C 
HETATM    4  C7  UNL     1     -36.495  14.439  -4.534  1.00 20.00     0.123 C 
HETATM    5  C8  UNL     1     -35.116  16.341  -3.531  1.00 20.00     0.063 C 
HETATM    6  C9  UNL     1     -34.781  17.098  -4.827  1.00 20.00     0.046 C 
HETATM    7  O10 UNL     1     -34.096  15.373  -3.238  1.00 20.00    -0.380 OA
ENDROOT
BRANCH   5   8
HETATM    8  C6  UNL     1     -35.118  17.329  -2.381  1.00 20.00     0.020 A 
HETATM    9  C1  UNL     1     -35.231  16.842  -0.964  1.00 20.00     0.008 A 
HETATM   10  C2  UNL     1     -33.934  17.420  -1.458  1.00 20.00     0.008 A 
ENDBRANCH   5   8
BRANCH   4  11
HETATM   11  O11 UNL     1     -37.740  13.762  -4.404  1.00 20.00    -0.395 OA
HETATM   12  H27 UNL     1     -38.043  13.907  -3.494  1.00 20.00     0.210 HD
ENDBRANCH   4  11
TORSDOF 2
ENDMDL
MODEL 6
REMARK VINA RESULT:      -4.2      1.483      1.711
REMARK  2 active torsions:
REMARK  status: ('A' for Active; 'I' for Inactive)
REMARK    1  A    between atoms: C6_6  and  C8_8 
REMARK    2  A    between atoms: C7_7  and  O11_11 
ROOT
HETATM    1  C3  UNL     1     -37.319  15.886  -5.493  1.00 20.00     0.058 C 
HETATM    2  C4  UNL     1     -36.283  14.930  -3.431  1.00 20.00     0.069 C 
HETATM    3  C5  UNL     1     -36.554  17.168  -5.218  1.00 20.00     0.171 C 
HETATM    4  C7  UNL     1     -37.588  15.131  -4.197  1.00 20.00     0.123 C 
HETATM    5  C8  UNL     1     -35.495  16.242  -3.246  1.00 20.00     0.063 C 
HETATM    6  C9  UNL     1     -36.166  17.171  -2.220  1.00 20.00     0.046 C 
HETATM    7  O10 UNL     1     -35.345  16.914  -4.507  1.00 20.00    -0.380 OA
ENDROOT
BRANCH   5   8
HETATM    8  C6  UNL     1     -34.095  15.916  -2.760  1.00 20.00     0.020 A 
HETATM    9  C1  UNL     1     -33.024  15.531  -3.741  1.00 20.00     0.008 A 
HETATM   10  C2  UNL     1     -32.958  16.860  -3.040  1.00 20.00     0.008 A 
ENDBRANCH   5   8
BRANCH   4  11
HETATM   11  O11 UNL     1     -38.154  13.858  -4.485  1.00 20.00    -0.395 OA
HETATM   12  H27 UNL     1     -37.688  13.213  -3.930  1.00 20.00     0.210 HD
ENDBRANCH   4  11
TORSDOF 2
ENDMDL
MODEL 7
REMARK VINA RESULT:      -4.1      2.332      4.718
REMARK  2 active torsions:
REMARK  status: ('A' for Active; 'I' for Inactive)
REMARK    1  A    between atoms: C6_6  and  C8_8 
REMARK    2  A    between atoms: C7_7  and  O11_11 
ROOT
HETATM    1  C3  UNL     1     -33.543  18.179  -0.238  1.00 20.00     0.058 C 
HETATM    2  C4  UNL     1     -33.047  17.084  -2.427  1.00 20.00     0.069 C 
HETATM    3  C5  UNL     1     -34.982  17.722  -0.396  1.00 20.00     0.171 C 
HETATM    4  C7  UNL     1     -32.880  18.355  -1.598  1.00 20.00     0.123 C 
HETATM    5  C8  UNL     1     -34.511  16.606  -2.494  1.00 20.00     0.063 C 
HETATM    6  C9  UNL     1     -35.368  17.517  -3.388  1.00 20.00     0.046 C 
HETATM    7  O10 UNL     1     -35.070  16.530  -1.173  1.00 20.00    -0.380 OA
ENDROOT
BRANCH   5   8
HETATM    8  C6  UNL     1     -34.548  15.199  -3.062  1.00 20.00     0.020 A 
HETATM    9  C1  UNL     1     -35.114  14.950  -4.432  1.00 20.00     0.008 A 
HETATM   10  C2  UNL     1     -33.636  14.814  -4.193  1.00 20.00     0.008 A 
ENDBRANCH   5   8
BRANCH   4  11
HETATM   11  O11 UNL     1     -31.492  18.619  -1.432  1.00 20.00    -0.395 OA
HETATM   12  H27 UNL     1     -31.379  18.962  -0.531  1.00 20.00     0.210 HD
ENDBRANCH   4  11
TORSDOF 2
ENDMDL
MODEL 8
REMARK VINA RESULT:      -4.1      3.108      5.476
REMARK  2 active torsions:
REMARK  status: ('A' for Active; 'I' for Inactive)
REMARK    1  A    between atoms: C6_6  and  C8_8 
REMARK    2  A    between atoms: C7_7  and  O11_11 
ROOT
HETATM    1  C3  UNL     1     -32.526  18.594   0.748  1.00 20.00     0.058 C 
HETATM    2  C4  UNL     1     -32.752  17.576  -1.521  1.00 20.00     0.069 C 
HETATM    3  C5  UNL     1     -34.041  18.588   0.844  1.00 20.00     0.171 C 
HETATM    4  C7  UNL     1     -32.078  18.676  -0.706  1.00 20.00     0.123 C 
HETATM    5  C8  UNL     1     -34.282  17.548  -1.331  1.00 20.00     0.063 C 
HETATM    6  C9  UNL     1     -34.965  18.736  -2.031  1.00 20.00     0.046 C 
HETATM    7  O10 UNL     1     -34.610  17.536   0.067  1.00 20.00    -0.380 OA
ENDROOT
BRANCH   5   8
HETATM    8  C6  UNL     1     -34.833  16.261  -1.916  1.00 20.00     0.020 A 
HETATM    9  C1  UNL     1     -35.428  16.251  -3.296  1.00 20.00     0.008 A 
HETATM   10  C2  UNL     1     -34.111  15.571  -3.041  1.00 20.00     0.008 A 
ENDBRANCH   5   8
BRANCH   4  11
HETATM   11  O11 UNL     1     -30.667  18.513  -0.789  1.00 20.00    -0.395 OA
HETATM   12  H27 UNL     1     -30.288  19.401  -0.873  1.00 20.00     0.210 HD
ENDBRANCH   4  11
TORSDOF 2
ENDMDL
MODEL 9
REMARK VINA RESULT:      -4.0      1.576      2.227
REMARK  2 active torsions:
REMARK  status: ('A' for Active; 'I' for Inactive)
REMARK    1  A    between atoms: C6_6  and  C8_8 
REMARK    2  A    between atoms: C7_7  and  O11_11 
ROOT
HETATM    1  C3  UNL     1     -33.872  13.981  -4.120  1.00 20.00     0.058 C 
HETATM    2  C4  UNL     1     -36.045  15.059  -3.525  1.00 20.00     0.069 C 
HETATM    3  C5  UNL     1     -33.209  15.334  -3.928  1.00 20.00     0.171 C 
HETATM    4  C7  UNL     1     -35.332  14.149  -4.522  1.00 20.00     0.123 C 
HETATM    5  C8  UNL     1     -35.297  16.387  -3.293  1.00 20.00     0.063 C 
HETATM    6  C9  UNL     1     -35.410  17.325  -4.507  1.00 20.00     0.046 C 
HETATM    7  O10 UNL     1     -33.918  16.133  -2.982  1.00 20.00    -0.380 OA
ENDROOT
BRANCH   5   8
HETATM    8  C6  UNL     1     -35.890  17.087  -2.085  1.00 20.00     0.020 A 
HETATM    9  C1  UNL     1     -35.259  16.925  -0.730  1.00 20.00     0.008 A 
HETATM   10  C2  UNL     1     -35.169  18.243  -1.449  1.00 20.00     0.008 A 
ENDBRANCH   5   8
BRANCH   4  11
HETATM   11  O11 UNL     1     -35.980  12.883  -4.535  1.00 20.00    -0.395 OA
HETATM   12  H27 UNL     1     -35.307  12.222  -4.308  1.00 20.00     0.210 HD
ENDBRANCH   4  11
TORSDOF 2
ENDMDL
