MODEL 1
REMARK VINA RESULT:      -4.5      0.000      0.000
REMARK  2 active torsions:
REMARK  status: ('A' for Active; 'I' for Inactive)
REMARK    1  A    between atoms: C5_5  and  C8_8 
REMARK    2  A    between atoms: C5_5  and  O10_10 
ROOT
HETATM    1  C1  UNL     1     -34.559  13.913  -4.023  1.00 20.00     0.064 C 
HETATM    2  C2  UNL     1     -34.087  15.063  -6.199  1.00 20.00     0.069 C 
HETATM    3  C3  UNL     1     -36.040  14.011  -4.369  1.00 20.00     0.171 C 
HETATM    4  C4  UNL     1     -35.600  15.106  -6.432  1.00 20.00     0.120 C 
HETATM    5  C5  UNL     1     -33.735  15.014  -4.705  1.00 20.00     0.062 C 
HETATM    6  C6  UNL     1     -35.925  15.017  -7.918  1.00 20.00     0.039 C 
HETATM    7  O9  UNL     1     -36.230  13.997  -5.783  1.00 20.00    -0.386 OA
ENDROOT
BRANCH   5   8
HETATM    8  C8  UNL     1     -33.934  16.376  -4.032  1.00 20.00     0.033 C 
HETATM    9  C7  UNL     1     -33.775  16.283  -2.552  1.00 20.00     0.008 C 
ENDBRANCH   5   8
BRANCH   5  10
HETATM   10  O10 UNL     1     -32.348  14.683  -4.596  1.00 20.00    -0.390 OA
HETATM   11  H26 UNL     1     -31.888  15.226  -5.252  1.00 20.00     0.210 HD
ENDBRANCH   5  10
TORSDOF 2
ENDMDL
MODEL 2
REMARK VINA RESULT:      -4.2      1.028      1.060
REMARK  2 active torsions:
REMARK  status: ('A' for Active; 'I' for Inactive)
REMARK    1  A    between atoms: C5_5  and  C8_8 
REMARK    2  A    between atoms: C5_5  and  O10_10 
ROOT
HETATM    1  C1  UNL     1     -35.366  13.446  -4.279  1.00 20.00     0.064 C 
HETATM    2  C2  UNL     1     -34.494  15.323  -5.693  1.00 20.00     0.069 C 
HETATM    3  C3  UNL     1     -36.758  14.035  -4.473  1.00 20.00     0.171 C 
HETATM    4  C4  UNL     1     -35.937  15.820  -5.811  1.00 20.00     0.120 C 
HETATM    5  C5  UNL     1     -34.268  14.511  -4.409  1.00 20.00     0.062 C 
HETATM    6  C6  UNL     1     -36.170  16.504  -7.153  1.00 20.00     0.039 C 
HETATM    7  O9  UNL     1     -36.847  14.719  -5.722  1.00 20.00    -0.386 OA
ENDROOT
BRANCH   5   8
HETATM    8  C8  UNL     1     -34.198  15.413  -3.173  1.00 20.00     0.033 C 
HETATM    9  C7  UNL     1     -33.056  16.369  -3.257  1.00 20.00     0.008 C 
ENDBRANCH   5   8
BRANCH   5  10
HETATM   10  O10 UNL     1     -33.004  13.853  -4.528  1.00 20.00    -0.390 OA
HETATM   11  H26 UNL     1     -32.334  14.504  -4.276  1.00 20.00     0.210 HD
ENDBRANCH   5  10
TORSDOF 2
ENDMDL
MODEL 3
REMARK VINA RESULT:      -4.1      1.683      3.833
REMARK  2 active torsions:
REMARK  status: ('A' for Active; 'I' for Inactive)
REMARK    1  A    between atoms: C5_5  and  C8_8 
REMARK    2  A    between atoms: C5_5  and  O10_10 
ROOT
HETATM    1  C1  UNL     1     -34.726  16.200  -5.377  1.00 20.00     0.064 C 
HETATM    2  C2  UNL     1     -33.037  15.808  -3.567  1.00 20.00     0.069 C 
HETATM    3  C3  UNL     1     -35.379  17.221  -4.455  1.00 20.00     0.171 C 
HETATM    4  C4  UNL     1     -33.783  16.852  -2.732  1.00 20.00     0.120 C 
HETATM    5  C5  UNL     1     -33.955  15.128  -4.594  1.00 20.00     0.062 C 
HETATM    6  C6  UNL     1     -32.825  17.605  -1.818  1.00 20.00     0.039 C 
HETATM    7  O9  UNL     1     -34.410  17.812  -3.589  1.00 20.00    -0.386 OA
ENDROOT
BRANCH   5   8
HETATM    8  C8  UNL     1     -34.896  14.118  -3.931  1.00 20.00     0.033 C 
HETATM    9  C7  UNL     1     -36.039  13.767  -4.823  1.00 20.00     0.008 C 
ENDBRANCH   5   8
BRANCH   5  10
HETATM   10  O10 UNL     1     -33.125  14.403  -5.506  1.00 20.00    -0.390 OA
HETATM   11  H26 UNL     1     -32.539  15.055  -5.916  1.00 20.00     0.210 HD
ENDBRANCH   5  10
TORSDOF 2
ENDMDL
MODEL 4
REMARK VINA RESULT:      -3.9      1.446      3.974
REMARK  2 active torsions:
REMARK  status: ('A' for Active; 'I' for Inactive)
REMARK    1  A    between atoms: C5_5  and  C8_8 
REMARK    2  A    between atoms: C5_5  and  O10_10 
ROOT
HETATM    1  C1  UNL     1     -33.752  14.284  -4.438  1.00 20.00     0.064 C 
HETATM    2  C2  UNL     1     -35.693  15.013  -3.030  1.00 20.00     0.069 C 
HETATM    3  C3  UNL     1     -33.032  15.547  -3.982  1.00 20.00     0.171 C 
HETATM    4  C4  UNL     1     -34.871  16.247  -2.647  1.00 20.00     0.120 C 
HETATM    5  C5  UNL     1     -35.278  14.445  -4.395  1.00 20.00     0.062 C 
HETATM    6  C6  UNL     1     -35.207  16.709  -1.235  1.00 20.00     0.039 C 
HETATM    7  O9  UNL     1     -33.474  15.938  -2.682  1.00 20.00    -0.386 OA
ENDROOT
BRANCH   5   8
HETATM    8  C8  UNL     1     -35.794  15.310  -5.549  1.00 20.00     0.033 C 
HETATM    9  C7  UNL     1     -35.300  14.816  -6.866  1.00 20.00     0.008 C 
ENDBRANCH   5   8
BRANCH   5  10
HETATM   10  O10 UNL     1     -35.879  13.153  -4.528  1.00 20.00    -0.390 OA
HETATM   11  H26 UNL     1     -36.314  13.145  -5.392  1.00 20.00     0.210 HD
ENDBRANCH   5  10
TORSDOF 2
ENDMDL
MODEL 5
REMARK VINA RESULT:      -3.9      1.742      2.342
REMARK  2 active torsions:
REMARK  status: ('A' for Active; 'I' for Inactive)
REMARK    1  A    between atoms: C5_5  and  C8_8 
REMARK    2  A    between atoms: C5_5  and  O10_10 
ROOT
HETATM    1  C1  UNL     1     -32.991  15.799  -3.744  1.00 20.00     0.064 C 
HETATM    2  C2  UNL     1     -35.117  16.336  -4.958  1.00 20.00     0.069 C 
HETATM    3  C3  UNL     1     -33.056  14.415  -4.377  1.00 20.00     0.171 C 
HETATM    4  C4  UNL     1     -35.075  14.916  -5.529  1.00 20.00     0.120 C 
HETATM    5  C5  UNL     1     -34.381  16.439  -3.614  1.00 20.00     0.062 C 
HETATM    6  C6  UNL     1     -35.692  14.870  -6.921  1.00 20.00     0.039 C 
HETATM    7  O9  UNL     1     -33.720  14.469  -5.640  1.00 20.00    -0.386 OA
ENDROOT
BRANCH   5   8
HETATM    8  C8  UNL     1     -35.192  15.815  -2.475  1.00 20.00     0.033 C 
HETATM    9  C7  UNL     1     -35.158  16.665  -1.250  1.00 20.00     0.008 C 
ENDBRANCH   5   8
BRANCH   5  10
HETATM   10  O10 UNL     1     -34.219  17.827  -3.313  1.00 20.00    -0.390 OA
HETATM   11  H26 UNL     1     -33.695  18.203  -4.035  1.00 20.00     0.210 HD
ENDBRANCH   5  10
TORSDOF 2
ENDMDL
MODEL 6
REMARK VINA RESULT:      -3.8      1.727      3.841
REMARK  2 active torsions:
REMARK  status: ('A' for Active; 'I' for Inactive)
REMARK    1  A    between atoms: C5_5  and  C8_8 
REMARK    2  A    between atoms: C5_5  and  O10_10 
ROOT
HETATM    1  C1  UNL     1     -35.853  14.293  -5.970  1.00 20.00     0.064 C 
HETATM    2  C2  UNL     1     -35.847  15.045  -3.579  1.00 20.00     0.069 C 
HETATM    3  C3  UNL     1     -34.670  15.227  -6.198  1.00 20.00     0.171 C 
HETATM    4  C4  UNL     1     -34.661  15.948  -3.932  1.00 20.00     0.120 C 
HETATM    5  C5  UNL     1     -36.733  14.755  -4.800  1.00 20.00     0.062 C 
HETATM    6  C6  UNL     1     -33.726  16.110  -2.740  1.00 20.00     0.039 C 
HETATM    7  O9  UNL     1     -33.905  15.371  -5.002  1.00 20.00    -0.386 OA
ENDROOT
BRANCH   5   8
HETATM    8  C8  UNL     1     -37.595  15.964  -5.175  1.00 20.00     0.033 C 
HETATM    9  C7  UNL     1     -38.436  16.414  -4.028  1.00 20.00     0.008 C 
ENDBRANCH   5   8
BRANCH   5  10
HETATM   10  O10 UNL     1     -37.621  13.690  -4.448  1.00 20.00    -0.390 OA
HETATM   11  H26 UNL     1     -38.424  14.109  -4.107  1.00 20.00     0.210 HD
ENDBRANCH   5  10
TORSDOF 2
ENDMDL
MODEL 7
REMARK VINA RESULT:      -3.8      2.051      2.706
REMARK  2 active torsions:
REMARK  status: ('A' for Active; 'I' for Inactive)
REMARK    1  A    between atoms: C5_5  and  C8_8 
REMARK    2  A    between atoms: C5_5  and  O10_10 
ROOT
HETATM    1  C1  UNL     1     -35.120  14.567  -4.815  1.00 20.00     0.064 C 
HETATM    2  C2  UNL     1     -37.034  16.103  -4.306  1.00 20.00     0.069 C 
HETATM    3  C3  UNL     1     -36.036  13.409  -4.438  1.00 20.00     0.171 C 
HETATM    4  C4  UNL     1     -37.855  14.860  -3.950  1.00 20.00     0.120 C 
HETATM    5  C5  UNL     1     -35.527  15.872  -4.117  1.00 20.00     0.062 C 
HETATM    6  C6  UNL     1     -39.328  15.069  -4.274  1.00 20.00     0.039 C 
HETATM    7  O9  UNL     1     -37.399  13.735  -4.709  1.00 20.00    -0.386 OA
ENDROOT
BRANCH   5   8
HETATM    8  C8  UNL     1     -35.135  15.874  -2.636  1.00 20.00     0.033 C 
HETATM    9  C7  UNL     1     -33.757  16.409  -2.436  1.00 20.00     0.008 C 
ENDBRANCH   5   8
BRANCH   5  10
HETATM   10  O10 UNL     1     -34.840  16.959  -4.742  1.00 20.00    -0.390 OA
HETATM   11  H26 UNL     1     -35.499  17.655  -4.877  1.00 20.00     0.210 HD
ENDBRANCH   5  10
TORSDOF 2
ENDMDL
MODEL 8
REMARK VINA RESULT:      -3.7      1.872      3.683
REMARK  2 active torsions:
REMARK  status: ('A' for Active; 'I' for Inactive)
REMARK    1  A    between atoms: C5_5  and  C8_8 
REMARK    2  A    between atoms: C5_5  and  O10_10 
ROOT
HETATM    1  C1  UNL     1     -34.407  16.673  -5.807  1.00 20.00     0.064 C 
HETATM    2  C2  UNL     1     -34.273  15.321  -3.701  1.00 20.00     0.069 C 
HETATM    3  C3  UNL     1     -35.364  17.603  -5.071  1.00 20.00     0.171 C 
HETATM    4  C4  UNL     1     -35.245  16.324  -3.071  1.00 20.00     0.120 C 
HETATM    5  C5  UNL     1     -34.427  15.252  -5.227  1.00 20.00     0.062 C 
HETATM    6  C6  UNL     1     -34.981  16.473  -1.578  1.00 20.00     0.039 C 
HETATM    7  O9  UNL     1     -35.081  17.612  -3.672  1.00 20.00    -0.386 OA
ENDROOT
BRANCH   5   8
HETATM    8  C8  UNL     1     -35.690  14.486  -5.635  1.00 20.00     0.033 C 
HETATM    9  C7  UNL     1     -36.076  13.479  -4.605  1.00 20.00     0.008 C 
ENDBRANCH   5   8
BRANCH   5  10
HETATM   10  O10 UNL     1     -33.305  14.531  -5.744  1.00 20.00    -0.390 OA
HETATM   11  H26 UNL     1     -33.669  13.809  -6.276  1.00 20.00     0.210 HD
ENDBRANCH   5  10
TORSDOF 2
ENDMDL
MODEL 9
REMARK VINA RESULT:      -3.6      2.708      4.446
REMARK  2 active torsions:
REMARK  status: ('A' for Active; 'I' for Inactive)
REMARK    1  A    between atoms: C5_5  and  C8_8 
REMARK    2  A    between atoms: C5_5  and  O10_10 
ROOT
HETATM    1  C1  UNL     1     -35.291  17.280  -3.980  1.00 20.00     0.064 C 
HETATM    2  C2  UNL     1     -34.007  16.931  -1.856  1.00 20.00     0.069 C 
HETATM    3  C3  UNL     1     -36.564  17.128  -3.158  1.00 20.00     0.171 C 
HETATM    4  C4  UNL     1     -35.353  16.792  -1.139  1.00 20.00     0.120 C 
HETATM    5  C5  UNL     1     -34.102  16.549  -3.340  1.00 20.00     0.062 C 
HETATM    6  C6  UNL     1     -35.264  17.305   0.292  1.00 20.00     0.039 C 
HETATM    7  O9  UNL     1     -36.353  17.563  -1.815  1.00 20.00    -0.386 OA
ENDROOT
BRANCH   5   8
HETATM    8  C8  UNL     1     -34.196  15.032  -3.530  1.00 20.00     0.033 C 
HETATM    9  C7  UNL     1     -33.110  14.522  -4.416  1.00 20.00     0.008 C 
ENDBRANCH   5   8
BRANCH   5  10
HETATM   10  O10 UNL     1     -32.899  16.985  -3.979  1.00 20.00    -0.390 OA
HETATM   11  H26 UNL     1     -32.980  16.732  -4.910  1.00 20.00     0.210 HD
ENDBRANCH   5  10
TORSDOF 2
ENDMDL
