MODEL 1
REMARK VINA RESULT:      -4.7      0.000      0.000
REMARK  0 active torsions:
REMARK  status: ('A' for Active; 'I' for Inactive)
ROOT
HETATM    1  C1  UNL     1     -35.481  13.885  -4.277  1.00 20.00     0.085 C 
HETATM    2  C2  UNL     1     -33.464  15.241  -3.855  1.00 20.00     0.067 C 
HETATM    3  C3  UNL     1     -35.608  15.726  -2.632  1.00 20.00     0.078 C 
HETATM    4  C4  UNL     1     -32.928  16.548  -3.288  1.00 20.00     0.171 C 
HETATM    5  C5  UNL     1     -34.993  15.239  -3.955  1.00 20.00     0.130 C 
HETATM    6  C6  UNL     1     -34.923  16.958  -1.994  1.00 20.00     0.056 C 
HETATM    7  C7  UNL     1     -35.313  17.014  -0.505  1.00 20.00     0.045 C 
HETATM    8  C8  UNL     1     -35.345  18.293  -2.626  1.00 20.00     0.045 C 
HETATM    9  N9  UNL     1     -35.864  12.819  -4.530  1.00 20.00    -0.195 NA
HETATM   10  O10 UNL     1     -33.495  16.822  -2.012  1.00 20.00    -0.381 OA
HETATM   11 CL11 UNL     1     -35.525  16.267  -5.328  1.00 20.00    -0.103 Cl
ENDROOT
TORSDOF 0
ENDMDL
MODEL 2
REMARK VINA RESULT:      -4.5      1.246      1.379
REMARK  0 active torsions:
REMARK  status: ('A' for Active; 'I' for Inactive)
ROOT
HETATM    1  C1  UNL     1     -37.085  14.588  -4.265  1.00 20.00     0.085 C 
HETATM    2  C2  UNL     1     -34.623  14.461  -4.212  1.00 20.00     0.067 C 
HETATM    3  C3  UNL     1     -35.832  16.309  -3.008  1.00 20.00     0.078 C 
HETATM    4  C4  UNL     1     -33.333  15.223  -3.939  1.00 20.00     0.171 C 
HETATM    5  C5  UNL     1     -35.844  15.385  -4.237  1.00 20.00     0.130 C 
HETATM    6  C6  UNL     1     -34.459  16.931  -2.657  1.00 20.00     0.056 C 
HETATM    7  C7  UNL     1     -34.499  17.402  -1.191  1.00 20.00     0.045 C 
HETATM    8  C8  UNL     1     -34.096  18.150  -3.518  1.00 20.00     0.045 C 
HETATM    9  N9  UNL     1     -38.061  13.961  -4.285  1.00 20.00    -0.195 NA
HETATM   10  O10 UNL     1     -33.417  15.946  -2.716  1.00 20.00    -0.381 OA
HETATM   11 CL11 UNL     1     -35.868  16.340  -5.759  1.00 20.00    -0.103 Cl
ENDROOT
TORSDOF 0
ENDMDL
MODEL 3
REMARK VINA RESULT:      -4.4      3.183      4.375
REMARK  0 active torsions:
REMARK  status: ('A' for Active; 'I' for Inactive)
ROOT
HETATM    1  C1  UNL     1     -31.856  18.154  -1.261  1.00 20.00     0.085 C 
HETATM    2  C2  UNL     1     -34.167  17.387  -0.867  1.00 20.00     0.067 C 
HETATM    3  C3  UNL     1     -32.895  16.617  -2.895  1.00 20.00     0.078 C 
HETATM    4  C4  UNL     1     -35.407  16.765  -1.494  1.00 20.00     0.171 C 
HETATM    5  C5  UNL     1     -33.124  17.781  -1.917  1.00 20.00     0.130 C 
HETATM    6  C6  UNL     1     -34.175  15.893  -3.379  1.00 20.00     0.056 C 
HETATM    7  C7  UNL     1     -33.774  14.510  -3.925  1.00 20.00     0.045 C 
HETATM    8  C8  UNL     1     -34.912  16.632  -4.505  1.00 20.00     0.045 C 
HETATM    9  N9  UNL     1     -30.859  18.445  -0.744  1.00 20.00    -0.195 NA
HETATM   10  O10 UNL     1     -35.064  15.631  -2.284  1.00 20.00    -0.381 OA
HETATM   11 CL11 UNL     1     -33.651  19.260  -2.789  1.00 20.00    -0.103 Cl
ENDROOT
TORSDOF 0
ENDMDL
MODEL 4
REMARK VINA RESULT:      -4.3      2.928      4.171
REMARK  0 active torsions:
REMARK  status: ('A' for Active; 'I' for Inactive)
ROOT
HETATM    1  C1  UNL     1     -34.319  17.959  -3.352  1.00 20.00     0.085 C 
HETATM    2  C2  UNL     1     -33.040  15.901  -3.812  1.00 20.00     0.067 C 
HETATM    3  C3  UNL     1     -35.322  16.238  -4.816  1.00 20.00     0.078 C 
HETATM    4  C4  UNL     1     -33.114  14.462  -4.303  1.00 20.00     0.171 C 
HETATM    5  C5  UNL     1     -34.430  16.508  -3.592  1.00 20.00     0.130 C 
HETATM    6  C6  UNL     1     -35.238  14.805  -5.396  1.00 20.00     0.056 C 
HETATM    7  C7  UNL     1     -35.775  14.834  -6.839  1.00 20.00     0.045 C 
HETATM    8  C8  UNL     1     -36.073  13.776  -4.620  1.00 20.00     0.045 C 
HETATM    9  N9  UNL     1     -34.232  19.101  -3.164  1.00 20.00    -0.195 NA
HETATM   10  O10 UNL     1     -33.875  14.370  -5.502  1.00 20.00    -0.381 OA
HETATM   11 CL11 UNL     1     -35.169  15.841  -2.098  1.00 20.00    -0.103 Cl
ENDROOT
TORSDOF 0
ENDMDL
MODEL 5
REMARK VINA RESULT:      -4.3      2.253      3.087
REMARK  0 active torsions:
REMARK  status: ('A' for Active; 'I' for Inactive)
ROOT
HETATM    1  C1  UNL     1     -37.585  14.747  -4.299  1.00 20.00     0.085 C 
HETATM    2  C2  UNL     1     -36.212  16.380  -5.536  1.00 20.00     0.067 C 
HETATM    3  C3  UNL     1     -35.138  14.752  -3.948  1.00 20.00     0.078 C 
HETATM    4  C4  UNL     1     -34.867  17.090  -5.607  1.00 20.00     0.171 C 
HETATM    5  C5  UNL     1     -36.387  15.605  -4.226  1.00 20.00     0.130 C 
HETATM    6  C6  UNL     1     -33.782  15.456  -4.199  1.00 20.00     0.056 C 
HETATM    7  C7  UNL     1     -32.695  14.376  -4.352  1.00 20.00     0.045 C 
HETATM    8  C8  UNL     1     -33.347  16.382  -3.054  1.00 20.00     0.045 C 
HETATM    9  N9  UNL     1     -38.526  14.072  -4.356  1.00 20.00    -0.195 NA
HETATM   10  O10 UNL     1     -33.794  16.168  -5.445  1.00 20.00    -0.381 OA
HETATM   11 CL11 UNL     1     -36.705  16.740  -2.872  1.00 20.00    -0.103 Cl
ENDROOT
TORSDOF 0
ENDMDL
MODEL 6
REMARK VINA RESULT:      -4.2      1.738      2.484
REMARK  0 active torsions:
REMARK  status: ('A' for Active; 'I' for Inactive)
ROOT
HETATM    1  C1  UNL     1     -35.380  13.922  -4.223  1.00 20.00     0.085 C 
HETATM    2  C2  UNL     1     -35.104  15.587  -2.425  1.00 20.00     0.067 C 
HETATM    3  C3  UNL     1     -35.345  16.321  -4.818  1.00 20.00     0.078 C 
HETATM    4  C4  UNL     1     -34.736  17.027  -2.094  1.00 20.00     0.171 C 
HETATM    5  C5  UNL     1     -34.794  15.232  -3.882  1.00 20.00     0.130 C 
HETATM    6  C6  UNL     1     -35.102  17.779  -4.358  1.00 20.00     0.056 C 
HETATM    7  C7  UNL     1     -36.096  18.694  -5.098  1.00 20.00     0.045 C 
HETATM    8  C8  UNL     1     -33.690  18.295  -4.668  1.00 20.00     0.045 C 
HETATM    9  N9  UNL     1     -35.841  12.892  -4.491  1.00 20.00    -0.195 NA
HETATM   10  O10 UNL     1     -35.401  17.936  -2.964  1.00 20.00    -0.381 OA
HETATM   11 CL11 UNL     1     -33.024  15.027  -4.108  1.00 20.00    -0.103 Cl
ENDROOT
TORSDOF 0
ENDMDL
MODEL 7
REMARK VINA RESULT:      -4.1      2.700      3.964
REMARK  0 active torsions:
REMARK  status: ('A' for Active; 'I' for Inactive)
ROOT
HETATM    1  C1  UNL     1     -35.164  17.011  -0.897  1.00 20.00     0.085 C 
HETATM    2  C2  UNL     1     -35.406  17.735  -3.243  1.00 20.00     0.067 C 
HETATM    3  C3  UNL     1     -35.106  15.302  -2.682  1.00 20.00     0.078 C 
HETATM    4  C4  UNL     1     -35.197  17.353  -4.701  1.00 20.00     0.171 C 
HETATM    5  C5  UNL     1     -34.741  16.742  -2.284  1.00 20.00     0.130 C 
HETATM    6  C6  UNL     1     -35.050  14.996  -4.198  1.00 20.00     0.056 C 
HETATM    7  C7  UNL     1     -35.882  13.729  -4.469  1.00 20.00     0.045 C 
HETATM    8  C8  UNL     1     -33.631  14.730  -4.721  1.00 20.00     0.045 C 
HETATM    9  N9  UNL     1     -35.498  17.223   0.193  1.00 20.00    -0.195 NA
HETATM   10  O10 UNL     1     -35.680  16.038  -4.957  1.00 20.00    -0.381 OA
HETATM   11 CL11 UNL     1     -32.961  16.977  -2.284  1.00 20.00    -0.103 Cl
ENDROOT
TORSDOF 0
ENDMDL
MODEL 8
REMARK VINA RESULT:      -4.0      1.686      2.424
REMARK  0 active torsions:
REMARK  status: ('A' for Active; 'I' for Inactive)
ROOT
HETATM    1  C1  UNL     1     -35.369  14.597  -5.453  1.00 20.00     0.085 C 
HETATM    2  C2  UNL     1     -35.410  15.191  -3.059  1.00 20.00     0.067 C 
HETATM    3  C3  UNL     1     -34.683  16.875  -4.780  1.00 20.00     0.078 C 
HETATM    4  C4  UNL     1     -34.912  16.164  -1.999  1.00 20.00     0.171 C 
HETATM    5  C5  UNL     1     -34.698  15.384  -4.401  1.00 20.00     0.130 C 
HETATM    6  C6  UNL     1     -34.341  17.851  -3.629  1.00 20.00     0.056 C 
HETATM    7  C7  UNL     1     -34.833  19.256  -4.020  1.00 20.00     0.045 C 
HETATM    8  C8  UNL     1     -32.836  17.959  -3.340  1.00 20.00     0.045 C 
HETATM    9  N9  UNL     1     -35.898  13.978  -6.279  1.00 20.00    -0.195 NA
HETATM   10  O10 UNL     1     -35.059  17.511  -2.434  1.00 20.00    -0.381 OA
HETATM   11 CL11 UNL     1     -33.029  14.726  -4.317  1.00 20.00    -0.103 Cl
ENDROOT
TORSDOF 0
ENDMDL
MODEL 9
REMARK VINA RESULT:      -3.9      1.848      2.402
REMARK  0 active torsions:
REMARK  status: ('A' for Active; 'I' for Inactive)
ROOT
HETATM    1  C1  UNL     1     -34.232  15.219  -5.474  1.00 20.00     0.085 C 
HETATM    2  C2  UNL     1     -35.432  17.277  -4.834  1.00 20.00     0.067 C 
HETATM    3  C3  UNL     1     -33.786  16.216  -3.256  1.00 20.00     0.078 C 
HETATM    4  C4  UNL     1     -35.850  18.178  -3.681  1.00 20.00     0.171 C 
HETATM    5  C5  UNL     1     -34.838  15.952  -4.346  1.00 20.00     0.130 C 
HETATM    6  C6  UNL     1     -34.178  17.271  -2.194  1.00 20.00     0.056 C 
HETATM    7  C7  UNL     1     -32.895  17.765  -1.501  1.00 20.00     0.045 C 
HETATM    8  C8  UNL     1     -35.107  16.726  -1.099  1.00 20.00     0.045 C 
HETATM    9  N9  UNL     1     -33.756  14.644  -6.361  1.00 20.00    -0.195 NA
HETATM   10  O10 UNL     1     -34.754  18.433  -2.809  1.00 20.00    -0.381 OA
HETATM   11 CL11 UNL     1     -36.140  14.877  -3.735  1.00 20.00    -0.103 Cl
ENDROOT
TORSDOF 0
ENDMDL
