MODEL 1
REMARK VINA RESULT:      -4.7      0.000      0.000
REMARK  0 active torsions:
REMARK  status: ('A' for Active; 'I' for Inactive)
ROOT
HETATM    1  C1  UNL     1     -33.879  17.358  -1.734  1.00 20.00     0.088 C 
HETATM    2  C2  UNL     1     -33.721  15.588  -3.360  1.00 20.00    -0.065 C 
HETATM    3  C3  UNL     1     -33.158  16.605  -2.695  1.00 20.00     0.096 C 
HETATM    4  C4  UNL     1     -32.991  14.767  -4.385  1.00 20.00     0.061 C 
HETATM    5  C5  UNL     1     -35.155  15.170  -3.171  1.00 20.00     0.072 C 
HETATM    6  C6  UNL     1     -33.794  14.739  -5.680  1.00 20.00     0.173 C 
HETATM    7  C7  UNL     1     -35.888  15.098  -4.526  1.00 20.00     0.057 C 
HETATM    8  C8  UNL     1     -36.174  16.492  -5.107  1.00 20.00     0.046 C 
HETATM    9  C9  UNL     1     -37.226  14.372  -4.336  1.00 20.00     0.046 C 
HETATM   10  N10 UNL     1     -34.463  17.978  -0.946  1.00 20.00    -0.192 NA
HETATM   11  O11 UNL     1     -35.135  14.297  -5.458  1.00 20.00    -0.380 OA
ENDROOT
TORSDOF 0
ENDMDL
MODEL 2
REMARK VINA RESULT:      -4.4      2.804      3.857
REMARK  0 active torsions:
REMARK  status: ('A' for Active; 'I' for Inactive)
ROOT
HETATM    1  C1  UNL     1     -36.112  13.925  -4.225  1.00 20.00     0.088 C 
HETATM    2  C2  UNL     1     -34.383  15.556  -3.832  1.00 20.00    -0.065 C 
HETATM    3  C3  UNL     1     -34.801  14.283  -3.821  1.00 20.00     0.096 C 
HETATM    4  C4  UNL     1     -33.003  15.974  -3.412  1.00 20.00     0.061 C 
HETATM    5  C5  UNL     1     -35.258  16.710  -4.243  1.00 20.00     0.072 C 
HETATM    6  C6  UNL     1     -33.102  17.070  -2.357  1.00 20.00     0.173 C 
HETATM    7  C7  UNL     1     -35.259  17.809  -3.161  1.00 20.00     0.057 C 
HETATM    8  C8  UNL     1     -36.062  17.399  -1.916  1.00 20.00     0.046 C 
HETATM    9  C9  UNL     1     -35.887  19.084  -3.741  1.00 20.00     0.046 C 
HETATM   10  N10 UNL     1     -37.185  13.626  -4.553  1.00 20.00    -0.192 NA
HETATM   11  O11 UNL     1     -33.907  18.162  -2.808  1.00 20.00    -0.380 OA
ENDROOT
TORSDOF 0
ENDMDL
MODEL 3
REMARK VINA RESULT:      -4.3      2.943      4.618
REMARK  0 active torsions:
REMARK  status: ('A' for Active; 'I' for Inactive)
ROOT
HETATM    1  C1  UNL     1     -34.117  14.735  -4.180  1.00 20.00     0.088 C 
HETATM    2  C2  UNL     1     -34.506  16.181  -2.293  1.00 20.00    -0.065 C 
HETATM    3  C3  UNL     1     -34.892  15.162  -3.072  1.00 20.00     0.096 C 
HETATM    4  C4  UNL     1     -35.298  16.663  -1.111  1.00 20.00     0.061 C 
HETATM    5  C5  UNL     1     -33.247  16.971  -2.530  1.00 20.00     0.072 C 
HETATM    6  C6  UNL     1     -35.534  18.163  -1.234  1.00 20.00     0.173 C 
HETATM    7  C7  UNL     1     -33.549  18.483  -2.577  1.00 20.00     0.057 C 
HETATM    8  C8  UNL     1     -34.274  18.891  -3.869  1.00 20.00     0.046 C 
HETATM    9  C9  UNL     1     -32.230  19.263  -2.497  1.00 20.00     0.046 C 
HETATM   10  N10 UNL     1     -33.488  14.381  -5.088  1.00 20.00    -0.192 NA
HETATM   11  O11 UNL     1     -34.308  18.875  -1.416  1.00 20.00    -0.380 OA
ENDROOT
TORSDOF 0
ENDMDL
MODEL 4
REMARK VINA RESULT:      -4.2      2.721      4.227
REMARK  0 active torsions:
REMARK  status: ('A' for Active; 'I' for Inactive)
ROOT
HETATM    1  C1  UNL     1     -35.952  13.771  -4.896  1.00 20.00     0.088 C 
HETATM    2  C2  UNL     1     -36.006  16.159  -4.587  1.00 20.00    -0.065 C 
HETATM    3  C3  UNL     1     -36.029  15.094  -5.399  1.00 20.00     0.096 C 
HETATM    4  C4  UNL     1     -36.086  17.576  -5.081  1.00 20.00     0.061 C 
HETATM    5  C5  UNL     1     -35.873  16.055  -3.091  1.00 20.00     0.072 C 
HETATM    6  C6  UNL     1     -34.920  18.379  -4.515  1.00 20.00     0.173 C 
HETATM    7  C7  UNL     1     -34.720  16.943  -2.580  1.00 20.00     0.057 C 
HETATM    8  C8  UNL     1     -33.341  16.363  -2.932  1.00 20.00     0.046 C 
HETATM    9  C9  UNL     1     -34.818  17.064  -1.053  1.00 20.00     0.046 C 
HETATM   10  N10 UNL     1     -35.888  12.686  -4.490  1.00 20.00    -0.192 NA
HETATM   11  O11 UNL     1     -34.860  18.283  -3.090  1.00 20.00    -0.380 OA
ENDROOT
TORSDOF 0
ENDMDL
MODEL 5
REMARK VINA RESULT:      -4.2      2.699      3.729
REMARK  0 active torsions:
REMARK  status: ('A' for Active; 'I' for Inactive)
ROOT
HETATM    1  C1  UNL     1     -36.323  14.110  -4.142  1.00 20.00     0.088 C 
HETATM    2  C2  UNL     1     -34.355  15.496  -4.053  1.00 20.00    -0.065 C 
HETATM    3  C3  UNL     1     -35.096  14.501  -3.548  1.00 20.00     0.096 C 
HETATM    4  C4  UNL     1     -33.051  15.939  -3.454  1.00 20.00     0.061 C 
HETATM    5  C5  UNL     1     -34.759  16.295  -5.263  1.00 20.00     0.072 C 
HETATM    6  C6  UNL     1     -33.089  17.443  -3.206  1.00 20.00     0.173 C 
HETATM    7  C7  UNL     1     -34.711  17.807  -4.962  1.00 20.00     0.057 C 
HETATM    8  C8  UNL     1     -35.864  18.254  -4.048  1.00 20.00     0.046 C 
HETATM    9  C9  UNL     1     -34.811  18.586  -6.281  1.00 20.00     0.046 C 
HETATM   10  N10 UNL     1     -37.328  13.785  -4.622  1.00 20.00    -0.192 NA
HETATM   11  O11 UNL     1     -33.436  18.162  -4.392  1.00 20.00    -0.380 OA
ENDROOT
TORSDOF 0
ENDMDL
MODEL 6
REMARK VINA RESULT:      -4.2      1.097      2.566
REMARK  0 active torsions:
REMARK  status: ('A' for Active; 'I' for Inactive)
ROOT
HETATM    1  C1  UNL     1     -34.062  17.039  -1.892  1.00 20.00     0.088 C 
HETATM    2  C2  UNL     1     -35.450  15.749  -3.378  1.00 20.00    -0.065 C 
HETATM    3  C3  UNL     1     -35.147  16.162  -2.140  1.00 20.00     0.096 C 
HETATM    4  C4  UNL     1     -36.591  14.820  -3.682  1.00 20.00     0.061 C 
HETATM    5  C5  UNL     1     -34.665  16.150  -4.599  1.00 20.00     0.072 C 
HETATM    6  C6  UNL     1     -36.081  13.636  -4.496  1.00 20.00     0.173 C 
HETATM    7  C7  UNL     1     -34.240  14.909  -5.409  1.00 20.00     0.057 C 
HETATM    8  C8  UNL     1     -33.118  14.118  -4.716  1.00 20.00     0.046 C 
HETATM    9  C9  UNL     1     -33.733  15.357  -6.787  1.00 20.00     0.046 C 
HETATM   10  N10 UNL     1     -33.174  17.757  -1.682  1.00 20.00    -0.192 NA
HETATM   11  O11 UNL     1     -35.380  14.066  -5.665  1.00 20.00    -0.380 OA
ENDROOT
TORSDOF 0
ENDMDL
MODEL 7
REMARK VINA RESULT:      -4.1      2.750      3.876
REMARK  0 active torsions:
REMARK  status: ('A' for Active; 'I' for Inactive)
ROOT
HETATM    1  C1  UNL     1     -38.296  15.344  -4.906  1.00 20.00     0.088 C 
HETATM    2  C2  UNL     1     -36.106  14.355  -4.737  1.00 20.00    -0.065 C 
HETATM    3  C3  UNL     1     -37.258  14.728  -4.163  1.00 20.00     0.096 C 
HETATM    4  C4  UNL     1     -34.983  13.700  -3.984  1.00 20.00     0.061 C 
HETATM    5  C5  UNL     1     -35.801  14.572  -6.195  1.00 20.00     0.072 C 
HETATM    6  C6  UNL     1     -33.690  14.469  -4.228  1.00 20.00     0.173 C 
HETATM    7  C7  UNL     1     -34.450  15.294  -6.370  1.00 20.00     0.057 C 
HETATM    8  C8  UNL     1     -34.526  16.777  -5.971  1.00 20.00     0.046 C 
HETATM    9  C9  UNL     1     -34.023  15.212  -7.842  1.00 20.00     0.046 C 
HETATM   10  N10 UNL     1     -39.149  15.849  -5.509  1.00 20.00    -0.192 NA
HETATM   11  O11 UNL     1     -33.421  14.614  -5.625  1.00 20.00    -0.380 OA
ENDROOT
TORSDOF 0
ENDMDL
MODEL 8
REMARK VINA RESULT:      -4.1      1.365      1.596
REMARK  0 active torsions:
REMARK  status: ('A' for Active; 'I' for Inactive)
ROOT
HETATM    1  C1  UNL     1     -35.101  17.389  -0.250  1.00 20.00     0.088 C 
HETATM    2  C2  UNL     1     -34.133  16.540  -2.286  1.00 20.00    -0.065 C 
HETATM    3  C3  UNL     1     -34.103  17.397  -1.257  1.00 20.00     0.096 C 
HETATM    4  C4  UNL     1     -33.095  16.516  -3.372  1.00 20.00     0.061 C 
HETATM    5  C5  UNL     1     -35.224  15.521  -2.481  1.00 20.00     0.072 C 
HETATM    6  C6  UNL     1     -33.778  16.607  -4.731  1.00 20.00     0.173 C 
HETATM    7  C7  UNL     1     -35.824  15.625  -3.898  1.00 20.00     0.057 C 
HETATM    8  C8  UNL     1     -36.702  16.876  -4.067  1.00 20.00     0.046 C 
HETATM    9  C9  UNL     1     -36.690  14.388  -4.169  1.00 20.00     0.046 C 
HETATM   10  N10 UNL     1     -35.915  17.388   0.577  1.00 20.00    -0.192 NA
HETATM   11  O11 UNL     1     -34.776  15.596  -4.886  1.00 20.00    -0.380 OA
ENDROOT
TORSDOF 0
ENDMDL
MODEL 9
REMARK VINA RESULT:      -4.0      1.548      1.861
REMARK  0 active torsions:
REMARK  status: ('A' for Active; 'I' for Inactive)
ROOT
HETATM    1  C1  UNL     1     -32.948  17.191  -3.011  1.00 20.00     0.088 C 
HETATM    2  C2  UNL     1     -34.531  15.417  -3.399  1.00 20.00    -0.065 C 
HETATM    3  C3  UNL     1     -33.269  15.867  -3.404  1.00 20.00     0.096 C 
HETATM    4  C4  UNL     1     -34.911  14.022  -3.807  1.00 20.00     0.061 C 
HETATM    5  C5  UNL     1     -35.710  16.267  -3.006  1.00 20.00     0.072 C 
HETATM    6  C6  UNL     1     -36.001  14.082  -4.871  1.00 20.00     0.173 C 
HETATM    7  C7  UNL     1     -36.800  16.229  -4.096  1.00 20.00     0.057 C 
HETATM    8  C8  UNL     1     -36.400  17.028  -5.346  1.00 20.00     0.046 C 
HETATM    9  C9  UNL     1     -38.095  16.830  -3.533  1.00 20.00     0.046 C 
HETATM   10  N10 UNL     1     -32.679  18.273  -2.692  1.00 20.00    -0.192 NA
HETATM   11  O11 UNL     1     -37.116  14.865  -4.437  1.00 20.00    -0.380 OA
ENDROOT
TORSDOF 0
ENDMDL
