MODEL 1
REMARK VINA RESULT:      -4.0      0.000      0.000
REMARK  1 active torsions:
REMARK  status: ('A' for Active; 'I' for Inactive)
REMARK    1  A    between atoms: C4_4  and  S9_9 
ROOT
HETATM    1  C1  UNL     1     -22.805  17.972   8.508  1.00 20.00     0.041 C 
HETATM    2  C2  UNL     1     -24.893  18.420   9.823  1.00 20.00     0.052 C 
HETATM    3  C3  UNL     1     -22.032  17.729   9.804  1.00 20.00     0.170 C 
HETATM    4  C4  UNL     1     -23.948  18.951   8.739  1.00 20.00     0.049 C 
HETATM    5  C5  UNL     1     -24.134  17.763  11.004  1.00 20.00     0.054 C 
HETATM    6  C6  UNL     1     -24.302  16.235  11.008  1.00 20.00     0.045 C 
HETATM    7  C7  UNL     1     -24.678  18.307  12.332  1.00 20.00     0.045 C 
HETATM    8  O8  UNL     1     -22.746  18.117  10.976  1.00 20.00    -0.381 OA
ENDROOT
BRANCH   4   9
HETATM    9  S9  UNL     1     -24.861  19.254   7.191  1.00 20.00    -0.177 SA
HETATM   10  H23 UNL     1     -23.914  18.767   6.380  1.00 20.00     0.102 HD
ENDBRANCH   4   9
TORSDOF 1
ENDMDL
MODEL 2
REMARK VINA RESULT:      -3.8     17.134     17.963
REMARK  1 active torsions:
REMARK  status: ('A' for Active; 'I' for Inactive)
REMARK    1  A    between atoms: C4_4  and  S9_9 
ROOT
HETATM    1  C1  UNL     1     -33.127  16.024  -3.393  1.00 20.00     0.041 C 
HETATM    2  C2  UNL     1     -35.595  15.582  -3.351  1.00 20.00     0.052 C 
HETATM    3  C3  UNL     1     -32.916  14.803  -4.287  1.00 20.00     0.170 C 
HETATM    4  C4  UNL     1     -34.345  15.833  -2.500  1.00 20.00     0.049 C 
HETATM    5  C5  UNL     1     -35.317  14.649  -4.557  1.00 20.00     0.054 C 
HETATM    6  C6  UNL     1     -35.344  15.416  -5.888  1.00 20.00     0.045 C 
HETATM    7  C7  UNL     1     -36.388  13.551  -4.616  1.00 20.00     0.045 C 
HETATM    8  O8  UNL     1     -34.067  13.967  -4.393  1.00 20.00    -0.381 OA
ENDROOT
BRANCH   4   9
HETATM    9  S9  UNL     1     -34.589  17.283  -1.422  1.00 20.00    -0.177 SA
HETATM   10  H23 UNL     1     -35.427  16.676  -0.571  1.00 20.00     0.102 HD
ENDBRANCH   4   9
TORSDOF 1
ENDMDL
MODEL 3
REMARK VINA RESULT:      -3.6      2.051      2.595
REMARK  1 active torsions:
REMARK  status: ('A' for Active; 'I' for Inactive)
REMARK    1  A    between atoms: C4_4  and  S9_9 
ROOT
HETATM    1  C1  UNL     1     -25.766  19.058   9.294  1.00 20.00     0.041 C 
HETATM    2  C2  UNL     1     -25.261  18.097  11.554  1.00 20.00     0.052 C 
HETATM    3  C3  UNL     1     -24.278  19.042   8.946  1.00 20.00     0.170 C 
HETATM    4  C4  UNL     1     -25.966  19.225  10.793  1.00 20.00     0.049 C 
HETATM    5  C5  UNL     1     -23.875  17.749  10.952  1.00 20.00     0.054 C 
HETATM    6  C6  UNL     1     -23.892  16.391  10.232  1.00 20.00     0.045 C 
HETATM    7  C7  UNL     1     -22.830  17.682  12.073  1.00 20.00     0.045 C 
HETATM    8  O8  UNL     1     -23.433  18.784  10.066  1.00 20.00    -0.381 OA
ENDROOT
BRANCH   4   9
HETATM    9  S9  UNL     1     -27.741  19.260  11.208  1.00 20.00    -0.177 SA
HETATM   10  H23 UNL     1     -27.593  18.820  12.464  1.00 20.00     0.102 HD
ENDBRANCH   4   9
TORSDOF 1
ENDMDL
MODEL 4
REMARK VINA RESULT:      -3.5     18.238     19.063
REMARK  1 active torsions:
REMARK  status: ('A' for Active; 'I' for Inactive)
REMARK    1  A    between atoms: C4_4  and  S9_9 
ROOT
HETATM    1  C1  UNL     1     -36.726  14.818  -5.344  1.00 20.00     0.041 C 
HETATM    2  C2  UNL     1     -34.409  15.761  -5.519  1.00 20.00     0.052 C 
HETATM    3  C3  UNL     1     -36.209  13.696  -4.445  1.00 20.00     0.170 C 
HETATM    4  C4  UNL     1     -35.638  15.285  -6.301  1.00 20.00     0.049 C 
HETATM    5  C5  UNL     1     -34.089  14.854  -4.304  1.00 20.00     0.054 C 
HETATM    6  C6  UNL     1     -34.413  15.551  -2.973  1.00 20.00     0.045 C 
HETATM    7  C7  UNL     1     -32.595  14.500  -4.306  1.00 20.00     0.045 C 
HETATM    8  O8  UNL     1     -34.786  13.607  -4.404  1.00 20.00    -0.381 OA
ENDROOT
BRANCH   4   9
HETATM    9  S9  UNL     1     -36.258  16.613  -7.385  1.00 20.00    -0.177 SA
HETATM   10  H23 UNL     1     -37.504  16.613  -6.896  1.00 20.00     0.102 HD
ENDBRANCH   4   9
TORSDOF 1
ENDMDL
MODEL 5
REMARK VINA RESULT:      -3.3     18.502     19.397
REMARK  1 active torsions:
REMARK  status: ('A' for Active; 'I' for Inactive)
REMARK    1  A    between atoms: C4_4  and  S9_9 
ROOT
HETATM    1  C1  UNL     1     -36.609  14.982  -3.852  1.00 20.00     0.041 C 
HETATM    2  C2  UNL     1     -35.095  16.345  -5.314  1.00 20.00     0.052 C 
HETATM    3  C3  UNL     1     -36.170  13.708  -4.572  1.00 20.00     0.170 C 
HETATM    4  C4  UNL     1     -36.523  16.184  -4.783  1.00 20.00     0.049 C 
HETATM    5  C5  UNL     1     -34.437  14.989  -5.674  1.00 20.00     0.054 C 
HETATM    6  C6  UNL     1     -33.338  14.605  -4.670  1.00 20.00     0.045 C 
HETATM    7  C7  UNL     1     -33.799  15.080  -7.067  1.00 20.00     0.045 C 
HETATM    8  O8  UNL     1     -35.423  13.954  -5.762  1.00 20.00    -0.381 OA
ENDROOT
BRANCH   4   9
HETATM    9  S9  UNL     1     -37.061  17.702  -3.929  1.00 20.00    -0.177 SA
HETATM   10  H23 UNL     1     -37.730  17.076  -2.953  1.00 20.00     0.102 HD
ENDBRANCH   4   9
TORSDOF 1
ENDMDL
MODEL 6
REMARK VINA RESULT:      -3.3     16.884     17.687
REMARK  1 active torsions:
REMARK  status: ('A' for Active; 'I' for Inactive)
REMARK    1  A    between atoms: C4_4  and  S9_9 
ROOT
HETATM    1  C1  UNL     1     -34.555  14.970  -5.432  1.00 20.00     0.041 C 
HETATM    2  C2  UNL     1     -34.511  17.240  -4.366  1.00 20.00     0.052 C 
HETATM    3  C3  UNL     1     -33.514  14.472  -4.431  1.00 20.00     0.170 C 
HETATM    4  C4  UNL     1     -34.390  16.463  -5.681  1.00 20.00     0.049 C 
HETATM    5  C5  UNL     1     -33.798  16.528  -3.187  1.00 20.00     0.054 C 
HETATM    6  C6  UNL     1     -34.805  15.935  -2.189  1.00 20.00     0.045 C 
HETATM    7  C7  UNL     1     -32.918  17.536  -2.435  1.00 20.00     0.045 C 
HETATM    8  O8  UNL     1     -32.908  15.515  -3.669  1.00 20.00    -0.381 OA
ENDROOT
BRANCH   4   9
HETATM    9  S9  UNL     1     -35.621  17.056  -6.888  1.00 20.00    -0.177 SA
HETATM   10  H23 UNL     1     -36.178  15.859  -7.109  1.00 20.00     0.102 HD
ENDBRANCH   4   9
TORSDOF 1
ENDMDL
MODEL 7
REMARK VINA RESULT:      -3.3     17.719     18.534
REMARK  1 active torsions:
REMARK  status: ('A' for Active; 'I' for Inactive)
REMARK    1  A    between atoms: C4_4  and  S9_9 
ROOT
HETATM    1  C1  UNL     1     -35.949  15.578  -5.930  1.00 20.00     0.041 C 
HETATM    2  C2  UNL     1     -35.425  15.328  -3.491  1.00 20.00     0.052 C 
HETATM    3  C3  UNL     1     -34.675  16.397  -6.128  1.00 20.00     0.170 C 
HETATM    4  C4  UNL     1     -36.484  15.748  -4.515  1.00 20.00     0.049 C 
HETATM    5  C5  UNL     1     -34.000  15.795  -3.883  1.00 20.00     0.054 C 
HETATM    6  C6  UNL     1     -33.118  14.617  -4.328  1.00 20.00     0.045 C 
HETATM    7  C7  UNL     1     -33.328  16.465  -2.677  1.00 20.00     0.045 C 
HETATM    8  O8  UNL     1     -34.057  16.796  -4.906  1.00 20.00    -0.381 OA
ENDROOT
BRANCH   4   9
HETATM    9  S9  UNL     1     -38.014  14.783  -4.283  1.00 20.00    -0.177 SA
HETATM   10  H23 UNL     1     -38.038  14.272  -5.520  1.00 20.00     0.102 HD
ENDBRANCH   4   9
TORSDOF 1
ENDMDL
MODEL 8
REMARK VINA RESULT:      -3.3     17.088     17.967
REMARK  1 active torsions:
REMARK  status: ('A' for Active; 'I' for Inactive)
REMARK    1  A    between atoms: C4_4  and  S9_9 
ROOT
HETATM    1  C1  UNL     1     -36.435  17.030  -3.338  1.00 20.00     0.041 C 
HETATM    2  C2  UNL     1     -34.493  15.625  -2.601  1.00 20.00     0.052 C 
HETATM    3  C3  UNL     1     -36.120  16.713  -4.799  1.00 20.00     0.170 C 
HETATM    4  C4  UNL     1     -35.168  16.997  -2.494  1.00 20.00     0.049 C 
HETATM    5  C5  UNL     1     -34.525  15.057  -4.043  1.00 20.00     0.054 C 
HETATM    6  C6  UNL     1     -35.501  13.876  -4.167  1.00 20.00     0.045 C 
HETATM    7  C7  UNL     1     -33.125  14.562  -4.432  1.00 20.00     0.045 C 
HETATM    8  O8  UNL     1     -34.854  16.083  -4.986  1.00 20.00    -0.381 OA
ENDROOT
BRANCH   4   9
HETATM    9  S9  UNL     1     -35.540  17.390  -0.754  1.00 20.00    -0.177 SA
HETATM   10  H23 UNL     1     -36.469  16.439  -0.598  1.00 20.00     0.102 HD
ENDBRANCH   4   9
TORSDOF 1
ENDMDL
MODEL 9
REMARK VINA RESULT:      -3.3     15.876     16.802
REMARK  1 active torsions:
REMARK  status: ('A' for Active; 'I' for Inactive)
REMARK    1  A    between atoms: C4_4  and  S9_9 
ROOT
HETATM    1  C1  UNL     1     -33.907  18.164  -2.049  1.00 20.00     0.041 C 
HETATM    2  C2  UNL     1     -35.119  15.983  -2.295  1.00 20.00     0.052 C 
HETATM    3  C3  UNL     1     -32.917  17.745  -3.134  1.00 20.00     0.170 C 
HETATM    4  C4  UNL     1     -34.445  16.946  -1.312  1.00 20.00     0.049 C 
HETATM    5  C5  UNL     1     -34.337  15.848  -3.626  1.00 20.00     0.054 C 
HETATM    6  C6  UNL     1     -35.070  16.537  -4.789  1.00 20.00     0.045 C 
HETATM    7  C7  UNL     1     -34.173  14.363  -3.979  1.00 20.00     0.045 C 
HETATM    8  O8  UNL     1     -33.009  16.367  -3.490  1.00 20.00    -0.381 OA
ENDROOT
BRANCH   4   9
HETATM    9  S9  UNL     1     -35.615  17.445  -0.006  1.00 20.00    -0.177 SA
HETATM   10  H23 UNL     1     -35.845  16.207   0.447  1.00 20.00     0.102 HD
ENDBRANCH   4   9
TORSDOF 1
ENDMDL
