MODEL 1
REMARK VINA RESULT:      -4.2      0.000      0.000
REMARK  1 active torsions:
REMARK  status: ('A' for Active; 'I' for Inactive)
REMARK    1  A    between atoms: C5_5  and  C8_8 
ROOT
HETATM    1  C1  UNL     1     -23.302  16.909  12.200  1.00 20.00     0.046 C 
HETATM    2  C2  UNL     1     -23.936  16.730   9.774  1.00 20.00     0.057 C 
HETATM    3  C3  UNL     1     -22.299  17.975  11.787  1.00 20.00     0.170 C 
HETATM    4  C4  UNL     1     -24.458  16.804  11.211  1.00 20.00     0.087 C 
HETATM    5  C5  UNL     1     -22.781  17.707   9.432  1.00 20.00     0.058 C 
HETATM    6  C6  UNL     1     -22.070  17.192   8.188  1.00 20.00     0.046 C 
HETATM    7  O9  UNL     1     -21.798  17.728  10.477  1.00 20.00    -0.380 OA
HETATM    8 CL10 UNL     1     -25.605  18.159  11.424  1.00 20.00    -0.125 Cl
ENDROOT
BRANCH   5   9
HETATM    9  C8  UNL     1     -23.270  19.135   9.135  1.00 20.00     0.033 C 
HETATM   10  C7  UNL     1     -24.344  19.140   8.102  1.00 20.00     0.008 C 
ENDBRANCH   5   9
TORSDOF 1
ENDMDL
MODEL 2
REMARK VINA RESULT:      -3.8     17.440     18.956
REMARK  1 active torsions:
REMARK  status: ('A' for Active; 'I' for Inactive)
REMARK    1  A    between atoms: C5_5  and  C8_8 
ROOT
HETATM    1  C1  UNL     1     -36.454  14.474  -5.759  1.00 20.00     0.046 C 
HETATM    2  C2  UNL     1     -34.348  15.805  -5.425  1.00 20.00     0.057 C 
HETATM    3  C3  UNL     1     -36.117  13.748  -4.466  1.00 20.00     0.170 C 
HETATM    4  C4  UNL     1     -35.828  15.864  -5.809  1.00 20.00     0.087 C 
HETATM    5  C5  UNL     1     -34.008  14.905  -4.208  1.00 20.00     0.058 C 
HETATM    6  C6  UNL     1     -32.525  14.568  -4.260  1.00 20.00     0.046 C 
HETATM    7  O9  UNL     1     -34.707  13.655  -4.282  1.00 20.00    -0.380 OA
HETATM    8 CL10 UNL     1     -36.730  17.007  -4.773  1.00 20.00    -0.125 Cl
ENDROOT
BRANCH   5   9
HETATM    9  C8  UNL     1     -34.287  15.589  -2.859  1.00 20.00     0.033 C 
HETATM   10  C7  UNL     1     -33.330  16.703  -2.605  1.00 20.00     0.008 C 
ENDBRANCH   5   9
TORSDOF 1
ENDMDL
MODEL 3
REMARK VINA RESULT:      -3.8     16.637     18.183
REMARK  1 active torsions:
REMARK  status: ('A' for Active; 'I' for Inactive)
REMARK    1  A    between atoms: C5_5  and  C8_8 
ROOT
HETATM    1  C1  UNL     1     -33.991  15.132  -5.923  1.00 20.00     0.046 C 
HETATM    2  C2  UNL     1     -34.500  17.131  -4.487  1.00 20.00     0.057 C 
HETATM    3  C3  UNL     1     -33.494  14.441  -4.663  1.00 20.00     0.170 C 
HETATM    4  C4  UNL     1     -35.009  16.223  -5.608  1.00 20.00     0.087 C 
HETATM    5  C5  UNL     1     -33.829  16.406  -3.292  1.00 20.00     0.058 C 
HETATM    6  C6  UNL     1     -32.972  17.413  -2.539  1.00 20.00     0.046 C 
HETATM    7  O9  UNL     1     -32.936  15.380  -3.748  1.00 20.00    -0.380 OA
HETATM    8 CL10 UNL     1     -36.600  15.514  -5.208  1.00 20.00    -0.125 Cl
ENDROOT
BRANCH   5   9
HETATM    9  C8  UNL     1     -34.846  15.820  -2.297  1.00 20.00     0.033 C 
HETATM   10  C7  UNL     1     -35.201  16.805  -1.237  1.00 20.00     0.008 C 
ENDBRANCH   5   9
TORSDOF 1
ENDMDL
MODEL 4
REMARK VINA RESULT:      -3.8     17.009     18.534
REMARK  1 active torsions:
REMARK  status: ('A' for Active; 'I' for Inactive)
REMARK    1  A    between atoms: C5_5  and  C8_8 
ROOT
HETATM    1  C1  UNL     1     -33.355  17.634  -3.398  1.00 20.00     0.046 C 
HETATM    2  C2  UNL     1     -33.539  15.239  -4.138  1.00 20.00     0.057 C 
HETATM    3  C3  UNL     1     -34.362  17.974  -4.485  1.00 20.00     0.170 C 
HETATM    4  C4  UNL     1     -33.485  16.185  -2.937  1.00 20.00     0.087 C 
HETATM    5  C5  UNL     1     -34.435  15.703  -5.316  1.00 20.00     0.058 C 
HETATM    6  C6  UNL     1     -34.012  14.947  -6.568  1.00 20.00     0.046 C 
HETATM    7  O9  UNL     1     -34.233  17.094  -5.598  1.00 20.00    -0.380 OA
HETATM    8 CL10 UNL     1     -34.906  15.979  -1.874  1.00 20.00    -0.125 Cl
ENDROOT
BRANCH   5   9
HETATM    9  C8  UNL     1     -35.929  15.421  -5.081  1.00 20.00     0.033 C 
HETATM   10  C7  UNL     1     -36.160  14.004  -4.682  1.00 20.00     0.008 C 
ENDBRANCH   5   9
TORSDOF 1
ENDMDL
MODEL 5
REMARK VINA RESULT:      -3.7     17.875     19.478
REMARK  1 active torsions:
REMARK  status: ('A' for Active; 'I' for Inactive)
REMARK    1  A    between atoms: C5_5  and  C8_8 
ROOT
HETATM    1  C1  UNL     1     -35.864  15.796  -6.990  1.00 20.00     0.046 C 
HETATM    2  C2  UNL     1     -34.397  16.657  -5.140  1.00 20.00     0.057 C 
HETATM    3  C3  UNL     1     -35.829  14.445  -6.294  1.00 20.00     0.170 C 
HETATM    4  C4  UNL     1     -35.619  16.944  -6.015  1.00 20.00     0.087 C 
HETATM    5  C5  UNL     1     -34.291  15.211  -4.591  1.00 20.00     0.058 C 
HETATM    6  C6  UNL     1     -32.847  14.958  -4.182  1.00 20.00     0.046 C 
HETATM    7  O9  UNL     1     -34.594  14.250  -5.613  1.00 20.00    -0.380 OA
HETATM    8 CL10 UNL     1     -37.074  17.263  -5.028  1.00 20.00    -0.125 Cl
ENDROOT
BRANCH   5   9
HETATM    9  C8  UNL     1     -35.178  14.970  -3.357  1.00 20.00     0.033 C 
HETATM   10  C7  UNL     1     -34.872  15.941  -2.269  1.00 20.00     0.008 C 
ENDBRANCH   5   9
TORSDOF 1
ENDMDL
MODEL 6
REMARK VINA RESULT:      -3.7     17.746     19.234
REMARK  1 active torsions:
REMARK  status: ('A' for Active; 'I' for Inactive)
REMARK    1  A    between atoms: C5_5  and  C8_8 
ROOT
HETATM    1  C1  UNL     1     -37.230  14.898  -4.231  1.00 20.00     0.046 C 
HETATM    2  C2  UNL     1     -35.240  16.219  -5.015  1.00 20.00     0.057 C 
HETATM    3  C3  UNL     1     -36.425  13.642  -4.527  1.00 20.00     0.170 C 
HETATM    4  C4  UNL     1     -36.329  16.096  -3.947  1.00 20.00     0.087 C 
HETATM    5  C5  UNL     1     -34.560  14.890  -5.433  1.00 20.00     0.058 C 
HETATM    6  C6  UNL     1     -33.894  15.095  -6.786  1.00 20.00     0.046 C 
HETATM    7  O9  UNL     1     -35.532  13.851  -5.617  1.00 20.00    -0.380 OA
HETATM    8 CL10 UNL     1     -35.630  15.993  -2.305  1.00 20.00    -0.125 Cl
ENDROOT
BRANCH   5   9
HETATM    9  C8  UNL     1     -33.476  14.431  -4.442  1.00 20.00     0.033 C 
HETATM   10  C7  UNL     1     -32.769  15.593  -3.832  1.00 20.00     0.008 C 
ENDBRANCH   5   9
TORSDOF 1
ENDMDL
MODEL 7
REMARK VINA RESULT:      -3.6     16.586     18.070
REMARK  1 active torsions:
REMARK  status: ('A' for Active; 'I' for Inactive)
REMARK    1  A    between atoms: C5_5  and  C8_8 
ROOT
HETATM    1  C1  UNL     1     -35.105  13.999  -4.010  1.00 20.00     0.046 C 
HETATM    2  C2  UNL     1     -33.228  15.616  -3.586  1.00 20.00     0.057 C 
HETATM    3  C3  UNL     1     -36.061  15.109  -3.600  1.00 20.00     0.170 C 
HETATM    4  C4  UNL     1     -33.784  14.553  -4.535  1.00 20.00     0.087 C 
HETATM    5  C5  UNL     1     -34.265  16.629  -3.035  1.00 20.00     0.058 C 
HETATM    6  C6  UNL     1     -33.688  17.274  -1.783  1.00 20.00     0.046 C 
HETATM    7  O9  UNL     1     -35.467  15.963  -2.626  1.00 20.00    -0.380 OA
HETATM    8 CL10 UNL     1     -33.973  15.188  -6.195  1.00 20.00    -0.125 Cl
ENDROOT
BRANCH   5   9
HETATM    9  C8  UNL     1     -34.595  17.753  -4.032  1.00 20.00     0.033 C 
HETATM   10  C7  UNL     1     -33.395  18.583  -4.335  1.00 20.00     0.008 C 
ENDBRANCH   5   9
TORSDOF 1
ENDMDL
MODEL 8
REMARK VINA RESULT:      -3.6     17.465     18.962
REMARK  1 active torsions:
REMARK  status: ('A' for Active; 'I' for Inactive)
REMARK    1  A    between atoms: C5_5  and  C8_8 
ROOT
HETATM    1  C1  UNL     1     -32.978  14.811  -4.225  1.00 20.00     0.046 C 
HETATM    2  C2  UNL     1     -35.198  15.338  -3.170  1.00 20.00     0.057 C 
HETATM    3  C3  UNL     1     -33.704  14.760  -5.561  1.00 20.00     0.170 C 
HETATM    4  C4  UNL     1     -33.709  15.689  -3.215  1.00 20.00     0.087 C 
HETATM    5  C5  UNL     1     -35.873  15.111  -4.547  1.00 20.00     0.058 C 
HETATM    6  C6  UNL     1     -37.155  14.319  -4.329  1.00 20.00     0.046 C 
HETATM    7  O9  UNL     1     -35.045  14.307  -5.399  1.00 20.00    -0.380 OA
HETATM    8 CL10 UNL     1     -33.453  17.421  -3.572  1.00 20.00    -0.125 Cl
ENDROOT
BRANCH   5   9
HETATM    9  C8  UNL     1     -36.247  16.423  -5.257  1.00 20.00     0.033 C 
HETATM   10  C7  UNL     1     -37.035  17.319  -4.365  1.00 20.00     0.008 C 
ENDBRANCH   5   9
TORSDOF 1
ENDMDL
MODEL 9
REMARK VINA RESULT:      -3.6     16.085     17.458
REMARK  1 active torsions:
REMARK  status: ('A' for Active; 'I' for Inactive)
REMARK    1  A    between atoms: C5_5  and  C8_8 
ROOT
HETATM    1  C1  UNL     1     -33.989  17.360  -1.327  1.00 20.00     0.046 C 
HETATM    2  C2  UNL     1     -34.835  15.446  -2.718  1.00 20.00     0.057 C 
HETATM    3  C3  UNL     1     -33.147  17.768  -2.526  1.00 20.00     0.170 C 
HETATM    4  C4  UNL     1     -35.219  16.560  -1.742  1.00 20.00     0.087 C 
HETATM    5  C5  UNL     1     -33.828  15.845  -3.827  1.00 20.00     0.058 C 
HETATM    6  C6  UNL     1     -33.193  14.577  -4.379  1.00 20.00     0.046 C 
HETATM    7  O9  UNL     1     -32.755  16.631  -3.289  1.00 20.00    -0.380 OA
HETATM    8 CL10 UNL     1     -36.474  17.631  -2.429  1.00 20.00    -0.125 Cl
ENDROOT
BRANCH   5   9
HETATM    9  C8  UNL     1     -34.491  16.587  -5.001  1.00 20.00     0.033 C 
HETATM   10  C7  UNL     1     -35.675  15.843  -5.517  1.00 20.00     0.008 C 
ENDBRANCH   5   9
TORSDOF 1
ENDMDL
