MODEL 1
REMARK VINA RESULT:      -3.5      0.000      0.000
REMARK  1 active torsions:
REMARK  status: ('A' for Active; 'I' for Inactive)
REMARK    1  A    between atoms: C4_4  and  S9_9 
ROOT
HETATM    1  C1  UNL     1     -33.363  17.671  -1.525  1.00 20.00     0.041 C 
HETATM    2  C2  UNL     1     -35.053  15.918  -2.113  1.00 20.00     0.052 C 
HETATM    3  C3  UNL     1     -32.817  17.538  -2.941  1.00 20.00     0.170 C 
HETATM    4  C4  UNL     1     -34.844  17.301  -1.491  1.00 20.00     0.049 C 
HETATM    5  C5  UNL     1     -34.409  15.811  -3.511  1.00 20.00     0.054 C 
HETATM    6  C6  UNL     1     -35.186  16.605  -4.570  1.00 20.00     0.045 C 
HETATM    7  C7  UNL     1     -34.382  14.336  -3.940  1.00 20.00     0.045 C 
HETATM    8  O8  UNL     1     -33.036  16.231  -3.464  1.00 20.00    -0.381 OA
ENDROOT
BRANCH   4   9
HETATM    9  S9  UNL     1     -35.458  17.326   0.226  1.00 20.00    -0.177 SA
HETATM   10  H23 UNL     1     -36.133  18.476   0.111  1.00 20.00     0.102 HD
ENDBRANCH   4   9
TORSDOF 1
ENDMDL
MODEL 2
REMARK VINA RESULT:      -3.4      2.152      2.591
REMARK  1 active torsions:
REMARK  status: ('A' for Active; 'I' for Inactive)
REMARK    1  A    between atoms: C4_4  and  S9_9 
ROOT
HETATM    1  C1  UNL     1     -33.105  15.918  -3.443  1.00 20.00     0.041 C 
HETATM    2  C2  UNL     1     -35.548  15.871  -3.993  1.00 20.00     0.052 C 
HETATM    3  C3  UNL     1     -32.942  14.683  -4.321  1.00 20.00     0.170 C 
HETATM    4  C4  UNL     1     -34.296  16.748  -3.913  1.00 20.00     0.049 C 
HETATM    5  C5  UNL     1     -35.304  14.593  -4.823  1.00 20.00     0.054 C 
HETATM    6  C6  UNL     1     -35.195  14.890  -6.326  1.00 20.00     0.045 C 
HETATM    7  C7  UNL     1     -36.477  13.624  -4.610  1.00 20.00     0.045 C 
HETATM    8  O8  UNL     1     -34.135  13.905  -4.353  1.00 20.00    -0.381 OA
ENDROOT
BRANCH   4   9
HETATM    9  S9  UNL     1     -34.573  18.149  -2.777  1.00 20.00    -0.177 SA
HETATM   10  H23 UNL     1     -35.380  17.485  -1.941  1.00 20.00     0.102 HD
ENDBRANCH   4   9
TORSDOF 1
ENDMDL
MODEL 3
REMARK VINA RESULT:      -3.4      2.335      3.679
REMARK  1 active torsions:
REMARK  status: ('A' for Active; 'I' for Inactive)
REMARK    1  A    between atoms: C4_4  and  S9_9 
ROOT
HETATM    1  C1  UNL     1     -35.048  15.801  -2.277  1.00 20.00     0.041 C 
HETATM    2  C2  UNL     1     -32.815  16.807  -2.800  1.00 20.00     0.052 C 
HETATM    3  C3  UNL     1     -35.300  16.984  -1.350  1.00 20.00     0.170 C 
HETATM    4  C4  UNL     1     -34.088  16.199  -3.395  1.00 20.00     0.049 C 
HETATM    5  C5  UNL     1     -33.129  17.945  -1.806  1.00 20.00     0.054 C 
HETATM    6  C6  UNL     1     -33.624  19.215  -2.515  1.00 20.00     0.045 C 
HETATM    7  C7  UNL     1     -31.854  18.297  -1.026  1.00 20.00     0.045 C 
HETATM    8  O8  UNL     1     -34.081  17.505  -0.826  1.00 20.00    -0.381 OA
ENDROOT
BRANCH   4   9
HETATM    9  S9  UNL     1     -33.679  14.746  -4.419  1.00 20.00    -0.177 SA
HETATM   10  H23 UNL     1     -33.954  13.836  -3.476  1.00 20.00     0.102 HD
ENDBRANCH   4   9
TORSDOF 1
ENDMDL
MODEL 4
REMARK VINA RESULT:      -3.4      3.034      3.881
REMARK  1 active torsions:
REMARK  status: ('A' for Active; 'I' for Inactive)
REMARK    1  A    between atoms: C4_4  and  S9_9 
ROOT
HETATM    1  C1  UNL     1     -37.091  14.810  -4.195  1.00 20.00     0.041 C 
HETATM    2  C2  UNL     1     -35.300  16.245  -5.200  1.00 20.00     0.052 C 
HETATM    3  C3  UNL     1     -36.254  13.596  -4.580  1.00 20.00     0.170 C 
HETATM    4  C4  UNL     1     -36.192  16.024  -3.975  1.00 20.00     0.049 C 
HETATM    5  C5  UNL     1     -34.539  14.962  -5.597  1.00 20.00     0.054 C 
HETATM    6  C6  UNL     1     -33.412  14.627  -4.609  1.00 20.00     0.045 C 
HETATM    7  C7  UNL     1     -33.916  15.158  -6.987  1.00 20.00     0.045 C 
HETATM    8  O8  UNL     1     -35.449  13.859  -5.726  1.00 20.00    -0.381 OA
ENDROOT
BRANCH   4   9
HETATM    9  S9  UNL     1     -37.207  17.505  -3.652  1.00 20.00    -0.177 SA
HETATM   10  H23 UNL     1     -37.945  17.407  -4.764  1.00 20.00     0.102 HD
ENDBRANCH   4   9
TORSDOF 1
ENDMDL
MODEL 5
REMARK VINA RESULT:      -3.4      2.596      3.874
REMARK  1 active torsions:
REMARK  status: ('A' for Active; 'I' for Inactive)
REMARK    1  A    between atoms: C4_4  and  S9_9 
ROOT
HETATM    1  C1  UNL     1     -33.991  15.089  -5.778  1.00 20.00     0.041 C 
HETATM    2  C2  UNL     1     -34.380  17.175  -4.446  1.00 20.00     0.052 C 
HETATM    3  C3  UNL     1     -33.436  14.452  -4.510  1.00 20.00     0.170 C 
HETATM    4  C4  UNL     1     -35.004  16.176  -5.425  1.00 20.00     0.049 C 
HETATM    5  C5  UNL     1     -33.760  16.471  -3.221  1.00 20.00     0.054 C 
HETATM    6  C6  UNL     1     -34.828  15.922  -2.265  1.00 20.00     0.045 C 
HETATM    7  C7  UNL     1     -32.895  17.478  -2.448  1.00 20.00     0.045 C 
HETATM    8  O8  UNL     1     -32.867  15.428  -3.642  1.00 20.00    -0.381 OA
ENDROOT
BRANCH   4   9
HETATM    9  S9  UNL     1     -35.560  17.031  -6.937  1.00 20.00    -0.177 SA
HETATM   10  H23 UNL     1     -35.392  18.270  -6.460  1.00 20.00     0.102 HD
ENDBRANCH   4   9
TORSDOF 1
ENDMDL
MODEL 6
REMARK VINA RESULT:      -3.3      1.529      2.083
REMARK  1 active torsions:
REMARK  status: ('A' for Active; 'I' for Inactive)
REMARK    1  A    between atoms: C4_4  and  S9_9 
ROOT
HETATM    1  C1  UNL     1     -35.732  17.655  -3.382  1.00 20.00     0.041 C 
HETATM    2  C2  UNL     1     -34.304  15.753  -2.598  1.00 20.00     0.052 C 
HETATM    3  C3  UNL     1     -35.772  16.986  -4.751  1.00 20.00     0.170 C 
HETATM    4  C4  UNL     1     -35.534  16.610  -2.287  1.00 20.00     0.049 C 
HETATM    5  C5  UNL     1     -34.355  15.167  -4.025  1.00 20.00     0.054 C 
HETATM    6  C6  UNL     1     -35.396  14.046  -4.155  1.00 20.00     0.045 C 
HETATM    7  C7  UNL     1     -32.978  14.587  -4.379  1.00 20.00     0.045 C 
HETATM    8  O8  UNL     1     -34.602  16.207  -4.984  1.00 20.00    -0.381 OA
ENDROOT
BRANCH   4   9
HETATM    9  S9  UNL     1     -35.347  17.426  -0.667  1.00 20.00    -0.177 SA
HETATM   10  H23 UNL     1     -35.566  18.668  -1.116  1.00 20.00     0.102 HD
ENDBRANCH   4   9
TORSDOF 1
ENDMDL
MODEL 7
REMARK VINA RESULT:      -3.3      2.716      4.065
REMARK  1 active torsions:
REMARK  status: ('A' for Active; 'I' for Inactive)
REMARK    1  A    between atoms: C4_4  and  S9_9 
ROOT
HETATM    1  C1  UNL     1     -36.140  14.408  -5.409  1.00 20.00     0.041 C 
HETATM    2  C2  UNL     1     -35.028  16.529  -4.676  1.00 20.00     0.052 C 
HETATM    3  C3  UNL     1     -35.530  13.733  -4.187  1.00 20.00     0.170 C 
HETATM    4  C4  UNL     1     -36.341  15.898  -5.147  1.00 20.00     0.049 C 
HETATM    5  C5  UNL     1     -34.411  15.759  -3.490  1.00 20.00     0.054 C 
HETATM    6  C6  UNL     1     -35.194  15.975  -2.187  1.00 20.00     0.045 C 
HETATM    7  C7  UNL     1     -32.971  16.245  -3.271  1.00 20.00     0.045 C 
HETATM    8  O8  UNL     1     -34.311  14.360  -3.799  1.00 20.00    -0.381 OA
ENDROOT
BRANCH   4   9
HETATM    9  S9  UNL     1     -36.939  16.727  -6.658  1.00 20.00    -0.177 SA
HETATM   10  H23 UNL     1     -37.782  17.556  -6.031  1.00 20.00     0.102 HD
ENDBRANCH   4   9
TORSDOF 1
ENDMDL
MODEL 8
REMARK VINA RESULT:      -3.2      2.970      3.991
REMARK  1 active torsions:
REMARK  status: ('A' for Active; 'I' for Inactive)
REMARK    1  A    between atoms: C4_4  and  S9_9 
ROOT
HETATM    1  C1  UNL     1     -35.138  14.159  -3.812  1.00 20.00     0.041 C 
HETATM    2  C2  UNL     1     -36.789  16.005  -3.441  1.00 20.00     0.052 C 
HETATM    3  C3  UNL     1     -36.108  13.573  -4.831  1.00 20.00     0.170 C 
HETATM    4  C4  UNL     1     -35.320  15.671  -3.715  1.00 20.00     0.049 C 
HETATM    5  C5  UNL     1     -37.734  15.320  -4.451  1.00 20.00     0.054 C 
HETATM    6  C6  UNL     1     -37.659  15.962  -5.843  1.00 20.00     0.045 C 
HETATM    7  C7  UNL     1     -39.180  15.439  -3.945  1.00 20.00     0.045 C 
HETATM    8  O8  UNL     1     -37.457  13.913  -4.522  1.00 20.00    -0.381 OA
ENDROOT
BRANCH   4   9
HETATM    9  S9  UNL     1     -34.257  16.349  -2.396  1.00 20.00    -0.177 SA
HETATM   10  H23 UNL     1     -34.543  17.634  -2.641  1.00 20.00     0.102 HD
ENDBRANCH   4   9
TORSDOF 1
ENDMDL
MODEL 9
REMARK VINA RESULT:      -3.2      1.728      2.545
REMARK  1 active torsions:
REMARK  status: ('A' for Active; 'I' for Inactive)
REMARK    1  A    between atoms: C4_4  and  S9_9 
ROOT
HETATM    1  C1  UNL     1     -34.411  17.059  -1.529  1.00 20.00     0.041 C 
HETATM    2  C2  UNL     1     -33.221  17.326  -3.717  1.00 20.00     0.052 C 
HETATM    3  C3  UNL     1     -35.172  15.894  -2.150  1.00 20.00     0.170 C 
HETATM    4  C4  UNL     1     -33.048  17.219  -2.199  1.00 20.00     0.049 C 
HETATM    5  C5  UNL     1     -34.069  16.168  -4.283  1.00 20.00     0.054 C 
HETATM    6  C6  UNL     1     -33.306  14.835  -4.280  1.00 20.00     0.045 C 
HETATM    7  C7  UNL     1     -34.459  16.494  -5.732  1.00 20.00     0.045 C 
HETATM    8  O8  UNL     1     -35.304  16.051  -3.560  1.00 20.00    -0.381 OA
ENDROOT
BRANCH   4   9
HETATM    9  S9  UNL     1     -32.200  18.698  -1.551  1.00 20.00    -0.177 SA
HETATM   10  H23 UNL     1     -32.556  19.509  -2.555  1.00 20.00     0.102 HD
ENDBRANCH   4   9
TORSDOF 1
ENDMDL
