MODEL 1
REMARK VINA RESULT:      -4.8      0.000      0.000
REMARK  2 active torsions:
REMARK  status: ('A' for Active; 'I' for Inactive)
REMARK    1  A    between atoms: C4_4  and  O10_10 
REMARK    2  A    between atoms: C5_5  and  C8_8 
ROOT
HETATM    1  C1  UNL     1     -21.860  18.011  10.456  1.00 20.00     0.058 C 
HETATM    2  C2  UNL     1     -24.333  17.865  10.053  1.00 20.00     0.069 C 
HETATM    3  C3  UNL     1     -22.130  17.577  11.888  1.00 20.00     0.171 C 
HETATM    4  C4  UNL     1     -22.947  17.507   9.515  1.00 20.00     0.123 C 
HETATM    5  C5  UNL     1     -24.525  17.553  11.555  1.00 20.00     0.059 C 
HETATM    6  C6  UNL     1     -24.782  16.083  11.822  1.00 20.00     0.046 C 
HETATM    7  O9  UNL     1     -23.410  18.020  12.331  1.00 20.00    -0.380 OA
ENDROOT
BRANCH   5   8
HETATM    8  C8  UNL     1     -25.742  18.349  12.066  1.00 20.00     0.033 C 
HETATM    9  C7  UNL     1     -26.277  19.259  11.014  1.00 20.00     0.008 C 
ENDBRANCH   5   8
BRANCH   4  10
HETATM   10  O10 UNL     1     -22.845  16.097   9.354  1.00 20.00    -0.395 OA
HETATM   11  H26 UNL     1     -21.948  15.849   9.630  1.00 20.00     0.210 HD
ENDBRANCH   4  10
TORSDOF 2
ENDMDL
MODEL 2
REMARK VINA RESULT:      -4.6     18.069     19.184
REMARK  2 active torsions:
REMARK  status: ('A' for Active; 'I' for Inactive)
REMARK    1  A    between atoms: C4_4  and  O10_10 
REMARK    2  A    between atoms: C5_5  and  C8_8 
ROOT
HETATM    1  C1  UNL     1     -36.414  14.825  -5.609  1.00 20.00     0.058 C 
HETATM    2  C2  UNL     1     -35.231  14.794  -3.395  1.00 20.00     0.069 C 
HETATM    3  C3  UNL     1     -35.079  15.176  -6.247  1.00 20.00     0.171 C 
HETATM    4  C4  UNL     1     -36.215  14.059  -4.306  1.00 20.00     0.123 C 
HETATM    5  C5  UNL     1     -33.949  15.276  -4.111  1.00 20.00     0.059 C 
HETATM    6  C6  UNL     1     -32.943  14.163  -4.328  1.00 20.00     0.046 C 
HETATM    7  O9  UNL     1     -34.259  15.926  -5.355  1.00 20.00    -0.380 OA
ENDROOT
BRANCH   5   8
HETATM    8  C8  UNL     1     -33.282  16.358  -3.240  1.00 20.00     0.033 C 
HETATM    9  C7  UNL     1     -34.098  16.662  -2.031  1.00 20.00     0.008 C 
ENDBRANCH   5   8
BRANCH   4  10
HETATM   10  O10 UNL     1     -35.733  12.748  -4.573  1.00 20.00    -0.395 OA
HETATM   11  H26 UNL     1     -35.727  12.275  -3.725  1.00 20.00     0.210 HD
ENDBRANCH   4  10
TORSDOF 2
ENDMDL
MODEL 3
REMARK VINA RESULT:      -4.2     18.335     19.468
REMARK  2 active torsions:
REMARK  status: ('A' for Active; 'I' for Inactive)
REMARK    1  A    between atoms: C4_4  and  O10_10 
REMARK    2  A    between atoms: C5_5  and  C8_8 
ROOT
HETATM    1  C1  UNL     1     -37.472  14.368  -4.434  1.00 20.00     0.058 C 
HETATM    2  C2  UNL     1     -35.024  14.139  -3.933  1.00 20.00     0.069 C 
HETATM    3  C3  UNL     1     -37.260  15.874  -4.473  1.00 20.00     0.171 C 
HETATM    4  C4  UNL     1     -36.188  13.624  -4.779  1.00 20.00     0.123 C 
HETATM    5  C5  UNL     1     -34.927  15.681  -3.867  1.00 20.00     0.059 C 
HETATM    6  C6  UNL     1     -34.313  16.285  -5.113  1.00 20.00     0.046 C 
HETATM    7  O9  UNL     1     -36.209  16.272  -3.598  1.00 20.00    -0.380 OA
ENDROOT
BRANCH   5   8
HETATM    8  C8  UNL     1     -34.040  16.062  -2.666  1.00 20.00     0.033 C 
HETATM    9  C7  UNL     1     -34.854  16.585  -1.533  1.00 20.00     0.008 C 
ENDBRANCH   5   8
BRANCH   4  10
HETATM   10  O10 UNL     1     -35.884  13.779  -6.160  1.00 20.00    -0.395 OA
HETATM   11  H26 UNL     1     -34.976  13.457  -6.283  1.00 20.00     0.210 HD
ENDBRANCH   4  10
TORSDOF 2
ENDMDL
MODEL 4
REMARK VINA RESULT:      -4.2      1.867      3.555
REMARK  2 active torsions:
REMARK  status: ('A' for Active; 'I' for Inactive)
REMARK    1  A    between atoms: C4_4  and  O10_10 
REMARK    2  A    between atoms: C5_5  and  C8_8 
ROOT
HETATM    1  C1  UNL     1     -23.772  16.824  12.235  1.00 20.00     0.058 C 
HETATM    2  C2  UNL     1     -23.491  16.472   9.765  1.00 20.00     0.069 C 
HETATM    3  C3  UNL     1     -22.867  18.040  12.102  1.00 20.00     0.171 C 
HETATM    4  C4  UNL     1     -24.489  16.527  10.923  1.00 20.00     0.123 C 
HETATM    5  C5  UNL     1     -22.483  17.643   9.747  1.00 20.00     0.059 C 
HETATM    6  C6  UNL     1     -23.079  18.923   9.196  1.00 20.00     0.046 C 
HETATM    7  O9  UNL     1     -21.921  17.868  11.050  1.00 20.00    -0.380 OA
ENDROOT
BRANCH   5   8
HETATM    8  C8  UNL     1     -21.294  17.248   8.851  1.00 20.00     0.033 C 
HETATM    9  C7  UNL     1     -21.635  17.375   7.406  1.00 20.00     0.008 C 
ENDBRANCH   5   8
BRANCH   4  10
HETATM   10  O10 UNL     1     -25.472  17.521  10.662  1.00 20.00    -0.395 OA
HETATM   11  H26 UNL     1     -26.238  17.308  11.219  1.00 20.00     0.210 HD
ENDBRANCH   4  10
TORSDOF 2
ENDMDL
MODEL 5
REMARK VINA RESULT:      -4.2     18.330     19.414
REMARK  2 active torsions:
REMARK  status: ('A' for Active; 'I' for Inactive)
REMARK    1  A    between atoms: C4_4  and  O10_10 
REMARK    2  A    between atoms: C5_5  and  C8_8 
ROOT
HETATM    1  C1  UNL     1     -36.212  16.054  -6.163  1.00 20.00     0.058 C 
HETATM    2  C2  UNL     1     -35.688  14.885  -4.005  1.00 20.00     0.069 C 
HETATM    3  C3  UNL     1     -34.762  16.511  -6.197  1.00 20.00     0.171 C 
HETATM    4  C4  UNL     1     -36.363  14.761  -5.372  1.00 20.00     0.123 C 
HETATM    5  C5  UNL     1     -34.270  15.499  -4.056  1.00 20.00     0.059 C 
HETATM    6  C6  UNL     1     -33.217  14.506  -4.505  1.00 20.00     0.046 C 
HETATM    7  O9  UNL     1     -34.241  16.675  -4.881  1.00 20.00    -0.380 OA
ENDROOT
BRANCH   5   8
HETATM    8  C8  UNL     1     -33.898  15.981  -2.641  1.00 20.00     0.033 C 
HETATM    9  C7  UNL     1     -35.112  16.277  -1.829  1.00 20.00     0.008 C 
ENDBRANCH   5   8
BRANCH   4  10
HETATM   10  O10 UNL     1     -35.793  13.673  -6.090  1.00 20.00    -0.395 OA
HETATM   11  H26 UNL     1     -36.312  12.885  -5.861  1.00 20.00     0.210 HD
ENDBRANCH   4  10
TORSDOF 2
ENDMDL
MODEL 6
REMARK VINA RESULT:      -4.2      1.272      3.573
REMARK  2 active torsions:
REMARK  status: ('A' for Active; 'I' for Inactive)
REMARK    1  A    between atoms: C4_4  and  O10_10 
REMARK    2  A    between atoms: C5_5  and  C8_8 
ROOT
HETATM    1  C1  UNL     1     -26.139  17.131  11.919  1.00 20.00     0.058 C 
HETATM    2  C2  UNL     1     -24.631  18.191  10.215  1.00 20.00     0.069 C 
HETATM    3  C3  UNL     1     -24.968  16.244  12.312  1.00 20.00     0.171 C 
HETATM    4  C4  UNL     1     -25.654  18.447  11.322  1.00 20.00     0.123 C 
HETATM    5  C5  UNL     1     -23.539  17.164  10.591  1.00 20.00     0.059 C 
HETATM    6  C6  UNL     1     -22.459  17.752  11.477  1.00 20.00     0.046 C 
HETATM    7  O9  UNL     1     -24.111  15.995  11.201  1.00 20.00    -0.380 OA
ENDROOT
BRANCH   5   8
HETATM    8  C8  UNL     1     -22.872  16.664   9.295  1.00 20.00     0.033 C 
HETATM    9  C7  UNL     1     -22.030  17.724   8.673  1.00 20.00     0.008 C 
ENDBRANCH   5   8
BRANCH   4  10
HETATM   10  O10 UNL     1     -25.073  19.263  12.332  1.00 20.00    -0.395 OA
HETATM   11  H26 UNL     1     -25.313  18.865  13.184  1.00 20.00     0.210 HD
ENDBRANCH   4  10
TORSDOF 2
ENDMDL
MODEL 7
REMARK VINA RESULT:      -4.1     17.814     18.863
REMARK  2 active torsions:
REMARK  status: ('A' for Active; 'I' for Inactive)
REMARK    1  A    between atoms: C4_4  and  O10_10 
REMARK    2  A    between atoms: C5_5  and  C8_8 
ROOT
HETATM    1  C1  UNL     1     -35.043  16.158  -6.485  1.00 20.00     0.058 C 
HETATM    2  C2  UNL     1     -34.855  14.673  -4.470  1.00 20.00     0.069 C 
HETATM    3  C3  UNL     1     -34.512  17.292  -5.622  1.00 20.00     0.171 C 
HETATM    4  C4  UNL     1     -34.569  14.805  -5.966  1.00 20.00     0.123 C 
HETATM    5  C5  UNL     1     -34.444  15.910  -3.639  1.00 20.00     0.059 C 
HETATM    6  C6  UNL     1     -32.954  15.967  -3.367  1.00 20.00     0.046 C 
HETATM    7  O9  UNL     1     -34.892  17.127  -4.259  1.00 20.00    -0.380 OA
ENDROOT
BRANCH   5   8
HETATM    8  C8  UNL     1     -35.174  15.849  -2.283  1.00 20.00     0.033 C 
HETATM    9  C7  UNL     1     -34.747  16.959  -1.385  1.00 20.00     0.008 C 
ENDBRANCH   5   8
BRANCH   4  10
HETATM   10  O10 UNL     1     -33.175  14.646  -6.204  1.00 20.00    -0.395 OA
HETATM   11  H26 UNL     1     -32.716  15.193  -5.547  1.00 20.00     0.210 HD
ENDBRANCH   4  10
TORSDOF 2
ENDMDL
MODEL 8
REMARK VINA RESULT:      -4.0     17.247     18.353
REMARK  2 active torsions:
REMARK  status: ('A' for Active; 'I' for Inactive)
REMARK    1  A    between atoms: C4_4  and  O10_10 
REMARK    2  A    between atoms: C5_5  and  C8_8 
ROOT
HETATM    1  C1  UNL     1     -34.665  13.725  -4.018  1.00 20.00     0.058 C 
HETATM    2  C2  UNL     1     -33.142  15.669  -3.570  1.00 20.00     0.069 C 
HETATM    3  C3  UNL     1     -35.806  14.724  -4.133  1.00 20.00     0.171 C 
HETATM    4  C4  UNL     1     -33.330  14.374  -4.362  1.00 20.00     0.123 C 
HETATM    5  C5  UNL     1     -34.378  16.596  -3.577  1.00 20.00     0.059 C 
HETATM    6  C6  UNL     1     -34.516  17.383  -4.865  1.00 20.00     0.046 C 
HETATM    7  O9  UNL     1     -35.583  15.861  -3.303  1.00 20.00    -0.380 OA
ENDROOT
BRANCH   5   8
HETATM    8  C8  UNL     1     -34.239  17.601  -2.418  1.00 20.00     0.033 C 
HETATM    9  C7  UNL     1     -34.820  17.062  -1.157  1.00 20.00     0.008 C 
ENDBRANCH   5   8
BRANCH   4  10
HETATM   10  O10 UNL     1     -33.259  14.649  -5.756  1.00 20.00    -0.395 OA
HETATM   11  H26 UNL     1     -34.166  14.602  -6.096  1.00 20.00     0.210 HD
ENDBRANCH   4  10
TORSDOF 2
ENDMDL
MODEL 9
REMARK VINA RESULT:      -4.0     18.500     19.463
REMARK  2 active torsions:
REMARK  status: ('A' for Active; 'I' for Inactive)
REMARK    1  A    between atoms: C4_4  and  O10_10 
REMARK    2  A    between atoms: C5_5  and  C8_8 
ROOT
HETATM    1  C1  UNL     1     -33.215  15.668  -3.535  1.00 20.00     0.058 C 
HETATM    2  C2  UNL     1     -34.372  15.026  -5.667  1.00 20.00     0.069 C 
HETATM    3  C3  UNL     1     -34.556  15.517  -2.834  1.00 20.00     0.171 C 
HETATM    4  C4  UNL     1     -33.146  14.797  -4.783  1.00 20.00     0.123 C 
HETATM    5  C5  UNL     1     -35.713  15.021  -4.899  1.00 20.00     0.059 C 
HETATM    6  C6  UNL     1     -36.194  13.623  -4.565  1.00 20.00     0.046 C 
HETATM    7  O9  UNL     1     -35.636  15.826  -3.711  1.00 20.00    -0.380 OA
ENDROOT
BRANCH   5   8
HETATM    8  C8  UNL     1     -36.782  15.695  -5.780  1.00 20.00     0.033 C 
HETATM    9  C7  UNL     1     -36.307  15.858  -7.183  1.00 20.00     0.008 C 
ENDBRANCH   5   8
BRANCH   4  10
HETATM   10  O10 UNL     1     -33.066  13.423  -4.421  1.00 20.00    -0.395 OA
HETATM   11  H26 UNL     1     -32.828  12.936  -5.227  1.00 20.00     0.210 HD
ENDBRANCH   4  10
TORSDOF 2
ENDMDL
