MODEL 1
REMARK VINA RESULT:      -4.0      0.000      0.000
REMARK  0 active torsions:
REMARK  status: ('A' for Active; 'I' for Inactive)
ROOT
HETATM    1  C1  UNL     1     -21.619  17.763  10.051  1.00 20.00     0.046 C 
HETATM    2  C2  UNL     1     -23.893  16.707   9.859  1.00 20.00     0.057 C 
HETATM    3  C3  UNL     1     -21.939  18.021  11.516  1.00 20.00     0.170 C 
HETATM    4  C4  UNL     1     -22.881  17.650   9.202  1.00 20.00     0.087 C 
HETATM    5  C5  UNL     1     -24.068  16.888  11.384  1.00 20.00     0.055 C 
HETATM    6  C6  UNL     1     -24.981  18.065  11.760  1.00 20.00     0.045 C 
HETATM    7  C7  UNL     1     -24.707  15.611  11.957  1.00 20.00     0.045 C 
HETATM    8  O8  UNL     1     -22.797  17.010  12.038  1.00 20.00    -0.381 OA
HETATM    9 CL9  UNL     1     -23.588  19.263   8.893  1.00 20.00    -0.125 Cl
ENDROOT
TORSDOF 0
ENDMDL
MODEL 2
REMARK VINA RESULT:      -4.0     18.424     19.307
REMARK  0 active torsions:
REMARK  status: ('A' for Active; 'I' for Inactive)
ROOT
HETATM    1  C1  UNL     1     -33.051  15.914  -3.802  1.00 20.00     0.046 C 
HETATM    2  C2  UNL     1     -35.341  16.226  -4.791  1.00 20.00     0.057 C 
HETATM    3  C3  UNL     1     -33.109  14.476  -4.296  1.00 20.00     0.170 C 
HETATM    4  C4  UNL     1     -34.442  16.500  -3.583  1.00 20.00     0.087 C 
HETATM    5  C5  UNL     1     -35.248  14.797  -5.372  1.00 20.00     0.055 C 
HETATM    6  C6  UNL     1     -36.063  13.761  -4.582  1.00 20.00     0.045 C 
HETATM    7  C7  UNL     1     -35.800  14.817  -6.808  1.00 20.00     0.045 C 
HETATM    8  O8  UNL     1     -33.882  14.376  -5.490  1.00 20.00    -0.381 OA
HETATM    9 CL9  UNL     1     -35.165  15.877  -2.070  1.00 20.00    -0.125 Cl
ENDROOT
TORSDOF 0
ENDMDL
MODEL 3
REMARK VINA RESULT:      -3.7     19.160     20.132
REMARK  0 active torsions:
REMARK  status: ('A' for Active; 'I' for Inactive)
ROOT
HETATM    1  C1  UNL     1     -35.299  13.337  -4.018  1.00 20.00     0.046 C 
HETATM    2  C2  UNL     1     -33.693  14.882  -5.183  1.00 20.00     0.057 C 
HETATM    3  C3  UNL     1     -36.364  13.823  -4.989  1.00 20.00     0.170 C 
HETATM    4  C4  UNL     1     -34.185  14.362  -3.830  1.00 20.00     0.087 C 
HETATM    5  C5  UNL     1     -34.804  15.208  -6.207  1.00 20.00     0.055 C 
HETATM    6  C6  UNL     1     -35.472  16.572  -5.972  1.00 20.00     0.045 C 
HETATM    7  C7  UNL     1     -34.178  15.240  -7.612  1.00 20.00     0.045 C 
HETATM    8  O8  UNL     1     -35.790  14.167  -6.247  1.00 20.00    -0.381 OA
HETATM    9 CL9  UNL     1     -34.722  15.697  -2.768  1.00 20.00    -0.125 Cl
ENDROOT
TORSDOF 0
ENDMDL
MODEL 4
REMARK VINA RESULT:      -3.7     17.611     18.481
REMARK  0 active torsions:
REMARK  status: ('A' for Active; 'I' for Inactive)
ROOT
HETATM    1  C1  UNL     1     -34.724  15.866  -5.676  1.00 20.00     0.046 C 
HETATM    2  C2  UNL     1     -33.282  15.424  -3.663  1.00 20.00     0.057 C 
HETATM    3  C3  UNL     1     -35.422  16.939  -4.854  1.00 20.00     0.170 C 
HETATM    4  C4  UNL     1     -34.095  14.790  -4.795  1.00 20.00     0.087 C 
HETATM    5  C5  UNL     1     -33.956  16.624  -2.959  1.00 20.00     0.055 C 
HETATM    6  C6  UNL     1     -35.008  16.210  -1.919  1.00 20.00     0.045 C 
HETATM    7  C7  UNL     1     -32.873  17.429  -2.222  1.00 20.00     0.045 C 
HETATM    8  O8  UNL     1     -34.525  17.529  -3.916  1.00 20.00    -0.381 OA
HETATM    9 CL9  UNL     1     -35.342  13.674  -4.165  1.00 20.00    -0.125 Cl
ENDROOT
TORSDOF 0
ENDMDL
MODEL 5
REMARK VINA RESULT:      -3.7     17.358     18.275
REMARK  0 active torsions:
REMARK  status: ('A' for Active; 'I' for Inactive)
ROOT
HETATM    1  C1  UNL     1     -34.705  14.091  -3.913  1.00 20.00     0.046 C 
HETATM    2  C2  UNL     1     -34.991  16.192  -2.561  1.00 20.00     0.057 C 
HETATM    3  C3  UNL     1     -33.476  14.740  -4.533  1.00 20.00     0.170 C 
HETATM    4  C4  UNL     1     -35.701  15.127  -3.401  1.00 20.00     0.087 C 
HETATM    5  C5  UNL     1     -33.655  16.707  -3.143  1.00 20.00     0.055 C 
HETATM    6  C6  UNL     1     -33.834  17.758  -4.250  1.00 20.00     0.045 C 
HETATM    7  C7  UNL     1     -32.852  17.368  -2.009  1.00 20.00     0.045 C 
HETATM    8  O8  UNL     1     -32.843  15.621  -3.609  1.00 20.00    -0.381 OA
HETATM    9 CL9  UNL     1     -36.614  15.856  -4.755  1.00 20.00    -0.125 Cl
ENDROOT
TORSDOF 0
ENDMDL
MODEL 6
REMARK VINA RESULT:      -3.6     17.491     18.386
REMARK  0 active torsions:
REMARK  status: ('A' for Active; 'I' for Inactive)
ROOT
HETATM    1  C1  UNL     1     -34.913  18.042  -3.547  1.00 20.00     0.046 C 
HETATM    2  C2  UNL     1     -34.848  15.734  -2.551  1.00 20.00     0.057 C 
HETATM    3  C3  UNL     1     -34.547  17.403  -4.878  1.00 20.00     0.170 C 
HETATM    4  C4  UNL     1     -34.450  17.200  -2.362  1.00 20.00     0.087 C 
HETATM    5  C5  UNL     1     -34.616  15.166  -3.970  1.00 20.00     0.055 C 
HETATM    6  C6  UNL     1     -33.158  14.762  -4.236  1.00 20.00     0.045 C 
HETATM    7  C7  UNL     1     -35.479  13.904  -4.137  1.00 20.00     0.045 C 
HETATM    8  O8  UNL     1     -35.074  16.082  -4.974  1.00 20.00    -0.381 OA
HETATM    9 CL9  UNL     1     -32.690  17.377  -2.105  1.00 20.00    -0.125 Cl
ENDROOT
TORSDOF 0
ENDMDL
MODEL 7
REMARK VINA RESULT:      -3.6     18.609     19.535
REMARK  0 active torsions:
REMARK  status: ('A' for Active; 'I' for Inactive)
ROOT
HETATM    1  C1  UNL     1     -36.380  15.061  -5.716  1.00 20.00     0.046 C 
HETATM    2  C2  UNL     1     -34.481  16.531  -4.972  1.00 20.00     0.057 C 
HETATM    3  C3  UNL     1     -35.874  14.023  -4.726  1.00 20.00     0.170 C 
HETATM    4  C4  UNL     1     -35.271  16.005  -6.172  1.00 20.00     0.087 C 
HETATM    5  C5  UNL     1     -34.129  15.474  -3.900  1.00 20.00     0.055 C 
HETATM    6  C6  UNL     1     -32.914  14.610  -4.269  1.00 20.00     0.045 C 
HETATM    7  C7  UNL     1     -33.791  16.204  -2.588  1.00 20.00     0.045 C 
HETATM    8  O8  UNL     1     -35.261  14.647  -3.600  1.00 20.00    -0.381 OA
HETATM    9 CL9  UNL     1     -34.204  15.205  -7.363  1.00 20.00    -0.125 Cl
ENDROOT
TORSDOF 0
ENDMDL
MODEL 8
REMARK VINA RESULT:      -3.5     18.737     19.623
REMARK  0 active torsions:
REMARK  status: ('A' for Active; 'I' for Inactive)
ROOT
HETATM    1  C1  UNL     1     -35.702  14.613  -6.177  1.00 20.00     0.046 C 
HETATM    2  C2  UNL     1     -34.935  14.422  -3.790  1.00 20.00     0.057 C 
HETATM    3  C3  UNL     1     -35.455  16.110  -6.064  1.00 20.00     0.170 C 
HETATM    4  C4  UNL     1     -35.976  13.975  -4.819  1.00 20.00     0.087 C 
HETATM    5  C5  UNL     1     -34.585  15.928  -3.818  1.00 20.00     0.055 C 
HETATM    6  C6  UNL     1     -35.617  16.809  -3.097  1.00 20.00     0.045 C 
HETATM    7  C7  UNL     1     -33.235  16.128  -3.108  1.00 20.00     0.045 C 
HETATM    8  O8  UNL     1     -34.386  16.386  -5.163  1.00 20.00    -0.381 OA
HETATM    9 CL9  UNL     1     -37.640  14.334  -4.272  1.00 20.00    -0.125 Cl
ENDROOT
TORSDOF 0
ENDMDL
MODEL 9
REMARK VINA RESULT:      -3.5     16.885     17.740
REMARK  0 active torsions:
REMARK  status: ('A' for Active; 'I' for Inactive)
ROOT
HETATM    1  C1  UNL     1     -33.785  17.367  -1.464  1.00 20.00     0.046 C 
HETATM    2  C2  UNL     1     -33.150  15.949  -3.441  1.00 20.00     0.057 C 
HETATM    3  C3  UNL     1     -35.235  17.022  -1.770  1.00 20.00     0.170 C 
HETATM    4  C4  UNL     1     -32.900  17.266  -2.703  1.00 20.00     0.087 C 
HETATM    5  C5  UNL     1     -34.635  15.546  -3.586  1.00 20.00     0.055 C 
HETATM    6  C6  UNL     1     -35.359  16.276  -4.727  1.00 20.00     0.045 C 
HETATM    7  C7  UNL     1     -34.705  14.039  -3.888  1.00 20.00     0.045 C 
HETATM    8  O8  UNL     1     -35.341  15.724  -2.349  1.00 20.00    -0.381 OA
HETATM    9 CL9  UNL     1     -33.141  18.677  -3.774  1.00 20.00    -0.125 Cl
ENDROOT
TORSDOF 0
ENDMDL
