MODEL 1
REMARK VINA RESULT:      -4.2      0.000      0.000
REMARK  1 active torsions:
REMARK  status: ('A' for Active; 'I' for Inactive)
REMARK    1  A    between atoms: C6_6  and  C7_7 
ROOT
HETATM    1  C3  UNL     1     -33.972   5.118   3.924  1.00 20.00     0.046 C 
HETATM    2  C4  UNL     1     -32.776   7.318   3.974  1.00 20.00     0.052 C 
HETATM    3  C5  UNL     1     -33.648   5.039   2.438  1.00 20.00     0.169 C 
HETATM    4  C7  UNL     1     -32.430   7.119   2.495  1.00 20.00     0.126 C 
HETATM    5  C8  UNL     1     -34.052   6.575   4.367  1.00 20.00     0.086 C 
HETATM    6  O9  UNL     1     -32.441   5.734   2.128  1.00 20.00    -0.385 OA
HETATM    7 CL10 UNL     1     -34.304   6.671   6.132  1.00 20.00    -0.125 Cl
ENDROOT
BRANCH   4   8
HETATM    8  C6  UNL     1     -33.280   7.940   1.564  1.00 20.00     0.015 A 
HETATM    9  C1  UNL     1     -32.827   9.307   1.133  1.00 20.00     0.007 A 
HETATM   10  C2  UNL     1     -32.840   8.174   0.146  1.00 20.00     0.007 A 
ENDBRANCH   4   8
TORSDOF 1
ENDMDL
MODEL 2
REMARK VINA RESULT:      -4.2     10.770     11.436
REMARK  1 active torsions:
REMARK  status: ('A' for Active; 'I' for Inactive)
REMARK    1  A    between atoms: C6_6  and  C7_7 
ROOT
HETATM    1  C3  UNL     1     -34.972  15.974  -2.215  1.00 20.00     0.046 C 
HETATM    2  C4  UNL     1     -32.998  15.657  -3.723  1.00 20.00     0.052 C 
HETATM    3  C5  UNL     1     -35.798  15.186  -3.223  1.00 20.00     0.169 C 
HETATM    4  C7  UNL     1     -33.885  14.811  -4.643  1.00 20.00     0.126 C 
HETATM    5  C8  UNL     1     -33.810  16.669  -2.918  1.00 20.00     0.086 C 
HETATM    6  O9  UNL     1     -34.996  14.245  -3.936  1.00 20.00    -0.385 OA
HETATM    7 CL10 UNL     1     -32.768  17.489  -1.723  1.00 20.00    -0.125 Cl
ENDROOT
BRANCH   4   8
HETATM    8  C6  UNL     1     -34.336  15.541  -5.879  1.00 20.00     0.015 A 
HETATM    9  C1  UNL     1     -33.871  15.091  -7.236  1.00 20.00     0.007 A 
HETATM   10  C2  UNL     1     -35.304  14.893  -6.828  1.00 20.00     0.007 A 
ENDBRANCH   4   8
TORSDOF 1
ENDMDL
MODEL 3
REMARK VINA RESULT:      -4.1     15.693     16.305
REMARK  1 active torsions:
REMARK  status: ('A' for Active; 'I' for Inactive)
REMARK    1  A    between atoms: C6_6  and  C7_7 
ROOT
HETATM    1  C3  UNL     1     -25.596  16.266  12.282  1.00 20.00     0.046 C 
HETATM    2  C4  UNL     1     -24.709  18.558  11.804  1.00 20.00     0.052 C 
HETATM    3  C5  UNL     1     -24.279  15.708  11.757  1.00 20.00     0.169 C 
HETATM    4  C7  UNL     1     -23.390  17.915  11.366  1.00 20.00     0.126 C 
HETATM    5  C8  UNL     1     -25.894  17.610  11.627  1.00 20.00     0.086 C 
HETATM    6  O9  UNL     1     -23.204  16.624  11.961  1.00 20.00    -0.385 OA
HETATM    7 CL10 UNL     1     -27.370  18.326  12.332  1.00 20.00    -0.125 Cl
ENDROOT
BRANCH   4   8
HETATM    8  C6  UNL     1     -23.216  17.860   9.873  1.00 20.00     0.015 A 
HETATM    9  C1  UNL     1     -22.036  18.528   9.223  1.00 20.00     0.007 A 
HETATM   10  C2  UNL     1     -22.118  17.028   9.269  1.00 20.00     0.007 A 
ENDBRANCH   4   8
TORSDOF 1
ENDMDL
MODEL 4
REMARK VINA RESULT:      -3.9     15.915     16.876
REMARK  1 active torsions:
REMARK  status: ('A' for Active; 'I' for Inactive)
REMARK    1  A    between atoms: C6_6  and  C7_7 
ROOT
HETATM    1  C3  UNL     1     -21.896  17.691  10.719  1.00 20.00     0.046 C 
HETATM    2  C4  UNL     1     -24.233  17.274   9.924  1.00 20.00     0.052 C 
HETATM    3  C5  UNL     1     -22.450  17.764  12.136  1.00 20.00     0.169 C 
HETATM    4  C7  UNL     1     -24.691  17.288  11.386  1.00 20.00     0.126 C 
HETATM    5  C8  UNL     1     -22.967  18.102   9.715  1.00 20.00     0.086 C 
HETATM    6  O9  UNL     1     -23.621  16.962  12.282  1.00 20.00    -0.385 OA
HETATM    7 CL10 UNL     1     -22.362  17.895   8.048  1.00 20.00    -0.125 Cl
ENDROOT
BRANCH   4   8
HETATM    8  C6  UNL     1     -25.374  18.566  11.789  1.00 20.00     0.015 A 
HETATM    9  C1  UNL     1     -26.395  19.198  10.884  1.00 20.00     0.007 A 
HETATM   10  C2  UNL     1     -26.827  18.559  12.174  1.00 20.00     0.007 A 
ENDBRANCH   4   8
TORSDOF 1
ENDMDL
MODEL 5
REMARK VINA RESULT:      -3.8     11.369     12.164
REMARK  1 active torsions:
REMARK  status: ('A' for Active; 'I' for Inactive)
REMARK    1  A    between atoms: C6_6  and  C7_7 
ROOT
HETATM    1  C3  UNL     1     -35.817  14.419  -6.045  1.00 20.00     0.046 C 
HETATM    2  C4  UNL     1     -34.512  16.457  -5.402  1.00 20.00     0.052 C 
HETATM    3  C5  UNL     1     -36.511  14.504  -4.692  1.00 20.00     0.169 C 
HETATM    4  C7  UNL     1     -35.313  16.511  -4.098  1.00 20.00     0.126 C 
HETATM    5  C8  UNL     1     -34.426  15.038  -5.962  1.00 20.00     0.086 C 
HETATM    6  O9  UNL     1     -36.579  15.850  -4.224  1.00 20.00    -0.385 OA
HETATM    7 CL10 UNL     1     -33.659  15.054  -7.574  1.00 20.00    -0.125 Cl
ENDROOT
BRANCH   4   8
HETATM    8  C6  UNL     1     -34.549  16.009  -2.903  1.00 20.00     0.015 A 
HETATM    9  C1  UNL     1     -33.766  16.966  -2.048  1.00 20.00     0.007 A 
HETATM   10  C2  UNL     1     -35.020  16.335  -1.513  1.00 20.00     0.007 A 
ENDBRANCH   4   8
TORSDOF 1
ENDMDL
MODEL 6
REMARK VINA RESULT:      -3.8     11.008     11.906
REMARK  1 active torsions:
REMARK  status: ('A' for Active; 'I' for Inactive)
REMARK    1  A    between atoms: C6_6  and  C7_7 
ROOT
HETATM    1  C3  UNL     1     -34.943  15.611  -2.732  1.00 20.00     0.046 C 
HETATM    2  C4  UNL     1     -33.133  17.167  -3.489  1.00 20.00     0.052 C 
HETATM    3  C5  UNL     1     -35.171  16.541  -1.548  1.00 20.00     0.169 C 
HETATM    4  C7  UNL     1     -33.482  18.083  -2.312  1.00 20.00     0.126 C 
HETATM    5  C8  UNL     1     -33.497  15.711  -3.207  1.00 20.00     0.086 C 
HETATM    6  O9  UNL     1     -34.831  17.890  -1.869  1.00 20.00    -0.385 OA
HETATM    7 CL10 UNL     1     -33.259  14.719  -4.672  1.00 20.00    -0.125 Cl
ENDROOT
BRANCH   4   8
HETATM    8  C6  UNL     1     -32.510  17.987  -1.168  1.00 20.00     0.015 A 
HETATM    9  C1  UNL     1     -31.728  19.196  -0.734  1.00 20.00     0.007 A 
HETATM   10  C2  UNL     1     -32.818  18.651   0.145  1.00 20.00     0.007 A 
ENDBRANCH   4   8
TORSDOF 1
ENDMDL
MODEL 7
REMARK VINA RESULT:      -3.7     11.406     12.654
REMARK  1 active torsions:
REMARK  status: ('A' for Active; 'I' for Inactive)
REMARK    1  A    between atoms: C6_6  and  C7_7 
ROOT
HETATM    1  C3  UNL     1     -35.280  15.522  -7.544  1.00 20.00     0.046 C 
HETATM    2  C4  UNL     1     -36.599  15.427  -5.417  1.00 20.00     0.052 C 
HETATM    3  C5  UNL     1     -34.051  15.135  -6.734  1.00 20.00     0.169 C 
HETATM    4  C7  UNL     1     -35.329  14.967  -4.696  1.00 20.00     0.126 C 
HETATM    5  C8  UNL     1     -36.281  16.258  -6.660  1.00 20.00     0.086 C 
HETATM    6  O9  UNL     1     -34.401  14.347  -5.596  1.00 20.00    -0.385 OA
HETATM    7 CL10 UNL     1     -37.776  16.602  -7.573  1.00 20.00    -0.125 Cl
ENDROOT
BRANCH   4   8
HETATM    8  C6  UNL     1     -34.670  16.052  -3.889  1.00 20.00     0.015 A 
HETATM    9  C1  UNL     1     -34.536  15.912  -2.398  1.00 20.00     0.007 A 
HETATM   10  C2  UNL     1     -33.317  15.822  -3.274  1.00 20.00     0.007 A 
ENDBRANCH   4   8
TORSDOF 1
ENDMDL
MODEL 8
REMARK VINA RESULT:      -3.7     10.727     11.350
REMARK  1 active torsions:
REMARK  status: ('A' for Active; 'I' for Inactive)
REMARK    1  A    between atoms: C6_6  and  C7_7 
ROOT
HETATM    1  C3  UNL     1     -33.884  17.998  -0.775  1.00 20.00     0.046 C 
HETATM    2  C4  UNL     1     -35.767  16.961  -2.059  1.00 20.00     0.052 C 
HETATM    3  C5  UNL     1     -32.954  17.573  -1.904  1.00 20.00     0.169 C 
HETATM    4  C7  UNL     1     -34.774  16.640  -3.181  1.00 20.00     0.126 C 
HETATM    5  C8  UNL     1     -35.080  17.056  -0.698  1.00 20.00     0.086 C 
HETATM    6  O9  UNL     1     -33.640  17.516  -3.154  1.00 20.00    -0.385 OA
HETATM    7 CL10 UNL     1     -36.235  17.624   0.539  1.00 20.00    -0.125 Cl
ENDROOT
BRANCH   4   8
HETATM    8  C6  UNL     1     -34.351  15.196  -3.213  1.00 20.00     0.015 A 
HETATM    9  C1  UNL     1     -34.864  14.280  -4.289  1.00 20.00     0.007 A 
HETATM   10  C2  UNL     1     -33.422  14.704  -4.288  1.00 20.00     0.007 A 
ENDBRANCH   4   8
TORSDOF 1
ENDMDL
MODEL 9
REMARK VINA RESULT:      -3.7     10.744     12.055
REMARK  1 active torsions:
REMARK  status: ('A' for Active; 'I' for Inactive)
REMARK    1  A    between atoms: C6_6  and  C7_7 
ROOT
HETATM    1  C3  UNL     1     -32.540  18.952  -2.579  1.00 20.00     0.046 C 
HETATM    2  C4  UNL     1     -33.943  17.149  -1.553  1.00 20.00     0.052 C 
HETATM    3  C5  UNL     1     -32.998  18.455  -3.944  1.00 20.00     0.169 C 
HETATM    4  C7  UNL     1     -34.410  16.766  -2.960  1.00 20.00     0.126 C 
HETATM    5  C8  UNL     1     -32.565  17.810  -1.569  1.00 20.00     0.086 C 
HETATM    6  O9  UNL     1     -34.295  17.862  -3.876  1.00 20.00    -0.385 OA
HETATM    7 CL10 UNL     1     -32.151  18.416   0.058  1.00 20.00    -0.125 Cl
ENDROOT
BRANCH   4   8
HETATM    8  C6  UNL     1     -33.744  15.529  -3.498  1.00 20.00     0.015 A 
HETATM    9  C1  UNL     1     -34.561  14.312  -3.831  1.00 20.00     0.007 A 
HETATM   10  C2  UNL     1     -33.943  15.126  -4.933  1.00 20.00     0.007 A 
ENDBRANCH   4   8
TORSDOF 1
ENDMDL
