MODEL 1
REMARK VINA RESULT:      -4.3      0.000      0.000
REMARK  2 active torsions:
REMARK  status: ('A' for Active; 'I' for Inactive)
REMARK    1  A    between atoms: C4_4  and  S10_10 
REMARK    2  A    between atoms: C5_5  and  C8_8 
ROOT
HETATM    1  C1  UNL     1     -22.424  18.514   9.004  1.00 20.00     0.041 C 
HETATM    2  C2  UNL     1     -24.784  18.518   9.842  1.00 20.00     0.052 C 
HETATM    3  C3  UNL     1     -22.037  17.758  10.268  1.00 20.00     0.170 C 
HETATM    4  C4  UNL     1     -23.881  18.229   8.642  1.00 20.00     0.049 C 
HETATM    5  C5  UNL     1     -24.301  17.795  11.117  1.00 20.00     0.058 C 
HETATM    6  C6  UNL     1     -24.554  16.282  11.058  1.00 20.00     0.046 C 
HETATM    7  O9  UNL     1     -22.911  18.070  11.352  1.00 20.00    -0.381 OA
ENDROOT
BRANCH   5   8
HETATM    8  C8  UNL     1     -25.051  18.360  12.332  1.00 20.00     0.033 C 
HETATM    9  C7  UNL     1     -26.176  19.243  11.913  1.00 20.00     0.008 C 
ENDBRANCH   5   8
BRANCH   4  10
HETATM   10  S10 UNL     1     -24.387  19.243   7.212  1.00 20.00    -0.177 SA
HETATM   11  H26 UNL     1     -23.162  19.714   6.943  1.00 20.00     0.102 HD
ENDBRANCH   4  10
TORSDOF 2
ENDMDL
MODEL 2
REMARK VINA RESULT:      -3.8      1.774      2.361
REMARK  2 active torsions:
REMARK  status: ('A' for Active; 'I' for Inactive)
REMARK    1  A    between atoms: C4_4  and  S10_10 
REMARK    2  A    between atoms: C5_5  and  C8_8 
ROOT
HETATM    1  C1  UNL     1     -23.750  18.796   8.559  1.00 20.00     0.041 C 
HETATM    2  C2  UNL     1     -23.153  16.845  10.012  1.00 20.00     0.052 C 
HETATM    3  C3  UNL     1     -24.684  19.263   9.668  1.00 20.00     0.170 C 
HETATM    4  C4  UNL     1     -22.601  17.977   9.143  1.00 20.00     0.049 C 
HETATM    5  C5  UNL     1     -24.156  17.361  11.065  1.00 20.00     0.058 C 
HETATM    6  C6  UNL     1     -23.464  18.136  12.195  1.00 20.00     0.046 C 
HETATM    7  O9  UNL     1     -25.168  18.166  10.440  1.00 20.00    -0.381 OA
ENDROOT
BRANCH   5   8
HETATM    8  C8  UNL     1     -24.895  16.166  11.685  1.00 20.00     0.033 C 
HETATM    9  C7  UNL     1     -26.169  16.591  12.332  1.00 20.00     0.008 C 
ENDBRANCH   5   8
BRANCH   4  10
HETATM   10  S10 UNL     1     -21.564  17.297   7.805  1.00 20.00    -0.177 SA
HETATM   11  H26 UNL     1     -22.582  16.991   6.990  1.00 20.00     0.102 HD
ENDBRANCH   4  10
TORSDOF 2
ENDMDL
MODEL 3
REMARK VINA RESULT:      -3.8     16.050     17.166
REMARK  2 active torsions:
REMARK  status: ('A' for Active; 'I' for Inactive)
REMARK    1  A    between atoms: C4_4  and  S10_10 
REMARK    2  A    between atoms: C5_5  and  C8_8 
ROOT
HETATM    1  C1  UNL     1     -33.365  17.615  -1.569  1.00 20.00     0.041 C 
HETATM    2  C2  UNL     1     -35.108  15.899  -2.108  1.00 20.00     0.052 C 
HETATM    3  C3  UNL     1     -32.839  17.443  -2.988  1.00 20.00     0.170 C 
HETATM    4  C4  UNL     1     -34.855  17.285  -1.513  1.00 20.00     0.049 C 
HETATM    5  C5  UNL     1     -34.483  15.749  -3.511  1.00 20.00     0.058 C 
HETATM    6  C6  UNL     1     -35.251  16.546  -4.575  1.00 20.00     0.046 C 
HETATM    7  O9  UNL     1     -33.099  16.132  -3.486  1.00 20.00    -0.381 OA
ENDROOT
BRANCH   5   8
HETATM    8  C8  UNL     1     -34.501  14.268  -3.915  1.00 20.00     0.033 C 
HETATM    9  C7  UNL     1     -35.859  13.841  -4.355  1.00 20.00     0.008 C 
ENDBRANCH   5   8
BRANCH   4  10
HETATM   10  S10 UNL     1     -35.454  17.352   0.209  1.00 20.00    -0.177 SA
HETATM   11  H26 UNL     1     -36.500  18.150  -0.045  1.00 20.00     0.102 HD
ENDBRANCH   4  10
TORSDOF 2
ENDMDL
MODEL 4
REMARK VINA RESULT:      -3.6     17.368     18.422
REMARK  2 active torsions:
REMARK  status: ('A' for Active; 'I' for Inactive)
REMARK    1  A    between atoms: C4_4  and  S10_10 
REMARK    2  A    between atoms: C5_5  and  C8_8 
ROOT
HETATM    1  C1  UNL     1     -36.068  14.325  -5.454  1.00 20.00     0.041 C 
HETATM    2  C2  UNL     1     -34.985  16.465  -4.731  1.00 20.00     0.052 C 
HETATM    3  C3  UNL     1     -35.486  13.676  -4.205  1.00 20.00     0.170 C 
HETATM    4  C4  UNL     1     -36.282  15.820  -5.223  1.00 20.00     0.049 C 
HETATM    5  C5  UNL     1     -34.393  15.720  -3.516  1.00 20.00     0.058 C 
HETATM    6  C6  UNL     1     -35.210  15.955  -2.237  1.00 20.00     0.046 C 
HETATM    7  O9  UNL     1     -34.279  14.316  -3.797  1.00 20.00    -0.381 OA
ENDROOT
BRANCH   5   8
HETATM    8  C8  UNL     1     -32.961  16.216  -3.269  1.00 20.00     0.033 C 
HETATM    9  C7  UNL     1     -32.932  17.309  -2.256  1.00 20.00     0.008 C 
ENDBRANCH   5   8
BRANCH   4  10
HETATM   10  S10 UNL     1     -36.844  16.624  -6.761  1.00 20.00    -0.177 SA
HETATM   11  H26 UNL     1     -35.764  17.404  -6.905  1.00 20.00     0.102 HD
ENDBRANCH   4  10
TORSDOF 2
ENDMDL
MODEL 5
REMARK VINA RESULT:      -3.6     14.718     15.842
REMARK  2 active torsions:
REMARK  status: ('A' for Active; 'I' for Inactive)
REMARK    1  A    between atoms: C4_4  and  S10_10 
REMARK    2  A    between atoms: C5_5  and  C8_8 
ROOT
HETATM    1  C1  UNL     1     -35.043  15.820  -2.260  1.00 20.00     0.041 C 
HETATM    2  C2  UNL     1     -32.808  16.806  -2.809  1.00 20.00     0.052 C 
HETATM    3  C3  UNL     1     -35.271  17.001  -1.326  1.00 20.00     0.170 C 
HETATM    4  C4  UNL     1     -34.093  16.212  -3.389  1.00 20.00     0.049 C 
HETATM    5  C5  UNL     1     -33.096  17.943  -1.807  1.00 20.00     0.058 C 
HETATM    6  C6  UNL     1     -33.588  19.219  -2.504  1.00 20.00     0.046 C 
HETATM    7  O9  UNL     1     -34.040  17.508  -0.815  1.00 20.00    -0.381 OA
ENDROOT
BRANCH   5   8
HETATM    8  C8  UNL     1     -31.809  18.279  -1.041  1.00 20.00     0.033 C 
HETATM    9  C7  UNL     1     -32.090  18.570   0.393  1.00 20.00     0.008 C 
ENDBRANCH   5   8
BRANCH   4  10
HETATM   10  S10 UNL     1     -33.707  14.761  -4.425  1.00 20.00    -0.177 SA
HETATM   11  H26 UNL     1     -32.686  15.331  -5.078  1.00 20.00     0.102 HD
ENDBRANCH   4  10
TORSDOF 2
ENDMDL
MODEL 6
REMARK VINA RESULT:      -3.6     17.484     18.527
REMARK  2 active torsions:
REMARK  status: ('A' for Active; 'I' for Inactive)
REMARK    1  A    between atoms: C4_4  and  S10_10 
REMARK    2  A    between atoms: C5_5  and  C8_8 
ROOT
HETATM    1  C1  UNL     1     -36.252  16.086  -5.823  1.00 20.00     0.041 C 
HETATM    2  C2  UNL     1     -35.489  15.351  -3.554  1.00 20.00     0.052 C 
HETATM    3  C3  UNL     1     -34.801  16.425  -6.139  1.00 20.00     0.170 C 
HETATM    4  C4  UNL     1     -36.322  14.973  -4.780  1.00 20.00     0.049 C 
HETATM    5  C5  UNL     1     -34.052  15.766  -3.936  1.00 20.00     0.058 C 
HETATM    6  C6  UNL     1     -33.199  14.566  -4.373  1.00 20.00     0.046 C 
HETATM    7  O9  UNL     1     -34.077  16.772  -4.960  1.00 20.00    -0.381 OA
ENDROOT
BRANCH   5   8
HETATM    8  C8  UNL     1     -33.376  16.419  -2.722  1.00 20.00     0.033 C 
HETATM    9  C7  UNL     1     -34.378  16.824  -1.695  1.00 20.00     0.008 C 
ENDBRANCH   5   8
BRANCH   4  10
HETATM   10  S10 UNL     1     -38.054  14.666  -4.296  1.00 20.00    -0.177 SA
HETATM   11  H26 UNL     1     -37.967  13.329  -4.335  1.00 20.00     0.102 HD
ENDBRANCH   4  10
TORSDOF 2
ENDMDL
MODEL 7
REMARK VINA RESULT:      -3.5     17.593     18.700
REMARK  2 active torsions:
REMARK  status: ('A' for Active; 'I' for Inactive)
REMARK    1  A    between atoms: C4_4  and  S10_10 
REMARK    2  A    between atoms: C5_5  and  C8_8 
ROOT
HETATM    1  C1  UNL     1     -33.085  16.060  -3.423  1.00 20.00     0.041 C 
HETATM    2  C2  UNL     1     -35.150  16.312  -4.818  1.00 20.00     0.052 C 
HETATM    3  C3  UNL     1     -32.786  14.784  -4.199  1.00 20.00     0.170 C 
HETATM    4  C4  UNL     1     -33.906  17.021  -4.280  1.00 20.00     0.049 C 
HETATM    5  C5  UNL     1     -34.799  14.984  -5.523  1.00 20.00     0.058 C 
HETATM    6  C6  UNL     1     -34.117  15.210  -6.880  1.00 20.00     0.046 C 
HETATM    7  O9  UNL     1     -33.981  14.167  -4.671  1.00 20.00    -0.381 OA
ENDROOT
BRANCH   5   8
HETATM    8  C8  UNL     1     -36.088  14.184  -5.760  1.00 20.00     0.033 C 
HETATM    9  C7  UNL     1     -36.899  14.078  -4.514  1.00 20.00     0.008 C 
ENDBRANCH   5   8
BRANCH   4  10
HETATM   10  S10 UNL     1     -34.386  18.486  -3.305  1.00 20.00    -0.177 SA
HETATM   11  H26 UNL     1     -35.616  18.047  -3.003  1.00 20.00     0.102 HD
ENDBRANCH   4  10
TORSDOF 2
ENDMDL
MODEL 8
REMARK VINA RESULT:      -3.5     18.482     19.679
REMARK  2 active torsions:
REMARK  status: ('A' for Active; 'I' for Inactive)
REMARK    1  A    between atoms: C4_4  and  S10_10 
REMARK    2  A    between atoms: C5_5  and  C8_8 
ROOT
HETATM    1  C1  UNL     1     -37.081  14.859  -4.206  1.00 20.00     0.041 C 
HETATM    2  C2  UNL     1     -35.224  16.234  -5.173  1.00 20.00     0.052 C 
HETATM    3  C3  UNL     1     -36.265  13.619  -4.551  1.00 20.00     0.170 C 
HETATM    4  C4  UNL     1     -36.157  16.053  -3.974  1.00 20.00     0.049 C 
HETATM    5  C5  UNL     1     -34.485  14.928  -5.533  1.00 20.00     0.058 C 
HETATM    6  C6  UNL     1     -33.398  14.576  -4.507  1.00 20.00     0.046 C 
HETATM    7  O9  UNL     1     -35.419  13.847  -5.676  1.00 20.00    -0.381 OA
ENDROOT
BRANCH   5   8
HETATM    8  C8  UNL     1     -33.816  15.090  -6.905  1.00 20.00     0.033 C 
HETATM    9  C7  UNL     1     -34.346  16.279  -7.632  1.00 20.00     0.008 C 
ENDBRANCH   5   8
BRANCH   4  10
HETATM   10  S10 UNL     1     -37.137  17.567  -3.702  1.00 20.00    -0.177 SA
HETATM   11  H26 UNL     1     -36.113  18.418  -3.851  1.00 20.00     0.102 HD
ENDBRANCH   4  10
TORSDOF 2
ENDMDL
MODEL 9
REMARK VINA RESULT:      -3.5     18.203     19.213
REMARK  2 active torsions:
REMARK  status: ('A' for Active; 'I' for Inactive)
REMARK    1  A    between atoms: C4_4  and  S10_10 
REMARK    2  A    between atoms: C5_5  and  C8_8 
ROOT
HETATM    1  C1  UNL     1     -35.103  16.081  -7.049  1.00 20.00     0.041 C 
HETATM    2  C2  UNL     1     -36.109  16.179  -4.758  1.00 20.00     0.052 C 
HETATM    3  C3  UNL     1     -34.115  15.055  -6.509  1.00 20.00     0.170 C 
HETATM    4  C4  UNL     1     -36.404  16.034  -6.252  1.00 20.00     0.049 C 
HETATM    5  C5  UNL     1     -35.041  15.173  -4.279  1.00 20.00     0.058 C 
HETATM    6  C6  UNL     1     -35.583  13.737  -4.219  1.00 20.00     0.046 C 
HETATM    7  O9  UNL     1     -33.876  15.243  -5.116  1.00 20.00    -0.381 OA
ENDROOT
BRANCH   5   8
HETATM    8  C8  UNL     1     -34.571  15.568  -2.872  1.00 20.00     0.033 C 
HETATM    9  C7  UNL     1     -33.306  16.355  -2.923  1.00 20.00     0.008 C 
ENDBRANCH   5   8
BRANCH   4  10
HETATM   10  S10 UNL     1     -37.533  17.357  -6.804  1.00 20.00    -0.177 SA
HETATM   11  H26 UNL     1     -36.808  17.713  -7.872  1.00 20.00     0.102 HD
ENDBRANCH   4  10
TORSDOF 2
ENDMDL
