MODEL 1
REMARK VINA RESULT:      -3.6      0.000      0.000
REMARK  1 active torsions:
REMARK  status: ('A' for Active; 'I' for Inactive)
REMARK    1  A    between atoms: C4_4  and  C5_5 
ROOT
HETATM    1  C1  UNL     1     -33.303   6.880   4.887  1.00 20.00     0.016 C 
HETATM    2  C2  UNL     1     -34.522   6.208   5.495  1.00 20.00     0.074 C 
HETATM    3  C3  UNL     1     -33.710   5.248   3.122  1.00 20.00     0.079 C 
HETATM    4  C4  UNL     1     -33.431   6.728   3.372  1.00 20.00     0.005 C 
HETATM    5  S6  UNL     1     -34.800   4.733   4.478  1.00 20.00    -0.169 SA
ENDROOT
BRANCH   4   6
HETATM    6  C5  UNL     1     -32.203   7.198   2.650  1.00 20.00     0.090 C 
HETATM    7 BR7  UNL     1     -32.727   8.241   1.103  1.00 20.00    -0.096 Br
ENDBRANCH   4   6
TORSDOF 1
ENDMDL
MODEL 2
REMARK VINA RESULT:      -3.3     15.554     16.082
REMARK  1 active torsions:
REMARK  status: ('A' for Active; 'I' for Inactive)
REMARK    1  A    between atoms: C4_4  and  C5_5 
ROOT
HETATM    1  C1  UNL     1     -24.059  16.451  10.436  1.00 20.00     0.016 C 
HETATM    2  C2  UNL     1     -24.596  15.896  11.744  1.00 20.00     0.074 C 
HETATM    3  C3  UNL     1     -25.289  18.426  11.166  1.00 20.00     0.079 C 
HETATM    4  C4  UNL     1     -23.940  17.964  10.620  1.00 20.00     0.005 C 
HETATM    5  S6  UNL     1     -25.816  17.115  12.304  1.00 20.00    -0.169 SA
ENDROOT
BRANCH   4   6
HETATM    6  C5  UNL     1     -23.582  18.663   9.342  1.00 20.00     0.090 C 
HETATM    7 BR7  UNL     1     -22.341  17.566   8.336  1.00 20.00    -0.096 Br
ENDBRANCH   4   6
TORSDOF 1
ENDMDL
MODEL 3
REMARK VINA RESULT:      -3.2      1.455      1.907
REMARK  1 active torsions:
REMARK  status: ('A' for Active; 'I' for Inactive)
REMARK    1  A    between atoms: C4_4  and  C5_5 
ROOT
HETATM    1  C1  UNL     1     -34.801   4.982   4.113  1.00 20.00     0.016 C 
HETATM    2  C2  UNL     1     -34.908   5.079   5.625  1.00 20.00     0.074 C 
HETATM    3  C3  UNL     1     -33.355   6.919   4.435  1.00 20.00     0.079 C 
HETATM    4  C4  UNL     1     -33.440   5.565   3.733  1.00 20.00     0.005 C 
HETATM    5  S6  UNL     1     -34.149   6.670   6.048  1.00 20.00    -0.169 SA
ENDROOT
BRANCH   4   6
HETATM    6  C5  UNL     1     -33.273   5.690   2.248  1.00 20.00     0.090 C 
HETATM    7 BR7  UNL     1     -32.526   7.430   1.831  1.00 20.00    -0.096 Br
ENDBRANCH   4   6
TORSDOF 1
ENDMDL
MODEL 4
REMARK VINA RESULT:      -3.1     16.400     16.619
REMARK  1 active torsions:
REMARK  status: ('A' for Active; 'I' for Inactive)
REMARK    1  A    between atoms: C4_4  and  C5_5 
ROOT
HETATM    1  C1  UNL     1     -24.631  18.268  10.281  1.00 20.00     0.016 C 
HETATM    2  C2  UNL     1     -24.643  17.819  11.731  1.00 20.00     0.074 C 
HETATM    3  C3  UNL     1     -22.240  17.865  10.533  1.00 20.00     0.079 C 
HETATM    4  C4  UNL     1     -23.433  17.585   9.622  1.00 20.00     0.005 C 
HETATM    5  S6  UNL     1     -22.898  17.771  12.221  1.00 20.00    -0.169 SA
ENDROOT
BRANCH   4   6
HETATM    6  C5  UNL     1     -23.200  18.077   8.224  1.00 20.00     0.090 C 
HETATM    7 BR7  UNL     1     -24.752  19.072   7.626  1.00 20.00    -0.096 Br
ENDBRANCH   4   6
TORSDOF 1
ENDMDL
MODEL 5
REMARK VINA RESULT:      -3.1     11.614     11.980
REMARK  1 active torsions:
REMARK  status: ('A' for Active; 'I' for Inactive)
REMARK    1  A    between atoms: C4_4  and  C5_5 
ROOT
HETATM    1  C1  UNL     1     -33.373  15.761  -3.409  1.00 20.00     0.016 C 
HETATM    2  C2  UNL     1     -33.417  14.744  -4.536  1.00 20.00     0.074 C 
HETATM    3  C3  UNL     1     -35.793  15.666  -3.689  1.00 20.00     0.079 C 
HETATM    4  C4  UNL     1     -34.686  15.617  -2.639  1.00 20.00     0.005 C 
HETATM    5  S6  UNL     1     -35.134  14.765  -5.120  1.00 20.00    -0.169 SA
ENDROOT
BRANCH   4   6
HETATM    6  C5  UNL     1     -34.851  16.684  -1.598  1.00 20.00     0.090 C 
HETATM    7 BR7  UNL     1     -33.258  17.786  -1.550  1.00 20.00    -0.096 Br
ENDBRANCH   4   6
TORSDOF 1
ENDMDL
MODEL 6
REMARK VINA RESULT:      -3.1     16.074     16.492
REMARK  1 active torsions:
REMARK  status: ('A' for Active; 'I' for Inactive)
REMARK    1  A    between atoms: C4_4  and  C5_5 
ROOT
HETATM    1  C1  UNL     1     -24.677  18.755   9.645  1.00 20.00     0.016 C 
HETATM    2  C2  UNL     1     -23.386  18.716   8.846  1.00 20.00     0.074 C 
HETATM    3  C3  UNL     1     -23.758  16.698  10.579  1.00 20.00     0.079 C 
HETATM    4  C4  UNL     1     -24.397  18.031  10.962  1.00 20.00     0.005 C 
HETATM    5  S6  UNL     1     -22.687  17.073   9.162  1.00 20.00    -0.169 SA
ENDROOT
BRANCH   4   6
HETATM    6  C5  UNL     1     -25.641  17.844  11.780  1.00 20.00     0.090 C 
HETATM    7 BR7  UNL     1     -26.897  19.262  11.371  1.00 20.00    -0.096 Br
ENDBRANCH   4   6
TORSDOF 1
ENDMDL
MODEL 7
REMARK VINA RESULT:      -3.0     11.736     12.065
REMARK  1 active torsions:
REMARK  status: ('A' for Active; 'I' for Inactive)
REMARK    1  A    between atoms: C4_4  and  C5_5 
ROOT
HETATM    1  C1  UNL     1     -34.989  15.989  -2.232  1.00 20.00     0.016 C 
HETATM    2  C2  UNL     1     -34.869  17.064  -1.166  1.00 20.00     0.074 C 
HETATM    3  C3  UNL     1     -33.293  17.361  -3.321  1.00 20.00     0.079 C 
HETATM    4  C4  UNL     1     -33.636  15.923  -2.940  1.00 20.00     0.005 C 
HETATM    5  S6  UNL     1     -33.874  18.373  -1.930  1.00 20.00    -0.169 SA
ENDROOT
BRANCH   4   6
HETATM    6  C5  UNL     1     -33.668  15.018  -4.137  1.00 20.00     0.090 C 
HETATM    7 BR7  UNL     1     -35.384  14.123  -4.219  1.00 20.00    -0.096 Br
ENDBRANCH   4   6
TORSDOF 1
ENDMDL
MODEL 8
REMARK VINA RESULT:      -3.0      9.640      9.966
REMARK  1 active torsions:
REMARK  status: ('A' for Active; 'I' for Inactive)
REMARK    1  A    between atoms: C4_4  and  C5_5 
ROOT
HETATM    1  C1  UNL     1     -41.264   7.482   0.404  1.00 20.00     0.016 C 
HETATM    2  C2  UNL     1     -41.855   8.881   0.384  1.00 20.00     0.074 C 
HETATM    3  C3  UNL     1     -42.973   7.108  -1.295  1.00 20.00     0.079 C 
HETATM    4  C4  UNL     1     -41.493   6.892  -0.988  1.00 20.00     0.005 C 
HETATM    5  S6  UNL     1     -43.372   8.736  -0.600  1.00 20.00    -0.169 SA
ENDROOT
BRANCH   4   6
HETATM    6  C5  UNL     1     -41.111   5.443  -1.058  1.00 20.00     0.090 C 
HETATM    7 BR7  UNL     1     -42.572   4.430  -1.827  1.00 20.00    -0.096 Br
ENDBRANCH   4   6
TORSDOF 1
ENDMDL
MODEL 9
REMARK VINA RESULT:      -3.0     11.583     11.874
REMARK  1 active torsions:
REMARK  status: ('A' for Active; 'I' for Inactive)
REMARK    1  A    between atoms: C4_4  and  C5_5 
ROOT
HETATM    1  C1  UNL     1     -35.562  15.735  -2.791  1.00 20.00     0.016 C 
HETATM    2  C2  UNL     1     -34.474  16.463  -2.021  1.00 20.00     0.074 C 
HETATM    3  C3  UNL     1     -33.708  15.278  -4.306  1.00 20.00     0.079 C 
HETATM    4  C4  UNL     1     -34.872  14.617  -3.571  1.00 20.00     0.005 C 
HETATM    5  S6  UNL     1     -33.056  16.516  -3.151  1.00 20.00    -0.169 SA
ENDROOT
BRANCH   4   6
HETATM    6  C5  UNL     1     -35.810  13.922  -4.514  1.00 20.00     0.090 C 
HETATM    7 BR7  UNL     1     -35.652  14.714  -6.275  1.00 20.00    -0.096 Br
ENDBRANCH   4   6
TORSDOF 1
ENDMDL
