MODEL 1
REMARK VINA RESULT:      -4.2      0.000      0.000
REMARK  0 active torsions:
REMARK  status: ('A' for Active; 'I' for Inactive)
ROOT
HETATM    1  C1  UNL     1     -21.914  17.868  10.909  1.00 20.00     0.066 C 
HETATM    2  C2  UNL     1     -24.192  18.345   9.911  1.00 20.00     0.071 C 
HETATM    3  C3  UNL     1     -22.645  17.470  12.187  1.00 20.00     0.171 C 
HETATM    4  C4  UNL     1     -22.279  17.490   8.355  1.00 20.00     0.207 A 
HETATM    5  C5  UNL     1     -24.784  17.911  11.257  1.00 20.00     0.120 C 
HETATM    6  C6  UNL     1     -22.836  17.729   9.736  1.00 20.00     0.086 A 
HETATM    7  C7  UNL     1     -26.085  18.648  11.546  1.00 20.00     0.039 C 
HETATM    8  O8  UNL     1     -23.864  18.210  12.318  1.00 20.00    -0.386 OA
HETATM    9  O9  UNL     1     -22.846  16.426   9.138  1.00 20.00    -0.375 OA
ENDROOT
TORSDOF 0
ENDMDL
MODEL 2
REMARK VINA RESULT:      -4.0      1.700      2.358
REMARK  0 active torsions:
REMARK  status: ('A' for Active; 'I' for Inactive)
ROOT
HETATM    1  C1  UNL     1     -24.048  18.422   8.212  1.00 20.00     0.066 C 
HETATM    2  C2  UNL     1     -23.185  17.101  10.192  1.00 20.00     0.071 C 
HETATM    3  C3  UNL     1     -24.830  19.263   9.216  1.00 20.00     0.171 C 
HETATM    4  C4  UNL     1     -21.652  17.399   8.101  1.00 20.00     0.207 A 
HETATM    5  C5  UNL     1     -24.022  18.031  11.077  1.00 20.00     0.120 C 
HETATM    6  C6  UNL     1     -22.876  17.785   8.894  1.00 20.00     0.086 A 
HETATM    7  C7  UNL     1     -24.497  17.312  12.332  1.00 20.00     0.039 C 
HETATM    8  O8  UNL     1     -25.183  18.478  10.360  1.00 20.00    -0.386 OA
HETATM    9  O9  UNL     1     -21.688  18.586   8.911  1.00 20.00    -0.375 OA
ENDROOT
TORSDOF 0
ENDMDL
MODEL 3
REMARK VINA RESULT:      -4.0     17.474     18.421
REMARK  0 active torsions:
REMARK  status: ('A' for Active; 'I' for Inactive)
ROOT
HETATM    1  C1  UNL     1     -33.914  14.971  -5.032  1.00 20.00     0.066 C 
HETATM    2  C2  UNL     1     -35.714  15.499  -3.333  1.00 20.00     0.071 C 
HETATM    3  C3  UNL     1     -32.900  15.276  -3.935  1.00 20.00     0.171 C 
HETATM    4  C4  UNL     1     -36.191  13.708  -5.170  1.00 20.00     0.207 A 
HETATM    5  C5  UNL     1     -34.582  15.769  -2.335  1.00 20.00     0.120 C 
HETATM    6  C6  UNL     1     -35.224  14.585  -4.415  1.00 20.00     0.086 A 
HETATM    7  C7  UNL     1     -34.991  16.823  -1.315  1.00 20.00     0.039 C 
HETATM    8  O8  UNL     1     -33.422  16.253  -3.028  1.00 20.00    -0.386 OA
HETATM    9  O9  UNL     1     -35.356  13.189  -4.122  1.00 20.00    -0.375 OA
ENDROOT
TORSDOF 0
ENDMDL
MODEL 4
REMARK VINA RESULT:      -3.8     19.025     20.078
REMARK  0 active torsions:
REMARK  status: ('A' for Active; 'I' for Inactive)
ROOT
HETATM    1  C1  UNL     1     -36.683  15.424  -5.981  1.00 20.00     0.066 C 
HETATM    2  C2  UNL     1     -36.223  15.597  -3.497  1.00 20.00     0.071 C 
HETATM    3  C3  UNL     1     -35.207  15.078  -6.149  1.00 20.00     0.171 C 
HETATM    4  C4  UNL     1     -38.569  14.784  -4.298  1.00 20.00     0.207 A 
HETATM    5  C5  UNL     1     -34.769  15.235  -3.821  1.00 20.00     0.120 C 
HETATM    6  C6  UNL     1     -37.122  15.095  -4.586  1.00 20.00     0.086 A 
HETATM    7  C7  UNL     1     -33.810  15.872  -2.825  1.00 20.00     0.039 C 
HETATM    8  O8  UNL     1     -34.425  15.712  -5.131  1.00 20.00    -0.386 OA
HETATM    9  O9  UNL     1     -37.579  13.748  -4.408  1.00 20.00    -0.375 OA
ENDROOT
TORSDOF 0
ENDMDL
MODEL 5
REMARK VINA RESULT:      -3.7     16.500     17.331
REMARK  0 active torsions:
REMARK  status: ('A' for Active; 'I' for Inactive)
ROOT
HETATM    1  C1  UNL     1     -34.807   4.774   4.294  1.00 20.00     0.066 C 
HETATM    2  C2  UNL     1     -33.754   7.063   4.036  1.00 20.00     0.071 C 
HETATM    3  C3  UNL     1     -33.828   4.292   3.229  1.00 20.00     0.171 C 
HETATM    4  C4  UNL     1     -34.680   6.349   6.369  1.00 20.00     0.207 A 
HETATM    5  C5  UNL     1     -32.834   6.433   2.984  1.00 20.00     0.120 C 
HETATM    6  C6  UNL     1     -34.261   5.998   4.964  1.00 20.00     0.086 A 
HETATM    7  C7  UNL     1     -32.434   7.452   1.926  1.00 20.00     0.039 C 
HETATM    8  O8  UNL     1     -33.510   5.353   2.322  1.00 20.00    -0.386 OA
HETATM    9  O9  UNL     1     -33.411   5.734   6.087  1.00 20.00    -0.375 OA
ENDROOT
TORSDOF 0
ENDMDL
MODEL 6
REMARK VINA RESULT:      -3.7     18.991     20.054
REMARK  0 active torsions:
REMARK  status: ('A' for Active; 'I' for Inactive)
ROOT
HETATM    1  C1  UNL     1     -35.431  14.529  -3.765  1.00 20.00     0.066 C 
HETATM    2  C2  UNL     1     -34.599  15.609  -5.899  1.00 20.00     0.071 C 
HETATM    3  C3  UNL     1     -36.374  13.712  -4.641  1.00 20.00     0.171 C 
HETATM    4  C4  UNL     1     -32.941  15.290  -3.910  1.00 20.00     0.207 A 
HETATM    5  C5  UNL     1     -35.597  14.717  -6.645  1.00 20.00     0.120 C 
HETATM    6  C6  UNL     1     -34.258  14.987  -4.578  1.00 20.00     0.086 A 
HETATM    7  C7  UNL     1     -36.096  15.395  -7.914  1.00 20.00     0.039 C 
HETATM    8  O8  UNL     1     -36.736  14.450  -5.813  1.00 20.00    -0.386 OA
HETATM    9  O9  UNL     1     -33.165  14.061  -4.620  1.00 20.00    -0.375 OA
ENDROOT
TORSDOF 0
ENDMDL
MODEL 7
REMARK VINA RESULT:      -3.7     17.603     18.628
REMARK  0 active torsions:
REMARK  status: ('A' for Active; 'I' for Inactive)
ROOT
HETATM    1  C1  UNL     1     -32.998  15.086  -4.111  1.00 20.00     0.066 C 
HETATM    2  C2  UNL     1     -35.289  15.431  -3.091  1.00 20.00     0.071 C 
HETATM    3  C3  UNL     1     -33.717  14.714  -5.403  1.00 20.00     0.171 C 
HETATM    4  C4  UNL     1     -33.300  16.903  -2.265  1.00 20.00     0.207 A 
HETATM    5  C5  UNL     1     -35.868  15.038  -4.455  1.00 20.00     0.120 C 
HETATM    6  C6  UNL     1     -33.891  15.943  -3.266  1.00 20.00     0.086 A 
HETATM    7  C7  UNL     1     -37.222  14.359  -4.301  1.00 20.00     0.039 C 
HETATM    8  O8  UNL     1     -34.987  14.118  -5.116  1.00 20.00    -0.386 OA
HETATM    9  O9  UNL     1     -33.800  17.348  -3.537  1.00 20.00    -0.375 OA
ENDROOT
TORSDOF 0
ENDMDL
MODEL 8
REMARK VINA RESULT:      -3.6     23.161     24.249
REMARK  0 active torsions:
REMARK  status: ('A' for Active; 'I' for Inactive)
ROOT
HETATM    1  C1  UNL     1     -42.385   5.397  -0.862  1.00 20.00     0.066 C 
HETATM    2  C2  UNL     1     -42.687   7.261   0.825  1.00 20.00     0.071 C 
HETATM    3  C3  UNL     1     -41.158   6.153  -1.358  1.00 20.00     0.171 C 
HETATM    4  C4  UNL     1     -43.417   4.840   1.467  1.00 20.00     0.207 A 
HETATM    5  C5  UNL     1     -41.431   7.902   0.222  1.00 20.00     0.120 C 
HETATM    6  C6  UNL     1     -42.678   5.786   0.555  1.00 20.00     0.086 A 
HETATM    7  C7  UNL     1     -41.486   9.420   0.329  1.00 20.00     0.039 C 
HETATM    8  O8  UNL     1     -41.325   7.562  -1.168  1.00 20.00    -0.386 OA
HETATM    9  O9  UNL     1     -41.992   5.004   1.541  1.00 20.00    -0.375 OA
ENDROOT
TORSDOF 0
ENDMDL
MODEL 9
REMARK VINA RESULT:      -3.6     23.363     24.449
REMARK  0 active torsions:
REMARK  status: ('A' for Active; 'I' for Inactive)
ROOT
HETATM    1  C1  UNL     1     -42.128   7.723  -1.482  1.00 20.00     0.066 C 
HETATM    2  C2  UNL     1     -42.146   7.118   0.977  1.00 20.00     0.071 C 
HETATM    3  C3  UNL     1     -43.336   6.805  -1.635  1.00 20.00     0.171 C 
HETATM    4  C4  UNL     1     -41.341   9.495   0.262  1.00 20.00     0.207 A 
HETATM    5  C5  UNL     1     -43.361   6.236   0.669  1.00 20.00     0.120 C 
HETATM    6  C6  UNL     1     -42.029   8.193  -0.062  1.00 20.00     0.086 A 
HETATM    7  C7  UNL     1     -43.417   5.035   1.604  1.00 20.00     0.039 C 
HETATM    8  O8  UNL     1     -43.282   5.742  -0.677  1.00 20.00    -0.386 OA
HETATM    9  O9  UNL     1     -42.773   9.383   0.225  1.00 20.00    -0.375 OA
ENDROOT
TORSDOF 0
ENDMDL
