MODEL 1
REMARK VINA RESULT:      -4.0      0.000      0.000
REMARK  0 active torsions:
REMARK  status: ('A' for Active; 'I' for Inactive)
ROOT
HETATM    1  C1  UNL     1     -35.037  14.821  -5.997  1.00 20.00     0.066 C 
HETATM    2  C2  UNL     1     -34.706  14.722  -3.494  1.00 20.00     0.071 C 
HETATM    3  C3  UNL     1     -34.768  16.318  -5.898  1.00 20.00     0.171 C 
HETATM    4  C4  UNL     1     -36.989  13.930  -4.500  1.00 20.00     0.207 A 
HETATM    5  C5  UNL     1     -34.459  16.235  -3.541  1.00 20.00     0.120 C 
HETATM    6  C6  UNL     1     -35.543  14.329  -4.676  1.00 20.00     0.086 A 
HETATM    7  C7  UNL     1     -33.492  16.667  -2.449  1.00 20.00     0.039 C 
HETATM    8  O8  UNL     1     -33.883  16.597  -4.807  1.00 20.00    -0.386 OA
HETATM    9  O9  UNL     1     -35.950  12.954  -4.675  1.00 20.00    -0.375 OA
ENDROOT
TORSDOF 0
ENDMDL
MODEL 2
REMARK VINA RESULT:      -4.0     17.865     18.665
REMARK  0 active torsions:
REMARK  status: ('A' for Active; 'I' for Inactive)
ROOT
HETATM    1  C1  UNL     1     -23.793  16.458  10.074  1.00 20.00     0.066 C 
HETATM    2  C2  UNL     1     -24.952  18.693   9.869  1.00 20.00     0.071 C 
HETATM    3  C3  UNL     1     -24.228  16.451  11.535  1.00 20.00     0.171 C 
HETATM    4  C4  UNL     1     -22.396  18.541   9.328  1.00 20.00     0.207 A 
HETATM    5  C5  UNL     1     -25.318  18.556  11.351  1.00 20.00     0.120 C 
HETATM    6  C6  UNL     1     -23.725  17.875   9.592  1.00 20.00     0.086 A 
HETATM    7  C7  UNL     1     -26.640  19.246  11.656  1.00 20.00     0.039 C 
HETATM    8  O8  UNL     1     -25.457  17.168  11.695  1.00 20.00    -0.386 OA
HETATM    9  O9  UNL     1     -23.208  18.022   8.264  1.00 20.00    -0.375 OA
ENDROOT
TORSDOF 0
ENDMDL
MODEL 3
REMARK VINA RESULT:      -4.0     17.561     18.447
REMARK  0 active torsions:
REMARK  status: ('A' for Active; 'I' for Inactive)
ROOT
HETATM    1  C1  UNL     1     -24.686  18.370   9.549  1.00 20.00     0.066 C 
HETATM    2  C2  UNL     1     -22.754  16.757   9.327  1.00 20.00     0.071 C 
HETATM    3  C3  UNL     1     -23.957  19.263   8.552  1.00 20.00     0.171 C 
HETATM    4  C4  UNL     1     -23.324  17.731  11.689  1.00 20.00     0.207 A 
HETATM    5  C5  UNL     1     -22.133  17.752   8.341  1.00 20.00     0.120 C 
HETATM    6  C6  UNL     1     -23.686  17.496  10.242  1.00 20.00     0.086 A 
HETATM    7  C7  UNL     1     -21.293  17.035   7.294  1.00 20.00     0.039 C 
HETATM    8  O8  UNL     1     -23.169  18.472   7.654  1.00 20.00    -0.386 OA
HETATM    9  O9  UNL     1     -24.235  16.693  11.295  1.00 20.00    -0.375 OA
ENDROOT
TORSDOF 0
ENDMDL
MODEL 4
REMARK VINA RESULT:      -4.0     17.289     18.676
REMARK  0 active torsions:
REMARK  status: ('A' for Active; 'I' for Inactive)
ROOT
HETATM    1  C1  UNL     1     -23.640  19.262   8.544  1.00 20.00     0.066 C 
HETATM    2  C2  UNL     1     -23.097  18.125  10.733  1.00 20.00     0.071 C 
HETATM    3  C3  UNL     1     -25.100  18.912   8.810  1.00 20.00     0.171 C 
HETATM    4  C4  UNL     1     -21.983  17.238   8.537  1.00 20.00     0.207 A 
HETATM    5  C5  UNL     1     -24.597  17.836  10.870  1.00 20.00     0.120 C 
HETATM    6  C6  UNL     1     -22.765  18.295   9.280  1.00 20.00     0.086 A 
HETATM    7  C7  UNL     1     -25.017  17.802  12.332  1.00 20.00     0.039 C 
HETATM    8  O8  UNL     1     -25.355  18.868  10.219  1.00 20.00    -0.386 OA
HETATM    9  O9  UNL     1     -21.365  18.444   9.011  1.00 20.00    -0.375 OA
ENDROOT
TORSDOF 0
ENDMDL
MODEL 5
REMARK VINA RESULT:      -3.9     17.900     19.278
REMARK  0 active torsions:
REMARK  status: ('A' for Active; 'I' for Inactive)
ROOT
HETATM    1  C1  UNL     1     -21.878  17.900  10.217  1.00 20.00     0.066 C 
HETATM    2  C2  UNL     1     -24.190  16.898  10.043  1.00 20.00     0.071 C 
HETATM    3  C3  UNL     1     -22.072  17.896  11.729  1.00 20.00     0.171 C 
HETATM    4  C4  UNL     1     -23.708  19.179   8.854  1.00 20.00     0.207 A 
HETATM    5  C5  UNL     1     -24.251  16.957  11.574  1.00 20.00     0.120 C 
HETATM    6  C6  UNL     1     -23.220  17.934   9.554  1.00 20.00     0.086 A 
HETATM    7  C7  UNL     1     -25.107  15.830  12.133  1.00 20.00     0.039 C 
HETATM    8  O8  UNL     1     -22.930  16.818  12.121  1.00 20.00    -0.386 OA
HETATM    9  O9  UNL     1     -23.170  18.064   8.128  1.00 20.00    -0.375 OA
ENDROOT
TORSDOF 0
ENDMDL
MODEL 6
REMARK VINA RESULT:      -3.9      1.335      3.647
REMARK  0 active torsions:
REMARK  status: ('A' for Active; 'I' for Inactive)
ROOT
HETATM    1  C1  UNL     1     -34.757  13.744  -3.946  1.00 20.00     0.066 C 
HETATM    2  C2  UNL     1     -34.111  15.134  -5.954  1.00 20.00     0.071 C 
HETATM    3  C3  UNL     1     -36.173  13.723  -4.510  1.00 20.00     0.171 C 
HETATM    4  C4  UNL     1     -33.737  16.122  -3.560  1.00 20.00     0.207 A 
HETATM    5  C5  UNL     1     -35.575  15.035  -6.401  1.00 20.00     0.120 C 
HETATM    6  C6  UNL     1     -34.043  14.954  -4.466  1.00 20.00     0.086 A 
HETATM    7  C7  UNL     1     -35.689  15.062  -7.918  1.00 20.00     0.039 C 
HETATM    8  O8  UNL     1     -36.144  13.799  -5.940  1.00 20.00    -0.386 OA
HETATM    9  O9  UNL     1     -32.737  15.152  -3.910  1.00 20.00    -0.375 OA
ENDROOT
TORSDOF 0
ENDMDL
MODEL 7
REMARK VINA RESULT:      -3.9     10.232     12.098
REMARK  0 active torsions:
REMARK  status: ('A' for Active; 'I' for Inactive)
ROOT
HETATM    1  C1  UNL     1     -41.615   7.623  -1.343  1.00 20.00     0.066 C 
HETATM    2  C2  UNL     1     -42.971   7.340   0.769  1.00 20.00     0.071 C 
HETATM    3  C3  UNL     1     -41.148   6.185  -1.147  1.00 20.00     0.171 C 
HETATM    4  C4  UNL     1     -41.168   9.234   0.669  1.00 20.00     0.207 A 
HETATM    5  C5  UNL     1     -42.419   5.912   0.845  1.00 20.00     0.120 C 
HETATM    6  C6  UNL     1     -42.017   8.190  -0.017  1.00 20.00     0.086 A 
HETATM    7  C7  UNL     1     -43.417   4.971   1.503  1.00 20.00     0.039 C 
HETATM    8  O8  UNL     1     -42.156   5.418  -0.479  1.00 20.00    -0.386 OA
HETATM    9  O9  UNL     1     -42.361   9.581  -0.051  1.00 20.00    -0.375 OA
ENDROOT
TORSDOF 0
ENDMDL
MODEL 8
REMARK VINA RESULT:      -3.9      1.430      1.779
REMARK  0 active torsions:
REMARK  status: ('A' for Active; 'I' for Inactive)
ROOT
HETATM    1  C1  UNL     1     -33.552  14.351  -4.358  1.00 20.00     0.066 C 
HETATM    2  C2  UNL     1     -35.620  14.992  -3.056  1.00 20.00     0.071 C 
HETATM    3  C3  UNL     1     -32.943  15.670  -3.896  1.00 20.00     0.171 C 
HETATM    4  C4  UNL     1     -35.831  14.550  -5.626  1.00 20.00     0.207 A 
HETATM    5  C5  UNL     1     -34.887  16.283  -2.671  1.00 20.00     0.120 C 
HETATM    6  C6  UNL     1     -35.045  14.471  -4.340  1.00 20.00     0.086 A 
HETATM    7  C7  UNL     1     -35.327  16.776  -1.300  1.00 20.00     0.039 C 
HETATM    8  O8  UNL     1     -33.471  16.045  -2.618  1.00 20.00    -0.386 OA
HETATM    9  O9  UNL     1     -35.734  13.332  -4.872  1.00 20.00    -0.375 OA
ENDROOT
TORSDOF 0
ENDMDL
MODEL 9
REMARK VINA RESULT:      -3.7      2.417      4.880
REMARK  0 active torsions:
REMARK  status: ('A' for Active; 'I' for Inactive)
ROOT
HETATM    1  C1  UNL     1     -33.906  17.772  -0.805  1.00 20.00     0.066 C 
HETATM    2  C2  UNL     1     -33.015  16.583  -2.848  1.00 20.00     0.071 C 
HETATM    3  C3  UNL     1     -35.266  17.168  -1.139  1.00 20.00     0.171 C 
HETATM    4  C4  UNL     1     -32.808  19.188  -2.711  1.00 20.00     0.207 A 
HETATM    5  C5  UNL     1     -34.436  16.049  -3.066  1.00 20.00     0.120 C 
HETATM    6  C6  UNL     1     -33.090  17.856  -2.058  1.00 20.00     0.086 A 
HETATM    7  C7  UNL     1     -34.412  14.682  -3.734  1.00 20.00     0.039 C 
HETATM    8  O8  UNL     1     -35.105  15.909  -1.802  1.00 20.00    -0.386 OA
HETATM    9  O9  UNL     1     -31.830  18.522  -1.897  1.00 20.00    -0.375 OA
ENDROOT
TORSDOF 0
ENDMDL
