MODEL 1
REMARK VINA RESULT:      -5.3      0.000      0.000
REMARK  2 active torsions:
REMARK  status: ('A' for Active; 'I' for Inactive)
REMARK    1  A    between atoms: C3_3  and  C7_7 
REMARK    2  A    between atoms: C3_3  and  C10_10 
ROOT
HETATM    1  C1  UNL     1     -26.454  18.819   4.931  1.00 20.00     0.012 C 
HETATM    2  C2  UNL     1     -26.136  18.941   6.082  1.00 20.00    -0.110 C 
HETATM    3  C10 UNL     1     -25.755  19.095   7.491  1.00 20.00     0.171 C 
ENDROOT
BRANCH   3   4
HETATM    4  C3  UNL     1     -24.277  18.858   7.723  1.00 20.00     0.144 C 
HETATM    5  O11 UNL     1     -23.478  18.644   6.811  1.00 20.00    -0.297 OA
BRANCH   4   6
HETATM    6  C7  UNL     1     -23.819  18.900   9.148  1.00 20.00     0.087 C 
HETATM    7  C6  UNL     1     -22.305  18.692   9.245  1.00 20.00     0.046 C 
HETATM    8  C8  UNL     1     -22.214  17.433  10.107  1.00 20.00     0.122 C 
HETATM    9  C4  UNL     1     -22.623  17.729  11.549  1.00 20.00     0.034 C 
HETATM   10  O12 UNL     1     -23.359  16.688   9.636  1.00 20.00    -0.380 OA
HETATM   11  C5  UNL     1     -24.139  17.893  11.426  1.00 20.00     0.035 C 
HETATM   12  C9  UNL     1     -24.360  17.696   9.927  1.00 20.00     0.133 C 
ENDBRANCH   4   6
ENDBRANCH   3   4
TORSDOF 2
ENDMDL
MODEL 2
REMARK VINA RESULT:      -5.2     15.622     16.498
REMARK  2 active torsions:
REMARK  status: ('A' for Active; 'I' for Inactive)
REMARK    1  A    between atoms: C3_3  and  C7_7 
REMARK    2  A    between atoms: C3_3  and  C10_10 
ROOT
HETATM    1  C1  UNL     1     -33.250   8.814   0.027  1.00 20.00     0.012 C 
HETATM    2  C2  UNL     1     -32.845   8.231   0.996  1.00 20.00    -0.110 C 
HETATM    3  C10 UNL     1     -32.344   7.527   2.181  1.00 20.00     0.171 C 
ENDROOT
BRANCH   3   4
HETATM    4  C3  UNL     1     -33.006   6.179   2.380  1.00 20.00     0.144 C 
HETATM    5  O11 UNL     1     -33.384   5.470   1.447  1.00 20.00    -0.297 OA
BRANCH   4   6
HETATM    6  C7  UNL     1     -33.185   5.736   3.800  1.00 20.00     0.087 C 
HETATM    7  C6  UNL     1     -33.977   4.427   3.871  1.00 20.00     0.046 C 
HETATM    8  C8  UNL     1     -35.191   4.837   4.704  1.00 20.00     0.122 C 
HETATM    9  C4  UNL     1     -34.794   5.091   6.158  1.00 20.00     0.034 C 
HETATM   10  O12 UNL     1     -35.410   6.185   4.233  1.00 20.00    -0.380 OA
HETATM   11  C5  UNL     1     -34.041   6.419   6.059  1.00 20.00     0.035 C 
HETATM   12  C9  UNL     1     -34.097   6.705   4.559  1.00 20.00     0.133 C 
ENDBRANCH   4   6
ENDBRANCH   3   4
TORSDOF 2
ENDMDL
MODEL 3
REMARK VINA RESULT:      -4.7     13.099     16.762
REMARK  2 active torsions:
REMARK  status: ('A' for Active; 'I' for Inactive)
REMARK    1  A    between atoms: C3_3  and  C7_7 
REMARK    2  A    between atoms: C3_3  and  C10_10 
ROOT
HETATM    1  C1  UNL     1     -32.065  18.514  -0.824  1.00 20.00     0.012 C 
HETATM    2  C2  UNL     1     -32.552  17.774  -1.635  1.00 20.00    -0.110 C 
HETATM    3  C10 UNL     1     -33.142  16.873  -2.631  1.00 20.00     0.171 C 
ENDROOT
BRANCH   3   4
HETATM    4  C3  UNL     1     -34.449  16.265  -2.165  1.00 20.00     0.144 C 
HETATM    5  O11 UNL     1     -35.047  16.646  -1.159  1.00 20.00    -0.297 OA
BRANCH   4   6
HETATM    6  C7  UNL     1     -34.995  15.153  -3.006  1.00 20.00     0.087 C 
HETATM    7  C6  UNL     1     -34.043  14.818  -4.159  1.00 20.00     0.046 C 
HETATM    8  C8  UNL     1     -34.925  15.079  -5.381  1.00 20.00     0.122 C 
HETATM    9  C4  UNL     1     -36.016  14.017  -5.502  1.00 20.00     0.034 C 
HETATM   10  O12 UNL     1     -35.691  16.220  -4.934  1.00 20.00    -0.380 OA
HETATM   11  C5  UNL     1     -36.966  14.399  -4.366  1.00 20.00     0.035 C 
HETATM   12  C9  UNL     1     -36.256  15.604  -3.750  1.00 20.00     0.133 C 
ENDBRANCH   4   6
ENDBRANCH   3   4
TORSDOF 2
ENDMDL
MODEL 4
REMARK VINA RESULT:      -4.6     14.823     16.966
REMARK  2 active torsions:
REMARK  status: ('A' for Active; 'I' for Inactive)
REMARK    1  A    between atoms: C3_3  and  C7_7 
REMARK    2  A    between atoms: C3_3  and  C10_10 
ROOT
HETATM    1  C1  UNL     1     -35.514  14.990  -7.328  1.00 20.00     0.012 C 
HETATM    2  C2  UNL     1     -35.770  14.646  -6.206  1.00 20.00    -0.110 C 
HETATM    3  C10 UNL     1     -36.091  14.227  -4.838  1.00 20.00     0.171 C 
ENDROOT
BRANCH   3   4
HETATM    4  C3  UNL     1     -34.861  14.105  -3.962  1.00 20.00     0.144 C 
HETATM    5  O11 UNL     1     -34.087  13.149  -4.018  1.00 20.00    -0.297 OA
BRANCH   4   6
HETATM    6  C7  UNL     1     -34.621  15.230  -3.002  1.00 20.00     0.087 C 
HETATM    7  C6  UNL     1     -35.759  16.254  -3.061  1.00 20.00     0.046 C 
HETATM    8  C8  UNL     1     -35.016  17.527  -3.469  1.00 20.00     0.122 C 
HETATM    9  C4  UNL     1     -34.140  18.036  -2.326  1.00 20.00     0.034 C 
HETATM   10  O12 UNL     1     -34.021  16.993  -4.371  1.00 20.00    -0.380 OA
HETATM   11  C5  UNL     1     -32.998  17.018  -2.317  1.00 20.00     0.035 C 
HETATM   12  C9  UNL     1     -33.413  16.066  -3.438  1.00 20.00     0.133 C 
ENDBRANCH   4   6
ENDBRANCH   3   4
TORSDOF 2
ENDMDL
MODEL 5
REMARK VINA RESULT:      -4.6     22.181     24.283
REMARK  2 active torsions:
REMARK  status: ('A' for Active; 'I' for Inactive)
REMARK    1  A    between atoms: C3_3  and  C7_7 
REMARK    2  A    between atoms: C3_3  and  C10_10 
ROOT
HETATM    1  C1  UNL     1     -41.869   2.479  -4.127  1.00 20.00     0.012 C 
HETATM    2  C2  UNL     1     -42.307   3.121  -3.212  1.00 20.00    -0.110 C 
HETATM    3  C10 UNL     1     -42.851   3.903  -2.096  1.00 20.00     0.171 C 
ENDROOT
BRANCH   3   4
HETATM    4  C3  UNL     1     -41.811   4.795  -1.449  1.00 20.00     0.144 C 
HETATM    5  O11 UNL     1     -40.601   4.642  -1.608  1.00 20.00    -0.297 OA
BRANCH   4   6
HETATM    6  C7  UNL     1     -42.337   5.901  -0.586  1.00 20.00     0.087 C 
HETATM    7  C6  UNL     1     -43.416   6.704  -1.320  1.00 20.00     0.046 C 
HETATM    8  C8  UNL     1     -42.809   8.107  -1.336  1.00 20.00     0.122 C 
HETATM    9  C4  UNL     1     -42.806   8.715   0.066  1.00 20.00     0.034 C 
HETATM   10  O12 UNL     1     -41.408   7.802  -1.513  1.00 20.00    -0.380 OA
HETATM   11  C5  UNL     1     -41.697   7.921   0.759  1.00 20.00     0.035 C 
HETATM   12  C9  UNL     1     -41.257   6.959  -0.344  1.00 20.00     0.133 C 
ENDBRANCH   4   6
ENDBRANCH   3   4
TORSDOF 2
ENDMDL
MODEL 6
REMARK VINA RESULT:      -4.6     16.177     18.907
REMARK  2 active torsions:
REMARK  status: ('A' for Active; 'I' for Inactive)
REMARK    1  A    between atoms: C3_3  and  C7_7 
REMARK    2  A    between atoms: C3_3  and  C10_10 
ROOT
HETATM    1  C1  UNL     1     -34.753  16.115  -2.264  1.00 20.00     0.012 C 
HETATM    2  C2  UNL     1     -34.819  15.164  -2.993  1.00 20.00    -0.110 C 
HETATM    3  C10 UNL     1     -34.890  13.998  -3.881  1.00 20.00     0.171 C 
ENDROOT
BRANCH   3   4
HETATM    4  C3  UNL     1     -36.094  14.040  -4.800  1.00 20.00     0.144 C 
HETATM    5  O11 UNL     1     -37.197  13.596  -4.485  1.00 20.00    -0.297 OA
BRANCH   4   6
HETATM    6  C7  UNL     1     -35.874  14.663  -6.145  1.00 20.00     0.087 C 
HETATM    7  C6  UNL     1     -34.412  15.086  -6.321  1.00 20.00     0.046 C 
HETATM    8  C8  UNL     1     -34.546  16.592  -6.552  1.00 20.00     0.122 C 
HETATM    9  C4  UNL     1     -35.166  16.881  -7.918  1.00 20.00     0.034 C 
HETATM   10  O12 UNL     1     -35.644  16.913  -5.670  1.00 20.00    -0.380 OA
HETATM   11  C5  UNL     1     -36.627  16.486  -7.698  1.00 20.00     0.035 C 
HETATM   12  C9  UNL     1     -36.612  16.002  -6.249  1.00 20.00     0.133 C 
ENDBRANCH   4   6
ENDBRANCH   3   4
TORSDOF 2
ENDMDL
MODEL 7
REMARK VINA RESULT:      -4.5     14.472     17.524
REMARK  2 active torsions:
REMARK  status: ('A' for Active; 'I' for Inactive)
REMARK    1  A    between atoms: C3_3  and  C7_7 
REMARK    2  A    between atoms: C3_3  and  C10_10 
ROOT
HETATM    1  C1  UNL     1     -35.118  17.371  -0.211  1.00 20.00     0.012 C 
HETATM    2  C2  UNL     1     -35.122  16.658  -1.177  1.00 20.00    -0.110 C 
HETATM    3  C10 UNL     1     -35.133  15.781  -2.353  1.00 20.00     0.171 C 
ENDROOT
BRANCH   3   4
HETATM    4  C3  UNL     1     -34.021  16.104  -3.330  1.00 20.00     0.144 C 
HETATM    5  O11 UNL     1     -32.857  16.303  -2.982  1.00 20.00    -0.297 OA
BRANCH   4   6
HETATM    6  C7  UNL     1     -34.412  16.171  -4.774  1.00 20.00     0.087 C 
HETATM    7  C6  UNL     1     -35.926  16.010  -4.941  1.00 20.00     0.046 C 
HETATM    8  C8  UNL     1     -36.016  14.761  -5.818  1.00 20.00     0.122 C 
HETATM    9  C4  UNL     1     -35.532  15.056  -7.237  1.00 20.00     0.034 C 
HETATM   10  O12 UNL     1     -34.917  13.978  -5.302  1.00 20.00    -0.380 OA
HETATM   11  C5  UNL     1     -34.019  15.172  -7.043  1.00 20.00     0.035 C 
HETATM   12  C9  UNL     1     -33.873  14.957  -5.538  1.00 20.00     0.133 C 
ENDBRANCH   4   6
ENDBRANCH   3   4
TORSDOF 2
ENDMDL
MODEL 8
REMARK VINA RESULT:      -4.5     14.773     18.299
REMARK  2 active torsions:
REMARK  status: ('A' for Active; 'I' for Inactive)
REMARK    1  A    between atoms: C3_3  and  C7_7 
REMARK    2  A    between atoms: C3_3  and  C10_10 
ROOT
HETATM    1  C1  UNL     1     -32.943  17.365  -2.163  1.00 20.00     0.012 C 
HETATM    2  C2  UNL     1     -33.786  16.543  -2.398  1.00 20.00    -0.110 C 
HETATM    3  C10 UNL     1     -34.819  15.539  -2.676  1.00 20.00     0.171 C 
ENDROOT
BRANCH   3   4
HETATM    4  C3  UNL     1     -34.603  14.834  -4.000  1.00 20.00     0.144 C 
HETATM    5  O11 UNL     1     -34.404  13.623  -4.093  1.00 20.00    -0.297 OA
BRANCH   4   6
HETATM    6  C7  UNL     1     -34.645  15.700  -5.221  1.00 20.00     0.087 C 
HETATM    7  C6  UNL     1     -35.991  16.421  -5.337  1.00 20.00     0.046 C 
HETATM    8  C8  UNL     1     -36.510  15.908  -6.681  1.00 20.00     0.122 C 
HETATM    9  C4  UNL     1     -35.696  16.488  -7.836  1.00 20.00     0.034 C 
HETATM   10  O12 UNL     1     -36.036  14.543  -6.660  1.00 20.00    -0.380 OA
HETATM   11  C5  UNL     1     -34.377  15.723  -7.717  1.00 20.00     0.035 C 
HETATM   12  C9  UNL     1     -34.628  14.845  -6.492  1.00 20.00     0.133 C 
ENDBRANCH   4   6
ENDBRANCH   3   4
TORSDOF 2
ENDMDL
MODEL 9
REMARK VINA RESULT:      -4.4     13.262     16.757
REMARK  2 active torsions:
REMARK  status: ('A' for Active; 'I' for Inactive)
REMARK    1  A    between atoms: C3_3  and  C7_7 
REMARK    2  A    between atoms: C3_3  and  C10_10 
ROOT
HETATM    1  C1  UNL     1     -33.837  18.490   0.450  1.00 20.00     0.012 C 
HETATM    2  C2  UNL     1     -34.411  17.744  -0.295  1.00 20.00    -0.110 C 
HETATM    3  C10 UNL     1     -35.120  16.833  -1.199  1.00 20.00     0.171 C 
ENDROOT
BRANCH   3   4
HETATM    4  C3  UNL     1     -34.221  16.271  -2.282  1.00 20.00     0.144 C 
HETATM    5  O11 UNL     1     -33.083  16.690  -2.496  1.00 20.00    -0.297 OA
BRANCH   4   6
HETATM    6  C7  UNL     1     -34.793  15.155  -3.100  1.00 20.00     0.087 C 
HETATM    7  C6  UNL     1     -33.935  14.888  -4.341  1.00 20.00     0.046 C 
HETATM    8  C8  UNL     1     -34.932  15.138  -5.473  1.00 20.00     0.122 C 
HETATM    9  C4  UNL     1     -35.985  14.032  -5.526  1.00 20.00     0.034 C 
HETATM   10  O12 UNL     1     -35.702  16.233  -4.931  1.00 20.00    -0.380 OA
HETATM   11  C5  UNL     1     -36.844  14.347  -4.300  1.00 20.00     0.035 C 
HETATM   12  C9  UNL     1     -36.133  15.567  -3.718  1.00 20.00     0.133 C 
ENDBRANCH   4   6
ENDBRANCH   3   4
TORSDOF 2
ENDMDL
