MODEL 1
REMARK VINA RESULT:      -4.0      0.000      0.000
REMARK  4 active torsions:
REMARK  status: ('A' for Active; 'I' for Inactive)
REMARK    1  A    between atoms: C1_1  and  C3_3 
REMARK    2  A    between atoms: C1_1  and  C7_7 
REMARK    3  A    between atoms: C7_7  and  C8_8 
REMARK    4  A    between atoms: C8_8  and  S10_10 
ROOT
HETATM    1  C1  UNL     1     -33.234   5.386   2.570  1.00 20.00     0.132 C 
HETATM    2  O9  UNL     1     -33.012   4.207   2.299  1.00 20.00    -0.298 OA
ENDROOT
BRANCH   1   3
HETATM    3  C3  UNL     1     -32.376   6.491   2.010  1.00 20.00     0.059 A 
HETATM    4  C2  UNL     1     -32.020   7.622   2.907  1.00 20.00     0.017 A 
HETATM    5  C4  UNL     1     -33.015   7.828   1.795  1.00 20.00    -0.007 A 
HETATM    6  C5  UNL     1     -32.641   8.624   0.593  1.00 20.00     0.011 C 
ENDBRANCH   1   3
BRANCH   1   7
HETATM    7  C7  UNL     1     -34.372   5.782   3.493  1.00 20.00     0.088 C 
BRANCH   7   8
HETATM    8  C8  UNL     1     -34.795   4.672   4.446  1.00 20.00     0.081 C 
BRANCH   8   9
HETATM    9  S10 UNL     1     -34.766   5.215   6.182  1.00 20.00    -0.173 SA
HETATM   10  C6  UNL     1     -33.934   6.801   5.945  1.00 20.00     0.089 C 
ENDBRANCH   8   9
ENDBRANCH   7   8
ENDBRANCH   1   7
TORSDOF 4
ENDMDL
MODEL 2
REMARK VINA RESULT:      -4.0     11.446     12.687
REMARK  4 active torsions:
REMARK  status: ('A' for Active; 'I' for Inactive)
REMARK    1  A    between atoms: C1_1  and  C3_3 
REMARK    2  A    between atoms: C1_1  and  C7_7 
REMARK    3  A    between atoms: C7_7  and  C8_8 
REMARK    4  A    between atoms: C8_8  and  S10_10 
ROOT
HETATM    1  C1  UNL     1     -35.657  14.039  -4.549  1.00 20.00     0.132 C 
HETATM    2  O9  UNL     1     -35.922  12.838  -4.590  1.00 20.00    -0.298 OA
ENDROOT
BRANCH   1   3
HETATM    3  C3  UNL     1     -34.767  14.605  -3.472  1.00 20.00     0.059 A 
HETATM    4  C2  UNL     1     -35.333  15.647  -2.574  1.00 20.00     0.017 A 
HETATM    5  C4  UNL     1     -34.315  16.025  -3.619  1.00 20.00    -0.007 A 
HETATM    6  C5  UNL     1     -32.928  16.389  -3.216  1.00 20.00     0.011 C 
ENDBRANCH   1   3
BRANCH   1   7
HETATM    7  C7  UNL     1     -36.227  15.007  -5.569  1.00 20.00     0.088 C 
BRANCH   7   8
HETATM    8  C8  UNL     1     -35.771  14.725  -6.994  1.00 20.00     0.081 C 
BRANCH   8   9
HETATM    9  S10 UNL     1     -34.096  15.358  -7.314  1.00 20.00    -0.173 SA
HETATM   10  C6  UNL     1     -34.453  17.123  -7.162  1.00 20.00     0.089 C 
ENDBRANCH   8   9
ENDBRANCH   7   8
ENDBRANCH   1   7
TORSDOF 4
ENDMDL
MODEL 3
REMARK VINA RESULT:      -4.0      2.331      4.574
REMARK  4 active torsions:
REMARK  status: ('A' for Active; 'I' for Inactive)
REMARK    1  A    between atoms: C1_1  and  C3_3 
REMARK    2  A    between atoms: C1_1  and  C7_7 
REMARK    3  A    between atoms: C7_7  and  C8_8 
REMARK    4  A    between atoms: C8_8  and  S10_10 
ROOT
HETATM    1  C1  UNL     1     -33.374   5.402   2.823  1.00 20.00     0.132 C 
HETATM    2  O9  UNL     1     -32.995   4.693   1.891  1.00 20.00    -0.298 OA
ENDROOT
BRANCH   1   3
HETATM    3  C3  UNL     1     -34.315   4.872   3.875  1.00 20.00     0.059 A 
HETATM    4  C2  UNL     1     -35.662   5.492   3.984  1.00 20.00     0.017 A 
HETATM    5  C4  UNL     1     -34.623   5.757   5.042  1.00 20.00    -0.007 A 
HETATM    6  C5  UNL     1     -34.761   5.148   6.395  1.00 20.00     0.011 C 
ENDBRANCH   1   3
BRANCH   1   7
HETATM    7  C7  UNL     1     -32.924   6.846   2.948  1.00 20.00     0.088 C 
BRANCH   7   8
HETATM    8  C8  UNL     1     -32.251   7.383   1.693  1.00 20.00     0.081 C 
BRANCH   8   9
HETATM    9  S10 UNL     1     -32.906   9.010   1.210  1.00 20.00    -0.173 SA
HETATM   10  C6  UNL     1     -33.414   8.595  -0.474  1.00 20.00     0.089 C 
ENDBRANCH   8   9
ENDBRANCH   7   8
ENDBRANCH   1   7
TORSDOF 4
ENDMDL
MODEL 4
REMARK VINA RESULT:      -3.9     11.389     12.070
REMARK  4 active torsions:
REMARK  status: ('A' for Active; 'I' for Inactive)
REMARK    1  A    between atoms: C1_1  and  C3_3 
REMARK    2  A    between atoms: C1_1  and  C7_7 
REMARK    3  A    between atoms: C7_7  and  C8_8 
REMARK    4  A    between atoms: C8_8  and  S10_10 
ROOT
HETATM    1  C1  UNL     1     -36.148  13.929  -4.433  1.00 20.00     0.132 C 
HETATM    2  O9  UNL     1     -35.890  12.731  -4.541  1.00 20.00    -0.298 OA
ENDROOT
BRANCH   1   3
HETATM    3  C3  UNL     1     -35.052  14.963  -4.389  1.00 20.00     0.059 A 
HETATM    4  C2  UNL     1     -33.651  14.489  -4.232  1.00 20.00     0.017 A 
HETATM    5  C4  UNL     1     -34.347  15.174  -3.085  1.00 20.00    -0.007 A 
HETATM    6  C5  UNL     1     -33.956  16.556  -2.689  1.00 20.00     0.011 C 
ENDBRANCH   1   3
BRANCH   1   7
HETATM    7  C7  UNL     1     -37.580  14.420  -4.322  1.00 20.00     0.088 C 
BRANCH   7   8
HETATM    8  C8  UNL     1     -37.777  15.840  -4.834  1.00 20.00     0.081 C 
BRANCH   8   9
HETATM    9  S10 UNL     1     -38.836  16.823  -3.729  1.00 20.00    -0.173 SA
HETATM   10  C6  UNL     1     -37.534  17.670  -2.807  1.00 20.00     0.089 C 
ENDBRANCH   8   9
ENDBRANCH   7   8
ENDBRANCH   1   7
TORSDOF 4
ENDMDL
MODEL 5
REMARK VINA RESULT:      -3.8     11.612     12.315
REMARK  4 active torsions:
REMARK  status: ('A' for Active; 'I' for Inactive)
REMARK    1  A    between atoms: C1_1  and  C3_3 
REMARK    2  A    between atoms: C1_1  and  C7_7 
REMARK    3  A    between atoms: C7_7  and  C8_8 
REMARK    4  A    between atoms: C8_8  and  S10_10 
ROOT
HETATM    1  C1  UNL     1     -33.788  14.554  -4.479  1.00 20.00     0.132 C 
HETATM    2  O9  UNL     1     -33.904  13.363  -4.190  1.00 20.00    -0.298 OA
ENDROOT
BRANCH   1   3
HETATM    3  C3  UNL     1     -33.304  15.559  -3.466  1.00 20.00     0.059 A 
HETATM    4  C2  UNL     1     -34.273  16.048  -2.449  1.00 20.00     0.017 A 
HETATM    5  C4  UNL     1     -33.832  16.957  -3.566  1.00 20.00    -0.007 A 
HETATM    6  C5  UNL     1     -32.917  18.098  -3.287  1.00 20.00     0.011 C 
ENDBRANCH   1   3
BRANCH   1   7
HETATM    7  C7  UNL     1     -34.142  15.066  -5.863  1.00 20.00     0.088 C 
BRANCH   7   8
HETATM    8  C8  UNL     1     -35.546  14.686  -6.311  1.00 20.00     0.081 C 
BRANCH   8   9
HETATM    9  S10 UNL     1     -36.816  15.736  -5.540  1.00 20.00    -0.173 SA
HETATM   10  C6  UNL     1     -37.432  14.548  -4.325  1.00 20.00     0.089 C 
ENDBRANCH   8   9
ENDBRANCH   7   8
ENDBRANCH   1   7
TORSDOF 4
ENDMDL
MODEL 6
REMARK VINA RESULT:      -3.7     11.603     12.265
REMARK  4 active torsions:
REMARK  status: ('A' for Active; 'I' for Inactive)
REMARK    1  A    between atoms: C1_1  and  C3_3 
REMARK    2  A    between atoms: C1_1  and  C7_7 
REMARK    3  A    between atoms: C7_7  and  C8_8 
REMARK    4  A    between atoms: C8_8  and  S10_10 
ROOT
HETATM    1  C1  UNL     1     -33.741  15.844  -3.101  1.00 20.00     0.132 C 
HETATM    2  O9  UNL     1     -32.824  16.664  -3.118  1.00 20.00    -0.298 OA
ENDROOT
BRANCH   1   3
HETATM    3  C3  UNL     1     -34.895  15.983  -2.141  1.00 20.00     0.059 A 
HETATM    4  C2  UNL     1     -35.927  17.012  -2.433  1.00 20.00     0.017 A 
HETATM    5  C4  UNL     1     -34.956  17.221  -1.301  1.00 20.00    -0.007 A 
HETATM    6  C5  UNL     1     -35.417  17.116   0.111  1.00 20.00     0.011 C 
ENDBRANCH   1   3
BRANCH   1   7
HETATM    7  C7  UNL     1     -33.746  14.648  -4.035  1.00 20.00     0.088 C 
BRANCH   7   8
HETATM    8  C8  UNL     1     -34.036  15.010  -5.485  1.00 20.00     0.081 C 
BRANCH   8   9
HETATM    9  S10 UNL     1     -35.819  15.028  -5.842  1.00 20.00    -0.173 SA
HETATM   10  C6  UNL     1     -36.321  13.703  -4.720  1.00 20.00     0.089 C 
ENDBRANCH   8   9
ENDBRANCH   7   8
ENDBRANCH   1   7
TORSDOF 4
ENDMDL
MODEL 7
REMARK VINA RESULT:      -3.6     11.480     12.561
REMARK  4 active torsions:
REMARK  status: ('A' for Active; 'I' for Inactive)
REMARK    1  A    between atoms: C1_1  and  C3_3 
REMARK    2  A    between atoms: C1_1  and  C7_7 
REMARK    3  A    between atoms: C7_7  and  C8_8 
REMARK    4  A    between atoms: C8_8  and  S10_10 
ROOT
HETATM    1  C1  UNL     1     -36.679  14.450  -4.592  1.00 20.00     0.132 C 
HETATM    2  O9  UNL     1     -37.612  13.664  -4.428  1.00 20.00    -0.298 OA
ENDROOT
BRANCH   1   3
HETATM    3  C3  UNL     1     -35.358  14.249  -3.895  1.00 20.00     0.059 A 
HETATM    4  C2  UNL     1     -34.890  15.312  -2.966  1.00 20.00     0.017 A 
HETATM    5  C4  UNL     1     -34.217  15.129  -4.301  1.00 20.00    -0.007 A 
HETATM    6  C5  UNL     1     -32.847  14.549  -4.376  1.00 20.00     0.011 C 
ENDBRANCH   1   3
BRANCH   1   7
HETATM    7  C7  UNL     1     -36.821  15.664  -5.490  1.00 20.00     0.088 C 
BRANCH   7   8
HETATM    8  C8  UNL     1     -38.115  16.436  -5.269  1.00 20.00     0.081 C 
BRANCH   8   9
HETATM    9  S10 UNL     1     -38.169  17.224  -3.631  1.00 20.00    -0.173 SA
HETATM   10  C6  UNL     1     -36.811  18.394  -3.860  1.00 20.00     0.089 C 
ENDBRANCH   8   9
ENDBRANCH   7   8
ENDBRANCH   1   7
TORSDOF 4
ENDMDL
MODEL 8
REMARK VINA RESULT:      -3.6     11.461     12.589
REMARK  4 active torsions:
REMARK  status: ('A' for Active; 'I' for Inactive)
REMARK    1  A    between atoms: C1_1  and  C3_3 
REMARK    2  A    between atoms: C1_1  and  C7_7 
REMARK    3  A    between atoms: C7_7  and  C8_8 
REMARK    4  A    between atoms: C8_8  and  S10_10 
ROOT
HETATM    1  C1  UNL     1     -37.112  14.782  -4.309  1.00 20.00     0.132 C 
HETATM    2  O9  UNL     1     -37.451  13.610  -4.474  1.00 20.00    -0.298 OA
ENDROOT
BRANCH   1   3
HETATM    3  C3  UNL     1     -35.657  15.176  -4.272  1.00 20.00     0.059 A 
HETATM    4  C2  UNL     1     -34.660  14.133  -3.911  1.00 20.00     0.017 A 
HETATM    5  C4  UNL     1     -34.986  15.233  -2.935  1.00 20.00    -0.007 A 
HETATM    6  C5  UNL     1     -33.997  16.314  -2.667  1.00 20.00     0.011 C 
ENDBRANCH   1   3
BRANCH   1   7
HETATM    7  C7  UNL     1     -38.141  15.880  -4.120  1.00 20.00     0.088 C 
BRANCH   7   8
HETATM    8  C8  UNL     1     -39.561  15.359  -3.945  1.00 20.00     0.081 C 
BRANCH   8   9
HETATM    9  S10 UNL     1     -40.635  15.822  -5.339  1.00 20.00    -0.173 SA
HETATM   10  C6  UNL     1     -41.670  14.341  -5.371  1.00 20.00     0.089 C 
ENDBRANCH   8   9
ENDBRANCH   7   8
ENDBRANCH   1   7
TORSDOF 4
ENDMDL
MODEL 9
REMARK VINA RESULT:      -3.5      1.380      1.724
REMARK  4 active torsions:
REMARK  status: ('A' for Active; 'I' for Inactive)
REMARK    1  A    between atoms: C1_1  and  C3_3 
REMARK    2  A    between atoms: C1_1  and  C7_7 
REMARK    3  A    between atoms: C7_7  and  C8_8 
REMARK    4  A    between atoms: C8_8  and  S10_10 
ROOT
HETATM    1  C1  UNL     1     -32.613   6.765   2.659  1.00 20.00     0.132 C 
HETATM    2  O9  UNL     1     -31.976   7.441   3.466  1.00 20.00    -0.298 OA
ENDROOT
BRANCH   1   3
HETATM    3  C3  UNL     1     -32.813   7.229   1.239  1.00 20.00     0.059 A 
HETATM    4  C2  UNL     1     -31.636   7.771   0.509  1.00 20.00     0.017 A 
HETATM    5  C4  UNL     1     -32.729   8.699   0.968  1.00 20.00    -0.007 A 
HETATM    6  C5  UNL     1     -33.661   9.307  -0.022  1.00 20.00     0.011 C 
ENDBRANCH   1   3
BRANCH   1   7
HETATM    7  C7  UNL     1     -33.240   5.443   3.060  1.00 20.00     0.088 C 
BRANCH   7   8
HETATM    8  C8  UNL     1     -34.652   5.583   3.613  1.00 20.00     0.081 C 
BRANCH   8   9
HETATM    9  S10 UNL     1     -34.746   5.126   5.371  1.00 20.00    -0.173 SA
HETATM   10  C6  UNL     1     -34.089   6.656   6.072  1.00 20.00     0.089 C 
ENDBRANCH   8   9
ENDBRANCH   7   8
ENDBRANCH   1   7
TORSDOF 4
ENDMDL
