MODEL 1
REMARK VINA RESULT:      -4.3      0.000      0.000
REMARK  1 active torsions:
REMARK  status: ('A' for Active; 'I' for Inactive)
REMARK    1  A    between atoms: C4_4  and  C5_5 
ROOT
HETATM    1  C1  UNL     1     -34.281   6.676   6.162  1.00 20.00     0.011 C 
HETATM    2  C2  UNL     1     -33.270   6.939   5.055  1.00 20.00     0.017 C 
HETATM    3  C3  UNL     1     -34.680   5.216   6.042  1.00 20.00     0.074 C 
HETATM    4  C4  UNL     1     -33.902   6.424   3.765  1.00 20.00     0.061 C 
HETATM    5  S6  UNL     1     -34.767   4.897   4.258  1.00 20.00    -0.163 SA
ENDROOT
BRANCH   4   6
HETATM    6  C5  UNL     1     -32.878   6.157   2.675  1.00 20.00     0.129 C 
HETATM    7 CL7  UNL     1     -32.535   7.647   1.771  1.00 20.00    -0.129 Cl
ENDBRANCH   4   6
TORSDOF 1
ENDMDL
MODEL 2
REMARK VINA RESULT:      -3.6      2.750      3.633
REMARK  1 active torsions:
REMARK  status: ('A' for Active; 'I' for Inactive)
REMARK    1  A    between atoms: C4_4  and  C5_5 
ROOT
HETATM    1  C1  UNL     1     -32.558   6.714   2.202  1.00 20.00     0.011 C 
HETATM    2  C2  UNL     1     -33.266   5.426   2.598  1.00 20.00     0.017 C 
HETATM    3  C3  UNL     1     -32.114   7.375   3.494  1.00 20.00     0.074 C 
HETATM    4  C4  UNL     1     -34.299   5.810   3.652  1.00 20.00     0.061 C 
HETATM    5  S6  UNL     1     -33.470   7.080   4.663  1.00 20.00    -0.163 SA
ENDROOT
BRANCH   4   6
HETATM    6  C5  UNL     1     -34.745   4.629   4.496  1.00 20.00     0.129 C 
HETATM    7 CL7  UNL     1     -34.780   5.075   6.214  1.00 20.00    -0.129 Cl
ENDBRANCH   4   6
TORSDOF 1
ENDMDL
MODEL 3
REMARK VINA RESULT:      -3.3     11.949     12.313
REMARK  1 active torsions:
REMARK  status: ('A' for Active; 'I' for Inactive)
REMARK    1  A    between atoms: C4_4  and  C5_5 
ROOT
HETATM    1  C1  UNL     1     -34.220  16.075  -2.394  1.00 20.00     0.011 C 
HETATM    2  C2  UNL     1     -35.495  15.552  -3.040  1.00 20.00     0.017 C 
HETATM    3  C3  UNL     1     -33.167  16.110  -3.488  1.00 20.00     0.074 C 
HETATM    4  C4  UNL     1     -35.111  14.269  -3.772  1.00 20.00     0.061 C 
HETATM    5  S6  UNL     1     -33.468  14.620  -4.479  1.00 20.00    -0.163 SA
ENDROOT
BRANCH   4   6
HETATM    6  C5  UNL     1     -36.111  13.885  -4.849  1.00 20.00     0.129 C 
HETATM    7 CL7  UNL     1     -35.613  14.546  -6.419  1.00 20.00    -0.129 Cl
ENDBRANCH   4   6
TORSDOF 1
ENDMDL
MODEL 4
REMARK VINA RESULT:      -3.2     16.048     16.801
REMARK  1 active torsions:
REMARK  status: ('A' for Active; 'I' for Inactive)
REMARK    1  A    between atoms: C4_4  and  C5_5 
ROOT
HETATM    1  C1  UNL     1     -23.188  18.851   9.116  1.00 20.00     0.011 C 
HETATM    2  C2  UNL     1     -24.488  18.252   9.633  1.00 20.00     0.017 C 
HETATM    3  C3  UNL     1     -22.064  18.048   9.746  1.00 20.00     0.074 C 
HETATM    4  C4  UNL     1     -24.356  18.186  11.152  1.00 20.00     0.061 C 
HETATM    5  S6  UNL     1     -22.621  17.709  11.440  1.00 20.00    -0.163 SA
ENDROOT
BRANCH   4   6
HETATM    6  C5  UNL     1     -25.319  17.195  11.783  1.00 20.00     0.129 C 
HETATM    7 CL7  UNL     1     -24.654  15.551  11.703  1.00 20.00    -0.129 Cl
ENDBRANCH   4   6
TORSDOF 1
ENDMDL
MODEL 5
REMARK VINA RESULT:      -3.2      1.322      1.718
REMARK  1 active torsions:
REMARK  status: ('A' for Active; 'I' for Inactive)
REMARK    1  A    between atoms: C4_4  and  C5_5 
ROOT
HETATM    1  C1  UNL     1     -34.812   5.094   5.799  1.00 20.00     0.011 C 
HETATM    2  C2  UNL     1     -34.824   4.932   4.286  1.00 20.00     0.017 C 
HETATM    3  C3  UNL     1     -34.447   6.542   6.073  1.00 20.00     0.074 C 
HETATM    4  C4  UNL     1     -33.496   5.492   3.784  1.00 20.00     0.061 C 
HETATM    5  S6  UNL     1     -33.192   6.954   4.828  1.00 20.00    -0.163 SA
ENDROOT
BRANCH   4   6
HETATM    6  C5  UNL     1     -33.532   5.857   2.310  1.00 20.00     0.129 C 
HETATM    7 CL7  UNL     1     -32.530   7.290   2.003  1.00 20.00    -0.129 Cl
ENDBRANCH   4   6
TORSDOF 1
ENDMDL
MODEL 6
REMARK VINA RESULT:      -3.2     15.619     15.954
REMARK  1 active torsions:
REMARK  status: ('A' for Active; 'I' for Inactive)
REMARK    1  A    between atoms: C4_4  and  C5_5 
ROOT
HETATM    1  C1  UNL     1     -24.494  15.926  11.786  1.00 20.00     0.011 C 
HETATM    2  C2  UNL     1     -24.141  16.517  10.430  1.00 20.00     0.017 C 
HETATM    3  C3  UNL     1     -25.741  16.649  12.260  1.00 20.00     0.074 C 
HETATM    4  C4  UNL     1     -24.120  18.032  10.614  1.00 20.00     0.061 C 
HETATM    5  S6  UNL     1     -25.509  18.374  11.744  1.00 20.00    -0.163 SA
ENDROOT
BRANCH   4   6
HETATM    6  C5  UNL     1     -24.269  18.786   9.303  1.00 20.00     0.129 C 
HETATM    7 CL7  UNL     1     -23.168  18.121   8.079  1.00 20.00    -0.129 Cl
ENDBRANCH   4   6
TORSDOF 1
ENDMDL
MODEL 7
REMARK VINA RESULT:      -3.1      9.447      9.849
REMARK  1 active torsions:
REMARK  status: ('A' for Active; 'I' for Inactive)
REMARK    1  A    between atoms: C4_4  and  C5_5 
ROOT
HETATM    1  C1  UNL     1     -41.224   5.395  -1.176  1.00 20.00     0.011 C 
HETATM    2  C2  UNL     1     -41.248   6.910  -1.042  1.00 20.00     0.017 C 
HETATM    3  C3  UNL     1     -42.665   4.931  -1.057  1.00 20.00     0.074 C 
HETATM    4  C4  UNL     1     -42.047   7.218   0.221  1.00 20.00     0.061 C 
HETATM    5  S6  UNL     1     -43.399   5.997   0.215  1.00 20.00    -0.163 SA
ENDROOT
BRANCH   4   6
HETATM    6  C5  UNL     1     -42.580   8.641   0.246  1.00 20.00     0.129 C 
HETATM    7 CL7  UNL     1     -41.242   9.800   0.372  1.00 20.00    -0.129 Cl
ENDBRANCH   4   6
TORSDOF 1
ENDMDL
MODEL 8
REMARK VINA RESULT:      -3.1     16.242     16.732
REMARK  1 active torsions:
REMARK  status: ('A' for Active; 'I' for Inactive)
REMARK    1  A    between atoms: C4_4  and  C5_5 
ROOT
HETATM    1  C1  UNL     1     -24.312  18.125  12.332  1.00 20.00     0.011 C 
HETATM    2  C2  UNL     1     -23.107  17.405  11.744  1.00 20.00     0.017 C 
HETATM    3  C3  UNL     1     -25.365  18.164  11.239  1.00 20.00     0.074 C 
HETATM    4  C4  UNL     1     -22.802  18.092  10.416  1.00 20.00     0.061 C 
HETATM    5  S6  UNL     1     -24.440  18.460   9.705  1.00 20.00    -0.163 SA
ENDROOT
BRANCH   4   6
HETATM    6  C5  UNL     1     -21.972  17.226   9.483  1.00 20.00     0.129 C 
HETATM    7 CL7  UNL     1     -22.313  17.638   7.790  1.00 20.00    -0.129 Cl
ENDBRANCH   4   6
TORSDOF 1
ENDMDL
MODEL 9
REMARK VINA RESULT:      -3.0      1.591      2.144
REMARK  1 active torsions:
REMARK  status: ('A' for Active; 'I' for Inactive)
REMARK    1  A    between atoms: C4_4  and  C5_5 
ROOT
HETATM    1  C1  UNL     1     -34.122   4.340   3.458  1.00 20.00     0.011 C 
HETATM    2  C2  UNL     1     -33.459   5.384   2.572  1.00 20.00     0.017 C 
HETATM    3  C3  UNL     1     -34.998   5.101   4.437  1.00 20.00     0.074 C 
HETATM    4  C4  UNL     1     -32.838   6.414   3.511  1.00 20.00     0.061 C 
HETATM    5  S6  UNL     1     -34.046   6.586   4.864  1.00 20.00    -0.163 SA
ENDROOT
BRANCH   4   6
HETATM    6  C5  UNL     1     -32.570   7.745   2.829  1.00 20.00     0.129 C 
HETATM    7 CL7  UNL     1     -32.442   7.525   1.072  1.00 20.00    -0.129 Cl
ENDBRANCH   4   6
TORSDOF 1
ENDMDL
