MODEL 1
REMARK VINA RESULT:      -4.0      0.000      0.000
REMARK  1 active torsions:
REMARK  status: ('A' for Active; 'I' for Inactive)
REMARK    1  A    between atoms: C4_4  and  C5_5 
ROOT
HETATM    1  C1  UNL     1     -33.829   5.188   3.395  1.00 20.00     0.016 C 
HETATM    2  C2  UNL     1     -34.991   4.814   4.299  1.00 20.00     0.074 C 
HETATM    3  C3  UNL     1     -33.425   6.819   5.162  1.00 20.00     0.079 C 
HETATM    4  C4  UNL     1     -33.543   6.668   3.649  1.00 20.00     0.009 C 
HETATM    5  S6  UNL     1     -34.687   5.707   5.848  1.00 20.00    -0.169 SA
ENDROOT
BRANCH   4   6
HETATM    6  C5  UNL     1     -32.284   7.137   2.931  1.00 20.00     0.120 C 
HETATM    7 CL7  UNL     1     -32.710   7.959   1.418  1.00 20.00    -0.130 Cl
ENDBRANCH   4   6
TORSDOF 1
ENDMDL
MODEL 2
REMARK VINA RESULT:      -3.4      0.926      1.811
REMARK  1 active torsions:
REMARK  status: ('A' for Active; 'I' for Inactive)
REMARK    1  A    between atoms: C4_4  and  C5_5 
ROOT
HETATM    1  C1  UNL     1     -33.629   7.037   4.448  1.00 20.00     0.016 C 
HETATM    2  C2  UNL     1     -33.936   6.694   5.896  1.00 20.00     0.074 C 
HETATM    3  C3  UNL     1     -34.547   4.808   4.082  1.00 20.00     0.079 C 
HETATM    4  C4  UNL     1     -33.367   5.711   3.735  1.00 20.00     0.009 C 
HETATM    5  S6  UNL     1     -34.932   5.180   5.818  1.00 20.00    -0.169 SA
ENDROOT
BRANCH   4   6
HETATM    6  C5  UNL     1     -33.214   5.892   2.231  1.00 20.00     0.120 C 
HETATM    7 CL7  UNL     1     -32.458   7.457   1.876  1.00 20.00    -0.130 Cl
ENDBRANCH   4   6
TORSDOF 1
ENDMDL
MODEL 3
REMARK VINA RESULT:      -3.3      2.856      3.601
REMARK  1 active torsions:
REMARK  status: ('A' for Active; 'I' for Inactive)
REMARK    1  A    between atoms: C4_4  and  C5_5 
ROOT
HETATM    1  C1  UNL     1     -32.661   7.142   3.824  1.00 20.00     0.016 C 
HETATM    2  C2  UNL     1     -32.529   6.860   2.337  1.00 20.00     0.074 C 
HETATM    3  C3  UNL     1     -34.058   5.146   3.731  1.00 20.00     0.079 C 
HETATM    4  C4  UNL     1     -34.015   6.579   4.253  1.00 20.00     0.009 C 
HETATM    5  S6  UNL     1     -33.247   5.210   2.107  1.00 20.00    -0.169 SA
ENDROOT
BRANCH   4   6
HETATM    6  C5  UNL     1     -34.205   6.640   5.763  1.00 20.00     0.120 C 
HETATM    7 CL7  UNL     1     -34.867   5.106   6.360  1.00 20.00    -0.130 Cl
ENDBRANCH   4   6
TORSDOF 1
ENDMDL
MODEL 4
REMARK VINA RESULT:      -3.3     16.291     16.550
REMARK  1 active torsions:
REMARK  status: ('A' for Active; 'I' for Inactive)
REMARK    1  A    between atoms: C4_4  and  C5_5 
ROOT
HETATM    1  C1  UNL     1     -22.705  16.935   9.410  1.00 20.00     0.016 C 
HETATM    2  C2  UNL     1     -22.756  17.843   8.193  1.00 20.00     0.074 C 
HETATM    3  C3  UNL     1     -24.536  18.373  10.135  1.00 20.00     0.079 C 
HETATM    4  C4  UNL     1     -23.213  17.763  10.590  1.00 20.00     0.009 C 
HETATM    5  S6  UNL     1     -24.281  18.805   8.389  1.00 20.00    -0.169 SA
ENDROOT
BRANCH   4   6
HETATM    6  C5  UNL     1     -23.379  16.921  11.848  1.00 20.00     0.120 C 
HETATM    7 CL7  UNL     1     -24.632  15.690  11.601  1.00 20.00    -0.130 Cl
ENDBRANCH   4   6
TORSDOF 1
ENDMDL
MODEL 5
REMARK VINA RESULT:      -3.2     15.972     16.188
REMARK  1 active torsions:
REMARK  status: ('A' for Active; 'I' for Inactive)
REMARK    1  A    between atoms: C4_4  and  C5_5 
ROOT
HETATM    1  C1  UNL     1     -24.044  16.255  11.576  1.00 20.00     0.016 C 
HETATM    2  C2  UNL     1     -25.359  16.496  12.299  1.00 20.00     0.074 C 
HETATM    3  C3  UNL     1     -24.651  18.351  10.489  1.00 20.00     0.079 C 
HETATM    4  C4  UNL     1     -24.171  16.930  10.211  1.00 20.00     0.009 C 
HETATM    5  S6  UNL     1     -25.830  18.192  11.861  1.00 20.00    -0.169 SA
ENDROOT
BRANCH   4   6
HETATM    6  C5  UNL     1     -22.856  16.915   9.443  1.00 20.00     0.120 C 
HETATM    7 CL7  UNL     1     -22.228  18.565   9.269  1.00 20.00    -0.130 Cl
ENDBRANCH   4   6
TORSDOF 1
ENDMDL
MODEL 6
REMARK VINA RESULT:      -3.2     16.463     16.921
REMARK  1 active torsions:
REMARK  status: ('A' for Active; 'I' for Inactive)
REMARK    1  A    between atoms: C4_4  and  C5_5 
ROOT
HETATM    1  C1  UNL     1     -24.578  17.857  10.394  1.00 20.00     0.016 C 
HETATM    2  C2  UNL     1     -24.391  18.027  11.893  1.00 20.00     0.074 C 
HETATM    3  C3  UNL     1     -22.141  17.807  10.440  1.00 20.00     0.079 C 
HETATM    4  C4  UNL     1     -23.333  18.446   9.733  1.00 20.00     0.009 C 
HETATM    5  S6  UNL     1     -22.632  17.696  12.186  1.00 20.00    -0.169 SA
ENDROOT
BRANCH   4   6
HETATM    6  C5  UNL     1     -23.307  18.187   8.232  1.00 20.00     0.120 C 
HETATM    7 CL7  UNL     1     -21.788  17.397   7.772  1.00 20.00    -0.130 Cl
ENDBRANCH   4   6
TORSDOF 1
ENDMDL
MODEL 7
REMARK VINA RESULT:      -3.1     16.697     16.984
REMARK  1 active torsions:
REMARK  status: ('A' for Active; 'I' for Inactive)
REMARK    1  A    between atoms: C4_4  and  C5_5 
ROOT
HETATM    1  C1  UNL     1     -24.705  18.693   9.672  1.00 20.00     0.016 C 
HETATM    2  C2  UNL     1     -23.750  18.533   8.501  1.00 20.00     0.074 C 
HETATM    3  C3  UNL     1     -22.781  17.858  10.914  1.00 20.00     0.079 C 
HETATM    4  C4  UNL     1     -24.282  17.664  10.719  1.00 20.00     0.009 C 
HETATM    5  S6  UNL     1     -22.132  18.216   9.256  1.00 20.00    -0.169 SA
ENDROOT
BRANCH   4   6
HETATM    6  C5  UNL     1     -25.049  17.830  12.024  1.00 20.00     0.120 C 
HETATM    7 CL7  UNL     1     -26.103  19.254  11.939  1.00 20.00    -0.130 Cl
ENDBRANCH   4   6
TORSDOF 1
ENDMDL
MODEL 8
REMARK VINA RESULT:      -3.1     11.554     11.948
REMARK  1 active torsions:
REMARK  status: ('A' for Active; 'I' for Inactive)
REMARK    1  A    between atoms: C4_4  and  C5_5 
ROOT
HETATM    1  C1  UNL     1     -35.495  15.420  -3.206  1.00 20.00     0.016 C 
HETATM    2  C2  UNL     1     -34.966  14.211  -3.960  1.00 20.00     0.074 C 
HETATM    3  C3  UNL     1     -33.160  16.105  -3.354  1.00 20.00     0.079 C 
HETATM    4  C4  UNL     1     -34.327  15.961  -2.382  1.00 20.00     0.009 C 
HETATM    5  S6  UNL     1     -33.283  14.669  -4.458  1.00 20.00    -0.169 SA
ENDROOT
BRANCH   4   6
HETATM    6  C5  UNL     1     -34.670  17.281  -1.706  1.00 20.00     0.120 C 
HETATM    7 CL7  UNL     1     -35.382  16.986  -0.108  1.00 20.00    -0.130 Cl
ENDBRANCH   4   6
TORSDOF 1
ENDMDL
MODEL 9
REMARK VINA RESULT:      -3.1     11.841     12.295
REMARK  1 active torsions:
REMARK  status: ('A' for Active; 'I' for Inactive)
REMARK    1  A    between atoms: C4_4  and  C5_5 
ROOT
HETATM    1  C1  UNL     1     -35.301  14.715  -3.531  1.00 20.00     0.016 C 
HETATM    2  C2  UNL     1     -36.082  13.877  -4.529  1.00 20.00     0.074 C 
HETATM    3  C3  UNL     1     -34.298  15.595  -5.571  1.00 20.00     0.079 C 
HETATM    4  C4  UNL     1     -33.961  15.039  -4.191  1.00 20.00     0.009 C 
HETATM    5  S6  UNL     1     -35.711  14.609  -6.147  1.00 20.00    -0.169 SA
ENDROOT
BRANCH   4   6
HETATM    6  C5  UNL     1     -33.142  16.023  -3.367  1.00 20.00     0.120 C 
HETATM    7 CL7  UNL     1     -34.083  16.589  -1.974  1.00 20.00    -0.130 Cl
ENDBRANCH   4   6
TORSDOF 1
ENDMDL
