MODEL 1
REMARK VINA RESULT:      -4.6      0.000      0.000
REMARK  4 active torsions:
REMARK  status: ('A' for Active; 'I' for Inactive)
REMARK    1  A    between atoms: C1_1  and  C3_3 
REMARK    2  A    between atoms: C1_1  and  C7_7 
REMARK    3  A    between atoms: C7_7  and  C8_8 
REMARK    4  A    between atoms: C8_8  and  S10_10 
ROOT
HETATM    1  C1  UNL     1     -33.510   5.638   3.165  1.00 20.00     0.132 C 
HETATM    2  O9  UNL     1     -33.031   4.694   2.536  1.00 20.00    -0.298 OA
ENDROOT
BRANCH   1   3
HETATM    3  C3  UNL     1     -34.747   5.469   4.006  1.00 20.00     0.059 A 
HETATM    4  C2  UNL     1     -34.667   4.580   5.200  1.00 20.00     0.017 A 
HETATM    5  C4  UNL     1     -34.799   6.068   5.371  1.00 20.00    -0.007 A 
HETATM    6  C5  UNL     1     -33.679   6.852   5.965  1.00 20.00     0.011 C 
ENDBRANCH   1   3
BRANCH   1   7
HETATM    7  C7  UNL     1     -32.883   7.019   3.109  1.00 20.00     0.088 C 
BRANCH   7   8
HETATM    8  C8  UNL     1     -32.369   7.398   1.726  1.00 20.00     0.081 C 
BRANCH   8   9
HETATM    9  S10 UNL     1     -32.948   9.042   1.209  1.00 20.00    -0.173 SA
HETATM   10  C6  UNL     1     -33.384   8.639  -0.497  1.00 20.00     0.089 C 
ENDBRANCH   8   9
ENDBRANCH   7   8
ENDBRANCH   1   7
TORSDOF 4
ENDMDL
MODEL 2
REMARK VINA RESULT:      -4.5     11.249     11.987
REMARK  4 active torsions:
REMARK  status: ('A' for Active; 'I' for Inactive)
REMARK    1  A    between atoms: C1_1  and  C3_3 
REMARK    2  A    between atoms: C1_1  and  C7_7 
REMARK    3  A    between atoms: C7_7  and  C8_8 
REMARK    4  A    between atoms: C8_8  and  S10_10 
ROOT
HETATM    1  C1  UNL     1     -33.825  14.663  -4.521  1.00 20.00     0.132 C 
HETATM    2  O9  UNL     1     -34.123  13.554  -4.080  1.00 20.00    -0.298 OA
ENDROOT
BRANCH   1   3
HETATM    3  C3  UNL     1     -33.059  15.656  -3.686  1.00 20.00     0.059 A 
HETATM    4  C2  UNL     1     -33.451  17.091  -3.767  1.00 20.00     0.017 A 
HETATM    5  C4  UNL     1     -33.721  16.302  -2.517  1.00 20.00    -0.007 A 
HETATM    6  C5  UNL     1     -35.124  16.013  -2.105  1.00 20.00     0.011 C 
ENDBRANCH   1   3
BRANCH   1   7
HETATM    7  C7  UNL     1     -34.230  15.088  -5.920  1.00 20.00     0.088 C 
BRANCH   7   8
HETATM    8  C8  UNL     1     -35.659  14.703  -6.283  1.00 20.00     0.081 C 
BRANCH   8   9
HETATM    9  S10 UNL     1     -36.883  15.766  -5.462  1.00 20.00    -0.173 SA
HETATM   10  C6  UNL     1     -37.606  14.527  -4.363  1.00 20.00     0.089 C 
ENDBRANCH   8   9
ENDBRANCH   7   8
ENDBRANCH   1   7
TORSDOF 4
ENDMDL
MODEL 3
REMARK VINA RESULT:      -4.4      1.503      1.645
REMARK  4 active torsions:
REMARK  status: ('A' for Active; 'I' for Inactive)
REMARK    1  A    between atoms: C1_1  and  C3_3 
REMARK    2  A    between atoms: C1_1  and  C7_7 
REMARK    3  A    between atoms: C7_7  and  C8_8 
REMARK    4  A    between atoms: C8_8  and  S10_10 
ROOT
HETATM    1  C1  UNL     1     -33.246   6.869   4.176  1.00 20.00     0.132 C 
HETATM    2  O9  UNL     1     -33.233   7.285   5.335  1.00 20.00    -0.298 OA
ENDROOT
BRANCH   1   3
HETATM    3  C3  UNL     1     -34.356   5.983   3.676  1.00 20.00     0.059 A 
HETATM    4  C2  UNL     1     -34.124   4.512   3.656  1.00 20.00     0.017 A 
HETATM    5  C4  UNL     1     -35.092   5.111   4.636  1.00 20.00    -0.007 A 
HETATM    6  C5  UNL     1     -34.799   5.068   6.097  1.00 20.00     0.011 C 
ENDBRANCH   1   3
BRANCH   1   7
HETATM    7  C7  UNL     1     -32.136   7.219   3.203  1.00 20.00     0.088 C 
BRANCH   7   8
HETATM    8  C8  UNL     1     -32.598   7.288   1.753  1.00 20.00     0.081 C 
BRANCH   8   9
HETATM    9  S10 UNL     1     -32.883   8.999   1.207  1.00 20.00    -0.173 SA
HETATM   10  C6  UNL     1     -33.405   8.647  -0.487  1.00 20.00     0.089 C 
ENDBRANCH   8   9
ENDBRANCH   7   8
ENDBRANCH   1   7
TORSDOF 4
ENDMDL
MODEL 4
REMARK VINA RESULT:      -4.4     11.001     11.799
REMARK  4 active torsions:
REMARK  status: ('A' for Active; 'I' for Inactive)
REMARK    1  A    between atoms: C1_1  and  C3_3 
REMARK    2  A    between atoms: C1_1  and  C7_7 
REMARK    3  A    between atoms: C7_7  and  C8_8 
REMARK    4  A    between atoms: C8_8  and  S10_10 
ROOT
HETATM    1  C1  UNL     1     -34.664  14.096  -4.286  1.00 20.00     0.132 C 
HETATM    2  O9  UNL     1     -34.598  12.931  -3.895  1.00 20.00    -0.298 OA
ENDROOT
BRANCH   1   3
HETATM    3  C3  UNL     1     -33.591  15.097  -3.946  1.00 20.00     0.059 A 
HETATM    4  C2  UNL     1     -33.862  16.535  -4.223  1.00 20.00     0.017 A 
HETATM    5  C4  UNL     1     -33.794  16.037  -2.807  1.00 20.00    -0.007 A 
HETATM    6  C5  UNL     1     -35.018  16.042  -1.955  1.00 20.00     0.011 C 
ENDBRANCH   1   3
BRANCH   1   7
HETATM    7  C7  UNL     1     -35.838  14.581  -5.118  1.00 20.00     0.088 C 
BRANCH   7   8
HETATM    8  C8  UNL     1     -37.188  14.365  -4.446  1.00 20.00     0.081 C 
BRANCH   8   9
HETATM    9  S10 UNL     1     -38.127  15.914  -4.287  1.00 20.00    -0.173 SA
HETATM   10  C6  UNL     1     -39.791  15.211  -4.294  1.00 20.00     0.089 C 
ENDBRANCH   8   9
ENDBRANCH   7   8
ENDBRANCH   1   7
TORSDOF 4
ENDMDL
MODEL 5
REMARK VINA RESULT:      -4.4     11.114     12.236
REMARK  4 active torsions:
REMARK  status: ('A' for Active; 'I' for Inactive)
REMARK    1  A    between atoms: C1_1  and  C3_3 
REMARK    2  A    between atoms: C1_1  and  C7_7 
REMARK    3  A    between atoms: C7_7  and  C8_8 
REMARK    4  A    between atoms: C8_8  and  S10_10 
ROOT
HETATM    1  C1  UNL     1     -36.136  13.983  -4.833  1.00 20.00     0.132 C 
HETATM    2  O9  UNL     1     -37.267  13.641  -4.490  1.00 20.00    -0.298 OA
ENDROOT
BRANCH   1   3
HETATM    3  C3  UNL     1     -34.991  13.992  -3.854  1.00 20.00     0.059 A 
HETATM    4  C2  UNL     1     -33.824  14.869  -4.149  1.00 20.00     0.017 A 
HETATM    5  C4  UNL     1     -34.750  15.199  -3.013  1.00 20.00    -0.007 A 
HETATM    6  C5  UNL     1     -35.598  16.424  -3.073  1.00 20.00     0.011 C 
ENDBRANCH   1   3
BRANCH   1   7
HETATM    7  C7  UNL     1     -35.846  14.427  -6.255  1.00 20.00     0.088 C 
BRANCH   7   8
HETATM    8  C8  UNL     1     -36.420  15.797  -6.594  1.00 20.00     0.081 C 
BRANCH   8   9
HETATM    9  S10 UNL     1     -35.160  16.916  -7.277  1.00 20.00    -0.173 SA
HETATM   10  C6  UNL     1     -33.990  15.666  -7.855  1.00 20.00     0.089 C 
ENDBRANCH   8   9
ENDBRANCH   7   8
ENDBRANCH   1   7
TORSDOF 4
ENDMDL
MODEL 6
REMARK VINA RESULT:      -4.3     10.860     12.063
REMARK  4 active torsions:
REMARK  status: ('A' for Active; 'I' for Inactive)
REMARK    1  A    between atoms: C1_1  and  C3_3 
REMARK    2  A    between atoms: C1_1  and  C7_7 
REMARK    3  A    between atoms: C7_7  and  C8_8 
REMARK    4  A    between atoms: C8_8  and  S10_10 
ROOT
HETATM    1  C1  UNL     1     -35.133  14.028  -4.117  1.00 20.00     0.132 C 
HETATM    2  O9  UNL     1     -34.514  12.975  -3.971  1.00 20.00    -0.298 OA
ENDROOT
BRANCH   1   3
HETATM    3  C3  UNL     1     -36.091  14.219  -5.264  1.00 20.00     0.059 A 
HETATM    4  C2  UNL     1     -36.419  15.612  -5.678  1.00 20.00     0.017 A 
HETATM    5  C4  UNL     1     -35.585  14.735  -6.568  1.00 20.00    -0.007 A 
HETATM    6  C5  UNL     1     -34.154  15.072  -6.818  1.00 20.00     0.011 C 
ENDBRANCH   1   3
BRANCH   1   7
HETATM    7  C7  UNL     1     -34.949  15.189  -3.156  1.00 20.00     0.088 C 
BRANCH   7   8
HETATM    8  C8  UNL     1     -33.557  15.806  -3.209  1.00 20.00     0.081 C 
BRANCH   8   9
HETATM    9  S10 UNL     1     -33.422  17.277  -2.149  1.00 20.00    -0.173 SA
HETATM   10  C6  UNL     1     -34.914  17.024  -1.162  1.00 20.00     0.089 C 
ENDBRANCH   8   9
ENDBRANCH   7   8
ENDBRANCH   1   7
TORSDOF 4
ENDMDL
MODEL 7
REMARK VINA RESULT:      -4.2     15.827     16.902
REMARK  4 active torsions:
REMARK  status: ('A' for Active; 'I' for Inactive)
REMARK    1  A    between atoms: C1_1  and  C3_3 
REMARK    2  A    between atoms: C1_1  and  C7_7 
REMARK    3  A    between atoms: C7_7  and  C8_8 
REMARK    4  A    between atoms: C8_8  and  S10_10 
ROOT
HETATM    1  C1  UNL     1     -23.866  17.331  10.942  1.00 20.00     0.132 C 
HETATM    2  O9  UNL     1     -24.279  16.265  10.487  1.00 20.00    -0.298 OA
ENDROOT
BRANCH   1   3
HETATM    3  C3  UNL     1     -22.721  18.066  10.296  1.00 20.00     0.059 A 
HETATM    4  C2  UNL     1     -22.234  17.581   8.975  1.00 20.00     0.017 A 
HETATM    5  C4  UNL     1     -22.967  18.889   9.078  1.00 20.00    -0.007 A 
HETATM    6  C5  UNL     1     -24.310  19.043   8.449  1.00 20.00     0.011 C 
ENDBRANCH   1   3
BRANCH   1   7
HETATM    7  C7  UNL     1     -24.483  17.946  12.185  1.00 20.00     0.088 C 
BRANCH   7   8
HETATM    8  C8  UNL     1     -25.757  18.733  11.905  1.00 20.00     0.081 C 
BRANCH   8   9
HETATM    9  S10 UNL     1     -27.251  17.789  12.332  1.00 20.00    -0.173 SA
HETATM   10  C6  UNL     1     -28.460  18.805  11.453  1.00 20.00     0.089 C 
ENDBRANCH   8   9
ENDBRANCH   7   8
ENDBRANCH   1   7
TORSDOF 4
ENDMDL
MODEL 8
REMARK VINA RESULT:      -4.1     11.348     11.986
REMARK  4 active torsions:
REMARK  status: ('A' for Active; 'I' for Inactive)
REMARK    1  A    between atoms: C1_1  and  C3_3 
REMARK    2  A    between atoms: C1_1  and  C7_7 
REMARK    3  A    between atoms: C7_7  and  C8_8 
REMARK    4  A    between atoms: C8_8  and  S10_10 
ROOT
HETATM    1  C1  UNL     1     -33.689  15.773  -3.239  1.00 20.00     0.132 C 
HETATM    2  O9  UNL     1     -32.770  16.588  -3.314  1.00 20.00    -0.298 OA
ENDROOT
BRANCH   1   3
HETATM    3  C3  UNL     1     -34.767  15.906  -2.195  1.00 20.00     0.059 A 
HETATM    4  C2  UNL     1     -34.794  17.145  -1.369  1.00 20.00     0.017 A 
HETATM    5  C4  UNL     1     -35.866  16.894  -2.392  1.00 20.00    -0.007 A 
HETATM    6  C5  UNL     1     -35.974  17.774  -3.592  1.00 20.00     0.011 C 
ENDBRANCH   1   3
BRANCH   1   7
HETATM    7  C7  UNL     1     -33.770  14.588  -4.184  1.00 20.00     0.088 C 
BRANCH   7   8
HETATM    8  C8  UNL     1     -33.978  14.985  -5.640  1.00 20.00     0.081 C 
BRANCH   8   9
HETATM    9  S10 UNL     1     -35.718  14.839  -6.146  1.00 20.00    -0.173 SA
HETATM   10  C6  UNL     1     -36.279  13.737  -4.828  1.00 20.00     0.089 C 
ENDBRANCH   8   9
ENDBRANCH   7   8
ENDBRANCH   1   7
TORSDOF 4
ENDMDL
MODEL 9
REMARK VINA RESULT:      -4.1     11.135     12.297
REMARK  4 active torsions:
REMARK  status: ('A' for Active; 'I' for Inactive)
REMARK    1  A    between atoms: C1_1  and  C3_3 
REMARK    2  A    between atoms: C1_1  and  C7_7 
REMARK    3  A    between atoms: C7_7  and  C8_8 
REMARK    4  A    between atoms: C8_8  and  S10_10 
ROOT
HETATM    1  C1  UNL     1     -36.000  13.851  -4.338  1.00 20.00     0.132 C 
HETATM    2  O9  UNL     1     -35.788  12.667  -4.601  1.00 20.00    -0.298 OA
ENDROOT
BRANCH   1   3
HETATM    3  C3  UNL     1     -34.869  14.796  -4.025  1.00 20.00     0.059 A 
HETATM    4  C2  UNL     1     -33.475  14.308  -4.216  1.00 20.00     0.017 A 
HETATM    5  C4  UNL     1     -34.044  15.352  -5.135  1.00 20.00    -0.007 A 
HETATM    6  C5  UNL     1     -34.280  15.033  -6.572  1.00 20.00     0.011 C 
ENDBRANCH   1   3
BRANCH   1   7
HETATM    7  C7  UNL     1     -37.410  14.409  -4.303  1.00 20.00     0.088 C 
BRANCH   7   8
HETATM    8  C8  UNL     1     -37.550  15.753  -5.005  1.00 20.00     0.081 C 
BRANCH   8   9
HETATM    9  S10 UNL     1     -37.901  17.101  -3.837  1.00 20.00    -0.173 SA
HETATM   10  C6  UNL     1     -36.529  18.191  -4.279  1.00 20.00     0.089 C 
ENDBRANCH   8   9
ENDBRANCH   7   8
ENDBRANCH   1   7
TORSDOF 4
ENDMDL
