MODEL 1
REMARK VINA RESULT:      -4.5      0.000      0.000
REMARK  3 active torsions:
REMARK  status: ('A' for Active; 'I' for Inactive)
REMARK    1  A    between atoms: C1_1  and  C7_7 
REMARK    2  A    between atoms: C1_1  and  C9_9 
REMARK    3  A    between atoms: C8_8  and  C9_9 
ROOT
HETATM    1  C1  UNL     1     -33.126   6.115   2.886  1.00 20.00     0.141 C 
HETATM    2  O10 UNL     1     -32.846   4.924   2.748  1.00 20.00    -0.297 OA
ENDROOT
BRANCH   1   3
HETATM    3  C7  UNL     1     -34.270   6.542   3.743  1.00 20.00     0.116 C 
HETATM    4  C3  UNL     1     -33.845   7.262   5.023  1.00 20.00     0.024 C 
HETATM    5  C2  UNL     1     -33.514   6.197   6.060  1.00 20.00     0.012 C 
HETATM    6  C6  UNL     1     -34.677   5.222   6.063  1.00 20.00     0.075 C 
HETATM    7  S11 UNL     1     -35.166   5.065   4.323  1.00 20.00    -0.157 SA
ENDBRANCH   1   3
BRANCH   1   8
HETATM    8  C9  UNL     1     -32.348   7.226   2.208  1.00 20.00     0.084 C 
BRANCH   8   9
HETATM    9  C8  UNL     1     -33.197   8.030   1.240  1.00 20.00    -0.007 A 
HETATM   10  C4  UNL     1     -32.906   9.488   1.007  1.00 20.00     0.005 A 
HETATM   11  C5  UNL     1     -32.626   8.482  -0.074  1.00 20.00     0.005 A 
ENDBRANCH   8   9
ENDBRANCH   1   8
TORSDOF 3
ENDMDL
MODEL 2
REMARK VINA RESULT:      -4.3     10.783     12.166
REMARK  3 active torsions:
REMARK  status: ('A' for Active; 'I' for Inactive)
REMARK    1  A    between atoms: C1_1  and  C7_7 
REMARK    2  A    between atoms: C1_1  and  C9_9 
REMARK    3  A    between atoms: C8_8  and  C9_9 
ROOT
HETATM    1  C1  UNL     1     -35.059  14.082  -3.993  1.00 20.00     0.141 C 
HETATM    2  O10 UNL     1     -34.345  13.079  -3.999  1.00 20.00    -0.297 OA
ENDROOT
BRANCH   1   3
HETATM    3  C7  UNL     1     -36.191  14.227  -4.954  1.00 20.00     0.116 C 
HETATM    4  C3  UNL     1     -35.748  14.503  -6.390  1.00 20.00     0.024 C 
HETATM    5  C2  UNL     1     -35.501  16.001  -6.514  1.00 20.00     0.012 C 
HETATM    6  C6  UNL     1     -36.720  16.688  -5.928  1.00 20.00     0.075 C 
HETATM    7  S11 UNL     1     -37.185  15.682  -4.491  1.00 20.00    -0.157 SA
ENDBRANCH   1   3
BRANCH   1   8
HETATM    8  C9  UNL     1     -34.850  15.233  -3.028  1.00 20.00     0.084 C 
BRANCH   8   9
HETATM    9  C8  UNL     1     -33.513  15.925  -3.222  1.00 20.00    -0.007 A 
HETATM   10  C4  UNL     1     -33.459  17.346  -3.714  1.00 20.00     0.005 A 
HETATM   11  C5  UNL     1     -33.089  17.029  -2.293  1.00 20.00     0.005 A 
ENDBRANCH   8   9
ENDBRANCH   1   8
TORSDOF 3
ENDMDL
MODEL 3
REMARK VINA RESULT:      -4.1     11.339     12.744
REMARK  3 active torsions:
REMARK  status: ('A' for Active; 'I' for Inactive)
REMARK    1  A    between atoms: C1_1  and  C7_7 
REMARK    2  A    between atoms: C1_1  and  C9_9 
REMARK    3  A    between atoms: C8_8  and  C9_9 
ROOT
HETATM    1  C1  UNL     1     -36.613  14.920  -4.494  1.00 20.00     0.141 C 
HETATM    2  O10 UNL     1     -36.927  13.768  -4.196  1.00 20.00    -0.297 OA
ENDROOT
BRANCH   1   3
HETATM    3  C7  UNL     1     -36.616  15.374  -5.915  1.00 20.00     0.116 C 
HETATM    4  C3  UNL     1     -35.636  14.614  -6.807  1.00 20.00     0.024 C 
HETATM    5  C2  UNL     1     -34.267  15.262  -6.642  1.00 20.00     0.012 C 
HETATM    6  C6  UNL     1     -34.476  16.756  -6.809  1.00 20.00     0.075 C 
HETATM    7  S11 UNL     1     -36.057  17.107  -5.990  1.00 20.00    -0.157 SA
ENDBRANCH   1   3
BRANCH   1   8
HETATM    8  C9  UNL     1     -36.203  15.954  -3.463  1.00 20.00     0.084 C 
BRANCH   8   9
HETATM    9  C8  UNL     1     -34.952  15.556  -2.700  1.00 20.00    -0.007 A 
HETATM   10  C4  UNL     1     -33.600  16.027  -3.162  1.00 20.00     0.005 A 
HETATM   11  C5  UNL     1     -34.197  16.579  -1.898  1.00 20.00     0.005 A 
ENDBRANCH   8   9
ENDBRANCH   1   8
TORSDOF 3
ENDMDL
MODEL 4
REMARK VINA RESULT:      -3.9      9.929     10.595
REMARK  3 active torsions:
REMARK  status: ('A' for Active; 'I' for Inactive)
REMARK    1  A    between atoms: C1_1  and  C7_7 
REMARK    2  A    between atoms: C1_1  and  C9_9 
REMARK    3  A    between atoms: C8_8  and  C9_9 
ROOT
HETATM    1  C1  UNL     1     -42.060   5.049  -1.543  1.00 20.00     0.141 C 
HETATM    2  O10 UNL     1     -40.835   5.013  -1.430  1.00 20.00    -0.297 OA
ENDROOT
BRANCH   1   3
HETATM    3  C7  UNL     1     -42.859   6.136  -0.904  1.00 20.00     0.116 C 
HETATM    4  C3  UNL     1     -42.581   7.524  -1.481  1.00 20.00     0.024 C 
HETATM    5  C2  UNL     1     -41.345   8.073  -0.782  1.00 20.00     0.012 C 
HETATM    6  C6  UNL     1     -41.570   7.877   0.706  1.00 20.00     0.075 C 
HETATM    7  S11 UNL     1     -42.393   6.267   0.852  1.00 20.00    -0.157 SA
ENDBRANCH   1   3
BRANCH   1   8
HETATM    8  C9  UNL     1     -42.845   4.013  -2.324  1.00 20.00     0.084 C 
BRANCH   8   9
HETATM    9  C8  UNL     1     -41.952   3.065  -3.103  1.00 20.00    -0.007 A 
HETATM   10  C4  UNL     1     -42.472   1.724  -3.544  1.00 20.00     0.005 A 
HETATM   11  C5  UNL     1     -42.215   2.802  -4.559  1.00 20.00     0.005 A 
ENDBRANCH   8   9
ENDBRANCH   1   8
TORSDOF 3
ENDMDL
MODEL 5
REMARK VINA RESULT:      -3.9     11.081     12.335
REMARK  3 active torsions:
REMARK  status: ('A' for Active; 'I' for Inactive)
REMARK    1  A    between atoms: C1_1  and  C7_7 
REMARK    2  A    between atoms: C1_1  and  C9_9 
REMARK    3  A    between atoms: C8_8  and  C9_9 
ROOT
HETATM    1  C1  UNL     1     -37.028  14.802  -4.603  1.00 20.00     0.141 C 
HETATM    2  O10 UNL     1     -37.385  13.697  -4.194  1.00 20.00    -0.297 OA
ENDROOT
BRANCH   1   3
HETATM    3  C7  UNL     1     -38.028  15.820  -5.038  1.00 20.00     0.116 C 
HETATM    4  C3  UNL     1     -37.708  17.238  -4.566  1.00 20.00     0.024 C 
HETATM    5  C2  UNL     1     -38.239  17.379  -3.145  1.00 20.00     0.012 C 
HETATM    6  C6  UNL     1     -39.668  16.867  -3.167  1.00 20.00     0.075 C 
HETATM    7  S11 UNL     1     -39.641  15.436  -4.282  1.00 20.00    -0.157 SA
ENDBRANCH   1   3
BRANCH   1   8
HETATM    8  C9  UNL     1     -35.571  15.213  -4.699  1.00 20.00     0.084 C 
BRANCH   8   9
HETATM    9  C8  UNL     1     -34.811  14.982  -3.405  1.00 20.00    -0.007 A 
HETATM   10  C4  UNL     1     -33.700  15.913  -3.003  1.00 20.00     0.005 A 
HETATM   11  C5  UNL     1     -34.996  15.916  -2.242  1.00 20.00     0.005 A 
ENDBRANCH   8   9
ENDBRANCH   1   8
TORSDOF 3
ENDMDL
MODEL 6
REMARK VINA RESULT:      -3.9     11.262     12.147
REMARK  3 active torsions:
REMARK  status: ('A' for Active; 'I' for Inactive)
REMARK    1  A    between atoms: C1_1  and  C7_7 
REMARK    2  A    between atoms: C1_1  and  C9_9 
REMARK    3  A    between atoms: C8_8  and  C9_9 
ROOT
HETATM    1  C1  UNL     1     -35.893  13.996  -4.537  1.00 20.00     0.141 C 
HETATM    2  O10 UNL     1     -35.965  12.767  -4.547  1.00 20.00    -0.297 OA
ENDROOT
BRANCH   1   3
HETATM    3  C7  UNL     1     -34.753  14.705  -5.188  1.00 20.00     0.116 C 
HETATM    4  C3  UNL     1     -33.439  14.596  -4.416  1.00 20.00     0.024 C 
HETATM    5  C2  UNL     1     -33.447  15.675  -3.341  1.00 20.00     0.012 C 
HETATM    6  C6  UNL     1     -33.841  16.968  -4.033  1.00 20.00     0.075 C 
HETATM    7  S11 UNL     1     -35.110  16.491  -5.239  1.00 20.00    -0.157 SA
ENDBRANCH   1   3
BRANCH   1   8
HETATM    8  C9  UNL     1     -36.935  14.876  -3.873  1.00 20.00     0.084 C 
BRANCH   8   9
HETATM    9  C8  UNL     1     -38.308  14.738  -4.507  1.00 20.00    -0.007 A 
HETATM   10  C4  UNL     1     -39.518  15.319  -3.827  1.00 20.00     0.005 A 
HETATM   11  C5  UNL     1     -38.996  15.939  -5.092  1.00 20.00     0.005 A 
ENDBRANCH   8   9
ENDBRANCH   1   8
TORSDOF 3
ENDMDL
MODEL 7
REMARK VINA RESULT:      -3.9     11.342     12.137
REMARK  3 active torsions:
REMARK  status: ('A' for Active; 'I' for Inactive)
REMARK    1  A    between atoms: C1_1  and  C7_7 
REMARK    2  A    between atoms: C1_1  and  C9_9 
REMARK    3  A    between atoms: C8_8  and  C9_9 
ROOT
HETATM    1  C1  UNL     1     -34.299  18.027  -0.322  1.00 20.00     0.141 C 
HETATM    2  O10 UNL     1     -34.869  17.435   0.594  1.00 20.00    -0.297 OA
ENDROOT
BRANCH   1   3
HETATM    3  C7  UNL     1     -33.350  19.144  -0.041  1.00 20.00     0.116 C 
HETATM    4  C3  UNL     1     -32.138  19.170  -0.972  1.00 20.00     0.024 C 
HETATM    5  C2  UNL     1     -31.106  18.203  -0.409  1.00 20.00     0.012 C 
HETATM    6  C6  UNL     1     -30.965  18.535   1.066  1.00 20.00     0.075 C 
HETATM    7  S11 UNL     1     -32.646  18.927   1.625  1.00 20.00    -0.157 SA
ENDBRANCH   1   3
BRANCH   1   8
HETATM    8  C9  UNL     1     -34.508  17.679  -1.783  1.00 20.00     0.084 C 
BRANCH   8   9
HETATM    9  C8  UNL     1     -34.146  16.239  -2.100  1.00 20.00    -0.007 A 
HETATM   10  C4  UNL     1     -34.908  15.482  -3.154  1.00 20.00     0.005 A 
HETATM   11  C5  UNL     1     -33.485  15.895  -3.405  1.00 20.00     0.005 A 
ENDBRANCH   8   9
ENDBRANCH   1   8
TORSDOF 3
ENDMDL
MODEL 8
REMARK VINA RESULT:      -3.8     11.641     12.702
REMARK  3 active torsions:
REMARK  status: ('A' for Active; 'I' for Inactive)
REMARK    1  A    between atoms: C1_1  and  C7_7 
REMARK    2  A    between atoms: C1_1  and  C9_9 
REMARK    3  A    between atoms: C8_8  and  C9_9 
ROOT
HETATM    1  C1  UNL     1     -33.455  17.633  -3.260  1.00 20.00     0.141 C 
HETATM    2  O10 UNL     1     -32.930  18.436  -4.031  1.00 20.00    -0.297 OA
ENDROOT
BRANCH   1   3
HETATM    3  C7  UNL     1     -34.568  16.748  -3.710  1.00 20.00     0.116 C 
HETATM    4  C3  UNL     1     -34.395  15.286  -3.303  1.00 20.00     0.024 C 
HETATM    5  C2  UNL     1     -33.499  14.623  -4.341  1.00 20.00     0.012 C 
HETATM    6  C6  UNL     1     -34.067  14.993  -5.699  1.00 20.00     0.075 C 
HETATM    7  S11 UNL     1     -34.607  16.717  -5.532  1.00 20.00    -0.157 SA
ENDBRANCH   1   3
BRANCH   1   8
HETATM    8  C9  UNL     1     -33.023  17.481  -1.813  1.00 20.00     0.084 C 
BRANCH   8   9
HETATM    9  C8  UNL     1     -32.002  18.522  -1.393  1.00 20.00    -0.007 A 
HETATM   10  C4  UNL     1     -32.166  19.263  -0.094  1.00 20.00     0.005 A 
HETATM   11  C5  UNL     1     -31.068  18.248  -0.248  1.00 20.00     0.005 A 
ENDBRANCH   8   9
ENDBRANCH   1   8
TORSDOF 3
ENDMDL
MODEL 9
REMARK VINA RESULT:      -3.8     11.087     12.103
REMARK  3 active torsions:
REMARK  status: ('A' for Active; 'I' for Inactive)
REMARK    1  A    between atoms: C1_1  and  C7_7 
REMARK    2  A    between atoms: C1_1  and  C9_9 
REMARK    3  A    between atoms: C8_8  and  C9_9 
ROOT
HETATM    1  C1  UNL     1     -35.471  15.892  -2.997  1.00 20.00     0.141 C 
HETATM    2  O10 UNL     1     -36.440  16.562  -3.354  1.00 20.00    -0.297 OA
ENDROOT
BRANCH   1   3
HETATM    3  C7  UNL     1     -35.105  14.631  -3.707  1.00 20.00     0.116 C 
HETATM    4  C3  UNL     1     -33.911  14.781  -4.650  1.00 20.00     0.024 C 
HETATM    5  C2  UNL     1     -34.434  15.328  -5.971  1.00 20.00     0.012 C 
HETATM    6  C6  UNL     1     -35.626  14.468  -6.351  1.00 20.00     0.075 C 
HETATM    7  S11 UNL     1     -36.484  14.131  -4.788  1.00 20.00    -0.157 SA
ENDBRANCH   1   3
BRANCH   1   8
HETATM    8  C9  UNL     1     -34.587  16.281  -1.828  1.00 20.00     0.084 C 
BRANCH   8   9
HETATM    9  C8  UNL     1     -33.957  17.652  -2.001  1.00 20.00    -0.007 A 
HETATM   10  C4  UNL     1     -32.517  17.876  -1.629  1.00 20.00     0.005 A 
HETATM   11  C5  UNL     1     -32.929  17.883  -3.074  1.00 20.00     0.005 A 
ENDBRANCH   8   9
ENDBRANCH   1   8
TORSDOF 3
ENDMDL
