MODEL 1
REMARK VINA RESULT:      -3.4      0.000      0.000
REMARK  1 active torsions:
REMARK  status: ('A' for Active; 'I' for Inactive)
REMARK    1  A    between atoms: C4_4  and  C5_5 
ROOT
HETATM    1  C1  UNL     1     -34.767   4.558   4.791  1.00 20.00     0.011 C 
HETATM    2  C2  UNL     1     -35.076   5.632   3.758  1.00 20.00     0.016 C 
HETATM    3  C3  UNL     1     -34.595   5.272   6.120  1.00 20.00     0.074 C 
HETATM    4  C4  UNL     1     -34.037   6.739   3.925  1.00 20.00     0.057 C 
HETATM    5  S6  UNL     1     -33.739   6.820   5.722  1.00 20.00    -0.164 SA
ENDROOT
BRANCH   4   6
HETATM    6  C5  UNL     1     -32.733   6.447   3.194  1.00 20.00     0.100 C 
HETATM    7 BR7  UNL     1     -32.518   7.689   1.716  1.00 20.00    -0.095 Br
ENDBRANCH   4   6
TORSDOF 1
ENDMDL
MODEL 2
REMARK VINA RESULT:      -3.2     16.278     16.940
REMARK  1 active torsions:
REMARK  status: ('A' for Active; 'I' for Inactive)
REMARK    1  A    between atoms: C4_4  and  C5_5 
ROOT
HETATM    1  C1  UNL     1     -22.230  17.800  10.870  1.00 20.00     0.011 C 
HETATM    2  C2  UNL     1     -23.319  17.082  10.086  1.00 20.00     0.016 C 
HETATM    3  C3  UNL     1     -22.638  17.741  12.331  1.00 20.00     0.074 C 
HETATM    4  C4  UNL     1     -24.661  17.644  10.548  1.00 20.00     0.057 C 
HETATM    5  S6  UNL     1     -24.440  17.952  12.332  1.00 20.00    -0.164 SA
ENDROOT
BRANCH   4   6
HETATM    6  C5  UNL     1     -25.040  18.938   9.839  1.00 20.00     0.100 C 
HETATM    7 BR7  UNL     1     -24.478  18.857   7.982  1.00 20.00    -0.095 Br
ENDBRANCH   4   6
TORSDOF 1
ENDMDL
MODEL 3
REMARK VINA RESULT:      -3.2     16.171     16.796
REMARK  1 active torsions:
REMARK  status: ('A' for Active; 'I' for Inactive)
REMARK    1  A    between atoms: C4_4  and  C5_5 
ROOT
HETATM    1  C1  UNL     1     -24.214  16.208  10.533  1.00 20.00     0.011 C 
HETATM    2  C2  UNL     1     -24.060  17.553   9.836  1.00 20.00     0.016 C 
HETATM    3  C3  UNL     1     -24.095  16.477  12.023  1.00 20.00     0.074 C 
HETATM    4  C4  UNL     1     -22.819  18.229  10.414  1.00 20.00     0.057 C 
HETATM    5  S6  UNL     1     -22.819  17.757  12.176  1.00 20.00    -0.164 SA
ENDROOT
BRANCH   4   6
HETATM    6  C5  UNL     1     -21.527  17.766   9.752  1.00 20.00     0.100 C 
HETATM    7 BR7  UNL     1     -21.845  17.419   7.868  1.00 20.00    -0.095 Br
ENDBRANCH   4   6
TORSDOF 1
ENDMDL
MODEL 4
REMARK VINA RESULT:      -3.1     15.689     16.238
REMARK  1 active torsions:
REMARK  status: ('A' for Active; 'I' for Inactive)
REMARK    1  A    between atoms: C4_4  and  C5_5 
ROOT
HETATM    1  C1  UNL     1     -25.624  16.790  12.306  1.00 20.00     0.011 C 
HETATM    2  C2  UNL     1     -24.908  18.133  12.324  1.00 20.00     0.016 C 
HETATM    3  C3  UNL     1     -24.666  15.797  11.674  1.00 20.00     0.074 C 
HETATM    4  C4  UNL     1     -24.344  18.370  10.925  1.00 20.00     0.057 C 
HETATM    5  S6  UNL     1     -23.829  16.716  10.352  1.00 20.00    -0.164 SA
ENDROOT
BRANCH   4   6
HETATM    6  C5  UNL     1     -25.369  18.958   9.962  1.00 20.00     0.100 C 
HETATM    7 BR7  UNL     1     -24.648  18.958   8.159  1.00 20.00    -0.095 Br
ENDBRANCH   4   6
TORSDOF 1
ENDMDL
MODEL 5
REMARK VINA RESULT:      -3.1      9.479     10.038
REMARK  1 active torsions:
REMARK  status: ('A' for Active; 'I' for Inactive)
REMARK    1  A    between atoms: C4_4  and  C5_5 
ROOT
HETATM    1  C1  UNL     1     -41.181   7.471  -0.938  1.00 20.00     0.011 C 
HETATM    2  C2  UNL     1     -41.029   5.957  -0.909  1.00 20.00     0.016 C 
HETATM    3  C3  UNL     1     -41.685   7.882   0.434  1.00 20.00     0.074 C 
HETATM    4  C4  UNL     1     -42.324   5.377  -0.344  1.00 20.00     0.057 C 
HETATM    5  S6  UNL     1     -42.848   6.579   0.924  1.00 20.00    -0.164 SA
ENDROOT
BRANCH   4   6
HETATM    6  C5  UNL     1     -43.415   5.222  -1.397  1.00 20.00     0.100 C 
HETATM    7 BR7  UNL     1     -43.040   3.673  -2.505  1.00 20.00    -0.095 Br
ENDBRANCH   4   6
TORSDOF 1
ENDMDL
MODEL 6
REMARK VINA RESULT:      -3.0     16.154     16.636
REMARK  1 active torsions:
REMARK  status: ('A' for Active; 'I' for Inactive)
REMARK    1  A    between atoms: C4_4  and  C5_5 
ROOT
HETATM    1  C1  UNL     1     -25.034  17.979  12.332  1.00 20.00     0.011 C 
HETATM    2  C2  UNL     1     -24.675  16.925  11.294  1.00 20.00     0.016 C 
HETATM    3  C3  UNL     1     -26.003  18.935  11.661  1.00 20.00     0.074 C 
HETATM    4  C4  UNL     1     -24.291  17.659  10.011  1.00 20.00     0.057 C 
HETATM    5  S6  UNL     1     -25.406  19.101   9.956  1.00 20.00    -0.164 SA
ENDROOT
BRANCH   4   6
HETATM    6  C5  UNL     1     -22.839  18.124  10.004  1.00 20.00     0.100 C 
HETATM    7 BR7  UNL     1     -21.937  17.427   8.432  1.00 20.00    -0.095 Br
ENDBRANCH   4   6
TORSDOF 1
ENDMDL
MODEL 7
REMARK VINA RESULT:      -3.0     12.334     12.970
REMARK  1 active torsions:
REMARK  status: ('A' for Active; 'I' for Inactive)
REMARK    1  A    between atoms: C4_4  and  C5_5 
ROOT
HETATM    1  C1  UNL     1     -33.454  16.156  -2.995  1.00 20.00     0.011 C 
HETATM    2  C2  UNL     1     -33.275  15.100  -4.076  1.00 20.00     0.016 C 
HETATM    3  C3  UNL     1     -34.786  15.868  -2.325  1.00 20.00     0.074 C 
HETATM    4  C4  UNL     1     -34.567  15.052  -4.889  1.00 20.00     0.057 C 
HETATM    5  S6  UNL     1     -35.889  15.338  -3.665  1.00 20.00    -0.164 SA
ENDROOT
BRANCH   4   6
HETATM    6  C5  UNL     1     -34.625  16.119  -5.976  1.00 20.00     0.100 C 
HETATM    7 BR7  UNL     1     -34.025  15.368  -7.663  1.00 20.00    -0.095 Br
ENDBRANCH   4   6
TORSDOF 1
ENDMDL
MODEL 8
REMARK VINA RESULT:      -3.0     12.227     12.685
REMARK  1 active torsions:
REMARK  status: ('A' for Active; 'I' for Inactive)
REMARK    1  A    between atoms: C4_4  and  C5_5 
ROOT
HETATM    1  C1  UNL     1     -35.760  15.506  -3.284  1.00 20.00     0.011 C 
HETATM    2  C2  UNL     1     -34.729  15.935  -2.251  1.00 20.00     0.016 C 
HETATM    3  C3  UNL     1     -35.127  14.384  -4.088  1.00 20.00     0.074 C 
HETATM    4  C4  UNL     1     -33.406  16.147  -2.984  1.00 20.00     0.057 C 
HETATM    5  S6  UNL     1     -33.384  14.853  -4.271  1.00 20.00    -0.164 SA
ENDROOT
BRANCH   4   6
HETATM    6  C5  UNL     1     -33.296  17.523  -3.629  1.00 20.00     0.100 C 
HETATM    7 BR7  UNL     1     -32.526  18.779  -2.364  1.00 20.00    -0.095 Br
ENDBRANCH   4   6
TORSDOF 1
ENDMDL
MODEL 9
REMARK VINA RESULT:      -3.0     11.947     12.712
REMARK  1 active torsions:
REMARK  status: ('A' for Active; 'I' for Inactive)
REMARK    1  A    between atoms: C4_4  and  C5_5 
ROOT
HETATM    1  C1  UNL     1     -36.275  14.978  -5.597  1.00 20.00     0.011 C 
HETATM    2  C2  UNL     1     -36.095  14.028  -4.422  1.00 20.00     0.016 C 
HETATM    3  C3  UNL     1     -34.975  14.946  -6.382  1.00 20.00     0.074 C 
HETATM    4  C4  UNL     1     -34.766  14.373  -3.753  1.00 20.00     0.057 C 
HETATM    5  S6  UNL     1     -33.665  14.836  -5.132  1.00 20.00    -0.164 SA
ENDROOT
BRANCH   4   6
HETATM    6  C5  UNL     1     -34.879  15.530  -2.768  1.00 20.00     0.100 C 
HETATM    7 BR7  UNL     1     -33.283  16.631  -2.865  1.00 20.00    -0.095 Br
ENDBRANCH   4   6
TORSDOF 1
ENDMDL
