MODEL 1
REMARK VINA RESULT:      -4.7      0.000      0.000
REMARK  3 active torsions:
REMARK  status: ('A' for Active; 'I' for Inactive)
REMARK    1  A    between atoms: C1_1  and  C7_7 
REMARK    2  A    between atoms: C1_1  and  C9_9 
REMARK    3  A    between atoms: C8_8  and  C9_9 
ROOT
HETATM    1  C1  UNL     1     -33.163   6.149   2.858  1.00 20.00     0.141 C 
HETATM    2  O10 UNL     1     -32.918   4.960   2.660  1.00 20.00    -0.297 OA
ENDROOT
BRANCH   1   3
HETATM    3  C7  UNL     1     -34.282   6.565   3.756  1.00 20.00     0.116 C 
HETATM    4  C3  UNL     1     -35.277   5.438   4.001  1.00 20.00     0.024 C 
HETATM    5  C2  UNL     1     -34.745   4.599   5.156  1.00 20.00     0.012 C 
HETATM    6  C6  UNL     1     -34.344   5.571   6.252  1.00 20.00     0.075 C 
HETATM    7  S11 UNL     1     -33.584   6.967   5.382  1.00 20.00    -0.157 SA
ENDBRANCH   1   3
BRANCH   1   8
HETATM    8  C9  UNL     1     -32.367   7.272   2.220  1.00 20.00     0.084 C 
BRANCH   8   9
HETATM    9  C8  UNL     1     -33.167   8.043   1.187  1.00 20.00    -0.007 A 
HETATM   10  C4  UNL     1     -32.891   9.502   0.949  1.00 20.00     0.005 A 
HETATM   11  C5  UNL     1     -32.521   8.487  -0.095  1.00 20.00     0.005 A 
ENDBRANCH   8   9
ENDBRANCH   1   8
TORSDOF 3
ENDMDL
MODEL 2
REMARK VINA RESULT:      -4.5     11.346     11.938
REMARK  3 active torsions:
REMARK  status: ('A' for Active; 'I' for Inactive)
REMARK    1  A    between atoms: C1_1  and  C7_7 
REMARK    2  A    between atoms: C1_1  and  C9_9 
REMARK    3  A    between atoms: C8_8  and  C9_9 
ROOT
HETATM    1  C1  UNL     1     -33.997  14.848  -4.719  1.00 20.00     0.141 C 
HETATM    2  O10 UNL     1     -33.309  13.854  -4.490  1.00 20.00    -0.297 OA
ENDROOT
BRANCH   1   3
HETATM    3  C7  UNL     1     -35.160  14.781  -5.654  1.00 20.00     0.116 C 
HETATM    4  C3  UNL     1     -36.233  13.812  -5.174  1.00 20.00     0.024 C 
HETATM    5  C2  UNL     1     -37.134  14.569  -4.207  1.00 20.00     0.012 C 
HETATM    6  C6  UNL     1     -37.481  15.887  -4.875  1.00 20.00     0.075 C 
HETATM    7  S11 UNL     1     -35.951  16.413  -5.692  1.00 20.00    -0.157 SA
ENDBRANCH   1   3
BRANCH   1   8
HETATM    8  C9  UNL     1     -33.728  16.200  -4.084  1.00 20.00     0.084 C 
BRANCH   8   9
HETATM    9  C8  UNL     1     -33.737  16.146  -2.568  1.00 20.00    -0.007 A 
HETATM   10  C4  UNL     1     -34.078  17.373  -1.768  1.00 20.00     0.005 A 
HETATM   11  C5  UNL     1     -35.037  16.217  -1.816  1.00 20.00     0.005 A 
ENDBRANCH   8   9
ENDBRANCH   1   8
TORSDOF 3
ENDMDL
MODEL 3
REMARK VINA RESULT:      -4.4     11.040     12.665
REMARK  3 active torsions:
REMARK  status: ('A' for Active; 'I' for Inactive)
REMARK    1  A    between atoms: C1_1  and  C7_7 
REMARK    2  A    between atoms: C1_1  and  C9_9 
REMARK    3  A    between atoms: C8_8  and  C9_9 
ROOT
HETATM    1  C1  UNL     1     -36.021  14.124  -4.922  1.00 20.00     0.141 C 
HETATM    2  O10 UNL     1     -37.094  13.669  -4.527  1.00 20.00    -0.297 OA
ENDROOT
BRANCH   1   3
HETATM    3  C7  UNL     1     -35.845  14.558  -6.341  1.00 20.00     0.116 C 
HETATM    4  C3  UNL     1     -36.704  15.767  -6.687  1.00 20.00     0.024 C 
HETATM    5  C2  UNL     1     -35.930  17.013  -6.274  1.00 20.00     0.012 C 
HETATM    6  C6  UNL     1     -34.519  16.847  -6.812  1.00 20.00     0.075 C 
HETATM    7  S11 UNL     1     -34.126  15.096  -6.558  1.00 20.00    -0.157 SA
ENDBRANCH   1   3
BRANCH   1   8
HETATM    8  C9  UNL     1     -34.811  14.278  -4.021  1.00 20.00     0.084 C 
BRANCH   8   9
HETATM    9  C8  UNL     1     -35.102  15.114  -2.789  1.00 20.00    -0.007 A 
HETATM   10  C4  UNL     1     -34.150  16.198  -2.366  1.00 20.00     0.005 A 
HETATM   11  C5  UNL     1     -35.495  16.558  -2.928  1.00 20.00     0.005 A 
ENDBRANCH   8   9
ENDBRANCH   1   8
TORSDOF 3
ENDMDL
MODEL 4
REMARK VINA RESULT:      -4.3     11.210     12.137
REMARK  3 active torsions:
REMARK  status: ('A' for Active; 'I' for Inactive)
REMARK    1  A    between atoms: C1_1  and  C7_7 
REMARK    2  A    between atoms: C1_1  and  C9_9 
REMARK    3  A    between atoms: C8_8  and  C9_9 
ROOT
HETATM    1  C1  UNL     1     -35.897  14.038  -4.928  1.00 20.00     0.141 C 
HETATM    2  O10 UNL     1     -35.983  12.890  -4.494  1.00 20.00    -0.297 OA
ENDROOT
BRANCH   1   3
HETATM    3  C7  UNL     1     -37.099  14.753  -5.453  1.00 20.00     0.116 C 
HETATM    4  C3  UNL     1     -38.106  15.075  -4.357  1.00 20.00     0.024 C 
HETATM    5  C2  UNL     1     -37.680  16.390  -3.716  1.00 20.00     0.012 C 
HETATM    6  C6  UNL     1     -37.391  17.356  -4.852  1.00 20.00     0.075 C 
HETATM    7  S11 UNL     1     -36.560  16.355  -6.114  1.00 20.00    -0.157 SA
ENDBRANCH   1   3
BRANCH   1   8
HETATM    8  C9  UNL     1     -34.591  14.808  -4.967  1.00 20.00     0.084 C 
BRANCH   8   9
HETATM    9  C8  UNL     1     -33.929  14.906  -3.606  1.00 20.00    -0.007 A 
HETATM   10  C4  UNL     1     -33.204  16.161  -3.203  1.00 20.00     0.005 A 
HETATM   11  C5  UNL     1     -34.506  15.802  -2.545  1.00 20.00     0.005 A 
ENDBRANCH   8   9
ENDBRANCH   1   8
TORSDOF 3
ENDMDL
MODEL 5
REMARK VINA RESULT:      -4.2     11.159     12.728
REMARK  3 active torsions:
REMARK  status: ('A' for Active; 'I' for Inactive)
REMARK    1  A    between atoms: C1_1  and  C7_7 
REMARK    2  A    between atoms: C1_1  and  C9_9 
REMARK    3  A    between atoms: C8_8  and  C9_9 
ROOT
HETATM    1  C1  UNL     1     -37.103  14.763  -4.390  1.00 20.00     0.141 C 
HETATM    2  O10 UNL     1     -37.521  13.607  -4.439  1.00 20.00    -0.297 OA
ENDROOT
BRANCH   1   3
HETATM    3  C7  UNL     1     -38.027  15.905  -4.120  1.00 20.00     0.116 C 
HETATM    4  C3  UNL     1     -37.837  17.050  -5.107  1.00 20.00     0.024 C 
HETATM    5  C2  UNL     1     -38.681  16.738  -6.337  1.00 20.00     0.012 C 
HETATM    6  C6  UNL     1     -40.054  16.331  -5.832  1.00 20.00     0.075 C 
HETATM    7  S11 UNL     1     -39.729  15.324  -4.360  1.00 20.00    -0.157 SA
ENDBRANCH   1   3
BRANCH   1   8
HETATM    8  C9  UNL     1     -35.643  15.120  -4.597  1.00 20.00     0.084 C 
BRANCH   8   9
HETATM    9  C8  UNL     1     -34.818  14.963  -3.333  1.00 20.00    -0.007 A 
HETATM   10  C4  UNL     1     -33.683  15.908  -3.047  1.00 20.00     0.005 A 
HETATM   11  C5  UNL     1     -34.937  15.968  -2.222  1.00 20.00     0.005 A 
ENDBRANCH   8   9
ENDBRANCH   1   8
TORSDOF 3
ENDMDL
MODEL 6
REMARK VINA RESULT:      -4.2     11.192     12.159
REMARK  3 active torsions:
REMARK  status: ('A' for Active; 'I' for Inactive)
REMARK    1  A    between atoms: C1_1  and  C7_7 
REMARK    2  A    between atoms: C1_1  and  C9_9 
REMARK    3  A    between atoms: C8_8  and  C9_9 
ROOT
HETATM    1  C1  UNL     1     -33.724  16.494  -4.085  1.00 20.00     0.141 C 
HETATM    2  O10 UNL     1     -33.972  17.457  -4.810  1.00 20.00    -0.297 OA
ENDROOT
BRANCH   1   3
HETATM    3  C7  UNL     1     -33.750  15.100  -4.622  1.00 20.00     0.116 C 
HETATM    4  C3  UNL     1     -34.630  14.176  -3.790  1.00 20.00     0.024 C 
HETATM    5  C2  UNL     1     -36.061  14.331  -4.292  1.00 20.00     0.012 C 
HETATM    6  C6  UNL     1     -36.003  14.239  -5.807  1.00 20.00     0.075 C 
HETATM    7  S11 UNL     1     -34.503  15.144  -6.272  1.00 20.00    -0.157 SA
ENDBRANCH   1   3
BRANCH   1   8
HETATM    8  C9  UNL     1     -33.376  16.637  -2.615  1.00 20.00     0.084 C 
BRANCH   8   9
HETATM    9  C8  UNL     1     -34.379  17.488  -1.858  1.00 20.00    -0.007 A 
HETATM   10  C4  UNL     1     -35.275  16.863  -0.824  1.00 20.00     0.005 A 
HETATM   11  C5  UNL     1     -34.169  17.787  -0.400  1.00 20.00     0.005 A 
ENDBRANCH   8   9
ENDBRANCH   1   8
TORSDOF 3
ENDMDL
MODEL 7
REMARK VINA RESULT:      -4.1     11.320     12.260
REMARK  3 active torsions:
REMARK  status: ('A' for Active; 'I' for Inactive)
REMARK    1  A    between atoms: C1_1  and  C7_7 
REMARK    2  A    between atoms: C1_1  and  C9_9 
REMARK    3  A    between atoms: C8_8  and  C9_9 
ROOT
HETATM    1  C1  UNL     1     -33.316  17.511  -3.471  1.00 20.00     0.141 C 
HETATM    2  O10 UNL     1     -33.695  17.753  -4.616  1.00 20.00    -0.297 OA
ENDROOT
BRANCH   1   3
HETATM    3  C7  UNL     1     -33.464  16.145  -2.884  1.00 20.00     0.116 C 
HETATM    4  C3  UNL     1     -34.834  15.931  -2.254  1.00 20.00     0.024 C 
HETATM    5  C2  UNL     1     -35.784  15.491  -3.362  1.00 20.00     0.012 C 
HETATM    6  C6  UNL     1     -35.073  14.394  -4.135  1.00 20.00     0.075 C 
HETATM    7  S11 UNL     1     -33.346  14.935  -4.231  1.00 20.00    -0.157 SA
ENDBRANCH   1   3
BRANCH   1   8
HETATM    8  C9  UNL     1     -32.679  18.557  -2.575  1.00 20.00     0.084 C 
BRANCH   8   9
HETATM    9  C8  UNL     1     -32.157  17.975  -1.275  1.00 20.00    -0.007 A 
HETATM   10  C4  UNL     1     -31.290  18.803  -0.367  1.00 20.00     0.005 A 
HETATM   11  C5  UNL     1     -32.694  18.460   0.042  1.00 20.00     0.005 A 
ENDBRANCH   8   9
ENDBRANCH   1   8
TORSDOF 3
ENDMDL
MODEL 8
REMARK VINA RESULT:      -4.1      9.501     10.515
REMARK  3 active torsions:
REMARK  status: ('A' for Active; 'I' for Inactive)
REMARK    1  A    between atoms: C1_1  and  C7_7 
REMARK    2  A    between atoms: C1_1  and  C9_9 
REMARK    3  A    between atoms: C8_8  and  C9_9 
ROOT
HETATM    1  C1  UNL     1     -42.092   5.098  -1.407  1.00 20.00     0.141 C 
HETATM    2  O10 UNL     1     -40.862   5.132  -1.405  1.00 20.00    -0.297 OA
ENDROOT
BRANCH   1   3
HETATM    3  C7  UNL     1     -42.889   6.052  -0.579  1.00 20.00     0.116 C 
HETATM    4  C3  UNL     1     -42.282   6.266   0.802  1.00 20.00     0.024 C 
HETATM    5  C2  UNL     1     -41.226   7.357   0.675  1.00 20.00     0.012 C 
HETATM    6  C6  UNL     1     -41.862   8.491  -0.110  1.00 20.00     0.075 C 
HETATM    7  S11 UNL     1     -42.851   7.674  -1.391  1.00 20.00    -0.157 SA
ENDBRANCH   1   3
BRANCH   1   8
HETATM    8  C9  UNL     1     -42.887   4.104  -2.232  1.00 20.00     0.084 C 
BRANCH   8   9
HETATM    9  C8  UNL     1     -42.002   3.144  -3.005  1.00 20.00    -0.007 A 
HETATM   10  C4  UNL     1     -42.532   1.806  -3.439  1.00 20.00     0.005 A 
HETATM   11  C5  UNL     1     -42.265   2.876  -4.460  1.00 20.00     0.005 A 
ENDBRANCH   8   9
ENDBRANCH   1   8
TORSDOF 3
ENDMDL
MODEL 9
REMARK VINA RESULT:      -4.0     11.067     12.327
REMARK  3 active torsions:
REMARK  status: ('A' for Active; 'I' for Inactive)
REMARK    1  A    between atoms: C1_1  and  C7_7 
REMARK    2  A    between atoms: C1_1  and  C9_9 
REMARK    3  A    between atoms: C8_8  and  C9_9 
ROOT
HETATM    1  C1  UNL     1     -35.155  14.436  -3.908  1.00 20.00     0.141 C 
HETATM    2  O10 UNL     1     -34.366  13.503  -4.052  1.00 20.00    -0.297 OA
ENDROOT
BRANCH   1   3
HETATM    3  C7  UNL     1     -36.352  14.575  -4.790  1.00 20.00     0.116 C 
HETATM    4  C3  UNL     1     -37.109  15.873  -4.539  1.00 20.00     0.024 C 
HETATM    5  C2  UNL     1     -36.445  16.960  -5.374  1.00 20.00     0.012 C 
HETATM    6  C6  UNL     1     -36.267  16.389  -6.771  1.00 20.00     0.075 C 
HETATM    7  S11 UNL     1     -35.781  14.663  -6.510  1.00 20.00    -0.157 SA
ENDBRANCH   1   3
BRANCH   1   8
HETATM    8  C9  UNL     1     -34.981  15.504  -2.844  1.00 20.00     0.084 C 
BRANCH   8   9
HETATM    9  C8  UNL     1     -33.574  16.069  -2.806  1.00 20.00    -0.007 A 
HETATM   10  C4  UNL     1     -33.264  17.378  -3.479  1.00 20.00     0.005 A 
HETATM   11  C5  UNL     1     -33.269  17.288  -1.980  1.00 20.00     0.005 A 
ENDBRANCH   8   9
ENDBRANCH   1   8
TORSDOF 3
ENDMDL
