MODEL 1
REMARK VINA RESULT:      -4.2      0.000      0.000
REMARK  0 active torsions:
REMARK  status: ('A' for Active; 'I' for Inactive)
ROOT
HETATM    1  C1  UNL     1     -35.596  13.850  -4.522  1.00 20.00     0.087 C 
HETATM    2  C2  UNL     1     -34.909  15.890  -2.257  1.00 20.00     0.029 C 
HETATM    3  C3  UNL     1     -34.056  15.474  -3.454  1.00 20.00     0.045 C 
HETATM    4  C4  UNL     1     -35.901  16.974  -2.656  1.00 20.00     0.167 C 
HETATM    5  C5  UNL     1     -35.952  16.264  -4.922  1.00 20.00     0.208 C 
HETATM    6  C6  UNL     1     -34.925  15.153  -4.679  1.00 20.00     0.146 C 
HETATM    7  N7  UNL     1     -36.124  12.825  -4.398  1.00 20.00    -0.195 NA
HETATM    8  O8  UNL     1     -36.715  16.535  -3.742  1.00 20.00    -0.388 OA
HETATM    9 CL9  UNL     1     -33.873  14.994  -6.124  1.00 20.00    -0.101 Cl
ENDROOT
TORSDOF 0
ENDMDL
MODEL 2
REMARK VINA RESULT:      -4.2     18.879     19.282
REMARK  0 active torsions:
REMARK  status: ('A' for Active; 'I' for Inactive)
ROOT
HETATM    1  C1  UNL     1     -22.630  17.537  11.602  1.00 20.00     0.087 C 
HETATM    2  C2  UNL     1     -25.558  18.614  11.761  1.00 20.00     0.029 C 
HETATM    3  C3  UNL     1     -24.674  18.437  10.527  1.00 20.00     0.045 C 
HETATM    4  C4  UNL     1     -26.235  17.301  12.128  1.00 20.00     0.167 C 
HETATM    5  C5  UNL     1     -24.509  15.996  11.148  1.00 20.00     0.208 C 
HETATM    6  C6  UNL     1     -23.736  17.232  10.677  1.00 20.00     0.146 C 
HETATM    7  N7  UNL     1     -21.759  17.777  12.331  1.00 20.00    -0.195 NA
HETATM    8  O8  UNL     1     -25.265  16.275  12.332  1.00 20.00    -0.388 OA
HETATM    9 CL9  UNL     1     -22.969  16.879   9.093  1.00 20.00    -0.101 Cl
ENDROOT
TORSDOF 0
ENDMDL
MODEL 3
REMARK VINA RESULT:      -4.1      1.466      1.814
REMARK  0 active torsions:
REMARK  status: ('A' for Active; 'I' for Inactive)
ROOT
HETATM    1  C1  UNL     1     -35.798  13.957  -4.566  1.00 20.00     0.087 C 
HETATM    2  C2  UNL     1     -33.289  15.624  -3.736  1.00 20.00     0.029 C 
HETATM    3  C3  UNL     1     -34.208  15.822  -4.941  1.00 20.00     0.045 C 
HETATM    4  C4  UNL     1     -33.884  16.276  -2.495  1.00 20.00     0.167 C 
HETATM    5  C5  UNL     1     -36.109  16.056  -3.296  1.00 20.00     0.208 C 
HETATM    6  C6  UNL     1     -35.654  15.424  -4.616  1.00 20.00     0.146 C 
HETATM    7  N7  UNL     1     -35.912  12.803  -4.527  1.00 20.00    -0.195 NA
HETATM    8  O8  UNL     1     -35.191  15.767  -2.237  1.00 20.00    -0.388 OA
HETATM    9 CL9  UNL     1     -36.732  15.979  -5.939  1.00 20.00    -0.101 Cl
ENDROOT
TORSDOF 0
ENDMDL
MODEL 4
REMARK VINA RESULT:      -4.0      2.331      3.139
REMARK  0 active torsions:
REMARK  status: ('A' for Active; 'I' for Inactive)
ROOT
HETATM    1  C1  UNL     1     -36.577  14.482  -4.313  1.00 20.00     0.087 C 
HETATM    2  C2  UNL     1     -35.559  16.517  -6.453  1.00 20.00     0.029 C 
HETATM    3  C3  UNL     1     -35.628  16.686  -4.936  1.00 20.00     0.045 C 
HETATM    4  C4  UNL     1     -34.293  15.771  -6.852  1.00 20.00     0.167 C 
HETATM    5  C5  UNL     1     -34.152  14.645  -4.766  1.00 20.00     0.208 C 
HETATM    6  C6  UNL     1     -35.392  15.353  -4.212  1.00 20.00     0.146 C 
HETATM    7  N7  UNL     1     -37.510  13.796  -4.393  1.00 20.00    -0.195 NA
HETATM    8  O8  UNL     1     -34.222  14.511  -6.190  1.00 20.00    -0.388 OA
HETATM    9 CL9  UNL     1     -35.160  15.666  -2.460  1.00 20.00    -0.101 Cl
ENDROOT
TORSDOF 0
ENDMDL
MODEL 5
REMARK VINA RESULT:      -4.0      1.119      1.193
REMARK  0 active torsions:
REMARK  status: ('A' for Active; 'I' for Inactive)
ROOT
HETATM    1  C1  UNL     1     -35.237  13.854  -4.329  1.00 20.00     0.087 C 
HETATM    2  C2  UNL     1     -35.783  16.388  -2.585  1.00 20.00     0.029 C 
HETATM    3  C3  UNL     1     -34.481  15.606  -2.747  1.00 20.00     0.045 C 
HETATM    4  C4  UNL     1     -35.957  17.382  -3.725  1.00 20.00     0.167 C 
HETATM    5  C5  UNL     1     -34.646  16.083  -5.220  1.00 20.00     0.208 C 
HETATM    6  C6  UNL     1     -34.349  15.018  -4.159  1.00 20.00     0.146 C 
HETATM    7  N7  UNL     1     -35.936  12.937  -4.463  1.00 20.00    -0.195 NA
HETATM    8  O8  UNL     1     -35.908  16.715  -4.985  1.00 20.00    -0.388 OA
HETATM    9 CL9  UNL     1     -32.680  14.402  -4.390  1.00 20.00    -0.101 Cl
ENDROOT
TORSDOF 0
ENDMDL
MODEL 6
REMARK VINA RESULT:      -3.8     18.783     19.561
REMARK  0 active torsions:
REMARK  status: ('A' for Active; 'I' for Inactive)
ROOT
HETATM    1  C1  UNL     1     -24.987  16.572  11.984  1.00 20.00     0.087 C 
HETATM    2  C2  UNL     1     -23.028  17.280   9.654  1.00 20.00     0.029 C 
HETATM    3  C3  UNL     1     -24.322  17.985  10.058  1.00 20.00     0.045 C 
HETATM    4  C4  UNL     1     -21.865  17.763  10.510  1.00 20.00     0.167 C 
HETATM    5  C5  UNL     1     -23.281  18.328  12.331  1.00 20.00     0.208 C 
HETATM    6  C6  UNL     1     -24.549  17.919  11.574  1.00 20.00     0.146 C 
HETATM    7  N7  UNL     1     -25.331  15.512  12.306  1.00 20.00    -0.195 NA
HETATM    8  O8  UNL     1     -22.147  17.572  11.895  1.00 20.00    -0.388 OA
HETATM    9 CL9  UNL     1     -25.888  19.028  12.021  1.00 20.00    -0.101 Cl
ENDROOT
TORSDOF 0
ENDMDL
MODEL 7
REMARK VINA RESULT:      -3.7     18.026     18.913
REMARK  0 active torsions:
REMARK  status: ('A' for Active; 'I' for Inactive)
ROOT
HETATM    1  C1  UNL     1     -24.190  16.421  11.451  1.00 20.00     0.087 C 
HETATM    2  C2  UNL     1     -25.838  19.009  10.858  1.00 20.00     0.029 C 
HETATM    3  C3  UNL     1     -24.678  18.821  11.836  1.00 20.00     0.045 C 
HETATM    4  C4  UNL     1     -25.316  19.260   9.450  1.00 20.00     0.167 C 
HETATM    5  C5  UNL     1     -23.292  18.086   9.859  1.00 20.00     0.208 C 
HETATM    6  C6  UNL     1     -23.665  17.792  11.315  1.00 20.00     0.146 C 
HETATM    7  N7  UNL     1     -24.603  15.342  11.558  1.00 20.00    -0.195 NA
HETATM    8  O8  UNL     1     -24.458  18.199   9.035  1.00 20.00    -0.388 OA
HETATM    9 CL9  UNL     1     -22.185  17.854  12.328  1.00 20.00    -0.101 Cl
ENDROOT
TORSDOF 0
ENDMDL
MODEL 8
REMARK VINA RESULT:      -3.7     17.854     18.709
REMARK  0 active torsions:
REMARK  status: ('A' for Active; 'I' for Inactive)
ROOT
HETATM    1  C1  UNL     1     -24.097  18.496   8.880  1.00 20.00     0.087 C 
HETATM    2  C2  UNL     1     -24.336  16.267  11.055  1.00 20.00     0.029 C 
HETATM    3  C3  UNL     1     -23.677  16.188   9.679  1.00 20.00     0.045 C 
HETATM    4  C4  UNL     1     -23.382  16.877  12.073  1.00 20.00     0.167 C 
HETATM    5  C5  UNL     1     -22.200  18.098  10.414  1.00 20.00     0.208 C 
HETATM    6  C6  UNL     1     -23.055  17.532   9.276  1.00 20.00     0.146 C 
HETATM    7  N7  UNL     1     -24.917  19.256   8.568  1.00 20.00    -0.195 NA
HETATM    8  O8  UNL     1     -22.938  18.161  11.639  1.00 20.00    -0.388 OA
HETATM    9 CL9  UNL     1     -22.026  17.296   7.825  1.00 20.00    -0.101 Cl
ENDROOT
TORSDOF 0
ENDMDL
MODEL 9
REMARK VINA RESULT:      -3.6      2.001      2.561
REMARK  0 active torsions:
REMARK  status: ('A' for Active; 'I' for Inactive)
ROOT
HETATM    1  C1  UNL     1     -35.991  13.883  -4.352  1.00 20.00     0.087 C 
HETATM    2  C2  UNL     1     -34.009  16.164  -5.145  1.00 20.00     0.029 C 
HETATM    3  C3  UNL     1     -35.535  16.158  -5.223  1.00 20.00     0.045 C 
HETATM    4  C4  UNL     1     -33.545  16.524  -3.741  1.00 20.00     0.167 C 
HETATM    5  C5  UNL     1     -35.536  15.702  -2.740  1.00 20.00     0.208 C 
HETATM    6  C6  UNL     1     -36.152  15.324  -4.091  1.00 20.00     0.146 C 
HETATM    7  N7  UNL     1     -35.864  12.747  -4.556  1.00 20.00    -0.195 NA
HETATM    8  O8  UNL     1     -34.107  15.630  -2.781  1.00 20.00    -0.388 OA
HETATM    9 CL9  UNL     1     -37.922  15.619  -4.037  1.00 20.00    -0.101 Cl
ENDROOT
TORSDOF 0
ENDMDL
