MODEL 1
REMARK VINA RESULT:      -3.5      0.000      0.000
REMARK  4 active torsions:
REMARK  status: ('A' for Active; 'I' for Inactive)
REMARK    1  A    between atoms: C5_5  and  C7_7 
REMARK    2  A    between atoms: C5_5  and  S9_9 
REMARK    3  A    between atoms: C6_6  and  C7_7 
REMARK    4  A    between atoms: C8_8  and  S9_9 
ROOT
HETATM    1  C5  UNL     1     -34.907  15.136  -3.406  1.00 20.00     0.080 C 
ENDROOT
BRANCH   1   2
HETATM    2  C7  UNL     1     -34.403  16.005  -2.238  1.00 20.00     0.004 C 
HETATM    3  C1  UNL     1     -33.159  16.784  -2.685  1.00 20.00     0.012 C 
BRANCH   2   4
HETATM    4  C6  UNL     1     -35.457  16.947  -1.632  1.00 20.00     0.119 C 
HETATM    5 CL10 UNL     1     -35.374  17.061   0.144  1.00 20.00    -0.130 Cl
ENDBRANCH   2   4
ENDBRANCH   1   2
BRANCH   1   6
HETATM    6  S9  UNL     1     -33.643  14.830  -4.676  1.00 20.00    -0.160 SA
BRANCH   6   7
HETATM    7  C8  UNL     1     -34.599  15.337  -6.122  1.00 20.00    -0.003 C 
HETATM    8  C2  UNL     1     -33.757  15.094  -7.378  1.00 20.00     0.026 C 
HETATM    9  C3  UNL     1     -35.880  14.501  -6.173  1.00 20.00     0.026 C 
HETATM   10  C4  UNL     1     -34.940  16.824  -5.988  1.00 20.00     0.026 C 
ENDBRANCH   6   7
ENDBRANCH   1   6
TORSDOF 4
ENDMDL
MODEL 2
REMARK VINA RESULT:      -3.4      2.356      4.336
REMARK  4 active torsions:
REMARK  status: ('A' for Active; 'I' for Inactive)
REMARK    1  A    between atoms: C5_5  and  C7_7 
REMARK    2  A    between atoms: C5_5  and  S9_9 
REMARK    3  A    between atoms: C6_6  and  C7_7 
REMARK    4  A    between atoms: C8_8  and  S9_9 
ROOT
HETATM    1  C5  UNL     1     -35.986  16.608  -4.747  1.00 20.00     0.080 C 
ENDROOT
BRANCH   1   2
HETATM    2  C7  UNL     1     -35.877  15.985  -6.151  1.00 20.00     0.004 C 
HETATM    3  C1  UNL     1     -34.729  16.656  -6.917  1.00 20.00     0.012 C 
BRANCH   2   4
HETATM    4  C6  UNL     1     -35.732  14.453  -6.167  1.00 20.00     0.119 C 
HETATM    5 CL10 UNL     1     -36.272  13.669  -4.662  1.00 20.00    -0.130 Cl
ENDBRANCH   2   4
ENDBRANCH   1   2
BRANCH   1   6
HETATM    6  S9  UNL     1     -34.555  17.636  -4.300  1.00 20.00    -0.160 SA
BRANCH   6   7
HETATM    7  C8  UNL     1     -33.839  16.553  -3.044  1.00 20.00    -0.003 C 
HETATM    8  C2  UNL     1     -32.893  17.377  -2.166  1.00 20.00     0.026 C 
HETATM    9  C3  UNL     1     -34.977  15.973  -2.199  1.00 20.00     0.026 C 
HETATM   10  C4  UNL     1     -33.072  15.428  -3.745  1.00 20.00     0.026 C 
ENDBRANCH   6   7
ENDBRANCH   1   6
TORSDOF 4
ENDMDL
MODEL 3
REMARK VINA RESULT:      -3.4      2.355      4.341
REMARK  4 active torsions:
REMARK  status: ('A' for Active; 'I' for Inactive)
REMARK    1  A    between atoms: C5_5  and  C7_7 
REMARK    2  A    between atoms: C5_5  and  S9_9 
REMARK    3  A    between atoms: C6_6  and  C7_7 
REMARK    4  A    between atoms: C8_8  and  S9_9 
ROOT
HETATM    1  C5  UNL     1     -35.994  16.612  -4.734  1.00 20.00     0.080 C 
ENDROOT
BRANCH   1   2
HETATM    2  C7  UNL     1     -35.891  15.984  -6.136  1.00 20.00     0.004 C 
HETATM    3  C1  UNL     1     -34.753  16.659  -6.914  1.00 20.00     0.012 C 
BRANCH   2   4
HETATM    4  C6  UNL     1     -35.738  14.453  -6.148  1.00 20.00     0.119 C 
HETATM    5 CL10 UNL     1     -36.287  13.670  -4.646  1.00 20.00    -0.130 Cl
ENDBRANCH   2   4
ENDBRANCH   1   2
BRANCH   1   6
HETATM    6  S9  UNL     1     -34.559  17.640  -4.297  1.00 20.00    -0.160 SA
BRANCH   6   7
HETATM    7  C8  UNL     1     -33.841  16.562  -3.037  1.00 20.00    -0.003 C 
HETATM    8  C2  UNL     1     -34.974  15.978  -2.187  1.00 20.00     0.026 C 
HETATM    9  C3  UNL     1     -33.073  15.441  -3.741  1.00 20.00     0.026 C 
HETATM   10  C4  UNL     1     -32.892  17.390  -2.166  1.00 20.00     0.026 C 
ENDBRANCH   6   7
ENDBRANCH   1   6
TORSDOF 4
ENDMDL
MODEL 4
REMARK VINA RESULT:      -3.4      2.359      4.330
REMARK  4 active torsions:
REMARK  status: ('A' for Active; 'I' for Inactive)
REMARK    1  A    between atoms: C5_5  and  C7_7 
REMARK    2  A    between atoms: C5_5  and  S9_9 
REMARK    3  A    between atoms: C6_6  and  C7_7 
REMARK    4  A    between atoms: C8_8  and  S9_9 
ROOT
HETATM    1  C5  UNL     1     -36.003  16.637  -4.731  1.00 20.00     0.080 C 
ENDROOT
BRANCH   1   2
HETATM    2  C7  UNL     1     -35.910  15.995  -6.127  1.00 20.00     0.004 C 
HETATM    3  C1  UNL     1     -34.796  16.680  -6.930  1.00 20.00     0.012 C 
BRANCH   2   4
HETATM    4  C6  UNL     1     -35.729  14.467  -6.124  1.00 20.00     0.119 C 
HETATM    5 CL10 UNL     1     -36.340  13.679  -4.648  1.00 20.00    -0.130 Cl
ENDBRANCH   2   4
ENDBRANCH   1   2
BRANCH   1   6
HETATM    6  S9  UNL     1     -34.551  17.645  -4.303  1.00 20.00    -0.160 SA
BRANCH   6   7
HETATM    7  C8  UNL     1     -33.839  16.557  -3.048  1.00 20.00    -0.003 C 
HETATM    8  C2  UNL     1     -33.064  15.438  -3.752  1.00 20.00     0.026 C 
HETATM    9  C3  UNL     1     -32.898  17.383  -2.169  1.00 20.00     0.026 C 
HETATM   10  C4  UNL     1     -34.975  15.970  -2.206  1.00 20.00     0.026 C 
ENDBRANCH   6   7
ENDBRANCH   1   6
TORSDOF 4
ENDMDL
MODEL 5
REMARK VINA RESULT:      -3.4      1.239      1.883
REMARK  4 active torsions:
REMARK  status: ('A' for Active; 'I' for Inactive)
REMARK    1  A    between atoms: C5_5  and  C7_7 
REMARK    2  A    between atoms: C5_5  and  S9_9 
REMARK    3  A    between atoms: C6_6  and  C7_7 
REMARK    4  A    between atoms: C8_8  and  S9_9 
ROOT
HETATM    1  C5  UNL     1     -34.904  14.975  -3.429  1.00 20.00     0.080 C 
ENDROOT
BRANCH   1   2
HETATM    2  C7  UNL     1     -34.629  16.001  -2.314  1.00 20.00     0.004 C 
HETATM    3  C1  UNL     1     -33.279  16.683  -2.571  1.00 20.00     0.012 C 
BRANCH   2   4
HETATM    4  C6  UNL     1     -35.744  17.042  -2.107  1.00 20.00     0.119 C 
HETATM    5 CL10 UNL     1     -37.061  16.924  -3.300  1.00 20.00    -0.130 Cl
ENDBRANCH   2   4
ENDBRANCH   1   2
BRANCH   1   6
HETATM    6  S9  UNL     1     -33.575  14.882  -4.667  1.00 20.00    -0.160 SA
BRANCH   6   7
HETATM    7  C8  UNL     1     -34.518  15.442  -6.102  1.00 20.00    -0.003 C 
HETATM    8  C2  UNL     1     -35.890  14.759  -6.086  1.00 20.00     0.026 C 
HETATM    9  C3  UNL     1     -34.681  16.961  -6.012  1.00 20.00     0.026 C 
HETATM   10  C4  UNL     1     -33.750  15.064  -7.372  1.00 20.00     0.026 C 
ENDBRANCH   6   7
ENDBRANCH   1   6
TORSDOF 4
ENDMDL
MODEL 6
REMARK VINA RESULT:      -3.4      1.424      2.019
REMARK  4 active torsions:
REMARK  status: ('A' for Active; 'I' for Inactive)
REMARK    1  A    between atoms: C5_5  and  C7_7 
REMARK    2  A    between atoms: C5_5  and  S9_9 
REMARK    3  A    between atoms: C6_6  and  C7_7 
REMARK    4  A    between atoms: C8_8  and  S9_9 
ROOT
HETATM    1  C5  UNL     1     -35.680  16.306  -2.855  1.00 20.00     0.080 C 
ENDROOT
BRANCH   1   2
HETATM    2  C7  UNL     1     -34.890  16.544  -1.555  1.00 20.00     0.004 C 
HETATM    3  C1  UNL     1     -33.566  17.245  -1.886  1.00 20.00     0.012 C 
BRANCH   2   4
HETATM    4  C6  UNL     1     -35.660  17.304  -0.461  1.00 20.00     0.119 C 
HETATM    5 CL10 UNL     1     -34.683  17.654   0.986  1.00 20.00    -0.130 Cl
ENDBRANCH   2   4
ENDBRANCH   1   2
BRANCH   1   6
HETATM    6  S9  UNL     1     -34.727  16.677  -4.358  1.00 20.00    -0.160 SA
BRANCH   6   7
HETATM    7  C8  UNL     1     -34.423  14.980  -4.898  1.00 20.00    -0.003 C 
HETATM    8  C2  UNL     1     -35.508  14.075  -4.308  1.00 20.00     0.026 C 
HETATM    9  C3  UNL     1     -34.475  14.943  -6.428  1.00 20.00     0.026 C 
HETATM   10  C4  UNL     1     -33.040  14.548  -4.403  1.00 20.00     0.026 C 
ENDBRANCH   6   7
ENDBRANCH   1   6
TORSDOF 4
ENDMDL
MODEL 7
REMARK VINA RESULT:      -3.4      2.014      2.672
REMARK  4 active torsions:
REMARK  status: ('A' for Active; 'I' for Inactive)
REMARK    1  A    between atoms: C5_5  and  C7_7 
REMARK    2  A    between atoms: C5_5  and  S9_9 
REMARK    3  A    between atoms: C6_6  and  C7_7 
REMARK    4  A    between atoms: C8_8  and  S9_9 
ROOT
HETATM    1  C5  UNL     1     -33.342  16.942  -2.854  1.00 20.00     0.080 C 
ENDROOT
BRANCH   1   2
HETATM    2  C7  UNL     1     -34.119  17.609  -1.704  1.00 20.00     0.004 C 
HETATM    3  C1  UNL     1     -35.183  16.637  -1.178  1.00 20.00     0.012 C 
BRANCH   2   4
HETATM    4  C6  UNL     1     -33.243  18.144  -0.558  1.00 20.00     0.119 C 
HETATM    5 CL10 UNL     1     -31.508  18.201  -0.953  1.00 20.00    -0.130 Cl
ENDBRANCH   2   4
ENDBRANCH   1   2
BRANCH   1   6
HETATM    6  S9  UNL     1     -34.254  16.923  -4.426  1.00 20.00    -0.160 SA
BRANCH   6   7
HETATM    7  C8  UNL     1     -34.086  15.164  -4.803  1.00 20.00    -0.003 C 
HETATM    8  C2  UNL     1     -34.152  14.979  -6.323  1.00 20.00     0.026 C 
HETATM    9  C3  UNL     1     -32.736  14.682  -4.268  1.00 20.00     0.026 C 
HETATM   10  C4  UNL     1     -35.229  14.405  -4.124  1.00 20.00     0.026 C 
ENDBRANCH   6   7
ENDBRANCH   1   6
TORSDOF 4
ENDMDL
MODEL 8
REMARK VINA RESULT:      -3.4      1.358      1.774
REMARK  4 active torsions:
REMARK  status: ('A' for Active; 'I' for Inactive)
REMARK    1  A    between atoms: C5_5  and  C7_7 
REMARK    2  A    between atoms: C5_5  and  S9_9 
REMARK    3  A    between atoms: C6_6  and  C7_7 
REMARK    4  A    between atoms: C8_8  and  S9_9 
ROOT
HETATM    1  C5  UNL     1     -35.882  15.832  -3.519  1.00 20.00     0.080 C 
ENDROOT
BRANCH   1   2
HETATM    2  C7  UNL     1     -34.826  15.844  -2.398  1.00 20.00     0.004 C 
HETATM    3  C1  UNL     1     -33.447  16.142  -3.002  1.00 20.00     0.012 C 
BRANCH   2   4
HETATM    4  C6  UNL     1     -35.136  16.796  -1.230  1.00 20.00     0.119 C 
HETATM    5 CL10 UNL     1     -33.763  17.834  -0.772  1.00 20.00    -0.130 Cl
ENDBRANCH   2   4
ENDBRANCH   1   2
BRANCH   1   6
HETATM    6  S9  UNL     1     -35.362  16.732  -5.011  1.00 20.00    -0.160 SA
BRANCH   6   7
HETATM    7  C8  UNL     1     -35.417  15.354  -6.178  1.00 20.00    -0.003 C 
HETATM    8  C2  UNL     1     -36.051  14.145  -5.481  1.00 20.00     0.026 C 
HETATM    9  C3  UNL     1     -36.262  15.775  -7.383  1.00 20.00     0.026 C 
HETATM   10  C4  UNL     1     -33.988  15.026  -6.619  1.00 20.00     0.026 C 
ENDBRANCH   6   7
ENDBRANCH   1   6
TORSDOF 4
ENDMDL
MODEL 9
REMARK VINA RESULT:      -3.4      2.045      2.681
REMARK  4 active torsions:
REMARK  status: ('A' for Active; 'I' for Inactive)
REMARK    1  A    between atoms: C5_5  and  C7_7 
REMARK    2  A    between atoms: C5_5  and  S9_9 
REMARK    3  A    between atoms: C6_6  and  C7_7 
REMARK    4  A    between atoms: C8_8  and  S9_9 
ROOT
HETATM    1  C5  UNL     1     -34.026  16.221  -2.512  1.00 20.00     0.080 C 
ENDROOT
BRANCH   1   2
HETATM    2  C7  UNL     1     -32.898  17.265  -2.412  1.00 20.00     0.004 C 
HETATM    3  C1  UNL     1     -32.993  18.232  -3.600  1.00 20.00     0.012 C 
BRANCH   2   4
HETATM    4  C6  UNL     1     -32.843  18.030  -1.078  1.00 20.00     0.119 C 
HETATM    5 CL10 UNL     1     -31.189  18.276  -0.465  1.00 20.00    -0.130 Cl
ENDBRANCH   2   4
ENDBRANCH   1   2
BRANCH   1   6
HETATM    6  S9  UNL     1     -35.071  16.427  -3.986  1.00 20.00    -0.160 SA
BRANCH   6   7
HETATM    7  C8  UNL     1     -34.710  14.847  -4.783  1.00 20.00    -0.003 C 
HETATM    8  C2  UNL     1     -35.737  13.813  -4.312  1.00 20.00     0.026 C 
HETATM    9  C3  UNL     1     -34.806  15.037  -6.299  1.00 20.00     0.026 C 
HETATM   10  C4  UNL     1     -33.295  14.411  -4.391  1.00 20.00     0.026 C 
ENDBRANCH   6   7
ENDBRANCH   1   6
TORSDOF 4
ENDMDL
