MODEL 1
REMARK VINA RESULT:      -4.6      0.000      0.000
REMARK  0 active torsions:
REMARK  status: ('A' for Active; 'I' for Inactive)
ROOT
HETATM    1  C1  UNL     1     -24.358  18.893   7.637  1.00 20.00     0.088 C 
HETATM    2  C2  UNL     1     -24.362  18.048   9.893  1.00 20.00    -0.046 C 
HETATM    3  C3  UNL     1     -24.951  18.753   8.917  1.00 20.00     0.098 C 
HETATM    4  C4  UNL     1     -24.970  17.884  11.259  1.00 20.00     0.039 C 
HETATM    5  C5  UNL     1     -23.027  17.380   9.722  1.00 20.00     0.202 C 
HETATM    6  C6  UNL     1     -23.931  18.211  12.331  1.00 20.00     0.030 C 
HETATM    7  C7  UNL     1     -22.618  17.480  12.062  1.00 20.00     0.168 C 
HETATM    8  N8  UNL     1     -23.878  19.012   6.588  1.00 20.00    -0.192 NA
HETATM    9  O9  UNL     1     -22.129  17.798  10.755  1.00 20.00    -0.387 OA
ENDROOT
TORSDOF 0
ENDMDL
MODEL 2
REMARK VINA RESULT:      -4.4     17.326     18.308
REMARK  0 active torsions:
REMARK  status: ('A' for Active; 'I' for Inactive)
ROOT
HETATM    1  C1  UNL     1     -37.548  14.700  -4.043  1.00 20.00     0.088 C 
HETATM    2  C2  UNL     1     -35.271  15.086  -3.359  1.00 20.00    -0.046 C 
HETATM    3  C3  UNL     1     -36.552  15.478  -3.402  1.00 20.00     0.098 C 
HETATM    4  C4  UNL     1     -34.195  15.893  -2.685  1.00 20.00     0.039 C 
HETATM    5  C5  UNL     1     -34.786  13.820  -4.007  1.00 20.00     0.202 C 
HETATM    6  C6  UNL     1     -33.001  16.052  -3.626  1.00 20.00     0.030 C 
HETATM    7  C7  UNL     1     -32.592  14.708  -4.224  1.00 20.00     0.168 C 
HETATM    8  N8  UNL     1     -38.368  14.069  -4.567  1.00 20.00    -0.192 NA
HETATM    9  O9  UNL     1     -33.701  14.102  -4.895  1.00 20.00    -0.387 OA
ENDROOT
TORSDOF 0
ENDMDL
MODEL 3
REMARK VINA RESULT:      -4.4      1.639      2.475
REMARK  0 active torsions:
REMARK  status: ('A' for Active; 'I' for Inactive)
ROOT
HETATM    1  C1  UNL     1     -21.796  17.464   7.968  1.00 20.00     0.088 C 
HETATM    2  C2  UNL     1     -22.610  17.912  10.191  1.00 20.00    -0.046 C 
HETATM    3  C3  UNL     1     -21.715  17.334   9.377  1.00 20.00     0.098 C 
HETATM    4  C4  UNL     1     -22.545  17.790  11.688  1.00 20.00     0.039 C 
HETATM    5  C5  UNL     1     -23.776  18.711   9.680  1.00 20.00     0.202 C 
HETATM    6  C6  UNL     1     -23.912  17.376  12.232  1.00 20.00     0.030 C 
HETATM    7  C7  UNL     1     -25.021  18.251  11.653  1.00 20.00     0.168 C 
HETATM    8  N8  UNL     1     -21.857  17.566   6.814  1.00 20.00    -0.192 NA
HETATM    9  O9  UNL     1     -24.998  18.203  10.223  1.00 20.00    -0.387 OA
ENDROOT
TORSDOF 0
ENDMDL
MODEL 4
REMARK VINA RESULT:      -4.4     15.828     17.186
REMARK  0 active torsions:
REMARK  status: ('A' for Active; 'I' for Inactive)
ROOT
HETATM    1  C1  UNL     1     -35.096  13.604  -4.237  1.00 20.00     0.088 C 
HETATM    2  C2  UNL     1     -34.248  15.728  -3.481  1.00 20.00    -0.046 C 
HETATM    3  C3  UNL     1     -34.074  14.583  -4.155  1.00 20.00     0.098 C 
HETATM    4  C4  UNL     1     -33.180  16.783  -3.379  1.00 20.00     0.039 C 
HETATM    5  C5  UNL     1     -35.516  16.052  -2.741  1.00 20.00     0.202 C 
HETATM    6  C6  UNL     1     -33.000  17.197  -1.918  1.00 20.00     0.030 C 
HETATM    7  C7  UNL     1     -34.346  17.504  -1.266  1.00 20.00     0.168 C 
HETATM    8  N8  UNL     1     -35.928  12.799  -4.308  1.00 20.00    -0.192 NA
HETATM    9  O9  UNL     1     -35.223  16.380  -1.379  1.00 20.00    -0.387 OA
ENDROOT
TORSDOF 0
ENDMDL
MODEL 5
REMARK VINA RESULT:      -4.3     16.161     17.459
REMARK  0 active torsions:
REMARK  status: ('A' for Active; 'I' for Inactive)
ROOT
HETATM    1  C1  UNL     1     -35.987  14.404  -4.970  1.00 20.00     0.088 C 
HETATM    2  C2  UNL     1     -34.996  15.491  -3.062  1.00 20.00    -0.046 C 
HETATM    3  C3  UNL     1     -36.080  15.031  -3.703  1.00 20.00     0.098 C 
HETATM    4  C4  UNL     1     -35.068  16.160  -1.717  1.00 20.00     0.039 C 
HETATM    5  C5  UNL     1     -33.612  15.405  -3.641  1.00 20.00     0.202 C 
HETATM    6  C6  UNL     1     -34.289  17.474  -1.750  1.00 20.00     0.030 C 
HETATM    7  C7  UNL     1     -32.901  17.272  -2.353  1.00 20.00     0.168 C 
HETATM    8  N8  UNL     1     -35.917  13.890  -6.008  1.00 20.00    -0.192 NA
HETATM    9  O9  UNL     1     -33.003  16.700  -3.660  1.00 20.00    -0.387 OA
ENDROOT
TORSDOF 0
ENDMDL
MODEL 6
REMARK VINA RESULT:      -4.3     16.402     17.852
REMARK  0 active torsions:
REMARK  status: ('A' for Active; 'I' for Inactive)
ROOT
HETATM    1  C1  UNL     1     -36.303  14.006  -4.256  1.00 20.00     0.088 C 
HETATM    2  C2  UNL     1     -34.538  15.585  -3.814  1.00 20.00    -0.046 C 
HETATM    3  C3  UNL     1     -34.967  14.318  -3.901  1.00 20.00     0.098 C 
HETATM    4  C4  UNL     1     -33.126  15.943  -3.440  1.00 20.00     0.039 C 
HETATM    5  C5  UNL     1     -35.437  16.766  -4.054  1.00 20.00     0.202 C 
HETATM    6  C6  UNL     1     -33.135  16.997  -2.333  1.00 20.00     0.030 C 
HETATM    7  C7  UNL     1     -34.076  18.148  -2.680  1.00 20.00     0.168 C 
HETATM    8  N8  UNL     1     -37.395  13.744  -4.545  1.00 20.00    -0.192 NA
HETATM    9  O9  UNL     1     -35.394  17.655  -2.934  1.00 20.00    -0.387 OA
ENDROOT
TORSDOF 0
ENDMDL
MODEL 7
REMARK VINA RESULT:      -4.1     14.136     15.890
REMARK  0 active torsions:
REMARK  status: ('A' for Active; 'I' for Inactive)
ROOT
HETATM    1  C1  UNL     1     -31.939  18.269  -0.861  1.00 20.00     0.088 C 
HETATM    2  C2  UNL     1     -33.749  17.230  -2.064  1.00 20.00    -0.046 C 
HETATM    3  C3  UNL     1     -33.280  17.818  -0.955  1.00 20.00     0.098 C 
HETATM    4  C4  UNL     1     -35.167  16.743  -2.189  1.00 20.00     0.039 C 
HETATM    5  C5  UNL     1     -32.894  16.975  -3.273  1.00 20.00     0.202 C 
HETATM    6  C6  UNL     1     -35.177  15.306  -2.709  1.00 20.00     0.030 C 
HETATM    7  C7  UNL     1     -34.281  15.161  -3.936  1.00 20.00     0.168 C 
HETATM    8  N8  UNL     1     -30.843  18.639  -0.777  1.00 20.00    -0.192 NA
HETATM    9  O9  UNL     1     -32.950  15.592  -3.636  1.00 20.00    -0.387 OA
ENDROOT
TORSDOF 0
ENDMDL
MODEL 8
REMARK VINA RESULT:      -4.0      1.633      2.280
REMARK  0 active torsions:
REMARK  status: ('A' for Active; 'I' for Inactive)
ROOT
HETATM    1  C1  UNL     1     -25.700  18.896   7.094  1.00 20.00     0.088 C 
HETATM    2  C2  UNL     1     -23.990  18.831   8.790  1.00 20.00    -0.046 C 
HETATM    3  C3  UNL     1     -24.341  18.865   7.497  1.00 20.00     0.098 C 
HETATM    4  C4  UNL     1     -22.557  18.797   9.244  1.00 20.00     0.039 C 
HETATM    5  C5  UNL     1     -24.997  18.795   9.905  1.00 20.00     0.202 C 
HETATM    6  C6  UNL     1     -22.364  17.677  10.266  1.00 20.00     0.030 C 
HETATM    7  C7  UNL     1     -23.436  17.736  11.352  1.00 20.00     0.168 C 
HETATM    8  N8  UNL     1     -26.809  18.922   6.757  1.00 20.00    -0.192 NA
HETATM    9  O9  UNL     1     -24.741  17.682  10.767  1.00 20.00    -0.387 OA
ENDROOT
TORSDOF 0
ENDMDL
MODEL 9
REMARK VINA RESULT:      -4.0     16.295     16.699
REMARK  0 active torsions:
REMARK  status: ('A' for Active; 'I' for Inactive)
ROOT
HETATM    1  C1  UNL     1     -32.747   7.457   1.677  1.00 20.00     0.088 C 
HETATM    2  C2  UNL     1     -33.442   5.903   3.381  1.00 20.00    -0.046 C 
HETATM    3  C3  UNL     1     -33.303   6.219   2.086  1.00 20.00     0.098 C 
HETATM    4  C4  UNL     1     -34.029   4.597   3.841  1.00 20.00     0.039 C 
HETATM    5  C5  UNL     1     -33.050   6.836   4.492  1.00 20.00     0.202 C 
HETATM    6  C6  UNL     1     -35.109   4.856   4.891  1.00 20.00     0.030 C 
HETATM    7  C7  UNL     1     -34.605   5.811   5.971  1.00 20.00     0.168 C 
HETATM    8  N8  UNL     1     -32.293   8.468   1.335  1.00 20.00    -0.192 NA
HETATM    9  O9  UNL     1     -34.153   7.035   5.382  1.00 20.00    -0.387 OA
ENDROOT
TORSDOF 0
ENDMDL
