MODEL 1
REMARK VINA RESULT:      -3.9      0.000      0.000
REMARK  4 active torsions:
REMARK  status: ('A' for Active; 'I' for Inactive)
REMARK    1  A    between atoms: C5_5  and  C7_7 
REMARK    2  A    between atoms: C5_5  and  O9_9 
REMARK    3  A    between atoms: C6_6  and  C7_7 
REMARK    4  A    between atoms: C8_8  and  O9_9 
ROOT
HETATM    1  C5  UNL     1     -24.786  18.746   9.681  1.00 20.00     0.174 C 
ENDROOT
BRANCH   1   2
HETATM    2  C7  UNL     1     -23.865  18.981   8.476  1.00 20.00     0.019 C 
HETATM    3  C1  UNL     1     -24.691  19.158   7.202  1.00 20.00     0.013 C 
BRANCH   2   4
HETATM    4  C6  UNL     1     -22.787  17.894   8.328  1.00 20.00     0.121 C 
HETATM    5 CL10 UNL     1     -21.300  18.235   9.246  1.00 20.00    -0.130 Cl
ENDBRANCH   2   4
ENDBRANCH   1   2
BRANCH   1   6
HETATM    6  O9  UNL     1     -24.531  17.482  10.278  1.00 20.00    -0.381 OA
BRANCH   6   7
HETATM    7  C8  UNL     1     -24.659  17.537  11.692  1.00 20.00     0.050 C 
HETATM    8  C2  UNL     1     -25.155  16.180  12.188  1.00 20.00     0.045 C 
HETATM    9  C3  UNL     1     -23.280  17.848  12.268  1.00 20.00     0.045 C 
HETATM   10  C4  UNL     1     -25.651  18.642  12.049  1.00 20.00     0.045 C 
ENDBRANCH   6   7
ENDBRANCH   1   6
TORSDOF 4
ENDMDL
MODEL 2
REMARK VINA RESULT:      -3.8      2.119      4.434
REMARK  4 active torsions:
REMARK  status: ('A' for Active; 'I' for Inactive)
REMARK    1  A    between atoms: C5_5  and  C7_7 
REMARK    2  A    between atoms: C5_5  and  O9_9 
REMARK    3  A    between atoms: C6_6  and  C7_7 
REMARK    4  A    between atoms: C8_8  and  O9_9 
ROOT
HETATM    1  C5  UNL     1     -23.901  16.803   9.932  1.00 20.00     0.174 C 
ENDROOT
BRANCH   1   2
HETATM    2  C7  UNL     1     -23.683  16.612  11.439  1.00 20.00     0.019 C 
HETATM    3  C1  UNL     1     -24.667  15.581  11.993  1.00 20.00     0.013 C 
BRANCH   2   4
HETATM    4  C6  UNL     1     -23.722  17.936  12.221  1.00 20.00     0.121 C 
HETATM    5 CL10 UNL     1     -25.298  18.761  12.149  1.00 20.00    -0.130 Cl
ENDBRANCH   2   4
ENDBRANCH   1   2
BRANCH   1   6
HETATM    6  O9  UNL     1     -22.713  16.515   9.206  1.00 20.00    -0.381 OA
BRANCH   6   7
HETATM    7  C8  UNL     1     -22.246  17.654   8.498  1.00 20.00     0.050 C 
HETATM    8  C2  UNL     1     -23.447  18.521   8.125  1.00 20.00     0.045 C 
HETATM    9  C3  UNL     1     -21.300  18.416   9.424  1.00 20.00     0.045 C 
HETATM   10  C4  UNL     1     -21.507  17.181   7.247  1.00 20.00     0.045 C 
ENDBRANCH   6   7
ENDBRANCH   1   6
TORSDOF 4
ENDMDL
MODEL 3
REMARK VINA RESULT:      -3.6     16.031     16.779
REMARK  4 active torsions:
REMARK  status: ('A' for Active; 'I' for Inactive)
REMARK    1  A    between atoms: C5_5  and  C7_7 
REMARK    2  A    between atoms: C5_5  and  O9_9 
REMARK    3  A    between atoms: C6_6  and  C7_7 
REMARK    4  A    between atoms: C8_8  and  O9_9 
ROOT
HETATM    1  C5  UNL     1     -33.369   6.176   2.683  1.00 20.00     0.174 C 
ENDROOT
BRANCH   1   2
HETATM    2  C7  UNL     1     -32.362   7.248   2.245  1.00 20.00     0.019 C 
HETATM    3  C1  UNL     1     -31.496   7.681   3.429  1.00 20.00     0.013 C 
BRANCH   2   4
HETATM    4  C6  UNL     1     -33.027   8.441   1.540  1.00 20.00     0.121 C 
HETATM    5 CL10 UNL     1     -33.050   8.299  -0.234  1.00 20.00    -0.130 Cl
ENDBRANCH   2   4
ENDBRANCH   1   2
BRANCH   1   6
HETATM    6  O9  UNL     1     -33.754   6.363   4.038  1.00 20.00    -0.381 OA
BRANCH   6   7
HETATM    7  C8  UNL     1     -34.629   5.334   4.479  1.00 20.00     0.050 C 
HETATM    8  C2  UNL     1     -34.673   5.355   6.006  1.00 20.00     0.045 C 
HETATM    9  C3  UNL     1     -36.011   5.624   3.898  1.00 20.00     0.045 C 
HETATM   10  C4  UNL     1     -34.102   3.994   3.968  1.00 20.00     0.045 C 
ENDBRANCH   6   7
ENDBRANCH   1   6
TORSDOF 4
ENDMDL
MODEL 4
REMARK VINA RESULT:      -3.5      2.128      2.675
REMARK  4 active torsions:
REMARK  status: ('A' for Active; 'I' for Inactive)
REMARK    1  A    between atoms: C5_5  and  C7_7 
REMARK    2  A    between atoms: C5_5  and  O9_9 
REMARK    3  A    between atoms: C6_6  and  C7_7 
REMARK    4  A    between atoms: C8_8  and  O9_9 
ROOT
HETATM    1  C5  UNL     1     -23.916  18.049   9.058  1.00 20.00     0.174 C 
ENDROOT
BRANCH   1   2
HETATM    2  C7  UNL     1     -24.620  19.233   8.381  1.00 20.00     0.019 C 
HETATM    3  C1  UNL     1     -26.100  19.262   8.765  1.00 20.00     0.013 C 
BRANCH   2   4
HETATM    4  C6  UNL     1     -24.411  19.263   6.859  1.00 20.00     0.121 C 
HETATM    5 CL10 UNL     1     -25.862  18.812   5.931  1.00 20.00    -0.130 Cl
ENDBRANCH   2   4
ENDBRANCH   1   2
BRANCH   1   6
HETATM    6  O9  UNL     1     -23.158  18.482  10.180  1.00 20.00    -0.381 OA
BRANCH   6   7
HETATM    7  C8  UNL     1     -23.523  17.777  11.359  1.00 20.00     0.050 C 
HETATM    8  C2  UNL     1     -24.725  18.477  11.990  1.00 20.00     0.045 C 
HETATM    9  C3  UNL     1     -23.885  16.351  10.950  1.00 20.00     0.045 C 
HETATM   10  C4  UNL     1     -22.331  17.776  12.314  1.00 20.00     0.045 C 
ENDBRANCH   6   7
ENDBRANCH   1   6
TORSDOF 4
ENDMDL
MODEL 5
REMARK VINA RESULT:      -3.5      2.245      4.393
REMARK  4 active torsions:
REMARK  status: ('A' for Active; 'I' for Inactive)
REMARK    1  A    between atoms: C5_5  and  C7_7 
REMARK    2  A    between atoms: C5_5  and  O9_9 
REMARK    3  A    between atoms: C6_6  and  C7_7 
REMARK    4  A    between atoms: C8_8  and  O9_9 
ROOT
HETATM    1  C5  UNL     1     -22.644  17.310  11.171  1.00 20.00     0.174 C 
ENDROOT
BRANCH   1   2
HETATM    2  C7  UNL     1     -23.867  17.043  12.060  1.00 20.00     0.019 C 
HETATM    3  C1  UNL     1     -24.698  15.892  11.490  1.00 20.00     0.013 C 
BRANCH   2   4
HETATM    4  C6  UNL     1     -24.710  18.304  12.311  1.00 20.00     0.121 C 
HETATM    5 CL10 UNL     1     -26.464  17.996  12.332  1.00 20.00    -0.130 Cl
ENDBRANCH   2   4
ENDBRANCH   1   2
BRANCH   1   6
HETATM    6  O9  UNL     1     -22.927  17.005   9.812  1.00 20.00    -0.381 OA
BRANCH   6   7
HETATM    7  C8  UNL     1     -22.474  18.033   8.941  1.00 20.00     0.050 C 
HETATM    8  C2  UNL     1     -21.293  18.742   9.601  1.00 20.00     0.045 C 
HETATM    9  C3  UNL     1     -22.043  17.372   7.634  1.00 20.00     0.045 C 
HETATM   10  C4  UNL     1     -23.625  19.006   8.697  1.00 20.00     0.045 C 
ENDBRANCH   6   7
ENDBRANCH   1   6
TORSDOF 4
ENDMDL
MODEL 6
REMARK VINA RESULT:      -3.5     14.545     16.506
REMARK  4 active torsions:
REMARK  status: ('A' for Active; 'I' for Inactive)
REMARK    1  A    between atoms: C5_5  and  C7_7 
REMARK    2  A    between atoms: C5_5  and  O9_9 
REMARK    3  A    between atoms: C6_6  and  C7_7 
REMARK    4  A    between atoms: C8_8  and  O9_9 
ROOT
HETATM    1  C5  UNL     1     -34.255  16.473  -2.163  1.00 20.00     0.174 C 
ENDROOT
BRANCH   1   2
HETATM    2  C7  UNL     1     -34.474  15.242  -3.053  1.00 20.00     0.019 C 
HETATM    3  C1  UNL     1     -33.352  15.124  -4.085  1.00 20.00     0.013 C 
BRANCH   2   4
HETATM    4  C6  UNL     1     -35.869  15.213  -3.700  1.00 20.00     0.121 C 
HETATM    5 CL10 UNL     1     -36.261  13.661  -4.479  1.00 20.00    -0.130 Cl
ENDBRANCH   2   4
ENDBRANCH   1   2
BRANCH   1   6
HETATM    6  O9  UNL     1     -32.897  16.891  -2.200  1.00 20.00    -0.381 OA
BRANCH   6   7
HETATM    7  C8  UNL     1     -32.748  18.223  -1.727  1.00 20.00     0.050 C 
HETATM    8  C2  UNL     1     -32.528  19.142  -2.927  1.00 20.00     0.045 C 
HETATM    9  C3  UNL     1     -34.033  18.596  -0.992  1.00 20.00     0.045 C 
HETATM   10  C4  UNL     1     -31.553  18.271  -0.777  1.00 20.00     0.045 C 
ENDBRANCH   6   7
ENDBRANCH   1   6
TORSDOF 4
ENDMDL
MODEL 7
REMARK VINA RESULT:      -3.5     16.262     18.303
REMARK  4 active torsions:
REMARK  status: ('A' for Active; 'I' for Inactive)
REMARK    1  A    between atoms: C5_5  and  C7_7 
REMARK    2  A    between atoms: C5_5  and  O9_9 
REMARK    3  A    between atoms: C6_6  and  C7_7 
REMARK    4  A    between atoms: C8_8  and  O9_9 
ROOT
HETATM    1  C5  UNL     1     -34.188  15.092  -3.907  1.00 20.00     0.174 C 
ENDROOT
BRANCH   1   2
HETATM    2  C7  UNL     1     -33.850  15.943  -2.676  1.00 20.00     0.019 C 
HETATM    3  C1  UNL     1     -35.116  16.245  -1.873  1.00 20.00     0.013 C 
BRANCH   2   4
HETATM    4  C6  UNL     1     -33.063  17.217  -3.027  1.00 20.00     0.121 C 
HETATM    5 CL10 UNL     1     -32.304  17.997  -1.617  1.00 20.00    -0.130 Cl
ENDBRANCH   2   4
ENDBRANCH   1   2
BRANCH   1   6
HETATM    6  O9  UNL     1     -34.994  15.821  -4.823  1.00 20.00    -0.381 OA
BRANCH   6   7
HETATM    7  C8  UNL     1     -36.041  15.018  -5.351  1.00 20.00     0.050 C 
HETATM    8  C2  UNL     1     -37.354  15.788  -5.223  1.00 20.00     0.045 C 
HETATM    9  C3  UNL     1     -35.717  14.746  -6.818  1.00 20.00     0.045 C 
HETATM   10  C4  UNL     1     -36.097  13.711  -4.561  1.00 20.00     0.045 C 
ENDBRANCH   6   7
ENDBRANCH   1   6
TORSDOF 4
ENDMDL
MODEL 8
REMARK VINA RESULT:      -3.4     15.093     17.137
REMARK  4 active torsions:
REMARK  status: ('A' for Active; 'I' for Inactive)
REMARK    1  A    between atoms: C5_5  and  C7_7 
REMARK    2  A    between atoms: C5_5  and  O9_9 
REMARK    3  A    between atoms: C6_6  and  C7_7 
REMARK    4  A    between atoms: C8_8  and  O9_9 
ROOT
HETATM    1  C5  UNL     1     -33.322  16.529  -3.365  1.00 20.00     0.174 C 
ENDROOT
BRANCH   1   2
HETATM    2  C7  UNL     1     -33.663  16.882  -1.911  1.00 20.00     0.019 C 
HETATM    3  C1  UNL     1     -35.161  16.704  -1.657  1.00 20.00     0.013 C 
BRANCH   2   4
HETATM    4  C6  UNL     1     -33.163  18.276  -1.500  1.00 20.00     0.121 C 
HETATM    5 CL10 UNL     1     -31.514  18.272  -0.827  1.00 20.00    -0.130 Cl
ENDBRANCH   2   4
ENDBRANCH   1   2
BRANCH   1   6
HETATM    6  O9  UNL     1     -34.492  16.173  -4.089  1.00 20.00    -0.381 OA
BRANCH   6   7
HETATM    7  C8  UNL     1     -34.342  14.918  -4.738  1.00 20.00     0.050 C 
HETATM    8  C2  UNL     1     -35.408  13.964  -4.202  1.00 20.00     0.045 C 
HETATM    9  C3  UNL     1     -34.531  15.148  -6.236  1.00 20.00     0.045 C 
HETATM   10  C4  UNL     1     -32.940  14.385  -4.450  1.00 20.00     0.045 C 
ENDBRANCH   6   7
ENDBRANCH   1   6
TORSDOF 4
ENDMDL
MODEL 9
REMARK VINA RESULT:      -3.4     15.550     17.332
REMARK  4 active torsions:
REMARK  status: ('A' for Active; 'I' for Inactive)
REMARK    1  A    between atoms: C5_5  and  C7_7 
REMARK    2  A    between atoms: C5_5  and  O9_9 
REMARK    3  A    between atoms: C6_6  and  C7_7 
REMARK    4  A    between atoms: C8_8  and  O9_9 
ROOT
HETATM    1  C5  UNL     1     -35.115  15.433  -2.869  1.00 20.00     0.174 C 
ENDROOT
BRANCH   1   2
HETATM    2  C7  UNL     1     -34.781  14.290  -3.836  1.00 20.00     0.019 C 
HETATM    3  C1  UNL     1     -33.494  14.599  -4.601  1.00 20.00     0.013 C 
BRANCH   2   4
HETATM    4  C6  UNL     1     -35.948  13.939  -4.773  1.00 20.00     0.121 C 
HETATM    5 CL10 UNL     1     -35.707  14.489  -6.449  1.00 20.00    -0.130 Cl
ENDBRANCH   2   4
ENDBRANCH   1   2
BRANCH   1   6
HETATM    6  O9  UNL     1     -33.933  15.984  -2.305  1.00 20.00    -0.381 OA
BRANCH   6   7
HETATM    7  C8  UNL     1     -34.154  17.298  -1.810  1.00 20.00     0.050 C 
HETATM    8  C2  UNL     1     -35.063  17.210  -0.586  1.00 20.00     0.045 C 
HETATM    9  C3  UNL     1     -32.795  17.881  -1.429  1.00 20.00     0.045 C 
HETATM   10  C4  UNL     1     -34.805  18.131  -2.913  1.00 20.00     0.045 C 
ENDBRANCH   6   7
ENDBRANCH   1   6
TORSDOF 4
ENDMDL
