MODEL 1
REMARK VINA RESULT:      -3.7      0.000      0.000
REMARK  1 active torsions:
REMARK  status: ('A' for Active; 'I' for Inactive)
REMARK    1  A    between atoms: C1_1  and  C5_5 
ROOT
HETATM    1  C2  UNL     1     -35.523  15.648  -2.773  1.00 20.00     0.022 C 
HETATM    2  C3  UNL     1     -34.449  16.433  -2.042  1.00 20.00     0.075 C 
HETATM    3  C4  UNL     1     -33.682  15.239  -4.323  1.00 20.00     0.085 C 
HETATM    4  C5  UNL     1     -34.803  14.555  -3.554  1.00 20.00     0.057 C 
HETATM    5  S7  UNL     1     -33.067  16.536  -3.211  1.00 20.00    -0.168 SA
ENDROOT
BRANCH   4   6
HETATM    6  C1  UNL     1     -35.736  13.866  -4.500  1.00 20.00     0.236 C 
HETATM    7  O6  UNL     1     -35.889  12.650  -4.534  1.00 20.00    -0.306 OA
ENDBRANCH   4   6
TORSDOF 1
ENDMDL
MODEL 2
REMARK VINA RESULT:      -3.7     11.545     11.830
REMARK  1 active torsions:
REMARK  status: ('A' for Active; 'I' for Inactive)
REMARK    1  A    between atoms: C1_1  and  C5_5 
ROOT
HETATM    1  C2  UNL     1     -33.206   7.002   5.104  1.00 20.00     0.022 C 
HETATM    2  C3  UNL     1     -34.314   6.537   6.033  1.00 20.00     0.075 C 
HETATM    3  C4  UNL     1     -34.132   5.244   3.685  1.00 20.00     0.085 C 
HETATM    4  C5  UNL     1     -33.676   6.696   3.686  1.00 20.00     0.057 C 
HETATM    5  S7  UNL     1     -34.922   4.994   5.300  1.00 20.00    -0.168 SA
ENDROOT
BRANCH   4   6
HETATM    6  C1  UNL     1     -32.569   6.893   2.699  1.00 20.00     0.236 C 
HETATM    7  O6  UNL     1     -32.612   7.712   1.787  1.00 20.00    -0.306 OA
ENDBRANCH   4   6
TORSDOF 1
ENDMDL
MODEL 3
REMARK VINA RESULT:      -3.7     10.539     11.399
REMARK  1 active torsions:
REMARK  status: ('A' for Active; 'I' for Inactive)
REMARK    1  A    between atoms: C1_1  and  C5_5 
ROOT
HETATM    1  C2  UNL     1     -41.243   7.186  -1.073  1.00 20.00     0.022 C 
HETATM    2  C3  UNL     1     -41.082   5.708  -0.766  1.00 20.00     0.075 C 
HETATM    3  C4  UNL     1     -42.636   7.096   0.930  1.00 20.00     0.085 C 
HETATM    4  C5  UNL     1     -41.514   7.877   0.258  1.00 20.00     0.057 C 
HETATM    5  S7  UNL     1     -42.320   5.359   0.512  1.00 20.00    -0.168 SA
ENDROOT
BRANCH   4   6
HETATM    6  C1  UNL     1     -41.925   9.301   0.052  1.00 20.00     0.236 C 
HETATM    7  O6  UNL     1     -41.256  10.259   0.425  1.00 20.00    -0.306 OA
ENDBRANCH   4   6
TORSDOF 1
ENDMDL
MODEL 4
REMARK VINA RESULT:      -3.6      0.959      1.692
REMARK  1 active torsions:
REMARK  status: ('A' for Active; 'I' for Inactive)
REMARK    1  A    between atoms: C1_1  and  C5_5 
ROOT
HETATM    1  C2  UNL     1     -33.825  14.465  -4.167  1.00 20.00     0.022 C 
HETATM    2  C3  UNL     1     -33.039  15.664  -3.668  1.00 20.00     0.075 C 
HETATM    3  C4  UNL     1     -35.626  15.576  -2.949  1.00 20.00     0.085 C 
HETATM    4  C5  UNL     1     -35.277  14.916  -4.276  1.00 20.00     0.057 C 
HETATM    5  S7  UNL     1     -34.121  16.457  -2.449  1.00 20.00    -0.168 SA
ENDROOT
BRANCH   4   6
HETATM    6  C1  UNL     1     -36.183  13.753  -4.531  1.00 20.00     0.236 C 
HETATM    7  O6  UNL     1     -35.812  12.584  -4.491  1.00 20.00    -0.306 OA
ENDBRANCH   4   6
TORSDOF 1
ENDMDL
MODEL 5
REMARK VINA RESULT:      -3.6     12.072     12.456
REMARK  1 active torsions:
REMARK  status: ('A' for Active; 'I' for Inactive)
REMARK    1  A    between atoms: C1_1  and  C5_5 
ROOT
HETATM    1  C2  UNL     1     -33.868   4.501   3.495  1.00 20.00     0.022 C 
HETATM    2  C3  UNL     1     -33.226   5.074   2.243  1.00 20.00     0.075 C 
HETATM    3  C4  UNL     1     -33.675   6.819   4.236  1.00 20.00     0.085 C 
HETATM    4  C5  UNL     1     -34.638   5.644   4.147  1.00 20.00     0.057 C 
HETATM    5  S7  UNL     1     -32.688   6.740   2.715  1.00 20.00    -0.168 SA
ENDROOT
BRANCH   4   6
HETATM    6  C1  UNL     1     -35.116   5.260   5.512  1.00 20.00     0.236 C 
HETATM    7  O6  UNL     1     -34.366   4.911   6.418  1.00 20.00    -0.306 OA
ENDBRANCH   4   6
TORSDOF 1
ENDMDL
MODEL 6
REMARK VINA RESULT:      -3.5     17.656     18.309
REMARK  1 active torsions:
REMARK  status: ('A' for Active; 'I' for Inactive)
REMARK    1  A    between atoms: C1_1  and  C5_5 
ROOT
HETATM    1  C2  UNL     1     -23.944  16.730  10.068  1.00 20.00     0.022 C 
HETATM    2  C3  UNL     1     -23.887  16.491  11.567  1.00 20.00     0.075 C 
HETATM    3  C4  UNL     1     -21.945  18.045  10.551  1.00 20.00     0.085 C 
HETATM    4  C5  UNL     1     -22.511  16.985   9.617  1.00 20.00     0.057 C 
HETATM    5  S7  UNL     1     -22.651  17.667  12.180  1.00 20.00    -0.168 SA
ENDROOT
BRANCH   4   6
HETATM    6  C1  UNL     1     -22.471  17.467   8.201  1.00 20.00     0.236 C 
HETATM    7  O6  UNL     1     -21.848  16.898   7.310  1.00 20.00    -0.306 OA
ENDBRANCH   4   6
TORSDOF 1
ENDMDL
MODEL 7
REMARK VINA RESULT:      -3.4     11.320     11.750
REMARK  1 active torsions:
REMARK  status: ('A' for Active; 'I' for Inactive)
REMARK    1  A    between atoms: C1_1  and  C5_5 
ROOT
HETATM    1  C2  UNL     1     -33.523   5.176   2.631  1.00 20.00     0.022 C 
HETATM    2  C3  UNL     1     -34.151   4.205   3.616  1.00 20.00     0.075 C 
HETATM    3  C4  UNL     1     -33.983   6.760   4.431  1.00 20.00     0.085 C 
HETATM    4  C5  UNL     1     -32.905   6.294   3.461  1.00 20.00     0.057 C 
HETATM    5  S7  UNL     1     -34.875   5.253   4.906  1.00 20.00    -0.168 SA
ENDROOT
BRANCH   4   6
HETATM    6  C1  UNL     1     -32.465   7.429   2.592  1.00 20.00     0.236 C 
HETATM    7  O6  UNL     1     -32.546   7.415   1.368  1.00 20.00    -0.306 OA
ENDBRANCH   4   6
TORSDOF 1
ENDMDL
MODEL 8
REMARK VINA RESULT:      -3.4     17.054     17.870
REMARK  1 active torsions:
REMARK  status: ('A' for Active; 'I' for Inactive)
REMARK    1  A    between atoms: C1_1  and  C5_5 
ROOT
HETATM    1  C2  UNL     1     -24.846  18.444  10.446  1.00 20.00     0.022 C 
HETATM    2  C3  UNL     1     -24.658  17.815  11.816  1.00 20.00     0.075 C 
HETATM    3  C4  UNL     1     -22.479  17.882  10.245  1.00 20.00     0.085 C 
HETATM    4  C5  UNL     1     -23.818  17.793   9.528  1.00 20.00     0.057 C 
HETATM    5  S7  UNL     1     -22.864  17.627  12.001  1.00 20.00    -0.168 SA
ENDROOT
BRANCH   4   6
HETATM    6  C1  UNL     1     -23.749  18.501   8.211  1.00 20.00     0.236 C 
HETATM    7  O6  UNL     1     -22.961  18.199   7.321  1.00 20.00    -0.306 OA
ENDBRANCH   4   6
TORSDOF 1
ENDMDL
MODEL 9
REMARK VINA RESULT:      -3.4     17.778     18.125
REMARK  1 active torsions:
REMARK  status: ('A' for Active; 'I' for Inactive)
REMARK    1  A    between atoms: C1_1  and  C5_5 
ROOT
HETATM    1  C2  UNL     1     -24.010  16.506  10.333  1.00 20.00     0.022 C 
HETATM    2  C3  UNL     1     -24.533  15.904  11.625  1.00 20.00     0.075 C 
HETATM    3  C4  UNL     1     -25.221  18.459  11.158  1.00 20.00     0.085 C 
HETATM    4  C5  UNL     1     -23.890  18.007  10.573  1.00 20.00     0.057 C 
HETATM    5  S7  UNL     1     -25.749  17.100  12.239  1.00 20.00    -0.168 SA
ENDROOT
BRANCH   4   6
HETATM    6  C1  UNL     1     -23.611  18.735   9.296  1.00 20.00     0.236 C 
HETATM    7  O6  UNL     1     -22.493  19.114   8.964  1.00 20.00    -0.306 OA
ENDBRANCH   4   6
TORSDOF 1
ENDMDL
