MODEL 1
REMARK VINA RESULT:      -4.2      0.000      0.000
REMARK  1 active torsions:
REMARK  status: ('A' for Active; 'I' for Inactive)
REMARK    1  A    between atoms: C4_4  and  C6_6 
ROOT
HETATM    1  C1  UNL     1     -24.396  19.131   7.613  1.00 20.00     0.135 A 
HETATM    2  C2  UNL     1     -25.167  19.197   8.752  1.00 20.00     0.136 A 
HETATM    3  C3  UNL     1     -22.990  17.657   8.650  1.00 20.00     0.144 A 
HETATM    4  C4  UNL     1     -23.761  17.722   9.790  1.00 20.00     0.069 A 
HETATM    5  N7  UNL     1     -23.293  18.359   7.542  1.00 20.00    -0.270 NA
HETATM    6  N8  UNL     1     -24.863  18.494   9.861  1.00 20.00    -0.261 NA
ENDROOT
BRANCH   4   7
HETATM    7  C6  UNL     1     -23.394  16.932  10.997  1.00 20.00     0.131 C 
HETATM    8  C5  UNL     1     -24.499  15.996  11.506  1.00 20.00     0.033 C 
HETATM    9 CL9  UNL     1     -22.892  18.027  12.330  1.00 20.00    -0.119 Cl
ENDBRANCH   4   7
TORSDOF 1
ENDMDL
MODEL 2
REMARK VINA RESULT:      -3.9      2.080      3.594
REMARK  1 active torsions:
REMARK  status: ('A' for Active; 'I' for Inactive)
REMARK    1  A    between atoms: C4_4  and  C6_6 
ROOT
HETATM    1  C1  UNL     1     -25.447  16.627  12.157  1.00 20.00     0.135 A 
HETATM    2  C2  UNL     1     -25.762  17.934  11.856  1.00 20.00     0.136 A 
HETATM    3  C3  UNL     1     -24.031  16.556  10.363  1.00 20.00     0.144 A 
HETATM    4  C4  UNL     1     -24.346  17.863  10.062  1.00 20.00     0.069 A 
HETATM    5  N7  UNL     1     -24.575  15.915  11.415  1.00 20.00    -0.270 NA
HETATM    6  N8  UNL     1     -25.218  18.575  10.803  1.00 20.00    -0.261 NA
ENDROOT
BRANCH   4   7
HETATM    7  C6  UNL     1     -23.725  18.540   8.891  1.00 20.00     0.131 C 
HETATM    8  C5  UNL     1     -24.713  18.938   7.787  1.00 20.00     0.033 C 
HETATM    9 CL9  UNL     1     -22.440  17.503   8.182  1.00 20.00    -0.119 Cl
ENDBRANCH   4   7
TORSDOF 1
ENDMDL
MODEL 3
REMARK VINA RESULT:      -3.9     17.742     18.731
REMARK  1 active torsions:
REMARK  status: ('A' for Active; 'I' for Inactive)
REMARK    1  A    between atoms: C4_4  and  C6_6 
ROOT
HETATM    1  C1  UNL     1     -38.701  14.908  -4.232  1.00 20.00     0.135 A 
HETATM    2  C2  UNL     1     -38.246  16.178  -3.956  1.00 20.00     0.136 A 
HETATM    3  C3  UNL     1     -36.545  14.148  -4.284  1.00 20.00     0.144 A 
HETATM    4  C4  UNL     1     -36.090  15.419  -4.007  1.00 20.00     0.069 A 
HETATM    5  N7  UNL     1     -37.857  13.870  -4.401  1.00 20.00    -0.270 NA
HETATM    6  N8  UNL     1     -36.933  16.457  -3.839  1.00 20.00    -0.261 NA
ENDROOT
BRANCH   4   7
HETATM    7  C6  UNL     1     -34.631  15.689  -3.886  1.00 20.00     0.131 C 
HETATM    8  C5  UNL     1     -33.729  14.520  -4.302  1.00 20.00     0.033 C 
HETATM    9 CL9  UNL     1     -34.226  16.174  -2.203  1.00 20.00    -0.119 Cl
ENDBRANCH   4   7
TORSDOF 1
ENDMDL
MODEL 4
REMARK VINA RESULT:      -3.7     16.341     17.019
REMARK  1 active torsions:
REMARK  status: ('A' for Active; 'I' for Inactive)
REMARK    1  A    between atoms: C4_4  and  C6_6 
ROOT
HETATM    1  C1  UNL     1     -34.791   5.742   6.378  1.00 20.00     0.135 A 
HETATM    2  C2  UNL     1     -34.014   6.781   5.913  1.00 20.00     0.136 A 
HETATM    3  C3  UNL     1     -34.739   4.776   4.307  1.00 20.00     0.144 A 
HETATM    4  C4  UNL     1     -33.962   5.815   3.842  1.00 20.00     0.069 A 
HETATM    5  N7  UNL     1     -35.166   4.721   5.582  1.00 20.00    -0.270 NA
HETATM    6  N8  UNL     1     -33.586   6.836   4.637  1.00 20.00    -0.261 NA
ENDROOT
BRANCH   4   7
HETATM    7  C6  UNL     1     -33.507   5.842   2.424  1.00 20.00     0.131 C 
HETATM    8  C5  UNL     1     -32.928   4.516   1.915  1.00 20.00     0.033 C 
HETATM    9 CL9  UNL     1     -32.292   7.144   2.185  1.00 20.00    -0.119 Cl
ENDBRANCH   4   7
TORSDOF 1
ENDMDL
MODEL 5
REMARK VINA RESULT:      -3.7     16.977     18.012
REMARK  1 active torsions:
REMARK  status: ('A' for Active; 'I' for Inactive)
REMARK    1  A    between atoms: C4_4  and  C6_6 
ROOT
HETATM    1  C1  UNL     1     -35.654  14.534  -6.396  1.00 20.00     0.135 A 
HETATM    2  C2  UNL     1     -34.946  15.711  -6.289  1.00 20.00     0.136 A 
HETATM    3  C3  UNL     1     -35.371  14.162  -4.157  1.00 20.00     0.144 A 
HETATM    4  C4  UNL     1     -34.662  15.339  -4.051  1.00 20.00     0.069 A 
HETATM    5  N7  UNL     1     -35.879  13.739  -5.331  1.00 20.00    -0.270 NA
HETATM    6  N8  UNL     1     -34.437  16.134  -5.115  1.00 20.00    -0.261 NA
ENDROOT
BRANCH   4   7
HETATM    7  C6  UNL     1     -34.114  15.774  -2.737  1.00 20.00     0.131 C 
HETATM    8  C5  UNL     1     -35.169  16.277  -1.742  1.00 20.00     0.033 C 
HETATM    9 CL9  UNL     1     -32.873  17.052  -2.972  1.00 20.00    -0.119 Cl
ENDBRANCH   4   7
TORSDOF 1
ENDMDL
MODEL 6
REMARK VINA RESULT:      -3.7     16.596     17.619
REMARK  1 active torsions:
REMARK  status: ('A' for Active; 'I' for Inactive)
REMARK    1  A    between atoms: C4_4  and  C6_6 
ROOT
HETATM    1  C1  UNL     1     -36.269  13.557  -4.648  1.00 20.00     0.135 A 
HETATM    2  C2  UNL     1     -37.056  14.629  -4.288  1.00 20.00     0.136 A 
HETATM    3  C3  UNL     1     -34.462  14.552  -3.662  1.00 20.00     0.144 A 
HETATM    4  C4  UNL     1     -35.249  15.624  -3.301  1.00 20.00     0.069 A 
HETATM    5  N7  UNL     1     -34.958  13.500  -4.340  1.00 20.00    -0.270 NA
HETATM    6  N8  UNL     1     -36.560  15.682  -3.609  1.00 20.00    -0.261 NA
ENDROOT
BRANCH   4   7
HETATM    7  C6  UNL     1     -34.667  16.771  -2.551  1.00 20.00     0.131 C 
HETATM    8  C5  UNL     1     -33.133  16.829  -2.566  1.00 20.00     0.033 C 
HETATM    9 CL9  UNL     1     -35.237  16.755  -0.847  1.00 20.00    -0.119 Cl
ENDBRANCH   4   7
TORSDOF 1
ENDMDL
MODEL 7
REMARK VINA RESULT:      -3.6     16.244     16.916
REMARK  1 active torsions:
REMARK  status: ('A' for Active; 'I' for Inactive)
REMARK    1  A    between atoms: C4_4  and  C6_6 
ROOT
HETATM    1  C1  UNL     1     -34.616   5.982   6.426  1.00 20.00     0.135 A 
HETATM    2  C2  UNL     1     -35.004   4.927   5.630  1.00 20.00     0.136 A 
HETATM    3  C3  UNL     1     -33.535   6.927   4.647  1.00 20.00     0.144 A 
HETATM    4  C4  UNL     1     -33.923   5.872   3.850  1.00 20.00     0.069 A 
HETATM    5  N7  UNL     1     -33.874   7.001   5.948  1.00 20.00    -0.270 NA
HETATM    6  N8  UNL     1     -34.663   4.853   4.328  1.00 20.00    -0.261 NA
ENDROOT
BRANCH   4   7
HETATM    7  C6  UNL     1     -33.528   5.823   2.416  1.00 20.00     0.131 C 
HETATM    8  C5  UNL     1     -32.945   4.479   1.960  1.00 20.00     0.033 C 
HETATM    9 CL9  UNL     1     -32.349   7.129   2.049  1.00 20.00    -0.119 Cl
ENDBRANCH   4   7
TORSDOF 1
ENDMDL
MODEL 8
REMARK VINA RESULT:      -3.6      2.362      3.453
REMARK  1 active torsions:
REMARK  status: ('A' for Active; 'I' for Inactive)
REMARK    1  A    between atoms: C4_4  and  C6_6 
ROOT
HETATM    1  C1  UNL     1     -26.144  19.263   5.179  1.00 20.00     0.135 A 
HETATM    2  C2  UNL     1     -24.767  19.241   5.184  1.00 20.00     0.136 A 
HETATM    3  C3  UNL     1     -26.153  19.183   7.464  1.00 20.00     0.144 A 
HETATM    4  C4  UNL     1     -24.775  19.161   7.469  1.00 20.00     0.069 A 
HETATM    5  N7  UNL     1     -26.862  19.235   6.320  1.00 20.00    -0.270 NA
HETATM    6  N8  UNL     1     -24.058  19.189   6.329  1.00 20.00    -0.261 NA
ENDROOT
BRANCH   4   7
HETATM    7  C6  UNL     1     -24.025  19.103   8.754  1.00 20.00     0.131 C 
HETATM    8  C5  UNL     1     -22.949  18.011   8.815  1.00 20.00     0.033 C 
HETATM    9 CL9  UNL     1     -25.161  18.887  10.129  1.00 20.00    -0.119 Cl
ENDBRANCH   4   7
TORSDOF 1
ENDMDL
MODEL 9
REMARK VINA RESULT:      -3.6     15.921     16.575
REMARK  1 active torsions:
REMARK  status: ('A' for Active; 'I' for Inactive)
REMARK    1  A    between atoms: C4_4  and  C6_6 
ROOT
HETATM    1  C1  UNL     1     -35.027   5.015   5.832  1.00 20.00     0.135 A 
HETATM    2  C2  UNL     1     -34.395   6.194   6.162  1.00 20.00     0.136 A 
HETATM    3  C3  UNL     1     -34.303   5.233   3.674  1.00 20.00     0.144 A 
HETATM    4  C4  UNL     1     -33.671   6.412   4.004  1.00 20.00     0.069 A 
HETATM    5  N7  UNL     1     -34.991   4.514   4.581  1.00 20.00    -0.270 NA
HETATM    6  N8  UNL     1     -33.706   6.913   5.254  1.00 20.00    -0.261 NA
ENDROOT
BRANCH   4   7
HETATM    7  C6  UNL     1     -32.919   7.180   2.974  1.00 20.00     0.131 C 
HETATM    8  C5  UNL     1     -32.679   6.422   1.662  1.00 20.00     0.033 C 
HETATM    9 CL9  UNL     1     -31.340   7.727   3.635  1.00 20.00    -0.119 Cl
ENDBRANCH   4   7
TORSDOF 1
ENDMDL
