MODEL 1
REMARK VINA RESULT:      -3.9      0.000      0.000
REMARK  1 active torsions:
REMARK  status: ('A' for Active; 'I' for Inactive)
REMARK    1  A    between atoms: C1_1  and  C5_5 
ROOT
HETATM    1  C2  UNL     1     -33.931   5.137   3.428  1.00 20.00     0.022 C 
HETATM    2  C3  UNL     1     -35.019   4.761   4.421  1.00 20.00     0.075 C 
HETATM    3  C4  UNL     1     -33.458   6.834   5.117  1.00 20.00     0.085 C 
HETATM    4  C5  UNL     1     -33.662   6.624   3.624  1.00 20.00     0.057 C 
HETATM    5  S7  UNL     1     -34.630   5.704   5.919  1.00 20.00    -0.168 SA
ENDROOT
BRANCH   4   6
HETATM    6  C1  UNL     1     -32.449   7.039   2.853  1.00 20.00     0.236 C 
HETATM    7  O6  UNL     1     -32.500   7.638   1.784  1.00 20.00    -0.306 OA
ENDBRANCH   4   6
TORSDOF 1
ENDMDL
MODEL 2
REMARK VINA RESULT:      -3.6      9.010      9.280
REMARK  1 active torsions:
REMARK  status: ('A' for Active; 'I' for Inactive)
REMARK    1  A    between atoms: C1_1  and  C5_5 
ROOT
HETATM    1  C2  UNL     1     -42.545   7.010   0.879  1.00 20.00     0.022 C 
HETATM    2  C3  UNL     1     -42.065   5.578   0.707  1.00 20.00     0.075 C 
HETATM    3  C4  UNL     1     -41.214   7.333  -1.141  1.00 20.00     0.085 C 
HETATM    4  C5  UNL     1     -41.483   7.900   0.245  1.00 20.00     0.057 C 
HETATM    5  S7  UNL     1     -41.317   5.531  -0.944  1.00 20.00    -0.168 SA
ENDROOT
BRANCH   4   6
HETATM    6  C1  UNL     1     -41.971   9.312   0.161  1.00 20.00     0.236 C 
HETATM    7  O6  UNL     1     -41.272  10.286   0.422  1.00 20.00    -0.306 OA
ENDBRANCH   4   6
TORSDOF 1
ENDMDL
MODEL 3
REMARK VINA RESULT:      -3.6     11.488     11.936
REMARK  1 active torsions:
REMARK  status: ('A' for Active; 'I' for Inactive)
REMARK    1  A    between atoms: C1_1  and  C5_5 
ROOT
HETATM    1  C2  UNL     1     -33.732  15.178  -4.308  1.00 20.00     0.022 C 
HETATM    2  C3  UNL     1     -32.965  16.073  -3.349  1.00 20.00     0.075 C 
HETATM    3  C4  UNL     1     -35.580  15.756  -2.822  1.00 20.00     0.085 C 
HETATM    4  C5  UNL     1     -34.891  14.588  -3.514  1.00 20.00     0.057 C 
HETATM    5  S7  UNL     1     -34.238  16.880  -2.343  1.00 20.00    -0.168 SA
ENDROOT
BRANCH   4   6
HETATM    6  C1  UNL     1     -35.836  13.874  -4.427  1.00 20.00     0.236 C 
HETATM    7  O6  UNL     1     -35.884  12.652  -4.529  1.00 20.00    -0.306 OA
ENDBRANCH   4   6
TORSDOF 1
ENDMDL
MODEL 4
REMARK VINA RESULT:      -3.4     16.093     16.689
REMARK  1 active torsions:
REMARK  status: ('A' for Active; 'I' for Inactive)
REMARK    1  A    between atoms: C1_1  and  C5_5 
ROOT
HETATM    1  C2  UNL     1     -22.377  17.744  11.058  1.00 20.00     0.022 C 
HETATM    2  C3  UNL     1     -23.467  17.648  12.112  1.00 20.00     0.075 C 
HETATM    3  C4  UNL     1     -24.308  17.893   9.572  1.00 20.00     0.085 C 
HETATM    4  C5  UNL     1     -22.973  17.190   9.769  1.00 20.00     0.057 C 
HETATM    5  S7  UNL     1     -24.999  18.073  11.241  1.00 20.00    -0.168 SA
ENDROOT
BRANCH   4   6
HETATM    6  C1  UNL     1     -22.054  17.451   8.618  1.00 20.00     0.236 C 
HETATM    7  O6  UNL     1     -22.010  16.747   7.615  1.00 20.00    -0.306 OA
ENDBRANCH   4   6
TORSDOF 1
ENDMDL
MODEL 5
REMARK VINA RESULT:      -3.4     11.777     12.192
REMARK  1 active torsions:
REMARK  status: ('A' for Active; 'I' for Inactive)
REMARK    1  A    between atoms: C1_1  and  C5_5 
ROOT
HETATM    1  C2  UNL     1     -34.640  15.062  -3.294  1.00 20.00     0.022 C 
HETATM    2  C3  UNL     1     -34.605  16.252  -2.350  1.00 20.00     0.075 C 
HETATM    3  C4  UNL     1     -36.692  16.153  -4.039  1.00 20.00     0.085 C 
HETATM    4  C5  UNL     1     -36.108  14.812  -3.620  1.00 20.00     0.057 C 
HETATM    5  S7  UNL     1     -35.886  17.376  -2.968  1.00 20.00    -0.168 SA
ENDROOT
BRANCH   4   6
HETATM    6  C1  UNL     1     -36.232  13.806  -4.721  1.00 20.00     0.236 C 
HETATM    7  O6  UNL     1     -35.885  12.635  -4.608  1.00 20.00    -0.306 OA
ENDBRANCH   4   6
TORSDOF 1
ENDMDL
MODEL 6
REMARK VINA RESULT:      -3.4     11.688     12.023
REMARK  1 active torsions:
REMARK  status: ('A' for Active; 'I' for Inactive)
REMARK    1  A    between atoms: C1_1  and  C5_5 
ROOT
HETATM    1  C2  UNL     1     -35.672  15.473  -2.942  1.00 20.00     0.022 C 
HETATM    2  C3  UNL     1     -34.648  16.568  -2.700  1.00 20.00     0.075 C 
HETATM    3  C4  UNL     1     -33.917  14.637  -4.419  1.00 20.00     0.085 C 
HETATM    4  C5  UNL     1     -35.408  14.936  -4.344  1.00 20.00     0.057 C 
HETATM    5  S7  UNL     1     -33.120  15.957  -3.462  1.00 20.00    -0.168 SA
ENDROOT
BRANCH   4   6
HETATM    6  C1  UNL     1     -36.216  13.701  -4.589  1.00 20.00     0.236 C 
HETATM    7  O6  UNL     1     -35.766  12.566  -4.477  1.00 20.00    -0.306 OA
ENDBRANCH   4   6
TORSDOF 1
ENDMDL
MODEL 7
REMARK VINA RESULT:      -3.3      2.674      3.469
REMARK  1 active torsions:
REMARK  status: ('A' for Active; 'I' for Inactive)
REMARK    1  A    between atoms: C1_1  and  C5_5 
ROOT
HETATM    1  C2  UNL     1     -33.329   6.682   4.043  1.00 20.00     0.022 C 
HETATM    2  C3  UNL     1     -32.968   6.508   2.578  1.00 20.00     0.075 C 
HETATM    3  C4  UNL     1     -34.155   4.404   3.753  1.00 20.00     0.085 C 
HETATM    4  C5  UNL     1     -34.524   5.773   4.305  1.00 20.00     0.057 C 
HETATM    5  S7  UNL     1     -33.204   4.742   2.245  1.00 20.00    -0.168 SA
ENDROOT
BRANCH   4   6
HETATM    6  C1  UNL     1     -34.810   5.700   5.772  1.00 20.00     0.236 C 
HETATM    7  O6  UNL     1     -34.466   6.564   6.572  1.00 20.00    -0.306 OA
ENDBRANCH   4   6
TORSDOF 1
ENDMDL
MODEL 8
REMARK VINA RESULT:      -3.3      1.664      1.844
REMARK  1 active torsions:
REMARK  status: ('A' for Active; 'I' for Inactive)
REMARK    1  A    between atoms: C1_1  and  C5_5 
ROOT
HETATM    1  C2  UNL     1     -34.431   4.585   4.526  1.00 20.00     0.022 C 
HETATM    2  C3  UNL     1     -34.999   5.195   5.796  1.00 20.00     0.075 C 
HETATM    3  C4  UNL     1     -33.370   6.777   4.361  1.00 20.00     0.085 C 
HETATM    4  C5  UNL     1     -34.162   5.744   3.573  1.00 20.00     0.057 C 
HETATM    5  S7  UNL     1     -34.065   6.730   6.037  1.00 20.00    -0.168 SA
ENDROOT
BRANCH   4   6
HETATM    6  C1  UNL     1     -33.390   5.270   2.383  1.00 20.00     0.236 C 
HETATM    7  O6  UNL     1     -32.947   4.131   2.274  1.00 20.00    -0.306 OA
ENDBRANCH   4   6
TORSDOF 1
ENDMDL
MODEL 9
REMARK VINA RESULT:      -3.3      9.232      9.499
REMARK  1 active torsions:
REMARK  status: ('A' for Active; 'I' for Inactive)
REMARK    1  A    between atoms: C1_1  and  C5_5 
ROOT
HETATM    1  C2  UNL     1     -41.191   6.778  -0.909  1.00 20.00     0.022 C 
HETATM    2  C3  UNL     1     -42.029   5.527  -1.110  1.00 20.00     0.075 C 
HETATM    3  C4  UNL     1     -42.754   7.111   0.935  1.00 20.00     0.085 C 
HETATM    4  C5  UNL     1     -42.101   7.807  -0.250  1.00 20.00     0.057 C 
HETATM    5  S7  UNL     1     -43.060   5.412   0.377  1.00 20.00    -0.168 SA
ENDROOT
BRANCH   4   6
HETATM    6  C1  UNL     1     -41.307   8.994   0.196  1.00 20.00     0.236 C 
HETATM    7  O6  UNL     1     -41.743  10.141   0.189  1.00 20.00    -0.306 OA
ENDBRANCH   4   6
TORSDOF 1
ENDMDL
