MODEL 1
REMARK VINA RESULT:      -4.3      0.000      0.000
REMARK  0 active torsions:
REMARK  status: ('A' for Active; 'I' for Inactive)
ROOT
HETATM    1  C1  UNL     1     -22.038  17.295   8.034  1.00 20.00     0.087 C 
HETATM    2  C2  UNL     1     -24.376  16.776  11.022  1.00 20.00     0.029 C 
HETATM    3  C3  UNL     1     -23.785  16.570   9.627  1.00 20.00     0.045 C 
HETATM    4  C4  UNL     1     -23.270  16.986  12.046  1.00 20.00     0.167 C 
HETATM    5  C5  UNL     1     -21.760  17.842  10.428  1.00 20.00     0.208 C 
HETATM    6  C6  UNL     1     -22.750  17.646   9.273  1.00 20.00     0.146 C 
HETATM    7  N7  UNL     1     -21.477  17.018   7.057  1.00 20.00    -0.195 NA
HETATM    8  O8  UNL     1     -22.433  18.077  11.667  1.00 20.00    -0.388 OA
HETATM    9 CL9  UNL     1     -23.586  19.207   8.948  1.00 20.00    -0.101 Cl
ENDROOT
TORSDOF 0
ENDMDL
MODEL 2
REMARK VINA RESULT:      -4.2      3.125      3.878
REMARK  0 active torsions:
REMARK  status: ('A' for Active; 'I' for Inactive)
ROOT
HETATM    1  C1  UNL     1     -25.826  17.958  11.895  1.00 20.00     0.087 C 
HETATM    2  C2  UNL     1     -22.887  17.214   9.557  1.00 20.00     0.029 C 
HETATM    3  C3  UNL     1     -24.309  17.582   9.978  1.00 20.00     0.045 C 
HETATM    4  C4  UNL     1     -21.869  17.884  10.468  1.00 20.00     0.167 C 
HETATM    5  C5  UNL     1     -23.386  18.007  12.287  1.00 20.00     0.208 C 
HETATM    6  C6  UNL     1     -24.535  17.384  11.484  1.00 20.00     0.146 C 
HETATM    7  N7  UNL     1     -26.844  18.410  12.219  1.00 20.00    -0.195 NA
HETATM    8  O8  UNL     1     -22.112  17.547  11.831  1.00 20.00    -0.388 OA
HETATM    9 CL9  UNL     1     -24.625  15.626  11.857  1.00 20.00    -0.101 Cl
ENDROOT
TORSDOF 0
ENDMDL
MODEL 3
REMARK VINA RESULT:      -4.2     18.589     19.249
REMARK  0 active torsions:
REMARK  status: ('A' for Active; 'I' for Inactive)
ROOT
HETATM    1  C1  UNL     1     -37.203  14.561  -4.361  1.00 20.00     0.087 C 
HETATM    2  C2  UNL     1     -33.847  15.828  -3.023  1.00 20.00     0.029 C 
HETATM    3  C3  UNL     1     -35.283  15.305  -2.992  1.00 20.00     0.045 C 
HETATM    4  C4  UNL     1     -33.040  15.113  -4.097  1.00 20.00     0.167 C 
HETATM    5  C5  UNL     1     -34.962  14.632  -5.401  1.00 20.00     0.208 C 
HETATM    6  C6  UNL     1     -35.917  15.277  -4.389  1.00 20.00     0.146 C 
HETATM    7  N7  UNL     1     -38.216  13.997  -4.339  1.00 20.00    -0.195 NA
HETATM    8  O8  UNL     1     -33.669  15.242  -5.369  1.00 20.00    -0.388 OA
HETATM    9 CL9  UNL     1     -36.289  16.955  -4.920  1.00 20.00    -0.101 Cl
ENDROOT
TORSDOF 0
ENDMDL
MODEL 4
REMARK VINA RESULT:      -4.1     17.943     18.582
REMARK  0 active torsions:
REMARK  status: ('A' for Active; 'I' for Inactive)
ROOT
HETATM    1  C1  UNL     1     -35.678  13.960  -4.326  1.00 20.00     0.087 C 
HETATM    2  C2  UNL     1     -34.134  16.872  -2.379  1.00 20.00     0.029 C 
HETATM    3  C3  UNL     1     -34.689  15.473  -2.638  1.00 20.00     0.045 C 
HETATM    4  C4  UNL     1     -33.295  17.342  -3.558  1.00 20.00     0.167 C 
HETATM    5  C5  UNL     1     -34.463  15.969  -5.100  1.00 20.00     0.208 C 
HETATM    6  C6  UNL     1     -35.360  15.363  -4.014  1.00 20.00     0.146 C 
HETATM    7  N7  UNL     1     -35.928  12.855  -4.573  1.00 20.00    -0.195 NA
HETATM    8  O8  UNL     1     -34.051  17.296  -4.766  1.00 20.00    -0.388 OA
HETATM    9 CL9  UNL     1     -36.931  16.241  -3.994  1.00 20.00    -0.101 Cl
ENDROOT
TORSDOF 0
ENDMDL
MODEL 5
REMARK VINA RESULT:      -3.9     16.911     17.502
REMARK  0 active torsions:
REMARK  status: ('A' for Active; 'I' for Inactive)
ROOT
HETATM    1  C1  UNL     1     -34.817  14.232  -3.865  1.00 20.00     0.087 C 
HETATM    2  C2  UNL     1     -34.611  17.312  -1.601  1.00 20.00     0.029 C 
HETATM    3  C3  UNL     1     -35.063  15.938  -2.092  1.00 20.00     0.045 C 
HETATM    4  C4  UNL     1     -33.117  17.496  -1.826  1.00 20.00     0.167 C 
HETATM    5  C5  UNL     1     -33.072  15.968  -3.640  1.00 20.00     0.208 C 
HETATM    6  C6  UNL     1     -34.565  15.638  -3.512  1.00 20.00     0.146 C 
HETATM    7  N7  UNL     1     -35.016  13.124  -4.144  1.00 20.00    -0.195 NA
HETATM    8  O8  UNL     1     -32.785  17.296  -3.198  1.00 20.00    -0.388 OA
HETATM    9 CL9  UNL     1     -35.486  16.628  -4.699  1.00 20.00    -0.101 Cl
ENDROOT
TORSDOF 0
ENDMDL
MODEL 6
REMARK VINA RESULT:      -3.9     23.441     24.184
REMARK  0 active torsions:
REMARK  status: ('A' for Active; 'I' for Inactive)
ROOT
HETATM    1  C1  UNL     1     -41.664   9.151   0.115  1.00 20.00     0.087 C 
HETATM    2  C2  UNL     1     -41.588   5.470  -0.935  1.00 20.00     0.029 C 
HETATM    3  C3  UNL     1     -41.099   6.906  -0.757  1.00 20.00     0.045 C 
HETATM    4  C4  UNL     1     -42.337   5.002   0.304  1.00 20.00     0.167 C 
HETATM    5  C5  UNL     1     -42.964   7.207   0.915  1.00 20.00     0.208 C 
HETATM    6  C6  UNL     1     -42.214   7.839  -0.264  1.00 20.00     0.146 C 
HETATM    7  N7  UNL     1     -41.231  10.184   0.414  1.00 20.00    -0.195 NA
HETATM    8  O8  UNL     1     -43.414   5.886   0.606  1.00 20.00    -0.388 OA
HETATM    9 CL9  UNL     1     -43.378   8.151  -1.600  1.00 20.00    -0.101 Cl
ENDROOT
TORSDOF 0
ENDMDL
MODEL 7
REMARK VINA RESULT:      -3.8     19.708     20.189
REMARK  0 active torsions:
REMARK  status: ('A' for Active; 'I' for Inactive)
ROOT
HETATM    1  C1  UNL     1     -37.136  14.424  -4.578  1.00 20.00     0.087 C 
HETATM    2  C2  UNL     1     -34.287  15.359  -6.958  1.00 20.00     0.029 C 
HETATM    3  C3  UNL     1     -35.509  14.608  -6.431  1.00 20.00     0.045 C 
HETATM    4  C4  UNL     1     -34.412  16.849  -6.675  1.00 20.00     0.167 C 
HETATM    5  C5  UNL     1     -35.822  16.505  -4.799  1.00 20.00     0.208 C 
HETATM    6  C6  UNL     1     -35.835  14.982  -4.978  1.00 20.00     0.146 C 
HETATM    7  N7  UNL     1     -38.162  13.984  -4.263  1.00 20.00    -0.195 NA
HETATM    8  O8  UNL     1     -34.607  17.084  -5.283  1.00 20.00    -0.388 OA
HETATM    9 CL9  UNL     1     -34.615  14.252  -3.876  1.00 20.00    -0.101 Cl
ENDROOT
TORSDOF 0
ENDMDL
MODEL 8
REMARK VINA RESULT:      -3.8     17.705     18.355
REMARK  0 active torsions:
REMARK  status: ('A' for Active; 'I' for Inactive)
ROOT
HETATM    1  C1  UNL     1     -35.326  13.850  -4.317  1.00 20.00     0.087 C 
HETATM    2  C2  UNL     1     -34.244  17.499  -4.731  1.00 20.00     0.029 C 
HETATM    3  C3  UNL     1     -34.886  16.158  -5.086  1.00 20.00     0.045 C 
HETATM    4  C4  UNL     1     -34.487  17.837  -3.267  1.00 20.00     0.167 C 
HETATM    5  C5  UNL     1     -34.701  15.558  -2.644  1.00 20.00     0.208 C 
HETATM    6  C6  UNL     1     -34.519  15.057  -4.082  1.00 20.00     0.146 C 
HETATM    7  N7  UNL     1     -35.963  12.898  -4.502  1.00 20.00    -0.195 NA
HETATM    8  O8  UNL     1     -34.013  16.791  -2.422  1.00 20.00    -0.388 OA
HETATM    9 CL9  UNL     1     -32.803  14.568  -4.319  1.00 20.00    -0.101 Cl
ENDROOT
TORSDOF 0
ENDMDL
MODEL 9
REMARK VINA RESULT:      -3.8      2.742      3.637
REMARK  0 active torsions:
REMARK  status: ('A' for Active; 'I' for Inactive)
ROOT
HETATM    1  C1  UNL     1     -24.299  16.303  11.351  1.00 20.00     0.087 C 
HETATM    2  C2  UNL     1     -22.444  17.652   8.286  1.00 20.00     0.029 C 
HETATM    3  C3  UNL     1     -22.933  16.635   9.317  1.00 20.00     0.045 C 
HETATM    4  C4  UNL     1     -23.560  18.620   7.918  1.00 20.00     0.167 C 
HETATM    5  C5  UNL     1     -24.664  18.339   9.999  1.00 20.00     0.208 C 
HETATM    6  C6  UNL     1     -23.644  17.308  10.499  1.00 20.00     0.146 C 
HETATM    7  N7  UNL     1     -24.815  15.510  12.023  1.00 20.00    -0.195 NA
HETATM    8  O8  UNL     1     -24.073  19.263   9.082  1.00 20.00    -0.388 OA
HETATM    9 CL9  UNL     1     -22.434  18.138  11.541  1.00 20.00    -0.101 Cl
ENDROOT
TORSDOF 0
ENDMDL
