MODEL 1
REMARK VINA RESULT:      -3.8      0.000      0.000
REMARK  3 active torsions:
REMARK  status: ('A' for Active; 'I' for Inactive)
REMARK    1  A    between atoms: C3_3  and  C5_5 
REMARK    2  A    between atoms: C3_3  and  O6_6 
REMARK    3  A    between atoms: C4_4  and  C5_5 
ROOT
HETATM    1  C1  UNL     1     -33.165   4.850   2.538  1.00 20.00     0.013 C 
HETATM    2  C5  UNL     1     -33.459   6.328   2.796  1.00 20.00     0.019 C 
ENDROOT
BRANCH   2   3
HETATM    3  C3  UNL     1     -33.869   6.544   4.259  1.00 20.00     0.172 C 
BRANCH   3   4
HETATM    4  O6  UNL     1     -34.915   5.655   4.630  1.00 20.00    -0.396 OA
HETATM    5  C2  UNL     1     -34.781   5.226   5.978  1.00 20.00     0.201 C 
ENDBRANCH   3   4
ENDBRANCH   2   3
BRANCH   2   6
HETATM    6  C4  UNL     1     -32.301   7.239   2.358  1.00 20.00     0.121 C 
HETATM    7 CL7  UNL     1     -32.703   8.288   0.976  1.00 20.00    -0.130 Cl
ENDBRANCH   2   6
TORSDOF 3
ENDMDL
MODEL 2
REMARK VINA RESULT:      -3.7      3.001      4.163
REMARK  3 active torsions:
REMARK  status: ('A' for Active; 'I' for Inactive)
REMARK    1  A    between atoms: C3_3  and  C5_5 
REMARK    2  A    between atoms: C3_3  and  O6_6 
REMARK    3  A    between atoms: C4_4  and  C5_5 
ROOT
HETATM    1  C1  UNL     1     -33.345   7.148   5.172  1.00 20.00     0.013 C 
HETATM    2  C5  UNL     1     -34.027   6.494   3.969  1.00 20.00     0.019 C 
ENDROOT
BRANCH   2   3
HETATM    3  C3  UNL     1     -32.998   6.188   2.873  1.00 20.00     0.172 C 
BRANCH   3   4
HETATM    4  O6  UNL     1     -32.191   7.325   2.600  1.00 20.00    -0.396 OA
HETATM    5  C2  UNL     1     -32.570   7.955   1.385  1.00 20.00     0.201 C 
ENDBRANCH   3   4
ENDBRANCH   2   3
BRANCH   2   6
HETATM    6  C4  UNL     1     -34.861   5.266   4.368  1.00 20.00     0.121 C 
HETATM    7 CL7  UNL     1     -34.874   4.951   6.120  1.00 20.00    -0.130 Cl
ENDBRANCH   2   6
TORSDOF 3
ENDMDL
MODEL 3
REMARK VINA RESULT:      -3.5      2.912      3.851
REMARK  3 active torsions:
REMARK  status: ('A' for Active; 'I' for Inactive)
REMARK    1  A    between atoms: C3_3  and  C5_5 
REMARK    2  A    between atoms: C3_3  and  O6_6 
REMARK    3  A    between atoms: C4_4  and  C5_5 
ROOT
HETATM    1  C1  UNL     1     -33.303   4.606   2.233  1.00 20.00     0.013 C 
HETATM    2  C5  UNL     1     -33.506   5.356   3.550  1.00 20.00     0.019 C 
ENDROOT
BRANCH   2   3
HETATM    3  C3  UNL     1     -33.340   6.867   3.335  1.00 20.00     0.172 C 
BRANCH   3   4
HETATM    4  O6  UNL     1     -32.220   7.142   2.505  1.00 20.00    -0.396 OA
HETATM    5  C2  UNL     1     -32.563   8.015   1.438  1.00 20.00     0.201 C 
ENDBRANCH   3   4
ENDBRANCH   2   3
BRANCH   2   6
HETATM    6  C4  UNL     1     -34.835   4.991   4.231  1.00 20.00     0.121 C 
HETATM    7 CL7  UNL     1     -34.845   5.299   5.984  1.00 20.00    -0.130 Cl
ENDBRANCH   2   6
TORSDOF 3
ENDMDL
MODEL 4
REMARK VINA RESULT:      -3.5      2.687      3.859
REMARK  3 active torsions:
REMARK  status: ('A' for Active; 'I' for Inactive)
REMARK    1  A    between atoms: C3_3  and  C5_5 
REMARK    2  A    between atoms: C3_3  and  O6_6 
REMARK    3  A    between atoms: C4_4  and  C5_5 
ROOT
HETATM    1  C1  UNL     1     -34.023   6.553   6.073  1.00 20.00     0.013 C 
HETATM    2  C5  UNL     1     -34.235   6.613   4.559  1.00 20.00     0.019 C 
ENDROOT
BRANCH   2   3
HETATM    3  C3  UNL     1     -32.893   6.806   3.840  1.00 20.00     0.172 C 
BRANCH   3   4
HETATM    4  O6  UNL     1     -33.022   6.552   2.447  1.00 20.00    -0.396 OA
HETATM    5  C2  UNL     1     -32.520   7.630   1.671  1.00 20.00     0.201 C 
ENDBRANCH   3   4
ENDBRANCH   2   3
BRANCH   2   6
HETATM    6  C4  UNL     1     -35.030   5.408   4.032  1.00 20.00     0.121 C 
HETATM    7 CL7  UNL     1     -34.112   3.882   4.061  1.00 20.00    -0.130 Cl
ENDBRANCH   2   6
TORSDOF 3
ENDMDL
MODEL 5
REMARK VINA RESULT:      -3.4      2.857      4.002
REMARK  3 active torsions:
REMARK  status: ('A' for Active; 'I' for Inactive)
REMARK    1  A    between atoms: C3_3  and  C5_5 
REMARK    2  A    between atoms: C3_3  and  O6_6 
REMARK    3  A    between atoms: C4_4  and  C5_5 
ROOT
HETATM    1  C1  UNL     1     -33.743   6.784   4.820  1.00 20.00     0.013 C 
HETATM    2  C5  UNL     1     -33.530   6.610   3.315  1.00 20.00     0.019 C 
ENDROOT
BRANCH   2   3
HETATM    3  C3  UNL     1     -32.235   7.305   2.874  1.00 20.00     0.172 C 
BRANCH   3   4
HETATM    4  O6  UNL     1     -32.173   7.415   1.459  1.00 20.00    -0.396 OA
HETATM    5  C2  UNL     1     -32.808   8.599   0.998  1.00 20.00     0.201 C 
ENDBRANCH   3   4
ENDBRANCH   2   3
BRANCH   2   6
HETATM    6  C4  UNL     1     -33.596   5.136   2.883  1.00 20.00     0.121 C 
HETATM    7 CL7  UNL     1     -34.354   4.072   4.093  1.00 20.00    -0.130 Cl
ENDBRANCH   2   6
TORSDOF 3
ENDMDL
MODEL 6
REMARK VINA RESULT:      -3.4      2.212      2.595
REMARK  3 active torsions:
REMARK  status: ('A' for Active; 'I' for Inactive)
REMARK    1  A    between atoms: C3_3  and  C5_5 
REMARK    2  A    between atoms: C3_3  and  O6_6 
REMARK    3  A    between atoms: C4_4  and  C5_5 
ROOT
HETATM    1  C1  UNL     1     -32.461   7.401   2.002  1.00 20.00     0.013 C 
HETATM    2  C5  UNL     1     -32.843   6.389   3.083  1.00 20.00     0.019 C 
ENDROOT
BRANCH   2   3
HETATM    3  C3  UNL     1     -33.904   6.982   4.020  1.00 20.00     0.172 C 
BRANCH   3   4
HETATM    4  O6  UNL     1     -33.452   6.978   5.367  1.00 20.00    -0.396 OA
HETATM    5  C2  UNL     1     -34.332   6.249   6.211  1.00 20.00     0.201 C 
ENDBRANCH   3   4
ENDBRANCH   2   3
BRANCH   2   6
HETATM    6  C4  UNL     1     -33.258   5.032   2.491  1.00 20.00     0.121 C 
HETATM    7 CL7  UNL     1     -34.140   3.994   3.637  1.00 20.00    -0.130 Cl
ENDBRANCH   2   6
TORSDOF 3
ENDMDL
MODEL 7
REMARK VINA RESULT:      -3.1     11.338     12.084
REMARK  3 active torsions:
REMARK  status: ('A' for Active; 'I' for Inactive)
REMARK    1  A    between atoms: C3_3  and  C5_5 
REMARK    2  A    between atoms: C3_3  and  O6_6 
REMARK    3  A    between atoms: C4_4  and  C5_5 
ROOT
HETATM    1  C1  UNL     1     -35.466  14.766  -6.659  1.00 20.00     0.013 C 
HETATM    2  C5  UNL     1     -35.753  15.004  -5.176  1.00 20.00     0.019 C 
ENDROOT
BRANCH   2   3
HETATM    3  C3  UNL     1     -36.237  13.708  -4.510  1.00 20.00     0.172 C 
BRANCH   3   4
HETATM    4  O6  UNL     1     -37.656  13.651  -4.480  1.00 20.00    -0.396 OA
HETATM    5  C2  UNL     1     -38.225  14.926  -4.215  1.00 20.00     0.201 C 
ENDBRANCH   3   4
ENDBRANCH   2   3
BRANCH   2   6
HETATM    6  C4  UNL     1     -34.560  15.643  -4.446  1.00 20.00     0.121 C 
HETATM    7 CL7  UNL     1     -34.672  15.539  -2.672  1.00 20.00    -0.130 Cl
ENDBRANCH   2   6
TORSDOF 3
ENDMDL
MODEL 8
REMARK VINA RESULT:      -3.1     11.515     12.312
REMARK  3 active torsions:
REMARK  status: ('A' for Active; 'I' for Inactive)
REMARK    1  A    between atoms: C3_3  and  C5_5 
REMARK    2  A    between atoms: C3_3  and  O6_6 
REMARK    3  A    between atoms: C4_4  and  C5_5 
ROOT
HETATM    1  C1  UNL     1     -36.099  14.095  -4.273  1.00 20.00     0.013 C 
HETATM    2  C5  UNL     1     -34.703  14.483  -3.783  1.00 20.00     0.019 C 
ENDROOT
BRANCH   2   3
HETATM    3  C3  UNL     1     -33.797  14.831  -4.972  1.00 20.00     0.172 C 
BRANCH   3   4
HETATM    4  O6  UNL     1     -34.412  14.473  -6.202  1.00 20.00    -0.396 OA
HETATM    5  C2  UNL     1     -33.956  15.288  -7.271  1.00 20.00     0.201 C 
ENDBRANCH   3   4
ENDBRANCH   2   3
BRANCH   2   6
HETATM    6  C4  UNL     1     -34.745  15.591  -2.718  1.00 20.00     0.121 C 
HETATM    7 CL7  UNL     1     -33.238  16.531  -2.607  1.00 20.00    -0.130 Cl
ENDBRANCH   2   6
TORSDOF 3
ENDMDL
MODEL 9
REMARK VINA RESULT:      -3.1     11.304     11.601
REMARK  3 active torsions:
REMARK  status: ('A' for Active; 'I' for Inactive)
REMARK    1  A    between atoms: C3_3  and  C5_5 
REMARK    2  A    between atoms: C3_3  and  O6_6 
REMARK    3  A    between atoms: C4_4  and  C5_5 
ROOT
HETATM    1  C1  UNL     1     -35.015  16.554  -1.494  1.00 20.00     0.013 C 
HETATM    2  C5  UNL     1     -34.784  15.632  -2.693  1.00 20.00     0.019 C 
ENDROOT
BRANCH   2   3
HETATM    3  C3  UNL     1     -35.972  15.708  -3.662  1.00 20.00     0.172 C 
BRANCH   3   4
HETATM    4  O6  UNL     1     -36.691  14.482  -3.682  1.00 20.00    -0.396 OA
HETATM    5  C2  UNL     1     -36.310  13.671  -4.784  1.00 20.00     0.201 C 
ENDBRANCH   3   4
ENDBRANCH   2   3
BRANCH   2   6
HETATM    6  C4  UNL     1     -33.434  15.895  -3.380  1.00 20.00     0.121 C 
HETATM    7 CL7  UNL     1     -32.844  14.518  -4.341  1.00 20.00    -0.130 Cl
ENDBRANCH   2   6
TORSDOF 3
ENDMDL
