MODEL 1
REMARK VINA RESULT:      -3.9      0.000      0.000
REMARK  3 active torsions:
REMARK  status: ('A' for Active; 'I' for Inactive)
REMARK    1  A    between atoms: C2_2  and  C5_5 
REMARK    2  A    between atoms: C5_5  and  N7_7 
REMARK    3  A    between atoms: C6_6  and  N7_7 
ROOT
HETATM    1  C1  UNL     1     -23.921  16.880  10.094  1.00 20.00     0.052 A 
HETATM    2  C2  UNL     1     -24.294  18.319  10.324  1.00 20.00     0.055 A 
HETATM    3  C3  UNL     1     -22.874  17.858  10.567  1.00 20.00     0.119 A 
HETATM    4 CL8  UNL     1     -22.330  17.733  12.240  1.00 20.00    -0.101 Cl
HETATM    5 CL9  UNL     1     -21.588  18.297   9.451  1.00 20.00    -0.101 Cl
ENDROOT
BRANCH   2   6
HETATM    6  C5  UNL     1     -24.676  19.183   9.171  1.00 20.00     0.277 C 
BRANCH   6   7
HETATM    7  N7  UNL     1     -25.906  18.739   8.575  1.00 20.00     0.083 N 
HETATM    8  H20 UNL     1     -26.707  19.145   9.070  1.00 20.00     0.315 HD
BRANCH   7   9
HETATM    9  C6  UNL     1     -25.993  19.121   7.164  1.00 20.00     0.265 C 
HETATM   10  C4  UNL     1     -24.639  19.235   6.553  1.00 20.00     0.037 C 
ENDBRANCH   7   9
ENDBRANCH   6   7
ENDBRANCH   2   6
TORSDOF 3
ENDMDL
MODEL 2
REMARK VINA RESULT:      -3.8      1.749      2.728
REMARK  3 active torsions:
REMARK  status: ('A' for Active; 'I' for Inactive)
REMARK    1  A    between atoms: C2_2  and  C5_5 
REMARK    2  A    between atoms: C5_5  and  N7_7 
REMARK    3  A    between atoms: C6_6  and  N7_7 
ROOT
HETATM    1  C1  UNL     1     -23.853  16.667  10.525  1.00 20.00     0.052 A 
HETATM    2  C2  UNL     1     -24.330  18.053  10.864  1.00 20.00     0.055 A 
HETATM    3  C3  UNL     1     -22.849  17.765  10.773  1.00 20.00     0.119 A 
HETATM    4 CL8  UNL     1     -21.932  17.712  12.279  1.00 20.00    -0.101 Cl
HETATM    5 CL9  UNL     1     -21.906  18.348   9.408  1.00 20.00    -0.101 Cl
ENDROOT
BRANCH   2   6
HETATM    6  C5  UNL     1     -25.059  18.860   9.845  1.00 20.00     0.277 C 
BRANCH   6   7
HETATM    7  N7  UNL     1     -26.424  19.081  10.237  1.00 20.00     0.083 N 
HETATM    8  H20 UNL     1     -27.031  18.361   9.829  1.00 20.00     0.315 HD
BRANCH   7   9
HETATM    9  C6  UNL     1     -26.582  19.048  11.692  1.00 20.00     0.265 C 
HETATM   10  C4  UNL     1     -27.759  18.223  12.086  1.00 20.00     0.037 C 
ENDBRANCH   7   9
ENDBRANCH   6   7
ENDBRANCH   2   6
TORSDOF 3
ENDMDL
MODEL 3
REMARK VINA RESULT:      -3.7     16.184     16.777
REMARK  3 active torsions:
REMARK  status: ('A' for Active; 'I' for Inactive)
REMARK    1  A    between atoms: C2_2  and  C5_5 
REMARK    2  A    between atoms: C5_5  and  N7_7 
REMARK    3  A    between atoms: C6_6  and  N7_7 
ROOT
HETATM    1  C1  UNL     1     -35.301   6.027   3.659  1.00 20.00     0.052 A 
HETATM    2  C2  UNL     1     -33.856   6.386   3.869  1.00 20.00     0.055 A 
HETATM    3  C3  UNL     1     -34.435   5.160   4.539  1.00 20.00     0.119 A 
HETATM    4 CL8  UNL     1     -34.706   5.231   6.281  1.00 20.00    -0.101 Cl
HETATM    5 CL9  UNL     1     -34.024   3.550   3.966  1.00 20.00    -0.101 Cl
ENDROOT
BRANCH   2   6
HETATM    6  C5  UNL     1     -32.896   6.306   2.732  1.00 20.00     0.277 C 
BRANCH   6   7
HETATM    7  N7  UNL     1     -32.402   7.608   2.377  1.00 20.00     0.083 N 
HETATM    8  H20 UNL     1     -31.412   7.694   2.632  1.00 20.00     0.315 HD
BRANCH   7   9
HETATM    9  C6  UNL     1     -32.533   7.865   0.942  1.00 20.00     0.265 C 
HETATM   10  C4  UNL     1     -32.962   9.268   0.684  1.00 20.00     0.037 C 
ENDBRANCH   7   9
ENDBRANCH   6   7
ENDBRANCH   2   6
TORSDOF 3
ENDMDL
MODEL 4
REMARK VINA RESULT:      -3.6     15.350     16.839
REMARK  3 active torsions:
REMARK  status: ('A' for Active; 'I' for Inactive)
REMARK    1  A    between atoms: C2_2  and  C5_5 
REMARK    2  A    between atoms: C5_5  and  N7_7 
REMARK    3  A    between atoms: C6_6  and  N7_7 
ROOT
HETATM    1  C1  UNL     1     -33.876  17.506  -3.766  1.00 20.00     0.052 A 
HETATM    2  C2  UNL     1     -33.074  16.246  -3.588  1.00 20.00     0.055 A 
HETATM    3  C3  UNL     1     -33.691  16.925  -2.386  1.00 20.00     0.119 A 
HETATM    4 CL8  UNL     1     -32.608  17.770  -1.279  1.00 20.00    -0.101 Cl
HETATM    5 CL9  UNL     1     -35.094  16.229  -1.587  1.00 20.00    -0.101 Cl
ENDROOT
BRANCH   2   6
HETATM    6  C5  UNL     1     -33.582  14.956  -4.136  1.00 20.00     0.277 C 
BRANCH   6   7
HETATM    7  N7  UNL     1     -33.066  14.712  -5.454  1.00 20.00     0.083 N 
HETATM    8  H20 UNL     1     -32.786  13.730  -5.549  1.00 20.00     0.315 HD
BRANCH   7   9
HETATM    9  C6  UNL     1     -34.059  15.012  -6.489  1.00 20.00     0.265 C 
HETATM   10  C4  UNL     1     -35.432  14.657  -6.034  1.00 20.00     0.037 C 
ENDBRANCH   7   9
ENDBRANCH   6   7
ENDBRANCH   2   6
TORSDOF 3
ENDMDL
MODEL 5
REMARK VINA RESULT:      -3.5     16.131     17.539
REMARK  3 active torsions:
REMARK  status: ('A' for Active; 'I' for Inactive)
REMARK    1  A    between atoms: C2_2  and  C5_5 
REMARK    2  A    between atoms: C5_5  and  N7_7 
REMARK    3  A    between atoms: C6_6  and  N7_7 
ROOT
HETATM    1  C1  UNL     1     -33.372  16.569  -3.287  1.00 20.00     0.052 A 
HETATM    2  C2  UNL     1     -34.024  15.215  -3.250  1.00 20.00     0.055 A 
HETATM    3  C3  UNL     1     -34.806  16.441  -2.838  1.00 20.00     0.119 A 
HETATM    4 CL8  UNL     1     -35.152  16.653  -1.121  1.00 20.00    -0.101 Cl
HETATM    5 CL9  UNL     1     -36.061  17.094  -3.883  1.00 20.00    -0.101 Cl
ENDROOT
BRANCH   2   6
HETATM    6  C5  UNL     1     -34.285  14.479  -4.520  1.00 20.00     0.277 C 
BRANCH   6   7
HETATM    7  N7  UNL     1     -33.281  14.771  -5.505  1.00 20.00     0.083 N 
HETATM    8  H20 UNL     1     -32.663  13.963  -5.632  1.00 20.00     0.315 HD
BRANCH   7   9
HETATM    9  C6  UNL     1     -33.875  15.105  -6.801  1.00 20.00     0.265 C 
HETATM   10  C4  UNL     1     -35.355  14.934  -6.774  1.00 20.00     0.037 C 
ENDBRANCH   7   9
ENDBRANCH   6   7
ENDBRANCH   2   6
TORSDOF 3
ENDMDL
MODEL 6
REMARK VINA RESULT:      -3.5     24.015     25.018
REMARK  3 active torsions:
REMARK  status: ('A' for Active; 'I' for Inactive)
REMARK    1  A    between atoms: C2_2  and  C5_5 
REMARK    2  A    between atoms: C5_5  and  N7_7 
REMARK    3  A    between atoms: C6_6  and  N7_7 
ROOT
HETATM    1  C1  UNL     1     -40.930   5.637  -0.961  1.00 20.00     0.052 A 
HETATM    2  C2  UNL     1     -42.295   5.402  -0.374  1.00 20.00     0.055 A 
HETATM    3  C3  UNL     1     -41.764   6.811  -0.512  1.00 20.00     0.119 A 
HETATM    4 CL8  UNL     1     -41.275   7.649   0.961  1.00 20.00    -0.101 Cl
HETATM    5 CL9  UNL     1     -42.403   7.891  -1.744  1.00 20.00    -0.101 Cl
ENDROOT
BRANCH   2   6
HETATM    6  C5  UNL     1     -43.391   4.865  -1.229  1.00 20.00     0.277 C 
BRANCH   6   7
HETATM    7  N7  UNL     1     -43.282   3.440  -1.380  1.00 20.00     0.083 N 
HETATM    8  H20 UNL     1     -44.011   2.969  -0.834  1.00 20.00     0.315 HD
BRANCH   7   9
HETATM    9  C6  UNL     1     -43.417   3.032  -2.779  1.00 20.00     0.265 C 
HETATM   10  C4  UNL     1     -42.084   2.800  -3.402  1.00 20.00     0.037 C 
ENDBRANCH   7   9
ENDBRANCH   6   7
ENDBRANCH   2   6
TORSDOF 3
ENDMDL
MODEL 7
REMARK VINA RESULT:      -3.4     15.873     17.219
REMARK  3 active torsions:
REMARK  status: ('A' for Active; 'I' for Inactive)
REMARK    1  A    between atoms: C2_2  and  C5_5 
REMARK    2  A    between atoms: C5_5  and  N7_7 
REMARK    3  A    between atoms: C6_6  and  N7_7 
ROOT
HETATM    1  C1  UNL     1     -34.921  16.091  -1.818  1.00 20.00     0.052 A 
HETATM    2  C2  UNL     1     -35.260  16.962  -2.996  1.00 20.00     0.055 A 
HETATM    3  C3  UNL     1     -33.831  16.529  -2.764  1.00 20.00     0.119 A 
HETATM    4 CL8  UNL     1     -32.690  17.747  -2.193  1.00 20.00    -0.101 Cl
HETATM    5 CL9  UNL     1     -33.087  15.310  -3.790  1.00 20.00    -0.101 Cl
ENDROOT
BRANCH   2   6
HETATM    6  C5  UNL     1     -36.097  16.422  -4.105  1.00 20.00     0.277 C 
BRANCH   6   7
HETATM    7  N7  UNL     1     -37.243  15.720  -3.597  1.00 20.00     0.083 N 
HETATM    8  H20 UNL     1     -38.080  16.308  -3.668  1.00 20.00     0.315 HD
BRANCH   7   9
HETATM    9  C6  UNL     1     -37.488  14.478  -4.334  1.00 20.00     0.265 C 
HETATM   10  C4  UNL     1     -36.223  13.721  -4.548  1.00 20.00     0.037 C 
ENDBRANCH   7   9
ENDBRANCH   6   7
ENDBRANCH   2   6
TORSDOF 3
ENDMDL
MODEL 8
REMARK VINA RESULT:      -3.4     15.910     16.700
REMARK  3 active torsions:
REMARK  status: ('A' for Active; 'I' for Inactive)
REMARK    1  A    between atoms: C2_2  and  C5_5 
REMARK    2  A    between atoms: C5_5  and  N7_7 
REMARK    3  A    between atoms: C6_6  and  N7_7 
ROOT
HETATM    1  C1  UNL     1     -31.829   7.608   3.001  1.00 20.00     0.052 A 
HETATM    2  C2  UNL     1     -33.116   6.900   2.674  1.00 20.00     0.055 A 
HETATM    3  C3  UNL     1     -32.507   7.860   1.677  1.00 20.00     0.119 A 
HETATM    4 CL8  UNL     1     -33.305   9.416   1.447  1.00 20.00    -0.101 Cl
HETATM    5 CL9  UNL     1     -31.726   7.260   0.220  1.00 20.00    -0.101 Cl
ENDROOT
BRANCH   2   6
HETATM    6  C5  UNL     1     -33.124   5.424   2.472  1.00 20.00     0.277 C 
BRANCH   6   7
HETATM    7  N7  UNL     1     -34.039   4.781   3.373  1.00 20.00     0.083 N 
HETATM    8  H20 UNL     1     -33.547   4.082   3.940  1.00 20.00     0.315 HD
BRANCH   7   9
HETATM    9  C6  UNL     1     -34.676   5.742   4.275  1.00 20.00     0.265 C 
HETATM   10  C4  UNL     1     -34.774   5.198   5.659  1.00 20.00     0.037 C 
ENDBRANCH   7   9
ENDBRANCH   6   7
ENDBRANCH   2   6
TORSDOF 3
ENDMDL
MODEL 9
REMARK VINA RESULT:      -3.3      2.319      3.806
REMARK  3 active torsions:
REMARK  status: ('A' for Active; 'I' for Inactive)
REMARK    1  A    between atoms: C2_2  and  C5_5 
REMARK    2  A    between atoms: C5_5  and  N7_7 
REMARK    3  A    between atoms: C6_6  and  N7_7 
ROOT
HETATM    1  C1  UNL     1     -23.924  18.229   9.694  1.00 20.00     0.052 A 
HETATM    2  C2  UNL     1     -23.825  16.767  10.029  1.00 20.00     0.055 A 
HETATM    3  C3  UNL     1     -22.606  17.512   9.538  1.00 20.00     0.119 A 
HETATM    4 CL8  UNL     1     -22.045  17.174   7.900  1.00 20.00    -0.101 Cl
HETATM    5 CL9  UNL     1     -21.303  17.925  10.644  1.00 20.00    -0.101 Cl
ENDROOT
BRANCH   2   6
HETATM    6  C5  UNL     1     -23.980  16.314  11.441  1.00 20.00     0.277 C 
BRANCH   6   7
HETATM    7  N7  UNL     1     -24.762  17.248  12.203  1.00 20.00     0.083 N 
HETATM    8  H20 UNL     1     -24.751  18.169  11.754  1.00 20.00     0.315 HD
BRANCH   7   9
HETATM    9  C6  UNL     1     -26.154  16.812  12.330  1.00 20.00     0.265 C 
HETATM   10  C4  UNL     1     -27.084  17.976  12.329  1.00 20.00     0.037 C 
ENDBRANCH   7   9
ENDBRANCH   6   7
ENDBRANCH   2   6
TORSDOF 3
ENDMDL
