MODEL 1
REMARK VINA RESULT:      -3.5      0.000      0.000
REMARK  6 active torsions:
REMARK  status: ('A' for Active; 'I' for Inactive)
REMARK    1  A    between atoms: C5_5  and  C8_8 
REMARK    2  A    between atoms: C6_6  and  C9_9 
REMARK    3  A    between atoms: C7_7  and  C10_10 
REMARK    4  A    between atoms: C8_8  and  N11_11 
REMARK    5  A    between atoms: C9_9  and  N11_11 
REMARK    6  A    between atoms: C10_10  and  N11_11 
ROOT
HETATM    1  C1  UNL     1     -35.093  16.460  -1.594  1.00 20.00     0.012 C 
HETATM    2  C2  UNL     1     -34.303  16.111  -2.427  1.00 20.00    -0.116 C 
HETATM    3  C5  UNL     1     -33.332  15.687  -3.448  1.00 20.00     0.123 C 
ENDROOT
BRANCH   3   4
HETATM    4  C8  UNL     1     -33.850  14.515  -4.277  1.00 20.00     0.284 C 
BRANCH   4   5
HETATM    5  N11 UNL     1     -34.801  14.972  -5.288  1.00 20.00     0.089 N 
BRANCH   5   6
HETATM    6  C9  UNL     1     -35.945  14.064  -5.362  1.00 20.00     0.272 C 
BRANCH   6   7
HETATM    7  C6  UNL     1     -37.053  14.446  -4.388  1.00 20.00     0.026 C 
HETATM    8  C3  UNL     1     -37.453  15.910  -4.497  1.00 20.00     0.007 C 
ENDBRANCH   6   7
ENDBRANCH   5   6
BRANCH   5   9
HETATM    9  C10 UNL     1     -34.148  15.078  -6.593  1.00 20.00     0.272 C 
BRANCH   9  10
HETATM   10  C7  UNL     1     -34.485  16.382  -7.307  1.00 20.00     0.026 C 
HETATM   11  C4  UNL     1     -34.632  17.556  -6.350  1.00 20.00     0.007 C 
ENDBRANCH   9  10
ENDBRANCH   5   9
ENDBRANCH   4   5
ENDBRANCH   3   4
TORSDOF 6
ENDMDL
MODEL 2
REMARK VINA RESULT:      -3.3      0.923      2.537
REMARK  6 active torsions:
REMARK  status: ('A' for Active; 'I' for Inactive)
REMARK    1  A    between atoms: C5_5  and  C8_8 
REMARK    2  A    between atoms: C6_6  and  C9_9 
REMARK    3  A    between atoms: C7_7  and  C10_10 
REMARK    4  A    between atoms: C8_8  and  N11_11 
REMARK    5  A    between atoms: C9_9  and  N11_11 
REMARK    6  A    between atoms: C10_10  and  N11_11 
ROOT
HETATM    1  C1  UNL     1     -35.101  16.487  -1.449  1.00 20.00     0.012 C 
HETATM    2  C2  UNL     1     -34.383  16.144  -2.348  1.00 20.00    -0.116 C 
HETATM    3  C5  UNL     1     -33.501  15.726  -3.449  1.00 20.00     0.123 C 
ENDROOT
BRANCH   3   4
HETATM    4  C8  UNL     1     -34.058  14.521  -4.201  1.00 20.00     0.284 C 
BRANCH   4   5
HETATM    5  N11 UNL     1     -34.440  14.888  -5.564  1.00 20.00     0.089 N 
BRANCH   5   6
HETATM    6  C9  UNL     1     -34.323  16.333  -5.757  1.00 20.00     0.272 C 
BRANCH   6   7
HETATM    7  C6  UNL     1     -35.645  16.974  -6.158  1.00 20.00     0.026 C 
HETATM    8  C3  UNL     1     -36.138  17.993  -5.141  1.00 20.00     0.007 C 
ENDBRANCH   6   7
ENDBRANCH   5   6
BRANCH   5   9
HETATM    9  C10 UNL     1     -35.804  14.443  -5.849  1.00 20.00     0.272 C 
BRANCH   9  10
HETATM   10  C7  UNL     1     -36.484  13.835  -4.627  1.00 20.00     0.026 C 
HETATM   11  C4  UNL     1     -37.758  14.568  -4.236  1.00 20.00     0.007 C 
ENDBRANCH   9  10
ENDBRANCH   5   9
ENDBRANCH   4   5
ENDBRANCH   3   4
TORSDOF 6
ENDMDL
MODEL 3
REMARK VINA RESULT:      -3.2      3.422      5.434
REMARK  6 active torsions:
REMARK  status: ('A' for Active; 'I' for Inactive)
REMARK    1  A    between atoms: C5_5  and  C8_8 
REMARK    2  A    between atoms: C6_6  and  C9_9 
REMARK    3  A    between atoms: C7_7  and  C10_10 
REMARK    4  A    between atoms: C8_8  and  N11_11 
REMARK    5  A    between atoms: C9_9  and  N11_11 
REMARK    6  A    between atoms: C10_10  and  N11_11 
ROOT
HETATM    1  C1  UNL     1     -31.822  18.486   2.140  1.00 20.00     0.012 C 
HETATM    2  C2  UNL     1     -31.479  18.360   0.996  1.00 20.00    -0.116 C 
HETATM    3  C5  UNL     1     -31.055  18.206  -0.405  1.00 20.00     0.123 C 
ENDROOT
BRANCH   3   4
HETATM    4  C8  UNL     1     -32.130  18.672  -1.381  1.00 20.00     0.284 C 
BRANCH   4   5
HETATM    5  N11 UNL     1     -33.251  17.735  -1.411  1.00 20.00     0.089 N 
BRANCH   5   6
HETATM    6  C9  UNL     1     -33.170  16.878  -2.593  1.00 20.00     0.272 C 
BRANCH   6   7
HETATM    7  C6  UNL     1     -34.300  15.858  -2.650  1.00 20.00     0.026 C 
HETATM    8  C3  UNL     1     -34.121  14.842  -3.769  1.00 20.00     0.007 C 
ENDBRANCH   6   7
ENDBRANCH   5   6
BRANCH   5   9
HETATM    9  C10 UNL     1     -34.522  18.457  -1.389  1.00 20.00     0.272 C 
BRANCH   9  10
HETATM   10  C7  UNL     1     -35.069  18.628   0.023  1.00 20.00     0.026 C 
HETATM   11  C4  UNL     1     -35.367  17.300   0.703  1.00 20.00     0.007 C 
ENDBRANCH   9  10
ENDBRANCH   5   9
ENDBRANCH   4   5
ENDBRANCH   3   4
TORSDOF 6
ENDMDL
MODEL 4
REMARK VINA RESULT:      -3.2      1.149      3.110
REMARK  6 active torsions:
REMARK  status: ('A' for Active; 'I' for Inactive)
REMARK    1  A    between atoms: C5_5  and  C8_8 
REMARK    2  A    between atoms: C6_6  and  C9_9 
REMARK    3  A    between atoms: C7_7  and  C10_10 
REMARK    4  A    between atoms: C8_8  and  N11_11 
REMARK    5  A    between atoms: C9_9  and  N11_11 
REMARK    6  A    between atoms: C10_10  and  N11_11 
ROOT
HETATM    1  C1  UNL     1     -38.872  14.964  -4.175  1.00 20.00     0.012 C 
HETATM    2  C2  UNL     1     -37.805  14.448  -4.365  1.00 20.00    -0.116 C 
HETATM    3  C5  UNL     1     -36.496  13.815  -4.594  1.00 20.00     0.123 C 
ENDROOT
BRANCH   3   4
HETATM    4  C8  UNL     1     -35.741  14.468  -5.747  1.00 20.00     0.284 C 
BRANCH   4   5
HETATM    5  N11 UNL     1     -34.465  15.018  -5.291  1.00 20.00     0.089 N 
BRANCH   5   6
HETATM    6  C9  UNL     1     -34.238  14.683  -3.886  1.00 20.00     0.272 C 
BRANCH   6   7
HETATM    7  C6  UNL     1     -33.941  15.913  -3.037  1.00 20.00     0.026 C 
HETATM    8  C3  UNL     1     -34.967  16.127  -1.933  1.00 20.00     0.007 C 
ENDBRANCH   6   7
ENDBRANCH   5   6
BRANCH   5   9
HETATM    9  C10 UNL     1     -34.437  16.468  -5.482  1.00 20.00     0.272 C 
BRANCH   9  10
HETATM   10  C7  UNL     1     -35.747  17.005  -6.046  1.00 20.00     0.026 C 
HETATM   11  C4  UNL     1     -36.436  17.982  -5.104  1.00 20.00     0.007 C 
ENDBRANCH   9  10
ENDBRANCH   5   9
ENDBRANCH   4   5
ENDBRANCH   3   4
TORSDOF 6
ENDMDL
MODEL 5
REMARK VINA RESULT:      -3.1      0.817      1.221
REMARK  6 active torsions:
REMARK  status: ('A' for Active; 'I' for Inactive)
REMARK    1  A    between atoms: C5_5  and  C8_8 
REMARK    2  A    between atoms: C6_6  and  C9_9 
REMARK    3  A    between atoms: C7_7  and  C10_10 
REMARK    4  A    between atoms: C8_8  and  N11_11 
REMARK    5  A    between atoms: C9_9  and  N11_11 
REMARK    6  A    between atoms: C10_10  and  N11_11 
ROOT
HETATM    1  C1  UNL     1     -35.153  16.634  -1.321  1.00 20.00     0.012 C 
HETATM    2  C2  UNL     1     -34.628  16.057  -2.234  1.00 20.00    -0.116 C 
HETATM    3  C5  UNL     1     -33.983  15.353  -3.353  1.00 20.00     0.123 C 
ENDROOT
BRANCH   3   4
HETATM    4  C8  UNL     1     -34.913  14.328  -3.995  1.00 20.00     0.284 C 
BRANCH   4   5
HETATM    5  N11 UNL     1     -35.840  14.973  -4.923  1.00 20.00     0.089 N 
BRANCH   5   6
HETATM    6  C9  UNL     1     -37.224  14.728  -4.517  1.00 20.00     0.272 C 
BRANCH   6   7
HETATM    7  C6  UNL     1     -37.923  15.996  -4.045  1.00 20.00     0.026 C 
HETATM    8  C3  UNL     1     -37.277  17.262  -4.588  1.00 20.00     0.007 C 
ENDBRANCH   6   7
ENDBRANCH   5   6
BRANCH   5   9
HETATM    9  C10 UNL     1     -35.614  14.493  -6.286  1.00 20.00     0.272 C 
BRANCH   9  10
HETATM   10  C7  UNL     1     -34.426  15.176  -6.953  1.00 20.00     0.026 C 
HETATM   11  C4  UNL     1     -34.490  16.693  -6.858  1.00 20.00     0.007 C 
ENDBRANCH   9  10
ENDBRANCH   5   9
ENDBRANCH   4   5
ENDBRANCH   3   4
TORSDOF 6
ENDMDL
MODEL 6
REMARK VINA RESULT:      -3.1      0.514      3.479
REMARK  6 active torsions:
REMARK  status: ('A' for Active; 'I' for Inactive)
REMARK    1  A    between atoms: C5_5  and  C8_8 
REMARK    2  A    between atoms: C6_6  and  C9_9 
REMARK    3  A    between atoms: C7_7  and  C10_10 
REMARK    4  A    between atoms: C8_8  and  N11_11 
REMARK    5  A    between atoms: C9_9  and  N11_11 
REMARK    6  A    between atoms: C10_10  and  N11_11 
ROOT
HETATM    1  C1  UNL     1     -34.376  18.441  -5.642  1.00 20.00     0.012 C 
HETATM    2  C2  UNL     1     -34.527  17.445  -6.296  1.00 20.00    -0.116 C 
HETATM    3  C5  UNL     1     -34.714  16.227  -7.099  1.00 20.00     0.123 C 
ENDROOT
BRANCH   3   4
HETATM    4  C8  UNL     1     -34.328  14.969  -6.326  1.00 20.00     0.284 C 
BRANCH   4   5
HETATM    5  N11 UNL     1     -35.021  14.914  -5.040  1.00 20.00     0.089 N 
BRANCH   5   6
HETATM    6  C9  UNL     1     -34.087  14.565  -3.971  1.00 20.00     0.272 C 
BRANCH   6   7
HETATM    7  C6  UNL     1     -33.748  15.756  -3.083  1.00 20.00     0.026 C 
HETATM    8  C3  UNL     1     -34.880  16.123  -2.134  1.00 20.00     0.007 C 
ENDBRANCH   6   7
ENDBRANCH   5   6
BRANCH   5   9
HETATM    9  C10 UNL     1     -36.121  13.951  -5.093  1.00 20.00     0.272 C 
BRANCH   9  10
HETATM   10  C7  UNL     1     -37.363  14.447  -4.363  1.00 20.00     0.026 C 
HETATM   11  C4  UNL     1     -37.687  15.902  -4.674  1.00 20.00     0.007 C 
ENDBRANCH   9  10
ENDBRANCH   5   9
ENDBRANCH   4   5
ENDBRANCH   3   4
TORSDOF 6
ENDMDL
MODEL 7
REMARK VINA RESULT:      -3.1      0.358      3.498
REMARK  6 active torsions:
REMARK  status: ('A' for Active; 'I' for Inactive)
REMARK    1  A    between atoms: C5_5  and  C8_8 
REMARK    2  A    between atoms: C6_6  and  C9_9 
REMARK    3  A    between atoms: C7_7  and  C10_10 
REMARK    4  A    between atoms: C8_8  and  N11_11 
REMARK    5  A    between atoms: C9_9  and  N11_11 
REMARK    6  A    between atoms: C10_10  and  N11_11 
ROOT
HETATM    1  C1  UNL     1     -37.772  16.959  -4.564  1.00 20.00     0.012 C 
HETATM    2  C2  UNL     1     -37.470  15.799  -4.489  1.00 20.00    -0.116 C 
HETATM    3  C5  UNL     1     -37.102  14.378  -4.394  1.00 20.00     0.123 C 
ENDROOT
BRANCH   3   4
HETATM    4  C8  UNL     1     -35.977  14.014  -5.358  1.00 20.00     0.284 C 
BRANCH   4   5
HETATM    5  N11 UNL     1     -34.869  14.961  -5.249  1.00 20.00     0.089 N 
BRANCH   5   6
HETATM    6  C9  UNL     1     -34.154  15.062  -6.521  1.00 20.00     0.272 C 
BRANCH   6   7
HETATM    7  C6  UNL     1     -34.522  16.323  -7.294  1.00 20.00     0.026 C 
HETATM    8  C3  UNL     1     -34.524  17.569  -6.421  1.00 20.00     0.007 C 
ENDBRANCH   6   7
ENDBRANCH   5   6
BRANCH   5   9
HETATM    9  C10 UNL     1     -33.955  14.557  -4.180  1.00 20.00     0.272 C 
BRANCH   9  10
HETATM   10  C7  UNL     1     -33.506  15.735  -3.323  1.00 20.00     0.026 C 
HETATM   11  C4  UNL     1     -34.526  16.111  -2.259  1.00 20.00     0.007 C 
ENDBRANCH   9  10
ENDBRANCH   5   9
ENDBRANCH   4   5
ENDBRANCH   3   4
TORSDOF 6
ENDMDL
MODEL 8
REMARK VINA RESULT:      -3.1      1.450      3.626
REMARK  6 active torsions:
REMARK  status: ('A' for Active; 'I' for Inactive)
REMARK    1  A    between atoms: C5_5  and  C8_8 
REMARK    2  A    between atoms: C6_6  and  C9_9 
REMARK    3  A    between atoms: C7_7  and  C10_10 
REMARK    4  A    between atoms: C8_8  and  N11_11 
REMARK    5  A    between atoms: C9_9  and  N11_11 
REMARK    6  A    between atoms: C10_10  and  N11_11 
ROOT
HETATM    1  C1  UNL     1     -37.224  14.380  -4.347  1.00 20.00     0.012 C 
HETATM    2  C2  UNL     1     -36.047  14.180  -4.217  1.00 20.00    -0.116 C 
HETATM    3  C5  UNL     1     -34.605  13.933  -4.056  1.00 20.00     0.123 C 
ENDROOT
BRANCH   3   4
HETATM    4  C8  UNL     1     -33.763  15.064  -4.639  1.00 20.00     0.284 C 
BRANCH   4   5
HETATM    5  N11 UNL     1     -34.126  16.347  -4.041  1.00 20.00     0.089 N 
BRANCH   5   6
HETATM    6  C9  UNL     1     -34.232  17.380  -5.071  1.00 20.00     0.272 C 
BRANCH   6   7
HETATM    7  C6  UNL     1     -35.677  17.666  -5.460  1.00 20.00     0.026 C 
HETATM    8  C3  UNL     1     -36.419  18.481  -4.411  1.00 20.00     0.007 C 
ENDBRANCH   6   7
ENDBRANCH   5   6
BRANCH   5   9
HETATM    9  C10 UNL     1     -33.145  16.734  -3.027  1.00 20.00     0.272 C 
BRANCH   9  10
HETATM   10  C7  UNL     1     -33.801  17.230  -1.744  1.00 20.00     0.026 C 
HETATM   11  C4  UNL     1     -35.141  16.562  -1.472  1.00 20.00     0.007 C 
ENDBRANCH   9  10
ENDBRANCH   5   9
ENDBRANCH   4   5
ENDBRANCH   3   4
TORSDOF 6
ENDMDL
MODEL 9
REMARK VINA RESULT:      -3.1      1.011      2.820
REMARK  6 active torsions:
REMARK  status: ('A' for Active; 'I' for Inactive)
REMARK    1  A    between atoms: C5_5  and  C8_8 
REMARK    2  A    between atoms: C6_6  and  C9_9 
REMARK    3  A    between atoms: C7_7  and  C10_10 
REMARK    4  A    between atoms: C8_8  and  N11_11 
REMARK    5  A    between atoms: C9_9  and  N11_11 
REMARK    6  A    between atoms: C10_10  and  N11_11 
ROOT
HETATM    1  C1  UNL     1     -33.005  16.990  -2.699  1.00 20.00     0.012 C 
HETATM    2  C2  UNL     1     -33.910  16.205  -2.785  1.00 20.00    -0.116 C 
HETATM    3  C5  UNL     1     -35.019  15.243  -2.887  1.00 20.00     0.123 C 
ENDROOT
BRANCH   3   4
HETATM    4  C8  UNL     1     -34.783  14.214  -3.988  1.00 20.00     0.284 C 
BRANCH   4   5
HETATM    5  N11 UNL     1     -35.996  14.007  -4.777  1.00 20.00     0.089 N 
BRANCH   5   6
HETATM    6  C9  UNL     1     -35.798  14.468  -6.151  1.00 20.00     0.272 C 
BRANCH   6   7
HETATM    7  C6  UNL     1     -34.395  15.016  -6.383  1.00 20.00     0.026 C 
HETATM    8  C3  UNL     1     -34.399  16.465  -6.846  1.00 20.00     0.007 C 
ENDBRANCH   6   7
ENDBRANCH   5   6
BRANCH   5   9
HETATM    9  C10 UNL     1     -37.129  14.700  -4.164  1.00 20.00     0.272 C 
BRANCH   9  10
HETATM   10  C7  UNL     1     -37.766  15.717  -5.105  1.00 20.00     0.026 C 
HETATM   11  C4  UNL     1     -38.091  17.034  -4.415  1.00 20.00     0.007 C 
ENDBRANCH   9  10
ENDBRANCH   5   9
ENDBRANCH   4   5
ENDBRANCH   3   4
TORSDOF 6
ENDMDL
