MODEL 1
REMARK VINA RESULT:      -5.2      0.000      0.000
REMARK  3 active torsions:
REMARK  status: ('A' for Active; 'I' for Inactive)
REMARK    1  A    between atoms: C1_1  and  C3_3 
REMARK       I    between atoms: C1_1  and  N9_9 
REMARK    2  A    between atoms: C7_7  and  C8_8 
REMARK    3  A    between atoms: C8_8  and  N9_9 
ROOT
HETATM    1  C1  UNL     1     -33.218   5.422   2.660  1.00 20.00     0.222 C 
HETATM    2  N9  UNL     1     -34.046   5.875   3.670  1.00 20.00    -0.361 N 
HETATM    3  O10 UNL     1     -33.128   4.269   2.254  1.00 20.00    -0.273 OA
HETATM    4  H25 UNL     1     -34.021   6.861   3.909  1.00 20.00     0.162 HD
ENDROOT
BRANCH   1   5
HETATM    5  C3  UNL     1     -32.390   6.469   2.051  1.00 20.00     0.082 A 
HETATM    6  C2  UNL     1     -32.013   7.678   2.866  1.00 20.00     0.019 A 
HETATM    7  C4  UNL     1     -33.014   7.818   1.749  1.00 20.00    -0.005 A 
HETATM    8  C5  UNL     1     -32.652   8.547   0.502  1.00 20.00     0.011 C 
ENDBRANCH   1   5
BRANCH   2   9
HETATM    9  C8  UNL     1     -34.945   5.011   4.402  1.00 20.00     0.122 C 
BRANCH   9  10
HETATM   10  C7  UNL     1     -34.868   5.236   5.907  1.00 20.00     0.015 C 
HETATM   11  C6  UNL     1     -34.181   6.545   6.273  1.00 20.00     0.006 C 
ENDBRANCH   9  10
ENDBRANCH   2   9
TORSDOF 3
ENDMDL
MODEL 2
REMARK VINA RESULT:      -4.6      1.069      4.469
REMARK  3 active torsions:
REMARK  status: ('A' for Active; 'I' for Inactive)
REMARK    1  A    between atoms: C1_1  and  C3_3 
REMARK       I    between atoms: C1_1  and  N9_9 
REMARK    2  A    between atoms: C7_7  and  C8_8 
REMARK    3  A    between atoms: C8_8  and  N9_9 
ROOT
HETATM    1  C1  UNL     1     -33.230   5.673   2.755  1.00 20.00     0.222 C 
HETATM    2  N9  UNL     1     -32.704   6.949   2.679  1.00 20.00    -0.361 N 
HETATM    3  O10 UNL     1     -33.336   4.873   1.832  1.00 20.00    -0.273 OA
HETATM    4  H25 UNL     1     -32.675   7.510   3.524  1.00 20.00     0.162 HD
ENDROOT
BRANCH   1   5
HETATM    5  C3  UNL     1     -33.690   5.295   4.096  1.00 20.00     0.082 A 
HETATM    6  C2  UNL     1     -35.153   5.028   4.326  1.00 20.00     0.019 A 
HETATM    7  C4  UNL     1     -34.528   6.277   4.890  1.00 20.00    -0.005 A 
HETATM    8  C5  UNL     1     -34.325   6.417   6.359  1.00 20.00     0.011 C 
ENDBRANCH   1   5
BRANCH   2   9
HETATM    9  C8  UNL     1     -32.192   7.521   1.454  1.00 20.00     0.122 C 
BRANCH   9  10
HETATM   10  C7  UNL     1     -32.938   8.787   1.049  1.00 20.00     0.015 C 
HETATM   11  C6  UNL     1     -33.384   8.767  -0.407  1.00 20.00     0.006 C 
ENDBRANCH   9  10
ENDBRANCH   2   9
TORSDOF 3
ENDMDL
MODEL 3
REMARK VINA RESULT:      -4.5     14.984     16.399
REMARK  3 active torsions:
REMARK  status: ('A' for Active; 'I' for Inactive)
REMARK    1  A    between atoms: C1_1  and  C3_3 
REMARK       I    between atoms: C1_1  and  N9_9 
REMARK    2  A    between atoms: C7_7  and  C8_8 
REMARK    3  A    between atoms: C8_8  and  N9_9 
ROOT
HETATM    1  C1  UNL     1     -24.072  18.685   9.067  1.00 20.00     0.222 C 
HETATM    2  N9  UNL     1     -25.263  18.667   8.366  1.00 20.00    -0.361 N 
HETATM    3  O10 UNL     1     -23.001  19.133   8.672  1.00 20.00    -0.273 OA
HETATM    4  H25 UNL     1     -26.080  18.264   8.813  1.00 20.00     0.162 HD
ENDROOT
BRANCH   1   5
HETATM    5  C3  UNL     1     -24.159  18.098  10.409  1.00 20.00     0.082 A 
HETATM    6  C2  UNL     1     -22.894  17.702  11.124  1.00 20.00     0.019 A 
HETATM    7  C4  UNL     1     -23.814  16.633  10.594  1.00 20.00    -0.005 A 
HETATM    8  C5  UNL     1     -24.607  15.792  11.534  1.00 20.00     0.011 C 
ENDBRANCH   1   5
BRANCH   2   9
HETATM    9  C8  UNL     1     -25.400  19.196   7.027  1.00 20.00     0.122 C 
BRANCH   9  10
HETATM   10  C7  UNL     1     -26.561  18.563   6.270  1.00 20.00     0.015 C 
HETATM   11  C6  UNL     1     -26.456  18.756   4.763  1.00 20.00     0.006 C 
ENDBRANCH   9  10
ENDBRANCH   2   9
TORSDOF 3
ENDMDL
MODEL 4
REMARK VINA RESULT:      -4.5      1.582      2.045
REMARK  3 active torsions:
REMARK  status: ('A' for Active; 'I' for Inactive)
REMARK    1  A    between atoms: C1_1  and  C3_3 
REMARK       I    between atoms: C1_1  and  N9_9 
REMARK    2  A    between atoms: C7_7  and  C8_8 
REMARK    3  A    between atoms: C8_8  and  N9_9 
ROOT
HETATM    1  C1  UNL     1     -32.556   7.299   3.196  1.00 20.00     0.222 C 
HETATM    2  N9  UNL     1     -33.688   6.918   3.890  1.00 20.00    -0.361 N 
HETATM    3  O10 UNL     1     -31.467   7.587   3.680  1.00 20.00    -0.273 OA
HETATM    4  H25 UNL     1     -34.530   6.706   3.364  1.00 20.00     0.162 HD
ENDROOT
BRANCH   1   5
HETATM    5  C3  UNL     1     -32.735   7.346   1.740  1.00 20.00     0.082 A 
HETATM    6  C2  UNL     1     -31.577   7.754   0.868  1.00 20.00     0.019 A 
HETATM    7  C4  UNL     1     -32.743   8.692   1.043  1.00 20.00    -0.005 A 
HETATM    8  C5  UNL     1     -33.680   8.943  -0.088  1.00 20.00     0.011 C 
ENDBRANCH   1   5
BRANCH   2   9
HETATM    9  C8  UNL     1     -33.732   6.805   5.331  1.00 20.00     0.122 C 
BRANCH   9  10
HETATM   10  C7  UNL     1     -34.613   5.653   5.797  1.00 20.00     0.015 C 
HETATM   11  C6  UNL     1     -35.044   4.742   4.655  1.00 20.00     0.006 C 
ENDBRANCH   9  10
ENDBRANCH   2   9
TORSDOF 3
ENDMDL
MODEL 5
REMARK VINA RESULT:      -4.2      9.713     10.469
REMARK  3 active torsions:
REMARK  status: ('A' for Active; 'I' for Inactive)
REMARK    1  A    between atoms: C1_1  and  C3_3 
REMARK       I    between atoms: C1_1  and  N9_9 
REMARK    2  A    between atoms: C7_7  and  C8_8 
REMARK    3  A    between atoms: C8_8  and  N9_9 
ROOT
HETATM    1  C1  UNL     1     -42.423   6.300  -1.407  1.00 20.00     0.222 C 
HETATM    2  N9  UNL     1     -42.092   4.960  -1.358  1.00 20.00    -0.361 N 
HETATM    3  O10 UNL     1     -43.417   6.786  -1.935  1.00 20.00    -0.273 OA
HETATM    4  H25 UNL     1     -41.234   4.691  -0.887  1.00 20.00     0.162 HD
ENDROOT
BRANCH   1   5
HETATM    5  C3  UNL     1     -41.453   7.180  -0.745  1.00 20.00     0.082 A 
HETATM    6  C2  UNL     1     -41.170   6.993   0.722  1.00 20.00     0.019 A 
HETATM    7  C4  UNL     1     -41.951   8.197   0.263  1.00 20.00    -0.005 A 
HETATM    8  C5  UNL     1     -41.341   9.554   0.320  1.00 20.00     0.011 C 
ENDBRANCH   1   5
BRANCH   2   9
HETATM    9  C8  UNL     1     -42.909   3.922  -1.947  1.00 20.00     0.122 C 
BRANCH   9  10
HETATM   10  C7  UNL     1     -42.161   3.128  -3.011  1.00 20.00     0.015 C 
HETATM   11  C6  UNL     1     -42.928   1.897  -3.474  1.00 20.00     0.006 C 
ENDBRANCH   9  10
ENDBRANCH   2   9
TORSDOF 3
ENDMDL
MODEL 6
REMARK VINA RESULT:      -4.2      1.785      4.782
REMARK  3 active torsions:
REMARK  status: ('A' for Active; 'I' for Inactive)
REMARK    1  A    between atoms: C1_1  and  C3_3 
REMARK       I    between atoms: C1_1  and  N9_9 
REMARK    2  A    between atoms: C7_7  and  C8_8 
REMARK    3  A    between atoms: C8_8  and  N9_9 
ROOT
HETATM    1  C1  UNL     1     -32.590   6.908   3.313  1.00 20.00     0.222 C 
HETATM    2  N9  UNL     1     -32.717   6.969   1.938  1.00 20.00    -0.361 N 
HETATM    3  O10 UNL     1     -31.917   7.654   4.016  1.00 20.00    -0.273 OA
HETATM    4  H25 UNL     1     -33.310   6.286   1.477  1.00 20.00     0.162 HD
ENDROOT
BRANCH   1   5
HETATM    5  C3  UNL     1     -33.360   5.826   3.936  1.00 20.00     0.082 A 
HETATM    6  C2  UNL     1     -34.786   5.595   3.511  1.00 20.00     0.019 A 
HETATM    7  C4  UNL     1     -34.502   6.179   4.870  1.00 20.00    -0.005 A 
HETATM    8  C5  UNL     1     -34.740   5.371   6.099  1.00 20.00     0.011 C 
ENDBRANCH   1   5
BRANCH   2   9
HETATM    9  C8  UNL     1     -32.045   7.959   1.125  1.00 20.00     0.122 C 
BRANCH   9  10
HETATM   10  C7  UNL     1     -32.940   9.149   0.803  1.00 20.00     0.015 C 
HETATM   11  C6  UNL     1     -33.626   9.020  -0.551  1.00 20.00     0.006 C 
ENDBRANCH   9  10
ENDBRANCH   2   9
TORSDOF 3
ENDMDL
MODEL 7
REMARK VINA RESULT:      -4.2     14.954     15.958
REMARK  3 active torsions:
REMARK  status: ('A' for Active; 'I' for Inactive)
REMARK    1  A    between atoms: C1_1  and  C3_3 
REMARK       I    between atoms: C1_1  and  N9_9 
REMARK    2  A    between atoms: C7_7  and  C8_8 
REMARK    3  A    between atoms: C8_8  and  N9_9 
ROOT
HETATM    1  C1  UNL     1     -24.470  18.490   8.031  1.00 20.00     0.222 C 
HETATM    2  N9  UNL     1     -25.025  18.184   9.260  1.00 20.00    -0.361 N 
HETATM    3  O10 UNL     1     -23.351  18.177   7.639  1.00 20.00    -0.273 OA
HETATM    4  H25 UNL     1     -25.967  18.506   9.458  1.00 20.00     0.162 HD
ENDROOT
BRANCH   1   5
HETATM    5  C3  UNL     1     -25.354  19.263   7.152  1.00 20.00     0.082 A 
HETATM    6  C2  UNL     1     -26.837  19.263   7.412  1.00 20.00     0.019 A 
HETATM    7  C4  UNL     1     -26.292  18.524   6.218  1.00 20.00    -0.005 A 
HETATM    8  C5  UNL     1     -26.536  19.039   4.841  1.00 20.00     0.011 C 
ENDBRANCH   1   5
BRANCH   2   9
HETATM    9  C8  UNL     1     -24.327  17.429  10.276  1.00 20.00     0.122 C 
BRANCH   9  10
HETATM   10  C7  UNL     1     -23.166  18.207  10.883  1.00 20.00     0.015 C 
HETATM   11  C6  UNL     1     -22.687  17.616  12.202  1.00 20.00     0.006 C 
ENDBRANCH   9  10
ENDBRANCH   2   9
TORSDOF 3
ENDMDL
MODEL 8
REMARK VINA RESULT:      -4.1     11.790     12.807
REMARK  3 active torsions:
REMARK  status: ('A' for Active; 'I' for Inactive)
REMARK    1  A    between atoms: C1_1  and  C3_3 
REMARK       I    between atoms: C1_1  and  N9_9 
REMARK    2  A    between atoms: C7_7  and  C8_8 
REMARK    3  A    between atoms: C8_8  and  N9_9 
ROOT
HETATM    1  C1  UNL     1     -31.788  18.470  -0.439  1.00 20.00     0.222 C 
HETATM    2  N9  UNL     1     -32.902  18.140  -1.186  1.00 20.00    -0.361 N 
HETATM    3  O10 UNL     1     -30.619  18.396  -0.802  1.00 20.00    -0.273 OA
HETATM    4  H25 UNL     1     -33.818  18.249  -0.762  1.00 20.00     0.162 HD
ENDROOT
BRANCH   1   5
HETATM    5  C3  UNL     1     -32.095  18.950   0.913  1.00 20.00     0.082 A 
HETATM    6  C2  UNL     1     -30.967  19.235   1.869  1.00 20.00     0.019 A 
HETATM    7  C4  UNL     1     -31.846  18.033   2.094  1.00 20.00    -0.005 A 
HETATM    8  C5  UNL     1     -32.804  18.006   3.235  1.00 20.00     0.011 C 
ENDBRANCH   1   5
BRANCH   2   9
HETATM    9  C8  UNL     1     -32.827  17.647  -2.543  1.00 20.00     0.122 C 
BRANCH   9  10
HETATM   10  C7  UNL     1     -33.500  16.290  -2.706  1.00 20.00     0.015 C 
HETATM   11  C6  UNL     1     -34.824  16.196  -1.961  1.00 20.00     0.006 C 
ENDBRANCH   9  10
ENDBRANCH   2   9
TORSDOF 3
ENDMDL
MODEL 9
REMARK VINA RESULT:      -4.1     11.262     12.450
REMARK  3 active torsions:
REMARK  status: ('A' for Active; 'I' for Inactive)
REMARK    1  A    between atoms: C1_1  and  C3_3 
REMARK       I    between atoms: C1_1  and  N9_9 
REMARK    2  A    between atoms: C7_7  and  C8_8 
REMARK    3  A    between atoms: C8_8  and  N9_9 
ROOT
HETATM    1  C1  UNL     1     -37.243  14.747  -4.150  1.00 20.00     0.222 C 
HETATM    2  N9  UNL     1     -38.168  15.703  -3.776  1.00 20.00    -0.361 N 
HETATM    3  O10 UNL     1     -37.482  13.585  -4.460  1.00 20.00    -0.273 OA
HETATM    4  H25 UNL     1     -37.834  16.633  -3.543  1.00 20.00     0.162 HD
ENDROOT
BRANCH   1   5
HETATM    5  C3  UNL     1     -35.857  15.227  -4.160  1.00 20.00     0.082 A 
HETATM    6  C2  UNL     1     -34.734  14.243  -3.963  1.00 20.00     0.019 A 
HETATM    7  C4  UNL     1     -35.067  15.220  -2.866  1.00 20.00    -0.005 A 
HETATM    8  C5  UNL     1     -34.137  16.341  -2.552  1.00 20.00     0.011 C 
ENDBRANCH   1   5
BRANCH   2   9
HETATM    9  C8  UNL     1     -39.588  15.443  -3.701  1.00 20.00     0.122 C 
BRANCH   9  10
HETATM   10  C7  UNL     1     -40.284  15.625  -5.044  1.00 20.00     0.015 C 
HETATM   11  C6  UNL     1     -41.384  14.599  -5.281  1.00 20.00     0.006 C 
ENDBRANCH   9  10
ENDBRANCH   2   9
TORSDOF 3
ENDMDL
