MODEL 1
REMARK VINA RESULT:      -3.7      0.000      0.000
REMARK  3 active torsions:
REMARK  status: ('A' for Active; 'I' for Inactive)
REMARK    1  A    between atoms: C2_2  and  C5_5 
REMARK    2  A    between atoms: C5_5  and  N7_7 
REMARK    3  A    between atoms: C6_6  and  N7_7 
ROOT
HETATM    1  C1  UNL     1     -23.309  17.905  12.331  1.00 20.00     0.052 A 
HETATM    2  C2  UNL     1     -23.666  18.129  10.886  1.00 20.00     0.055 A 
HETATM    3  C3  UNL     1     -24.580  17.312  11.771  1.00 20.00     0.119 A 
HETATM    4 CL8  UNL     1     -24.668  15.565  11.595  1.00 20.00    -0.101 Cl
HETATM    5 CL9  UNL     1     -26.109  18.040  12.261  1.00 20.00    -0.101 Cl
ENDROOT
BRANCH   2   6
HETATM    6  C5  UNL     1     -22.829  17.522   9.811  1.00 20.00     0.277 C 
BRANCH   6   7
HETATM    7  N7  UNL     1     -22.957  18.254   8.581  1.00 20.00     0.083 N 
HETATM    8  H20 UNL     1     -22.075  18.729   8.357  1.00 20.00     0.315 HD
BRANCH   7   9
HETATM    9  C6  UNL     1     -24.014  19.263   8.660  1.00 20.00     0.265 C 
HETATM   10  C4  UNL     1     -24.978  19.121   7.531  1.00 20.00     0.037 C 
ENDBRANCH   7   9
ENDBRANCH   6   7
ENDBRANCH   2   6
TORSDOF 3
ENDMDL
MODEL 2
REMARK VINA RESULT:      -3.6     16.076     16.747
REMARK  3 active torsions:
REMARK  status: ('A' for Active; 'I' for Inactive)
REMARK    1  A    between atoms: C2_2  and  C5_5 
REMARK    2  A    between atoms: C5_5  and  N7_7 
REMARK    3  A    between atoms: C6_6  and  N7_7 
ROOT
HETATM    1  C1  UNL     1     -35.384   5.785   3.835  1.00 20.00     0.052 A 
HETATM    2  C2  UNL     1     -34.152   4.927   3.743  1.00 20.00     0.055 A 
HETATM    3  C3  UNL     1     -34.436   5.707   5.007  1.00 20.00     0.119 A 
HETATM    4 CL8  UNL     1     -33.495   7.137   5.405  1.00 20.00    -0.101 Cl
HETATM    5 CL9  UNL     1     -34.959   4.800   6.426  1.00 20.00    -0.101 Cl
ENDROOT
BRANCH   2   6
HETATM    6  C5  UNL     1     -33.060   5.293   2.796  1.00 20.00     0.277 C 
BRANCH   6   7
HETATM    7  N7  UNL     1     -33.451   6.390   1.954  1.00 20.00     0.083 N 
HETATM    8  H20 UNL     1     -33.577   6.068   0.987  1.00 20.00     0.315 HD
BRANCH   7   9
HETATM    9  C6  UNL     1     -32.449   7.456   1.955  1.00 20.00     0.265 C 
HETATM   10  C4  UNL     1     -32.731   8.460   0.889  1.00 20.00     0.037 C 
ENDBRANCH   7   9
ENDBRANCH   6   7
ENDBRANCH   2   6
TORSDOF 3
ENDMDL
MODEL 3
REMARK VINA RESULT:      -3.5     16.645     18.058
REMARK  3 active torsions:
REMARK  status: ('A' for Active; 'I' for Inactive)
REMARK    1  A    between atoms: C2_2  and  C5_5 
REMARK    2  A    between atoms: C5_5  and  N7_7 
REMARK    3  A    between atoms: C6_6  and  N7_7 
ROOT
HETATM    1  C1  UNL     1     -34.176  16.260  -2.300  1.00 20.00     0.052 A 
HETATM    2  C2  UNL     1     -33.337  15.773  -3.449  1.00 20.00     0.055 A 
HETATM    3  C3  UNL     1     -33.797  17.212  -3.409  1.00 20.00     0.119 A 
HETATM    4 CL8  UNL     1     -35.067  17.776  -4.485  1.00 20.00    -0.101 Cl
HETATM    5 CL9  UNL     1     -32.589  18.446  -3.052  1.00 20.00    -0.101 Cl
ENDROOT
BRANCH   2   6
HETATM    6  C5  UNL     1     -33.894  14.773  -4.406  1.00 20.00     0.277 C 
BRANCH   6   7
HETATM    7  N7  UNL     1     -33.154  14.768  -5.638  1.00 20.00     0.083 N 
HETATM    8  H20 UNL     1     -32.386  15.448  -5.594  1.00 20.00     0.315 HD
BRANCH   7   9
HETATM    9  C6  UNL     1     -34.003  15.109  -6.780  1.00 20.00     0.265 C 
HETATM   10  C4  UNL     1     -35.423  14.730  -6.526  1.00 20.00     0.037 C 
ENDBRANCH   7   9
ENDBRANCH   6   7
ENDBRANCH   2   6
TORSDOF 3
ENDMDL
MODEL 4
REMARK VINA RESULT:      -3.4     16.498     17.957
REMARK  3 active torsions:
REMARK  status: ('A' for Active; 'I' for Inactive)
REMARK    1  A    between atoms: C2_2  and  C5_5 
REMARK    2  A    between atoms: C5_5  and  N7_7 
REMARK    3  A    between atoms: C6_6  and  N7_7 
ROOT
HETATM    1  C1  UNL     1     -32.980  15.563  -3.594  1.00 20.00     0.052 A 
HETATM    2  C2  UNL     1     -33.718  16.729  -4.193  1.00 20.00     0.055 A 
HETATM    3  C3  UNL     1     -33.680  16.549  -2.692  1.00 20.00     0.119 A 
HETATM    4 CL8  UNL     1     -35.107  16.004  -1.821  1.00 20.00    -0.101 Cl
HETATM    5 CL9  UNL     1     -32.680  17.663  -1.761  1.00 20.00    -0.101 Cl
ENDROOT
BRANCH   2   6
HETATM    6  C5  UNL     1     -34.947  16.494  -5.004  1.00 20.00     0.277 C 
BRANCH   6   7
HETATM    7  N7  UNL     1     -34.820  15.307  -5.804  1.00 20.00     0.083 N 
HETATM    8  H20 UNL     1     -34.631  15.557  -6.782  1.00 20.00     0.315 HD
BRANCH   7   9
HETATM    9  C6  UNL     1     -36.038  14.496  -5.765  1.00 20.00     0.265 C 
HETATM   10  C4  UNL     1     -36.110  13.695  -4.510  1.00 20.00     0.037 C 
ENDBRANCH   7   9
ENDBRANCH   6   7
ENDBRANCH   2   6
TORSDOF 3
ENDMDL
MODEL 5
REMARK VINA RESULT:      -3.4     16.182     17.024
REMARK  3 active torsions:
REMARK  status: ('A' for Active; 'I' for Inactive)
REMARK    1  A    between atoms: C2_2  and  C5_5 
REMARK    2  A    between atoms: C5_5  and  N7_7 
REMARK    3  A    between atoms: C6_6  and  N7_7 
ROOT
HETATM    1  C1  UNL     1     -32.716   5.253   2.544  1.00 20.00     0.052 A 
HETATM    2  C2  UNL     1     -34.006   6.025   2.602  1.00 20.00     0.055 A 
HETATM    3  C3  UNL     1     -32.688   6.762   2.535  1.00 20.00     0.119 A 
HETATM    4 CL8  UNL     1     -32.051   7.585   3.952  1.00 20.00    -0.101 Cl
HETATM    5 CL9  UNL     1     -32.277   7.566   1.021  1.00 20.00    -0.101 Cl
ENDROOT
BRANCH   2   6
HETATM    6  C5  UNL     1     -34.845   5.980   3.835  1.00 20.00     0.277 C 
BRANCH   6   7
HETATM    7  N7  UNL     1     -34.696   4.723   4.516  1.00 20.00     0.083 N 
HETATM    8  H20 UNL     1     -35.497   4.114   4.316  1.00 20.00     0.315 HD
BRANCH   7   9
HETATM    9  C6  UNL     1     -34.606   4.902   5.966  1.00 20.00     0.265 C 
HETATM   10  C4  UNL     1     -34.322   6.324   6.315  1.00 20.00     0.037 C 
ENDBRANCH   7   9
ENDBRANCH   6   7
ENDBRANCH   2   6
TORSDOF 3
ENDMDL
MODEL 6
REMARK VINA RESULT:      -3.4     24.396     25.381
REMARK  3 active torsions:
REMARK  status: ('A' for Active; 'I' for Inactive)
REMARK    1  A    between atoms: C2_2  and  C5_5 
REMARK    2  A    between atoms: C5_5  and  N7_7 
REMARK    3  A    between atoms: C6_6  and  N7_7 
ROOT
HETATM    1  C1  UNL     1     -41.031   5.437  -0.780  1.00 20.00     0.052 A 
HETATM    2  C2  UNL     1     -42.379   5.499  -1.446  1.00 20.00     0.055 A 
HETATM    3  C3  UNL     1     -41.965   6.584  -0.478  1.00 20.00     0.119 A 
HETATM    4 CL8  UNL     1     -42.676   6.669   1.128  1.00 20.00    -0.101 Cl
HETATM    5 CL9  UNL     1     -41.564   8.166  -1.146  1.00 20.00    -0.101 Cl
ENDROOT
BRANCH   2   6
HETATM    6  C5  UNL     1     -43.417   4.478  -1.119  1.00 20.00     0.277 C 
BRANCH   6   7
HETATM    7  N7  UNL     1     -43.138   3.229  -1.772  1.00 20.00     0.083 N 
HETATM    8  H20 UNL     1     -42.254   2.837  -1.426  1.00 20.00     0.315 HD
BRANCH   7   9
HETATM    9  C6  UNL     1     -43.031   3.390  -3.223  1.00 20.00     0.265 C 
HETATM   10  C4  UNL     1     -41.928   2.554  -3.776  1.00 20.00     0.037 C 
ENDBRANCH   7   9
ENDBRANCH   6   7
ENDBRANCH   2   6
TORSDOF 3
ENDMDL
MODEL 7
REMARK VINA RESULT:      -3.4     17.499     18.633
REMARK  3 active torsions:
REMARK  status: ('A' for Active; 'I' for Inactive)
REMARK    1  A    between atoms: C2_2  and  C5_5 
REMARK    2  A    between atoms: C5_5  and  N7_7 
REMARK    3  A    between atoms: C6_6  and  N7_7 
ROOT
HETATM    1  C1  UNL     1     -34.471  15.789  -2.507  1.00 20.00     0.052 A 
HETATM    2  C2  UNL     1     -34.036  15.821  -3.947  1.00 20.00     0.055 A 
HETATM    3  C3  UNL     1     -35.505  15.911  -3.600  1.00 20.00     0.119 A 
HETATM    4 CL8  UNL     1     -36.576  14.545  -3.881  1.00 20.00    -0.101 Cl
HETATM    5 CL9  UNL     1     -36.299  17.471  -3.807  1.00 20.00    -0.101 Cl
ENDROOT
BRANCH   2   6
HETATM    6  C5  UNL     1     -33.426  14.609  -4.566  1.00 20.00     0.277 C 
BRANCH   6   7
HETATM    7  N7  UNL     1     -33.059  14.856  -5.934  1.00 20.00     0.083 N 
HETATM    8  H20 UNL     1     -32.503  15.716  -6.003  1.00 20.00     0.315 HD
BRANCH   7   9
HETATM    9  C6  UNL     1     -34.236  15.001  -6.791  1.00 20.00     0.265 C 
HETATM   10  C4  UNL     1     -34.020  16.050  -7.828  1.00 20.00     0.037 C 
ENDBRANCH   7   9
ENDBRANCH   6   7
ENDBRANCH   2   6
TORSDOF 3
ENDMDL
MODEL 8
REMARK VINA RESULT:      -3.4     16.695     18.030
REMARK  3 active torsions:
REMARK  status: ('A' for Active; 'I' for Inactive)
REMARK    1  A    between atoms: C2_2  and  C5_5 
REMARK    2  A    between atoms: C5_5  and  N7_7 
REMARK    3  A    between atoms: C6_6  and  N7_7 
ROOT
HETATM    1  C1  UNL     1     -34.333  16.100  -2.312  1.00 20.00     0.052 A 
HETATM    2  C2  UNL     1     -33.472  15.655  -3.462  1.00 20.00     0.055 A 
HETATM    3  C3  UNL     1     -33.876  17.107  -3.339  1.00 20.00     0.119 A 
HETATM    4 CL8  UNL     1     -35.083  17.794  -4.417  1.00 20.00    -0.101 Cl
HETATM    5 CL9  UNL     1     -32.634  18.263  -2.859  1.00 20.00    -0.101 Cl
ENDROOT
BRANCH   2   6
HETATM    6  C5  UNL     1     -34.033  14.747  -4.503  1.00 20.00     0.277 C 
BRANCH   6   7
HETATM    7  N7  UNL     1     -34.925  13.782  -3.921  1.00 20.00     0.083 N 
HETATM    8  H20 UNL     1     -34.475  12.860  -3.883  1.00 20.00     0.315 HD
BRANCH   7   9
HETATM    9  C6  UNL     1     -36.163  13.657  -4.692  1.00 20.00     0.265 C 
HETATM   10  C4  UNL     1     -37.182  14.645  -4.237  1.00 20.00     0.037 C 
ENDBRANCH   7   9
ENDBRANCH   6   7
ENDBRANCH   2   6
TORSDOF 3
ENDMDL
MODEL 9
REMARK VINA RESULT:      -3.3     17.045     18.703
REMARK  3 active torsions:
REMARK  status: ('A' for Active; 'I' for Inactive)
REMARK    1  A    between atoms: C2_2  and  C5_5 
REMARK    2  A    between atoms: C5_5  and  N7_7 
REMARK    3  A    between atoms: C6_6  and  N7_7 
ROOT
HETATM    1  C1  UNL     1     -35.999  13.573  -4.499  1.00 20.00     0.052 A 
HETATM    2  C2  UNL     1     -35.074  14.730  -4.234  1.00 20.00     0.055 A 
HETATM    3  C3  UNL     1     -36.114  14.831  -5.327  1.00 20.00     0.119 A 
HETATM    4 CL8  UNL     1     -35.643  14.752  -7.019  1.00 20.00    -0.101 Cl
HETATM    5 CL9  UNL     1     -37.503  15.877  -5.039  1.00 20.00    -0.101 Cl
ENDROOT
BRANCH   2   6
HETATM    6  C5  UNL     1     -33.616  14.596  -4.516  1.00 20.00     0.277 C 
BRANCH   6   7
HETATM    7  N7  UNL     1     -32.862  15.621  -3.847  1.00 20.00     0.083 N 
HETATM    8  H20 UNL     1     -31.996  15.230  -3.460  1.00 20.00     0.315 HD
BRANCH   7   9
HETATM    9  C6  UNL     1     -33.624  16.223  -2.752  1.00 20.00     0.265 C 
HETATM   10  C4  UNL     1     -32.915  17.409  -2.193  1.00 20.00     0.037 C 
ENDBRANCH   7   9
ENDBRANCH   6   7
ENDBRANCH   2   6
TORSDOF 3
ENDMDL
