MODEL 1
REMARK VINA RESULT:      -4.3      0.000      0.000
REMARK  3 active torsions:
REMARK  status: ('A' for Active; 'I' for Inactive)
REMARK    1  A    between atoms: C1_1  and  C7_7 
REMARK       I    between atoms: C1_1  and  N9_9 
REMARK    2  A    between atoms: C4_4  and  C8_8 
REMARK    3  A    between atoms: C8_8  and  N9_9 
ROOT
HETATM    1  C1  UNL     1     -33.598   6.081   3.654  1.00 20.00     0.219 C 
HETATM    2  C6  UNL     1     -31.817   7.802   4.028  1.00 20.00     0.152 C 
HETATM    3  N9  UNL     1     -32.651   6.983   3.156  1.00 20.00    -0.356 N 
HETATM    4  O10 UNL     1     -33.922   5.044   3.069  1.00 20.00    -0.273 OA
ENDROOT
BRANCH   3   5
HETATM    5  C8  UNL     1     -32.429   7.173   1.724  1.00 20.00     0.130 C 
BRANCH   5   6
HETATM    6  C4  UNL     1     -33.320   8.236   1.178  1.00 20.00     0.004 A 
HETATM    7  C2  UNL     1     -32.741   9.539   0.701  1.00 20.00     0.007 A 
HETATM    8  C3  UNL     1     -33.300   8.558  -0.292  1.00 20.00     0.007 A 
ENDBRANCH   5   6
ENDBRANCH   3   5
BRANCH   1   9
HETATM    9  C7  UNL     1     -34.233   6.443   4.989  1.00 20.00     0.098 C 
HETATM   10  C5  UNL     1     -34.781   5.233   5.726  1.00 20.00     0.014 C 
ENDBRANCH   1   9
TORSDOF 3
ENDMDL
MODEL 2
REMARK VINA RESULT:      -4.1      9.244      9.822
REMARK  3 active torsions:
REMARK  status: ('A' for Active; 'I' for Inactive)
REMARK    1  A    between atoms: C1_1  and  C7_7 
REMARK       I    between atoms: C1_1  and  N9_9 
REMARK    2  A    between atoms: C4_4  and  C8_8 
REMARK    3  A    between atoms: C8_8  and  N9_9 
ROOT
HETATM    1  C1  UNL     1     -41.839   5.191  -0.944  1.00 20.00     0.219 C 
HETATM    2  C6  UNL     1     -43.084   5.573   1.195  1.00 20.00     0.152 C 
HETATM    3  N9  UNL     1     -42.015   5.890   0.256  1.00 20.00    -0.356 N 
HETATM    4  O10 UNL     1     -40.740   5.031  -1.482  1.00 20.00    -0.273 OA
ENDROOT
BRANCH   3   5
HETATM    5  C8  UNL     1     -41.141   6.990   0.656  1.00 20.00     0.130 C 
BRANCH   5   6
HETATM    6  C4  UNL     1     -41.331   8.177  -0.225  1.00 20.00     0.004 A 
HETATM    7  C2  UNL     1     -42.630   8.934  -0.208  1.00 20.00     0.007 A 
HETATM    8  C3  UNL     1     -41.389   9.558   0.367  1.00 20.00     0.007 A 
ENDBRANCH   5   6
ENDBRANCH   3   5
BRANCH   1   9
HETATM    9  C7  UNL     1     -43.099   4.620  -1.579  1.00 20.00     0.098 C 
HETATM   10  C5  UNL     1     -42.802   3.524  -2.589  1.00 20.00     0.014 C 
ENDBRANCH   1   9
TORSDOF 3
ENDMDL
MODEL 3
REMARK VINA RESULT:      -3.9     15.620     16.049
REMARK  3 active torsions:
REMARK  status: ('A' for Active; 'I' for Inactive)
REMARK    1  A    between atoms: C1_1  and  C7_7 
REMARK       I    between atoms: C1_1  and  N9_9 
REMARK    2  A    between atoms: C4_4  and  C8_8 
REMARK    3  A    between atoms: C8_8  and  N9_9 
ROOT
HETATM    1  C1  UNL     1     -25.382  18.197  11.238  1.00 20.00     0.219 C 
HETATM    2  C6  UNL     1     -24.574  15.876  11.721  1.00 20.00     0.152 C 
HETATM    3  N9  UNL     1     -24.363  17.238  11.246  1.00 20.00    -0.356 N 
HETATM    4  O10 UNL     1     -25.443  19.117  10.418  1.00 20.00    -0.273 OA
ENDROOT
BRANCH   3   5
HETATM    5  C8  UNL     1     -23.009  17.531  10.781  1.00 20.00     0.130 C 
BRANCH   5   6
HETATM    6  C4  UNL     1     -22.773  16.967   9.421  1.00 20.00     0.004 A 
HETATM    7  C2  UNL     1     -22.816  17.861   8.213  1.00 20.00     0.007 A 
HETATM    8  C3  UNL     1     -21.506  17.288   8.678  1.00 20.00     0.007 A 
ENDBRANCH   5   6
ENDBRANCH   3   5
BRANCH   1   9
HETATM    9  C7  UNL     1     -26.445  18.055  12.318  1.00 20.00     0.098 C 
HETATM   10  C5  UNL     1     -27.826  18.473  11.841  1.00 20.00     0.014 C 
ENDBRANCH   1   9
TORSDOF 3
ENDMDL
MODEL 4
REMARK VINA RESULT:      -3.9     10.424     11.477
REMARK  3 active torsions:
REMARK  status: ('A' for Active; 'I' for Inactive)
REMARK    1  A    between atoms: C1_1  and  C7_7 
REMARK       I    between atoms: C1_1  and  N9_9 
REMARK    2  A    between atoms: C4_4  and  C8_8 
REMARK    3  A    between atoms: C8_8  and  N9_9 
ROOT
HETATM    1  C1  UNL     1     -35.323  14.325  -4.437  1.00 20.00     0.219 C 
HETATM    2  C6  UNL     1     -36.794  16.278  -3.895  1.00 20.00     0.152 C 
HETATM    3  N9  UNL     1     -35.657  15.408  -3.617  1.00 20.00    -0.356 N 
HETATM    4  O10 UNL     1     -34.775  13.301  -4.020  1.00 20.00    -0.273 OA
ENDROOT
BRANCH   3   5
HETATM    5  C8  UNL     1     -34.891  15.751  -2.421  1.00 20.00     0.130 C 
BRANCH   5   6
HETATM    6  C4  UNL     1     -33.515  16.202  -2.774  1.00 20.00     0.004 A 
HETATM    7  C2  UNL     1     -33.311  17.461  -3.569  1.00 20.00     0.007 A 
HETATM    8  C3  UNL     1     -32.925  17.419  -2.116  1.00 20.00     0.007 A 
ENDBRANCH   5   6
ENDBRANCH   3   5
BRANCH   1   9
HETATM    9  C7  UNL     1     -35.674  14.466  -5.911  1.00 20.00     0.098 C 
HETATM   10  C5  UNL     1     -34.543  15.070  -6.728  1.00 20.00     0.014 C 
ENDBRANCH   1   9
TORSDOF 3
ENDMDL
MODEL 5
REMARK VINA RESULT:      -3.9     10.649     11.940
REMARK  3 active torsions:
REMARK  status: ('A' for Active; 'I' for Inactive)
REMARK    1  A    between atoms: C1_1  and  C7_7 
REMARK       I    between atoms: C1_1  and  N9_9 
REMARK    2  A    between atoms: C4_4  and  C8_8 
REMARK    3  A    between atoms: C8_8  and  N9_9 
ROOT
HETATM    1  C1  UNL     1     -35.947  14.445  -5.533  1.00 20.00     0.219 C 
HETATM    2  C6  UNL     1     -36.654  16.836  -5.299  1.00 20.00     0.152 C 
HETATM    3  N9  UNL     1     -36.196  15.570  -4.739  1.00 20.00    -0.356 N 
HETATM    4  O10 UNL     1     -36.083  13.287  -5.132  1.00 20.00    -0.273 OA
ENDROOT
BRANCH   3   5
HETATM    5  C8  UNL     1     -36.015  15.561  -3.289  1.00 20.00     0.130 C 
BRANCH   5   6
HETATM    6  C4  UNL     1     -34.572  15.474  -2.927  1.00 20.00     0.004 A 
HETATM    7  C2  UNL     1     -33.573  16.398  -3.567  1.00 20.00     0.007 A 
HETATM    8  C3  UNL     1     -33.928  16.564  -2.115  1.00 20.00     0.007 A 
ENDBRANCH   5   6
ENDBRANCH   3   5
BRANCH   1   9
HETATM    9  C7  UNL     1     -35.484  14.718  -6.957  1.00 20.00     0.098 C 
HETATM   10  C5  UNL     1     -33.998  15.024  -7.043  1.00 20.00     0.014 C 
ENDBRANCH   1   9
TORSDOF 3
ENDMDL
MODEL 6
REMARK VINA RESULT:      -3.8     10.742     11.502
REMARK  3 active torsions:
REMARK  status: ('A' for Active; 'I' for Inactive)
REMARK    1  A    between atoms: C1_1  and  C7_7 
REMARK       I    between atoms: C1_1  and  N9_9 
REMARK    2  A    between atoms: C4_4  and  C8_8 
REMARK    3  A    between atoms: C8_8  and  N9_9 
ROOT
HETATM    1  C1  UNL     1     -32.468  18.278  -1.149  1.00 20.00     0.219 C 
HETATM    2  C6  UNL     1     -34.755  17.367  -0.690  1.00 20.00     0.152 C 
HETATM    3  N9  UNL     1     -33.553  17.472  -1.509  1.00 20.00    -0.356 N 
HETATM    4  O10 UNL     1     -31.717  18.814  -1.969  1.00 20.00    -0.273 OA
ENDROOT
BRANCH   3   5
HETATM    5  C8  UNL     1     -33.564  16.674  -2.733  1.00 20.00     0.130 C 
BRANCH   5   6
HETATM    6  C4  UNL     1     -34.601  15.606  -2.670  1.00 20.00     0.004 A 
HETATM    7  C2  UNL     1     -35.692  15.547  -3.703  1.00 20.00     0.007 A 
HETATM    8  C3  UNL     1     -34.612  14.501  -3.691  1.00 20.00     0.007 A 
ENDBRANCH   5   6
ENDBRANCH   3   5
BRANCH   1   9
HETATM    9  C7  UNL     1     -32.242  18.472   0.344  1.00 20.00     0.098 C 
HETATM   10  C5  UNL     1     -30.797  18.242   0.754  1.00 20.00     0.014 C 
ENDBRANCH   1   9
TORSDOF 3
ENDMDL
MODEL 7
REMARK VINA RESULT:      -3.8      1.526      4.844
REMARK  3 active torsions:
REMARK  status: ('A' for Active; 'I' for Inactive)
REMARK    1  A    between atoms: C1_1  and  C7_7 
REMARK       I    between atoms: C1_1  and  N9_9 
REMARK    2  A    between atoms: C4_4  and  C8_8 
REMARK    3  A    between atoms: C8_8  and  N9_9 
ROOT
HETATM    1  C1  UNL     1     -32.232   7.381   2.583  1.00 20.00     0.219 C 
HETATM    2  C6  UNL     1     -33.725   5.376   2.422  1.00 20.00     0.152 C 
HETATM    3  N9  UNL     1     -33.176   6.516   3.147  1.00 20.00    -0.356 N 
HETATM    4  O10 UNL     1     -31.379   7.980   3.243  1.00 20.00    -0.273 OA
ENDROOT
BRANCH   3   5
HETATM    5  C8  UNL     1     -33.685   6.691   4.506  1.00 20.00     0.130 C 
BRANCH   5   6
HETATM    6  C4  UNL     1     -34.744   5.690   4.818  1.00 20.00     0.004 A 
HETATM    7  C2  UNL     1     -34.380   4.367   5.430  1.00 20.00     0.007 A 
HETATM    8  C3  UNL     1     -35.111   5.396   6.246  1.00 20.00     0.007 A 
ENDBRANCH   5   6
ENDBRANCH   3   5
BRANCH   1   9
HETATM    9  C7  UNL     1     -32.304   7.559   1.073  1.00 20.00     0.098 C 
HETATM   10  C5  UNL     1     -32.872   8.909   0.667  1.00 20.00     0.014 C 
ENDBRANCH   1   9
TORSDOF 3
ENDMDL
MODEL 8
REMARK VINA RESULT:      -3.7      1.330      1.722
REMARK  3 active torsions:
REMARK  status: ('A' for Active; 'I' for Inactive)
REMARK    1  A    between atoms: C1_1  and  C7_7 
REMARK       I    between atoms: C1_1  and  N9_9 
REMARK    2  A    between atoms: C4_4  and  C8_8 
REMARK    3  A    between atoms: C8_8  and  N9_9 
ROOT
HETATM    1  C1  UNL     1     -34.114   6.097   4.052  1.00 20.00     0.219 C 
HETATM    2  C6  UNL     1     -33.173   4.765   2.152  1.00 20.00     0.152 C 
HETATM    3  N9  UNL     1     -33.270   5.987   2.942  1.00 20.00    -0.356 N 
HETATM    4  O10 UNL     1     -34.632   7.158   4.410  1.00 20.00    -0.273 OA
ENDROOT
BRANCH   3   5
HETATM    5  C8  UNL     1     -32.421   7.088   2.492  1.00 20.00     0.130 C 
BRANCH   5   6
HETATM    6  C4  UNL     1     -32.931   7.676   1.221  1.00 20.00     0.004 A 
HETATM    7  C2  UNL     1     -32.931   9.166   1.022  1.00 20.00     0.007 A 
HETATM    8  C3  UNL     1     -31.978   8.304   0.241  1.00 20.00     0.007 A 
ENDBRANCH   5   6
ENDBRANCH   3   5
BRANCH   1   9
HETATM    9  C7  UNL     1     -34.375   4.813   4.827  1.00 20.00     0.098 C 
HETATM   10  C5  UNL     1     -34.828   5.070   6.254  1.00 20.00     0.014 C 
ENDBRANCH   1   9
TORSDOF 3
ENDMDL
MODEL 9
REMARK VINA RESULT:      -3.7     10.620     12.014
REMARK  3 active torsions:
REMARK  status: ('A' for Active; 'I' for Inactive)
REMARK    1  A    between atoms: C1_1  and  C7_7 
REMARK       I    between atoms: C1_1  and  N9_9 
REMARK    2  A    between atoms: C4_4  and  C8_8 
REMARK    3  A    between atoms: C8_8  and  N9_9 
ROOT
HETATM    1  C1  UNL     1     -34.859  14.750  -6.134  1.00 20.00     0.219 C 
HETATM    2  C6  UNL     1     -36.677  13.941  -4.614  1.00 20.00     0.152 C 
HETATM    3  N9  UNL     1     -35.339  14.470  -4.850  1.00 20.00    -0.356 N 
HETATM    4  O10 UNL     1     -33.668  14.677  -6.445  1.00 20.00    -0.273 OA
ENDROOT
BRANCH   3   5
HETATM    5  C8  UNL     1     -34.535  14.686  -3.649  1.00 20.00     0.130 C 
BRANCH   5   6
HETATM    6  C4  UNL     1     -34.677  16.084  -3.152  1.00 20.00     0.004 A 
HETATM    7  C2  UNL     1     -34.967  16.346  -1.700  1.00 20.00     0.007 A 
HETATM    8  C3  UNL     1     -33.617  16.684  -2.269  1.00 20.00     0.007 A 
ENDBRANCH   5   6
ENDBRANCH   3   5
BRANCH   1   9
HETATM    9  C7  UNL     1     -35.900  15.165  -7.164  1.00 20.00     0.098 C 
HETATM   10  C5  UNL     1     -36.171  16.660  -7.156  1.00 20.00     0.014 C 
ENDBRANCH   1   9
TORSDOF 3
ENDMDL
