MODEL 1
REMARK VINA RESULT:      -4.2      0.000      0.000
REMARK  4 active torsions:
REMARK  status: ('A' for Active; 'I' for Inactive)
REMARK    1  A    between atoms: C1_1  and  C6_6 
REMARK       I    between atoms: C1_1  and  N10_10 
REMARK    2  A    between atoms: C7_7  and  C8_8 
REMARK    3  A    between atoms: C7_7  and  C9_9 
REMARK    4  A    between atoms: C8_8  and  N10_10 
ROOT
HETATM    1  C1  UNL     1     -24.695  19.026   7.187  1.00 20.00     0.218 C 
HETATM    2  C5  UNL     1     -25.867  19.165   9.414  1.00 20.00     0.152 C 
HETATM    3  N10 UNL     1     -24.658  18.988   8.599  1.00 20.00    -0.356 N 
HETATM    4  O11 UNL     1     -23.706  18.884   6.462  1.00 20.00    -0.273 OA
ENDROOT
BRANCH   3   5
HETATM    5  C8  UNL     1     -23.436  18.775   9.323  1.00 20.00     0.125 C 
BRANCH   5   6
HETATM    6  C7  UNL     1     -23.191  17.301   9.634  1.00 20.00     0.024 C 
BRANCH   6   7
HETATM    7  C9  UNL     1     -23.261  16.929  11.129  1.00 20.00    -0.021 C 
HETATM    8  C3  UNL     1     -24.380  15.910  11.356  1.00 20.00     0.009 C 
HETATM    9  C4  UNL     1     -23.483  18.148  12.025  1.00 20.00     0.009 C 
ENDBRANCH   6   7
ENDBRANCH   5   6
ENDBRANCH   3   5
BRANCH   1  10
HETATM   10  C6  UNL     1     -26.069  19.263   6.576  1.00 20.00     0.098 C 
HETATM   11  C2  UNL     1     -26.218  18.626   5.203  1.00 20.00     0.014 C 
ENDBRANCH   1  10
TORSDOF 4
ENDMDL
MODEL 2
REMARK VINA RESULT:      -4.2     14.531     16.226
REMARK  4 active torsions:
REMARK  status: ('A' for Active; 'I' for Inactive)
REMARK    1  A    between atoms: C1_1  and  C6_6 
REMARK       I    between atoms: C1_1  and  N10_10 
REMARK    2  A    between atoms: C7_7  and  C8_8 
REMARK    3  A    between atoms: C7_7  and  C9_9 
REMARK    4  A    between atoms: C8_8  and  N10_10 
ROOT
HETATM    1  C1  UNL     1     -33.883   6.449   4.498  1.00 20.00     0.218 C 
HETATM    2  C5  UNL     1     -33.354   5.193   2.378  1.00 20.00     0.152 C 
HETATM    3  N10 UNL     1     -33.151   6.320   3.297  1.00 20.00    -0.356 N 
HETATM    4  O11 UNL     1     -33.746   7.378   5.299  1.00 20.00    -0.273 OA
ENDROOT
BRANCH   3   5
HETATM    5  C8  UNL     1     -32.163   7.285   2.901  1.00 20.00     0.125 C 
BRANCH   5   6
HETATM    6  C7  UNL     1     -32.187   7.564   1.400  1.00 20.00     0.024 C 
BRANCH   6   7
HETATM    7  C9  UNL     1     -33.243   8.590   0.944  1.00 20.00    -0.021 C 
HETATM    8  C3  UNL     1     -33.346   8.581  -0.584  1.00 20.00     0.009 C 
HETATM    9  C4  UNL     1     -32.932  10.005   1.431  1.00 20.00     0.009 C 
ENDBRANCH   6   7
ENDBRANCH   5   6
ENDBRANCH   3   5
BRANCH   1  10
HETATM   10  C6  UNL     1     -34.890   5.341   4.770  1.00 20.00     0.098 C 
HETATM   11  C2  UNL     1     -34.881   4.882   6.220  1.00 20.00     0.014 C 
ENDBRANCH   1  10
TORSDOF 4
ENDMDL
MODEL 3
REMARK VINA RESULT:      -4.1     10.028     13.630
REMARK  4 active torsions:
REMARK  status: ('A' for Active; 'I' for Inactive)
REMARK    1  A    between atoms: C1_1  and  C6_6 
REMARK       I    between atoms: C1_1  and  N10_10 
REMARK    2  A    between atoms: C7_7  and  C8_8 
REMARK    3  A    between atoms: C7_7  and  C9_9 
REMARK    4  A    between atoms: C8_8  and  N10_10 
ROOT
HETATM    1  C1  UNL     1     -31.595  18.432   0.081  1.00 20.00     0.218 C 
HETATM    2  C5  UNL     1     -34.008  18.133   0.744  1.00 20.00     0.152 C 
HETATM    3  N10 UNL     1     -32.937  18.153  -0.261  1.00 20.00    -0.356 N 
HETATM    4  O11 UNL     1     -30.663  18.459  -0.728  1.00 20.00    -0.273 OA
ENDROOT
BRANCH   3   5
HETATM    5  C8  UNL     1     -33.335  17.870  -1.612  1.00 20.00     0.125 C 
BRANCH   5   6
HETATM    6  C7  UNL     1     -34.602  17.022  -1.682  1.00 20.00     0.024 C 
BRANCH   6   7
HETATM    7  C9  UNL     1     -34.460  15.699  -2.460  1.00 20.00    -0.021 C 
HETATM    8  C3  UNL     1     -33.247  15.773  -3.389  1.00 20.00     0.009 C 
HETATM    9  C4  UNL     1     -35.711  15.360  -3.271  1.00 20.00     0.009 C 
ENDBRANCH   6   7
ENDBRANCH   5   6
ENDBRANCH   3   5
BRANCH   1  10
HETATM   10  C6  UNL     1     -31.341  18.710   1.556  1.00 20.00     0.098 C 
HETATM   11  C2  UNL     1     -29.933  19.219   1.824  1.00 20.00     0.014 C 
ENDBRANCH   1  10
TORSDOF 4
ENDMDL
MODEL 4
REMARK VINA RESULT:      -4.1     10.063     13.681
REMARK  4 active torsions:
REMARK  status: ('A' for Active; 'I' for Inactive)
REMARK    1  A    between atoms: C1_1  and  C6_6 
REMARK       I    between atoms: C1_1  and  N10_10 
REMARK    2  A    between atoms: C7_7  and  C8_8 
REMARK    3  A    between atoms: C7_7  and  C9_9 
REMARK    4  A    between atoms: C8_8  and  N10_10 
ROOT
HETATM    1  C1  UNL     1     -31.564  18.384  -0.108  1.00 20.00     0.218 C 
HETATM    2  C5  UNL     1     -34.047  18.193   0.283  1.00 20.00     0.152 C 
HETATM    3  N10 UNL     1     -32.879  18.247  -0.606  1.00 20.00    -0.356 N 
HETATM    4  O11 UNL     1     -30.554  18.434  -0.817  1.00 20.00    -0.273 OA
ENDROOT
BRANCH   3   5
HETATM    5  C8  UNL     1     -33.153  18.153  -2.014  1.00 20.00     0.125 C 
BRANCH   5   6
HETATM    6  C7  UNL     1     -32.868  16.761  -2.572  1.00 20.00     0.024 C 
BRANCH   6   7
HETATM    7  C9  UNL     1     -34.034  16.116  -3.347  1.00 20.00    -0.021 C 
HETATM    8  C3  UNL     1     -35.168  15.769  -2.379  1.00 20.00     0.009 C 
HETATM    9  C4  UNL     1     -33.607  14.863  -4.111  1.00 20.00     0.009 C 
ENDBRANCH   6   7
ENDBRANCH   5   6
ENDBRANCH   3   5
BRANCH   1  10
HETATM   10  C6  UNL     1     -31.446  18.470   1.407  1.00 20.00     0.098 C 
HETATM   11  C2  UNL     1     -30.100  19.011   1.861  1.00 20.00     0.014 C 
ENDBRANCH   1  10
TORSDOF 4
ENDMDL
MODEL 5
REMARK VINA RESULT:      -3.9     15.756     17.949
REMARK  4 active torsions:
REMARK  status: ('A' for Active; 'I' for Inactive)
REMARK    1  A    between atoms: C1_1  and  C6_6 
REMARK       I    between atoms: C1_1  and  N10_10 
REMARK    2  A    between atoms: C7_7  and  C8_8 
REMARK    3  A    between atoms: C7_7  and  C9_9 
REMARK    4  A    between atoms: C8_8  and  N10_10 
ROOT
HETATM    1  C1  UNL     1     -38.185  14.923  -4.191  1.00 20.00     0.218 C 
HETATM    2  C5  UNL     1     -37.490  17.330  -3.916  1.00 20.00     0.152 C 
HETATM    3  N10 UNL     1     -37.186  15.922  -4.202  1.00 20.00    -0.356 N 
HETATM    4  O11 UNL     1     -37.977  13.729  -4.425  1.00 20.00    -0.273 OA
ENDROOT
BRANCH   3   5
HETATM    5  C8  UNL     1     -35.812  15.620  -4.493  1.00 20.00     0.125 C 
BRANCH   5   6
HETATM    6  C7  UNL     1     -35.086  14.995  -3.305  1.00 20.00     0.024 C 
BRANCH   6   7
HETATM    7  C9  UNL     1     -34.105  15.932  -2.572  1.00 20.00    -0.021 C 
HETATM    8  C3  UNL     1     -34.845  16.700  -1.474  1.00 20.00     0.009 C 
HETATM    9  C4  UNL     1     -33.422  16.919  -3.520  1.00 20.00     0.009 C 
ENDBRANCH   6   7
ENDBRANCH   5   6
ENDBRANCH   3   5
BRANCH   1  10
HETATM   10  C6  UNL     1     -39.590  15.409  -3.865  1.00 20.00     0.098 C 
HETATM   11  C2  UNL     1     -40.610  15.009  -4.920  1.00 20.00     0.014 C 
ENDBRANCH   1  10
TORSDOF 4
ENDMDL
MODEL 6
REMARK VINA RESULT:      -3.8     14.089     16.103
REMARK  4 active torsions:
REMARK  status: ('A' for Active; 'I' for Inactive)
REMARK    1  A    between atoms: C1_1  and  C6_6 
REMARK       I    between atoms: C1_1  and  N10_10 
REMARK    2  A    between atoms: C7_7  and  C8_8 
REMARK    3  A    between atoms: C7_7  and  C9_9 
REMARK    4  A    between atoms: C8_8  and  N10_10 
ROOT
HETATM    1  C1  UNL     1     -33.930  14.920  -4.925  1.00 20.00     0.218 C 
HETATM    2  C5  UNL     1     -34.183  17.422  -4.755  1.00 20.00     0.152 C 
HETATM    3  N10 UNL     1     -33.920  16.107  -4.158  1.00 20.00    -0.356 N 
HETATM    4  O11 UNL     1     -33.714  13.795  -4.467  1.00 20.00    -0.273 OA
ENDROOT
BRANCH   3   5
HETATM    5  C8  UNL     1     -33.651  16.098  -2.746  1.00 20.00     0.125 C 
BRANCH   5   6
HETATM    6  C7  UNL     1     -34.918  16.253  -1.910  1.00 20.00     0.024 C 
BRANCH   6   7
HETATM    7  C9  UNL     1     -34.931  17.471  -0.964  1.00 20.00    -0.021 C 
HETATM    8  C3  UNL     1     -33.513  18.028  -0.820  1.00 20.00     0.009 C 
HETATM    9  C4  UNL     1     -35.496  17.133   0.416  1.00 20.00     0.009 C 
ENDBRANCH   6   7
ENDBRANCH   5   6
ENDBRANCH   3   5
BRANCH   1  10
HETATM   10  C6  UNL     1     -34.230  15.104  -6.406  1.00 20.00     0.098 C 
HETATM   11  C2  UNL     1     -35.644  14.682  -6.774  1.00 20.00     0.014 C 
ENDBRANCH   1  10
TORSDOF 4
ENDMDL
MODEL 7
REMARK VINA RESULT:      -3.8     15.534     17.587
REMARK  4 active torsions:
REMARK  status: ('A' for Active; 'I' for Inactive)
REMARK    1  A    between atoms: C1_1  and  C6_6 
REMARK       I    between atoms: C1_1  and  N10_10 
REMARK    2  A    between atoms: C7_7  and  C8_8 
REMARK    3  A    between atoms: C7_7  and  C9_9 
REMARK    4  A    between atoms: C8_8  and  N10_10 
ROOT
HETATM    1  C1  UNL     1     -35.752  14.827  -6.202  1.00 20.00     0.218 C 
HETATM    2  C5  UNL     1     -35.630  17.257  -5.547  1.00 20.00     0.152 C 
HETATM    3  N10 UNL     1     -35.847  15.841  -5.223  1.00 20.00    -0.356 N 
HETATM    4  O11 UNL     1     -35.926  13.626  -5.976  1.00 20.00    -0.273 OA
ENDROOT
BRANCH   3   5
HETATM    5  C8  UNL     1     -36.161  15.549  -3.852  1.00 20.00     0.125 C 
BRANCH   5   6
HETATM    6  C7  UNL     1     -34.933  15.130  -3.048  1.00 20.00     0.024 C 
BRANCH   6   7
HETATM    7  C9  UNL     1     -34.403  16.192  -2.064  1.00 20.00    -0.021 C 
HETATM    8  C3  UNL     1     -35.527  17.166  -1.700  1.00 20.00     0.009 C 
HETATM    9  C4  UNL     1     -33.211  16.968  -2.626  1.00 20.00     0.009 C 
ENDBRANCH   6   7
ENDBRANCH   5   6
ENDBRANCH   3   5
BRANCH   1  10
HETATM   10  C6  UNL     1     -35.411  15.304  -7.606  1.00 20.00     0.098 C 
HETATM   11  C2  UNL     1     -33.927  15.197  -7.918  1.00 20.00     0.014 C 
ENDBRANCH   1  10
TORSDOF 4
ENDMDL
MODEL 8
REMARK VINA RESULT:      -3.8     16.367     18.479
REMARK  4 active torsions:
REMARK  status: ('A' for Active; 'I' for Inactive)
REMARK    1  A    between atoms: C1_1  and  C6_6 
REMARK       I    between atoms: C1_1  and  N10_10 
REMARK    2  A    between atoms: C7_7  and  C8_8 
REMARK    3  A    between atoms: C7_7  and  C9_9 
REMARK    4  A    between atoms: C8_8  and  N10_10 
ROOT
HETATM    1  C1  UNL     1     -38.178  14.968  -4.420  1.00 20.00     0.218 C 
HETATM    2  C5  UNL     1     -37.783  17.406  -4.921  1.00 20.00     0.152 C 
HETATM    3  N10 UNL     1     -37.357  16.001  -4.926  1.00 20.00    -0.356 N 
HETATM    4  O11 UNL     1     -37.862  13.775  -4.405  1.00 20.00    -0.273 OA
ENDROOT
BRANCH   3   5
HETATM    5  C8  UNL     1     -36.056  15.739  -5.476  1.00 20.00     0.125 C 
BRANCH   5   6
HETATM    6  C7  UNL     1     -34.944  16.446  -4.707  1.00 20.00     0.024 C 
BRANCH   6   7
HETATM    7  C9  UNL     1     -34.319  15.626  -3.561  1.00 20.00    -0.021 C 
HETATM    8  C3  UNL     1     -34.413  14.133  -3.883  1.00 20.00     0.009 C 
HETATM    9  C4  UNL     1     -34.983  15.906  -2.212  1.00 20.00     0.009 C 
ENDBRANCH   6   7
ENDBRANCH   5   6
ENDBRANCH   3   5
BRANCH   1  10
HETATM   10  C6  UNL     1     -39.527  15.414  -3.874  1.00 20.00     0.098 C 
HETATM   11  C2  UNL     1     -40.687  14.997  -4.764  1.00 20.00     0.014 C 
ENDBRANCH   1  10
TORSDOF 4
ENDMDL
MODEL 9
REMARK VINA RESULT:      -3.8     11.134     13.424
REMARK  4 active torsions:
REMARK  status: ('A' for Active; 'I' for Inactive)
REMARK    1  A    between atoms: C1_1  and  C6_6 
REMARK       I    between atoms: C1_1  and  N10_10 
REMARK    2  A    between atoms: C7_7  and  C8_8 
REMARK    3  A    between atoms: C7_7  and  C9_9 
REMARK    4  A    between atoms: C8_8  and  N10_10 
ROOT
HETATM    1  C1  UNL     1     -33.890  16.430  -2.423  1.00 20.00     0.218 C 
HETATM    2  C5  UNL     1     -35.351  17.085  -0.477  1.00 20.00     0.152 C 
HETATM    3  N10 UNL     1     -34.111  17.195  -1.256  1.00 20.00    -0.356 N 
HETATM    4  O11 UNL     1     -32.865  16.490  -3.109  1.00 20.00    -0.273 OA
ENDROOT
BRANCH   3   5
HETATM    5  C8  UNL     1     -33.137  18.128  -0.762  1.00 20.00     0.125 C 
BRANCH   5   6
HETATM    6  C7  UNL     1     -33.477  18.641   0.635  1.00 20.00     0.024 C 
BRANCH   6   7
HETATM    7  C9  UNL     1     -32.297  18.663   1.627  1.00 20.00    -0.021 C 
HETATM    8  C3  UNL     1     -31.016  18.219   0.917  1.00 20.00     0.009 C 
HETATM    9  C4  UNL     1     -32.544  17.775   2.848  1.00 20.00     0.009 C 
ENDBRANCH   6   7
ENDBRANCH   5   6
ENDBRANCH   3   5
BRANCH   1  10
HETATM   10  C6  UNL     1     -35.022  15.490  -2.812  1.00 20.00     0.098 C 
HETATM   11  C2  UNL     1     -34.579  14.407  -3.783  1.00 20.00     0.014 C 
ENDBRANCH   1  10
TORSDOF 4
ENDMDL
