MODEL 1
REMARK VINA RESULT:      -4.3      0.000      0.000
REMARK  3 active torsions:
REMARK  status: ('A' for Active; 'I' for Inactive)
REMARK    1  A    between atoms: C5_5  and  S11_11 
REMARK    2  A    between atoms: C8_8  and  C9_9 
REMARK    3  A    between atoms: C8_8  and  S11_11 
ROOT
HETATM    1  C1  UNL     1     -37.271  14.435  -4.655  1.00 20.00     0.128 C 
HETATM    2  C2  UNL     1     -37.160  15.693  -5.477  1.00 20.00     0.079 C 
HETATM    3  C3  UNL     1     -35.922  13.893  -4.255  1.00 20.00     0.093 C 
HETATM    4  C4  UNL     1     -35.687  16.050  -5.305  1.00 20.00     0.023 C 
HETATM    5  C5  UNL     1     -34.996  14.695  -5.166  1.00 20.00     0.054 C 
HETATM    6  O10 UNL     1     -38.336  13.914  -4.344  1.00 20.00    -0.298 OA
ENDROOT
BRANCH   5   7
HETATM    7  S11 UNL     1     -33.322  14.835  -4.488  1.00 20.00    -0.164 SA
BRANCH   7   8
HETATM    8  C8  UNL     1     -33.476  16.490  -3.782  1.00 20.00     0.078 C 
BRANCH   8   9
HETATM    9  C9  UNL     1     -33.565  16.545  -2.248  1.00 20.00    -0.013 C 
HETATM   10  C6  UNL     1     -32.847  17.760  -1.656  1.00 20.00     0.010 C 
HETATM   11  C7  UNL     1     -35.005  16.470  -1.736  1.00 20.00     0.010 C 
ENDBRANCH   8   9
ENDBRANCH   7   8
ENDBRANCH   5   7
TORSDOF 3
ENDMDL
MODEL 2
REMARK VINA RESULT:      -4.1      1.388      1.682
REMARK  3 active torsions:
REMARK  status: ('A' for Active; 'I' for Inactive)
REMARK    1  A    between atoms: C5_5  and  S11_11 
REMARK    2  A    between atoms: C8_8  and  C9_9 
REMARK    3  A    between atoms: C8_8  and  S11_11 
ROOT
HETATM    1  C1  UNL     1     -36.040  13.770  -4.492  1.00 20.00     0.128 C 
HETATM    2  C2  UNL     1     -37.389  14.428  -4.343  1.00 20.00     0.079 C 
HETATM    3  C3  UNL     1     -34.929  14.776  -4.654  1.00 20.00     0.093 C 
HETATM    4  C4  UNL     1     -37.002  15.887  -4.125  1.00 20.00     0.023 C 
HETATM    5  C5  UNL     1     -35.719  16.051  -4.938  1.00 20.00     0.054 C 
HETATM    6  O10 UNL     1     -35.867  12.557  -4.481  1.00 20.00    -0.298 OA
ENDROOT
BRANCH   5   7
HETATM    7  S11 UNL     1     -34.797  17.544  -4.486  1.00 20.00    -0.164 SA
BRANCH   7   8
HETATM    8  C8  UNL     1     -33.384  16.737  -3.704  1.00 20.00     0.078 C 
BRANCH   8   9
HETATM    9  C9  UNL     1     -33.253  16.962  -2.188  1.00 20.00    -0.013 C 
HETATM   10  C6  UNL     1     -32.461  18.224  -1.842  1.00 20.00     0.010 C 
HETATM   11  C7  UNL     1     -34.606  16.963  -1.472  1.00 20.00     0.010 C 
ENDBRANCH   8   9
ENDBRANCH   7   8
ENDBRANCH   5   7
TORSDOF 3
ENDMDL
MODEL 3
REMARK VINA RESULT:      -4.1      2.005      2.938
REMARK  3 active torsions:
REMARK  status: ('A' for Active; 'I' for Inactive)
REMARK    1  A    between atoms: C5_5  and  S11_11 
REMARK    2  A    between atoms: C8_8  and  C9_9 
REMARK    3  A    between atoms: C8_8  and  S11_11 
ROOT
HETATM    1  C1  UNL     1     -35.147  13.871  -4.082  1.00 20.00     0.128 C 
HETATM    2  C2  UNL     1     -33.648  13.960  -4.219  1.00 20.00     0.079 C 
HETATM    3  C3  UNL     1     -35.726  15.060  -3.357  1.00 20.00     0.093 C 
HETATM    4  C4  UNL     1     -33.381  15.403  -3.804  1.00 20.00     0.023 C 
HETATM    5  C5  UNL     1     -34.467  15.693  -2.769  1.00 20.00     0.054 C 
HETATM    6  O10 UNL     1     -35.818  12.941  -4.512  1.00 20.00    -0.298 OA
ENDROOT
BRANCH   5   7
HETATM    7  S11 UNL     1     -34.673  17.465  -2.456  1.00 20.00    -0.164 SA
BRANCH   7   8
HETATM    8  C8  UNL     1     -32.931  17.885  -2.238  1.00 20.00     0.078 C 
BRANCH   8   9
HETATM    9  C9  UNL     1     -32.581  18.576  -0.909  1.00 20.00    -0.013 C 
HETATM   10  C6  UNL     1     -33.599  18.286   0.195  1.00 20.00     0.010 C 
HETATM   11  C7  UNL     1     -31.163  18.257  -0.431  1.00 20.00     0.010 C 
ENDBRANCH   8   9
ENDBRANCH   7   8
ENDBRANCH   5   7
TORSDOF 3
ENDMDL
MODEL 4
REMARK VINA RESULT:      -4.1      1.207      1.742
REMARK  3 active torsions:
REMARK  status: ('A' for Active; 'I' for Inactive)
REMARK    1  A    between atoms: C5_5  and  S11_11 
REMARK    2  A    between atoms: C8_8  and  C9_9 
REMARK    3  A    between atoms: C8_8  and  S11_11 
ROOT
HETATM    1  C1  UNL     1     -36.476  14.152  -4.634  1.00 20.00     0.128 C 
HETATM    2  C2  UNL     1     -35.835  14.312  -5.989  1.00 20.00     0.079 C 
HETATM    3  C3  UNL     1     -35.594  14.658  -3.520  1.00 20.00     0.093 C 
HETATM    4  C4  UNL     1     -34.645  15.211  -5.667  1.00 20.00     0.023 C 
HETATM    5  C5  UNL     1     -34.258  14.810  -4.244  1.00 20.00     0.054 C 
HETATM    6  O10 UNL     1     -37.588  13.669  -4.458  1.00 20.00    -0.298 OA
ENDROOT
BRANCH   5   7
HETATM    7  S11 UNL     1     -33.183  16.031  -3.447  1.00 20.00    -0.164 SA
BRANCH   7   8
HETATM    8  C8  UNL     1     -34.298  16.511  -2.110  1.00 20.00     0.078 C 
BRANCH   8   9
HETATM    9  C9  UNL     1     -33.891  17.776  -1.336  1.00 20.00    -0.013 C 
HETATM   10  C6  UNL     1     -34.492  17.828   0.070  1.00 20.00     0.010 C 
HETATM   11  C7  UNL     1     -32.375  17.974  -1.281  1.00 20.00     0.010 C 
ENDBRANCH   8   9
ENDBRANCH   7   8
ENDBRANCH   5   7
TORSDOF 3
ENDMDL
MODEL 5
REMARK VINA RESULT:      -4.0      2.089      2.785
REMARK  3 active torsions:
REMARK  status: ('A' for Active; 'I' for Inactive)
REMARK    1  A    between atoms: C5_5  and  S11_11 
REMARK    2  A    between atoms: C8_8  and  C9_9 
REMARK    3  A    between atoms: C8_8  and  S11_11 
ROOT
HETATM    1  C1  UNL     1     -35.524  13.752  -4.206  1.00 20.00     0.128 C 
HETATM    2  C2  UNL     1     -34.083  14.136  -3.981  1.00 20.00     0.079 C 
HETATM    3  C3  UNL     1     -36.473  14.877  -3.879  1.00 20.00     0.093 C 
HETATM    4  C4  UNL     1     -34.189  15.645  -3.785  1.00 20.00     0.023 C 
HETATM    5  C5  UNL     1     -35.553  15.833  -3.123  1.00 20.00     0.054 C 
HETATM    6  O10 UNL     1     -35.882  12.652  -4.611  1.00 20.00    -0.298 OA
ENDROOT
BRANCH   5   7
HETATM    7  S11 UNL     1     -36.133  17.547  -3.202  1.00 20.00    -0.164 SA
BRANCH   7   8
HETATM    8  C8  UNL     1     -36.297  17.838  -1.427  1.00 20.00     0.078 C 
BRANCH   8   9
HETATM    9  C9  UNL     1     -35.160  17.271  -0.560  1.00 20.00    -0.013 C 
HETATM   10  C6  UNL     1     -33.828  17.989  -0.785  1.00 20.00     0.010 C 
HETATM   11  C7  UNL     1     -35.510  17.244   0.930  1.00 20.00     0.010 C 
ENDBRANCH   8   9
ENDBRANCH   7   8
ENDBRANCH   5   7
TORSDOF 3
ENDMDL
MODEL 6
REMARK VINA RESULT:      -4.0      2.676      3.965
REMARK  3 active torsions:
REMARK  status: ('A' for Active; 'I' for Inactive)
REMARK    1  A    between atoms: C5_5  and  S11_11 
REMARK    2  A    between atoms: C8_8  and  C9_9 
REMARK    3  A    between atoms: C8_8  and  S11_11 
ROOT
HETATM    1  C1  UNL     1     -34.115  15.032  -3.590  1.00 20.00     0.128 C 
HETATM    2  C2  UNL     1     -35.293  15.431  -2.738  1.00 20.00     0.079 C 
HETATM    3  C3  UNL     1     -32.963  15.997  -3.461  1.00 20.00     0.093 C 
HETATM    4  C4  UNL     1     -34.688  16.521  -1.860  1.00 20.00     0.023 C 
HETATM    5  C5  UNL     1     -33.637  17.173  -2.757  1.00 20.00     0.054 C 
HETATM    6  O10 UNL     1     -34.095  14.037  -4.304  1.00 20.00    -0.298 OA
ENDROOT
BRANCH   5   7
HETATM    7  S11 UNL     1     -32.455  18.180  -1.824  1.00 20.00    -0.164 SA
BRANCH   7   8
HETATM    8  C8  UNL     1     -33.318  18.173  -0.238  1.00 20.00     0.078 C 
BRANCH   8   9
HETATM    9  C9  UNL     1     -32.469  18.588   0.976  1.00 20.00    -0.013 C 
HETATM   10  C6  UNL     1     -33.000  18.018   2.293  1.00 20.00     0.010 C 
HETATM   11  C7  UNL     1     -30.986  18.252   0.803  1.00 20.00     0.010 C 
ENDBRANCH   8   9
ENDBRANCH   7   8
ENDBRANCH   5   7
TORSDOF 3
ENDMDL
MODEL 7
REMARK VINA RESULT:      -4.0      4.180      6.540
REMARK  3 active torsions:
REMARK  status: ('A' for Active; 'I' for Inactive)
REMARK    1  A    between atoms: C5_5  and  S11_11 
REMARK    2  A    between atoms: C8_8  and  C9_9 
REMARK    3  A    between atoms: C8_8  and  S11_11 
ROOT
HETATM    1  C1  UNL     1     -31.063  18.670   0.674  1.00 20.00     0.128 C 
HETATM    2  C2  UNL     1     -32.266  18.545   1.572  1.00 20.00     0.079 C 
HETATM    3  C3  UNL     1     -31.432  18.610  -0.788  1.00 20.00     0.093 C 
HETATM    4  C4  UNL     1     -33.414  18.703   0.581  1.00 20.00     0.023 C 
HETATM    5  C5  UNL     1     -32.868  18.099  -0.711  1.00 20.00     0.054 C 
HETATM    6  O10 UNL     1     -29.916  18.808   1.083  1.00 20.00    -0.298 OA
ENDROOT
BRANCH   5   7
HETATM    7  S11 UNL     1     -33.841  18.571  -2.165  1.00 20.00    -0.164 SA
BRANCH   7   8
HETATM    8  C8  UNL     1     -33.179  17.349  -3.317  1.00 20.00     0.078 C 
BRANCH   8   9
HETATM    9  C9  UNL     1     -33.559  15.889  -3.019  1.00 20.00    -0.013 C 
HETATM   10  C6  UNL     1     -34.994  15.743  -2.510  1.00 20.00     0.010 C 
HETATM   11  C7  UNL     1     -33.313  14.959  -4.209  1.00 20.00     0.010 C 
ENDBRANCH   8   9
ENDBRANCH   7   8
ENDBRANCH   5   7
TORSDOF 3
ENDMDL
MODEL 8
REMARK VINA RESULT:      -3.9     10.814     11.789
REMARK  3 active torsions:
REMARK  status: ('A' for Active; 'I' for Inactive)
REMARK    1  A    between atoms: C5_5  and  S11_11 
REMARK    2  A    between atoms: C8_8  and  C9_9 
REMARK    3  A    between atoms: C8_8  and  S11_11 
ROOT
HETATM    1  C1  UNL     1     -34.806   5.235   4.742  1.00 20.00     0.128 C 
HETATM    2  C2  UNL     1     -34.598   6.063   5.984  1.00 20.00     0.079 C 
HETATM    3  C3  UNL     1     -33.971   5.723   3.584  1.00 20.00     0.093 C 
HETATM    4  C4  UNL     1     -33.375   6.892   5.606  1.00 20.00     0.023 C 
HETATM    5  C5  UNL     1     -33.517   7.087   4.098  1.00 20.00     0.054 C 
HETATM    6  O10 UNL     1     -35.564   4.275   4.680  1.00 20.00    -0.298 OA
ENDROOT
BRANCH   5   7
HETATM    7  S11 UNL     1     -31.975   7.633   3.319  1.00 20.00    -0.164 SA
BRANCH   7   8
HETATM    8  C8  UNL     1     -32.439   7.327   1.602  1.00 20.00     0.078 C 
BRANCH   8   9
HETATM    9  C9  UNL     1     -32.563   8.580   0.720  1.00 20.00    -0.013 C 
HETATM   10  C6  UNL     1     -33.352   8.324  -0.566  1.00 20.00     0.010 C 
HETATM   11  C7  UNL     1     -33.141   9.780   1.475  1.00 20.00     0.010 C 
ENDBRANCH   8   9
ENDBRANCH   7   8
ENDBRANCH   5   7
TORSDOF 3
ENDMDL
MODEL 9
REMARK VINA RESULT:      -3.9      1.587      2.094
REMARK  3 active torsions:
REMARK  status: ('A' for Active; 'I' for Inactive)
REMARK    1  A    between atoms: C5_5  and  S11_11 
REMARK    2  A    between atoms: C8_8  and  C9_9 
REMARK    3  A    between atoms: C8_8  and  S11_11 
ROOT
HETATM    1  C1  UNL     1     -35.584  13.862  -4.692  1.00 20.00     0.128 C 
HETATM    2  C2  UNL     1     -35.982  14.768  -5.829  1.00 20.00     0.079 C 
HETATM    3  C3  UNL     1     -34.576  14.507  -3.774  1.00 20.00     0.093 C 
HETATM    4  C4  UNL     1     -35.390  16.102  -5.388  1.00 20.00     0.023 C 
HETATM    5  C5  UNL     1     -34.136  15.707  -4.609  1.00 20.00     0.054 C 
HETATM    6  O10 UNL     1     -36.030  12.732  -4.531  1.00 20.00    -0.298 OA
ENDROOT
BRANCH   5   7
HETATM    7  S11 UNL     1     -33.500  17.058  -3.585  1.00 20.00    -0.164 SA
BRANCH   7   8
HETATM    8  C8  UNL     1     -34.183  16.516  -2.004  1.00 20.00     0.078 C 
BRANCH   8   9
HETATM    9  C9  UNL     1     -35.166  17.496  -1.341  1.00 20.00    -0.013 C 
HETATM   10  C6  UNL     1     -36.485  17.620  -2.106  1.00 20.00     0.010 C 
HETATM   11  C7  UNL     1     -35.427  17.167   0.131  1.00 20.00     0.010 C 
ENDBRANCH   8   9
ENDBRANCH   7   8
ENDBRANCH   5   7
TORSDOF 3
ENDMDL
