MODEL 1
REMARK VINA RESULT:      -4.3      0.000      0.000
REMARK  0 active torsions:
REMARK  status: ('A' for Active; 'I' for Inactive)
ROOT
HETATM    1  C1  UNL     1     -22.887  17.952   8.247  1.00 20.00     0.003 C 
HETATM    2  C2  UNL     1     -24.171  18.736   8.549  1.00 20.00     0.037 C 
HETATM    3  C3  UNL     1     -22.750  16.900   9.360  1.00 20.00     0.017 C 
HETATM    4  C4  UNL     1     -26.021  18.373  11.846  1.00 20.00     0.280 C 
HETATM    5  C5  UNL     1     -25.764  16.909  12.213  1.00 20.00     0.104 C 
HETATM    6  C6  UNL     1     -24.460  18.417  10.014  1.00 20.00     0.234 C 
HETATM    7  C7  UNL     1     -24.094  16.938  10.076  1.00 20.00     0.080 C 
HETATM    8  N8  UNL     1     -25.838  18.671  10.419  1.00 20.00     0.089 N 
HETATM    9  S9  UNL     1     -24.078  16.362  11.789  1.00 20.00    -0.160 SA
HETATM   10  H22 UNL     1     -26.469  18.088   9.870  1.00 20.00     0.316 HD
ENDROOT
TORSDOF 0
ENDMDL
MODEL 2
REMARK VINA RESULT:      -4.2      2.188      3.950
REMARK  0 active torsions:
REMARK  status: ('A' for Active; 'I' for Inactive)
ROOT
HETATM    1  C1  UNL     1     -25.338  18.564  12.237  1.00 20.00     0.003 C 
HETATM    2  C2  UNL     1     -23.994  17.831  12.332  1.00 20.00     0.037 C 
HETATM    3  C3  UNL     1     -25.551  18.891  10.750  1.00 20.00     0.017 C 
HETATM    4  C4  UNL     1     -21.591  17.652   9.397  1.00 20.00     0.280 C 
HETATM    5  C5  UNL     1     -22.535  17.629   8.192  1.00 20.00     0.104 C 
HETATM    6  C6  UNL     1     -23.303  18.159  11.010  1.00 20.00     0.234 C 
HETATM    7  C7  UNL     1     -24.473  18.086  10.035  1.00 20.00     0.080 C 
HETATM    8  N8  UNL     1     -22.223  17.246  10.659  1.00 20.00     0.089 N 
HETATM    9  S9  UNL     1     -23.983  18.714   8.413  1.00 20.00    -0.160 SA
HETATM   10  H22 UNL     1     -22.592  16.300  10.560  1.00 20.00     0.316 HD
ENDROOT
TORSDOF 0
ENDMDL
MODEL 3
REMARK VINA RESULT:      -4.2     17.160     17.948
REMARK  0 active torsions:
REMARK  status: ('A' for Active; 'I' for Inactive)
ROOT
HETATM    1  C1  UNL     1     -33.694  16.862  -2.012  1.00 20.00     0.003 C 
HETATM    2  C2  UNL     1     -35.117  16.293  -1.928  1.00 20.00     0.037 C 
HETATM    3  C3  UNL     1     -33.180  16.540  -3.425  1.00 20.00     0.017 C 
HETATM    4  C4  UNL     1     -36.521  13.989  -4.600  1.00 20.00     0.280 C 
HETATM    5  C5  UNL     1     -35.839  14.499  -5.873  1.00 20.00     0.104 C 
HETATM    6  C6  UNL     1     -35.187  15.307  -3.092  1.00 20.00     0.234 C 
HETATM    7  C7  UNL     1     -34.420  16.064  -4.172  1.00 20.00     0.080 C 
HETATM    8  N8  UNL     1     -36.543  14.966  -3.503  1.00 20.00     0.089 N 
HETATM    9  S9  UNL     1     -34.107  14.993  -5.593  1.00 20.00    -0.160 SA
HETATM   10  H22 UNL     1     -37.030  15.807  -3.812  1.00 20.00     0.316 HD
ENDROOT
TORSDOF 0
ENDMDL
MODEL 4
REMARK VINA RESULT:      -4.1     17.170     18.007
REMARK  0 active torsions:
REMARK  status: ('A' for Active; 'I' for Inactive)
ROOT
HETATM    1  C1  UNL     1     -33.786  16.819  -1.962  1.00 20.00     0.003 C 
HETATM    2  C2  UNL     1     -33.058  16.542  -3.284  1.00 20.00     0.037 C 
HETATM    3  C3  UNL     1     -35.155  16.128  -2.068  1.00 20.00     0.017 C 
HETATM    4  C4  UNL     1     -34.834  15.026  -6.279  1.00 20.00     0.280 C 
HETATM    5  C5  UNL     1     -35.871  14.110  -5.624  1.00 20.00     0.104 C 
HETATM    6  C6  UNL     1     -34.172  16.108  -4.233  1.00 20.00     0.234 C 
HETATM    7  C7  UNL     1     -35.036  15.254  -3.310  1.00 20.00     0.080 C 
HETATM    8  N8  UNL     1     -33.707  15.373  -5.403  1.00 20.00     0.089 N 
HETATM    9  S9  UNL     1     -36.597  14.834  -4.117  1.00 20.00    -0.160 SA
HETATM   10  H22 UNL     1     -33.236  14.519  -5.106  1.00 20.00     0.316 HD
ENDROOT
TORSDOF 0
ENDMDL
MODEL 5
REMARK VINA RESULT:      -3.7     15.848     16.550
REMARK  0 active torsions:
REMARK  status: ('A' for Active; 'I' for Inactive)
ROOT
HETATM    1  C1  UNL     1     -34.945   5.464   6.200  1.00 20.00     0.003 C 
HETATM    2  C2  UNL     1     -35.064   4.777   4.832  1.00 20.00     0.037 C 
HETATM    3  C3  UNL     1     -33.992   6.655   6.006  1.00 20.00     0.017 C 
HETATM    4  C4  UNL     1     -32.779   5.664   1.932  1.00 20.00     0.280 C 
HETATM    5  C5  UNL     1     -32.512   7.154   2.160  1.00 20.00     0.104 C 
HETATM    6  C6  UNL     1     -33.865   5.307   4.050  1.00 20.00     0.234 C 
HETATM    7  C7  UNL     1     -33.840   6.767   4.494  1.00 20.00     0.080 C 
HETATM    8  N8  UNL     1     -33.985   5.163   2.605  1.00 20.00     0.089 N 
HETATM    9  S9  UNL     1     -32.327   7.574   3.924  1.00 20.00    -0.160 SA
HETATM   10  H22 UNL     1     -34.795   5.687   2.274  1.00 20.00     0.316 HD
ENDROOT
TORSDOF 0
ENDMDL
MODEL 6
REMARK VINA RESULT:      -3.5     15.763     16.462
REMARK  0 active torsions:
REMARK  status: ('A' for Active; 'I' for Inactive)
ROOT
HETATM    1  C1  UNL     1     -34.168  14.612  -4.179  1.00 20.00     0.003 C 
HETATM    2  C2  UNL     1     -35.456  14.943  -3.414  1.00 20.00     0.037 C 
HETATM    3  C3  UNL     1     -33.102  15.602  -3.684  1.00 20.00     0.017 C 
HETATM    4  C4  UNL     1     -35.796  18.090  -1.317  1.00 20.00     0.280 C 
HETATM    5  C5  UNL     1     -34.371  18.300  -0.796  1.00 20.00     0.104 C 
HETATM    6  C6  UNL     1     -35.208  16.348  -2.869  1.00 20.00     0.234 C 
HETATM    7  C7  UNL     1     -33.740  16.257  -2.465  1.00 20.00     0.080 C 
HETATM    8  N8  UNL     1     -36.074  16.717  -1.756  1.00 20.00     0.089 N 
HETATM    9  S9  UNL     1     -33.101  17.892  -2.038  1.00 20.00    -0.160 SA
HETATM   10  H22 UNL     1     -35.921  16.077  -0.976  1.00 20.00     0.316 HD
ENDROOT
TORSDOF 0
ENDMDL
MODEL 7
REMARK VINA RESULT:      -3.4     17.684     18.446
REMARK  0 active torsions:
REMARK  status: ('A' for Active; 'I' for Inactive)
ROOT
HETATM    1  C1  UNL     1     -33.551  16.334  -2.556  1.00 20.00     0.003 C 
HETATM    2  C2  UNL     1     -34.979  16.040  -2.077  1.00 20.00     0.037 C 
HETATM    3  C3  UNL     1     -33.626  16.473  -4.085  1.00 20.00     0.017 C 
HETATM    4  C4  UNL     1     -37.775  15.184  -4.501  1.00 20.00     0.280 C 
HETATM    5  C5  UNL     1     -37.401  15.999  -5.742  1.00 20.00     0.104 C 
HETATM    6  C6  UNL     1     -35.704  15.586  -3.343  1.00 20.00     0.234 C 
HETATM    7  C7  UNL     1     -35.119  16.540  -4.380  1.00 20.00     0.080 C 
HETATM    8  N8  UNL     1     -37.157  15.671  -3.260  1.00 20.00     0.089 N 
HETATM    9  S9  UNL     1     -35.604  16.035  -6.046  1.00 20.00    -0.160 SA
HETATM   10  H22 UNL     1     -37.435  16.639  -3.104  1.00 20.00     0.316 HD
ENDROOT
TORSDOF 0
ENDMDL
MODEL 8
REMARK VINA RESULT:      -3.4     14.965     15.747
REMARK  0 active torsions:
REMARK  status: ('A' for Active; 'I' for Inactive)
ROOT
HETATM    1  C1  UNL     1     -34.257  15.060  -3.708  1.00 20.00     0.003 C 
HETATM    2  C2  UNL     1     -33.105  16.072  -3.637  1.00 20.00     0.037 C 
HETATM    3  C3  UNL     1     -35.258  15.465  -2.614  1.00 20.00     0.017 C 
HETATM    4  C4  UNL     1     -32.761  18.527  -0.761  1.00 20.00     0.280 C 
HETATM    5  C5  UNL     1     -34.219  18.808  -0.385  1.00 20.00     0.104 C 
HETATM    6  C6  UNL     1     -33.266  16.715  -2.262  1.00 20.00     0.234 C 
HETATM    7  C7  UNL     1     -34.783  16.841  -2.166  1.00 20.00     0.080 C 
HETATM    8  N8  UNL     1     -32.587  17.997  -2.120  1.00 20.00     0.089 N 
HETATM    9  S9  UNL     1     -35.272  17.324  -0.495  1.00 20.00    -0.160 SA
HETATM   10  H22 UNL     1     -32.968  18.663  -2.791  1.00 20.00     0.316 HD
ENDROOT
TORSDOF 0
ENDMDL
MODEL 9
REMARK VINA RESULT:      -3.4      1.812      2.339
REMARK  0 active torsions:
REMARK  status: ('A' for Active; 'I' for Inactive)
ROOT
HETATM    1  C1  UNL     1     -25.618  19.263   7.538  1.00 20.00     0.003 C 
HETATM    2  C2  UNL     1     -26.177  19.217   8.967  1.00 20.00     0.037 C 
HETATM    3  C3  UNL     1     -24.194  18.688   7.611  1.00 20.00     0.017 C 
HETATM    4  C4  UNL     1     -23.976  18.446  11.964  1.00 20.00     0.280 C 
HETATM    5  C5  UNL     1     -22.943  17.478  11.380  1.00 20.00     0.104 C 
HETATM    6  C6  UNL     1     -24.937  19.050   9.841  1.00 20.00     0.234 C 
HETATM    7  C7  UNL     1     -24.109  18.079   9.005  1.00 20.00     0.080 C 
HETATM    8  N8  UNL     1     -25.214  18.542  11.179  1.00 20.00     0.089 N 
HETATM    9  S9  UNL     1     -22.442  17.923   9.684  1.00 20.00    -0.160 SA
HETATM   10  H22 UNL     1     -25.642  17.619  11.113  1.00 20.00     0.316 HD
ENDROOT
TORSDOF 0
ENDMDL
