MODEL 1
REMARK VINA RESULT:      -5.0      0.000      0.000
REMARK  4 active torsions:
REMARK  status: ('A' for Active; 'I' for Inactive)
REMARK    1  A    between atoms: C1_1  and  C7_7 
REMARK    2  A    between atoms: C1_1  and  O10_10 
REMARK    3  A    between atoms: C4_4  and  C7_7 
REMARK    4  A    between atoms: C8_8  and  O10_10 
ROOT
HETATM    1  C1  UNL     1     -32.965   6.215   2.706  1.00 20.00     0.259 C 
HETATM    2  O9  UNL     1     -32.876   5.021   2.459  1.00 20.00    -0.265 OA
ENDROOT
BRANCH   1   3
HETATM    3  C7  UNL     1     -32.276   7.318   1.936  1.00 20.00     0.115 C 
BRANCH   3   4
HETATM    4  C4  UNL     1     -33.266   8.242   1.252  1.00 20.00    -0.005 A 
HETATM    5  C2  UNL     1     -32.826   9.594   0.759  1.00 20.00     0.005 A 
HETATM    6  C3  UNL     1     -33.161   8.506  -0.224  1.00 20.00     0.005 A 
ENDBRANCH   3   4
ENDBRANCH   1   3
BRANCH   1   7
HETATM    7  O10 UNL     1     -33.697   6.771   3.716  1.00 20.00    -0.317 OA
BRANCH   7   8
HETATM    8  C8  UNL     1     -34.079   5.876   4.766  1.00 20.00     0.123 C 
HETATM    9  C5  UNL     1     -34.096   6.632   6.086  1.00 20.00     0.040 C 
HETATM   10  C6  UNL     1     -35.437   5.273   4.440  1.00 20.00     0.040 C 
ENDBRANCH   7   8
ENDBRANCH   1   7
TORSDOF 4
ENDMDL
MODEL 2
REMARK VINA RESULT:      -4.9      0.982      1.314
REMARK  4 active torsions:
REMARK  status: ('A' for Active; 'I' for Inactive)
REMARK    1  A    between atoms: C1_1  and  C7_7 
REMARK    2  A    between atoms: C1_1  and  O10_10 
REMARK    3  A    between atoms: C4_4  and  C7_7 
REMARK    4  A    between atoms: C8_8  and  O10_10 
ROOT
HETATM    1  C1  UNL     1     -32.600   7.195   3.148  1.00 20.00     0.259 C 
HETATM    2  O9  UNL     1     -31.602   7.542   3.763  1.00 20.00    -0.265 OA
ENDROOT
BRANCH   1   3
HETATM    3  C7  UNL     1     -32.652   6.896   1.668  1.00 20.00     0.115 C 
BRANCH   3   4
HETATM    4  C4  UNL     1     -32.319   8.115   0.826  1.00 20.00    -0.005 A 
HETATM    5  C2  UNL     1     -33.293   8.611  -0.208  1.00 20.00     0.005 A 
HETATM    6  C3  UNL     1     -33.052   9.409   1.043  1.00 20.00     0.005 A 
ENDBRANCH   3   4
ENDBRANCH   1   3
BRANCH   1   7
HETATM    7  O10 UNL     1     -33.846   7.013   3.679  1.00 20.00    -0.317 OA
BRANCH   7   8
HETATM    8  C8  UNL     1     -33.948   5.988   4.673  1.00 20.00     0.123 C 
HETATM    9  C5  UNL     1     -34.103   6.632   6.042  1.00 20.00     0.040 C 
HETATM   10  C6  UNL     1     -35.123   5.082   4.337  1.00 20.00     0.040 C 
ENDBRANCH   7   8
ENDBRANCH   1   7
TORSDOF 4
ENDMDL
MODEL 3
REMARK VINA RESULT:      -4.8      1.101      4.409
REMARK  4 active torsions:
REMARK  status: ('A' for Active; 'I' for Inactive)
REMARK    1  A    between atoms: C1_1  and  C7_7 
REMARK    2  A    between atoms: C1_1  and  O10_10 
REMARK    3  A    between atoms: C4_4  and  C7_7 
REMARK    4  A    between atoms: C8_8  and  O10_10 
ROOT
HETATM    1  C1  UNL     1     -33.511   5.022   2.794  1.00 20.00     0.259 C 
HETATM    2  O9  UNL     1     -32.874   4.309   2.032  1.00 20.00    -0.265 OA
ENDROOT
BRANCH   1   3
HETATM    3  C7  UNL     1     -34.348   4.532   3.953  1.00 20.00     0.115 C 
BRANCH   3   4
HETATM    4  C4  UNL     1     -34.858   5.674   4.814  1.00 20.00    -0.005 A 
HETATM    5  C2  UNL     1     -35.105   5.464   6.282  1.00 20.00     0.005 A 
HETATM    6  C3  UNL     1     -33.956   6.320   5.828  1.00 20.00     0.005 A 
ENDBRANCH   3   4
ENDBRANCH   1   3
BRANCH   1   7
HETATM    7  O10 UNL     1     -33.585   6.385   2.741  1.00 20.00    -0.317 OA
BRANCH   7   8
HETATM    8  C8  UNL     1     -32.399   7.050   2.296  1.00 20.00     0.123 C 
HETATM    9  C5  UNL     1     -32.772   8.105   1.265  1.00 20.00     0.040 C 
HETATM   10  C6  UNL     1     -31.685   7.657   3.494  1.00 20.00     0.040 C 
ENDBRANCH   7   8
ENDBRANCH   1   7
TORSDOF 4
ENDMDL
MODEL 4
REMARK VINA RESULT:      -4.8      0.957      1.755
REMARK  4 active torsions:
REMARK  status: ('A' for Active; 'I' for Inactive)
REMARK    1  A    between atoms: C1_1  and  C7_7 
REMARK    2  A    between atoms: C1_1  and  O10_10 
REMARK    3  A    between atoms: C4_4  and  C7_7 
REMARK    4  A    between atoms: C8_8  and  O10_10 
ROOT
HETATM    1  C1  UNL     1     -32.484   6.937   3.093  1.00 20.00     0.259 C 
HETATM    2  O9  UNL     1     -31.635   7.680   3.564  1.00 20.00    -0.265 OA
ENDROOT
BRANCH   1   3
HETATM    3  C7  UNL     1     -32.991   6.983   1.670  1.00 20.00     0.115 C 
BRANCH   3   4
HETATM    4  C4  UNL     1     -32.441   8.174   0.905  1.00 20.00    -0.005 A 
HETATM    5  C2  UNL     1     -33.183   8.719  -0.285  1.00 20.00     0.005 A 
HETATM    6  C3  UNL     1     -33.124   9.511   0.992  1.00 20.00     0.005 A 
ENDBRANCH   3   4
ENDBRANCH   1   3
BRANCH   1   7
HETATM    7  O10 UNL     1     -33.129   5.933   3.759  1.00 20.00    -0.317 OA
BRANCH   7   8
HETATM    8  C8  UNL     1     -34.303   6.326   4.478  1.00 20.00     0.123 C 
HETATM    9  C5  UNL     1     -35.307   5.184   4.459  1.00 20.00     0.040 C 
HETATM   10  C6  UNL     1     -33.913   6.715   5.896  1.00 20.00     0.040 C 
ENDBRANCH   7   8
ENDBRANCH   1   7
TORSDOF 4
ENDMDL
MODEL 5
REMARK VINA RESULT:      -4.7     10.215     11.882
REMARK  4 active torsions:
REMARK  status: ('A' for Active; 'I' for Inactive)
REMARK    1  A    between atoms: C1_1  and  C7_7 
REMARK    2  A    between atoms: C1_1  and  O10_10 
REMARK    3  A    between atoms: C4_4  and  C7_7 
REMARK    4  A    between atoms: C8_8  and  O10_10 
ROOT
HETATM    1  C1  UNL     1     -35.914  13.679  -4.897  1.00 20.00     0.259 C 
HETATM    2  O9  UNL     1     -35.845  12.564  -4.400  1.00 20.00    -0.265 OA
ENDROOT
BRANCH   1   3
HETATM    3  C7  UNL     1     -35.972  14.975  -4.124  1.00 20.00     0.115 C 
BRANCH   3   4
HETATM    4  C4  UNL     1     -34.918  15.039  -3.033  1.00 20.00    -0.005 A 
HETATM    5  C2  UNL     1     -33.814  16.058  -3.104  1.00 20.00     0.005 A 
HETATM    6  C3  UNL     1     -34.895  16.191  -2.068  1.00 20.00     0.005 A 
ENDBRANCH   3   4
ENDBRANCH   1   3
BRANCH   1   7
HETATM    7  O10 UNL     1     -35.953  13.959  -6.234  1.00 20.00    -0.317 OA
BRANCH   7   8
HETATM    8  C8  UNL     1     -35.405  15.226  -6.614  1.00 20.00     0.123 C 
HETATM    9  C5  UNL     1     -33.957  15.037  -7.038  1.00 20.00     0.040 C 
HETATM   10  C6  UNL     1     -36.250  15.822  -7.729  1.00 20.00     0.040 C 
ENDBRANCH   7   8
ENDBRANCH   1   7
TORSDOF 4
ENDMDL
MODEL 6
REMARK VINA RESULT:      -4.5      1.300      4.785
REMARK  4 active torsions:
REMARK  status: ('A' for Active; 'I' for Inactive)
REMARK    1  A    between atoms: C1_1  and  C7_7 
REMARK    2  A    between atoms: C1_1  and  O10_10 
REMARK    3  A    between atoms: C4_4  and  C7_7 
REMARK    4  A    between atoms: C8_8  and  O10_10 
ROOT
HETATM    1  C1  UNL     1     -32.672   6.898   2.952  1.00 20.00     0.259 C 
HETATM    2  O9  UNL     1     -31.723   7.399   3.538  1.00 20.00    -0.265 OA
ENDROOT
BRANCH   1   3
HETATM    3  C7  UNL     1     -33.494   5.736   3.457  1.00 20.00     0.115 C 
BRANCH   3   4
HETATM    4  C4  UNL     1     -34.499   6.161   4.512  1.00 20.00    -0.005 A 
HETATM    5  C2  UNL     1     -34.815   5.253   5.669  1.00 20.00     0.005 A 
HETATM    6  C3  UNL     1     -34.038   6.520   5.897  1.00 20.00     0.005 A 
ENDBRANCH   3   4
ENDBRANCH   1   3
BRANCH   1   7
HETATM    7  O10 UNL     1     -33.162   7.292   1.739  1.00 20.00    -0.317 OA
BRANCH   7   8
HETATM    8  C8  UNL     1     -32.409   8.310   1.071  1.00 20.00     0.123 C 
HETATM    9  C5  UNL     1     -31.708   7.704  -0.135  1.00 20.00     0.040 C 
HETATM   10  C6  UNL     1     -33.343   9.443   0.674  1.00 20.00     0.040 C 
ENDBRANCH   7   8
ENDBRANCH   1   7
TORSDOF 4
ENDMDL
MODEL 7
REMARK VINA RESULT:      -4.4     10.336     11.376
REMARK  4 active torsions:
REMARK  status: ('A' for Active; 'I' for Inactive)
REMARK    1  A    between atoms: C1_1  and  C7_7 
REMARK    2  A    between atoms: C1_1  and  O10_10 
REMARK    3  A    between atoms: C4_4  and  C7_7 
REMARK    4  A    between atoms: C8_8  and  O10_10 
ROOT
HETATM    1  C1  UNL     1     -36.019  13.891  -4.879  1.00 20.00     0.259 C 
HETATM    2  O9  UNL     1     -36.024  12.723  -4.520  1.00 20.00    -0.265 OA
ENDROOT
BRANCH   1   3
HETATM    3  C7  UNL     1     -34.806  14.791  -4.903  1.00 20.00     0.115 C 
BRANCH   3   4
HETATM    4  C4  UNL     1     -34.139  14.889  -3.543  1.00 20.00    -0.005 A 
HETATM    5  C2  UNL     1     -33.380  16.130  -3.158  1.00 20.00     0.005 A 
HETATM    6  C3  UNL     1     -34.690  15.812  -2.493  1.00 20.00     0.005 A 
ENDBRANCH   3   4
ENDBRANCH   1   3
BRANCH   1   7
HETATM    7  O10 UNL     1     -37.102  14.597  -5.322  1.00 20.00    -0.317 OA
BRANCH   7   8
HETATM    8  C8  UNL     1     -37.803  15.343  -4.322  1.00 20.00     0.123 C 
HETATM    9  C5  UNL     1     -37.778  16.819  -4.689  1.00 20.00     0.040 C 
HETATM   10  C6  UNL     1     -39.223  14.812  -4.204  1.00 20.00     0.040 C 
ENDBRANCH   7   8
ENDBRANCH   1   7
TORSDOF 4
ENDMDL
MODEL 8
REMARK VINA RESULT:      -4.2     10.298     11.816
REMARK  4 active torsions:
REMARK  status: ('A' for Active; 'I' for Inactive)
REMARK    1  A    between atoms: C1_1  and  C7_7 
REMARK    2  A    between atoms: C1_1  and  O10_10 
REMARK    3  A    between atoms: C4_4  and  C7_7 
REMARK    4  A    between atoms: C8_8  and  O10_10 
ROOT
HETATM    1  C1  UNL     1     -33.755  14.214  -4.507  1.00 20.00     0.259 C 
HETATM    2  O9  UNL     1     -34.116  13.154  -4.016  1.00 20.00    -0.265 OA
ENDROOT
BRANCH   1   3
HETATM    3  C7  UNL     1     -33.429  15.468  -3.730  1.00 20.00     0.115 C 
BRANCH   3   4
HETATM    4  C4  UNL     1     -34.441  15.742  -2.633  1.00 20.00    -0.005 A 
HETATM    5  C2  UNL     1     -34.314  16.969  -1.772  1.00 20.00     0.005 A 
HETATM    6  C3  UNL     1     -35.429  16.866  -2.775  1.00 20.00     0.005 A 
ENDBRANCH   3   4
ENDBRANCH   1   3
BRANCH   1   7
HETATM    7  O10 UNL     1     -33.581  14.461  -5.840  1.00 20.00    -0.317 OA
BRANCH   7   8
HETATM    8  C8  UNL     1     -34.495  15.401  -6.416  1.00 20.00     0.123 C 
HETATM    9  C5  UNL     1     -33.995  15.803  -7.795  1.00 20.00     0.040 C 
HETATM   10  C6  UNL     1     -35.881  14.778  -6.475  1.00 20.00     0.040 C 
ENDBRANCH   7   8
ENDBRANCH   1   7
TORSDOF 4
ENDMDL
MODEL 9
REMARK VINA RESULT:      -4.1      1.495      1.960
REMARK  4 active torsions:
REMARK  status: ('A' for Active; 'I' for Inactive)
REMARK    1  A    between atoms: C1_1  and  C7_7 
REMARK    2  A    between atoms: C1_1  and  O10_10 
REMARK    3  A    between atoms: C4_4  and  C7_7 
REMARK    4  A    between atoms: C8_8  and  O10_10 
ROOT
HETATM    1  C1  UNL     1     -34.020   4.781   3.483  1.00 20.00     0.259 C 
HETATM    2  O9  UNL     1     -34.223   3.587   3.646  1.00 20.00    -0.265 OA
ENDROOT
BRANCH   1   3
HETATM    3  C7  UNL     1     -33.168   5.379   2.388  1.00 20.00     0.115 C 
BRANCH   3   4
HETATM    4  C4  UNL     1     -33.088   6.892   2.487  1.00 20.00    -0.005 A 
HETATM    5  C2  UNL     1     -31.794   7.560   2.867  1.00 20.00     0.005 A 
HETATM    6  C3  UNL     1     -32.318   7.678   1.463  1.00 20.00     0.005 A 
ENDBRANCH   3   4
ENDBRANCH   1   3
BRANCH   1   7
HETATM    7  O10 UNL     1     -34.521   5.792   4.255  1.00 20.00    -0.317 OA
BRANCH   7   8
HETATM    8  C8  UNL     1     -34.096   5.790   5.622  1.00 20.00     0.123 C 
HETATM    9  C5  UNL     1     -33.796   7.218   6.054  1.00 20.00     0.040 C 
HETATM   10  C6  UNL     1     -35.178   5.154   6.481  1.00 20.00     0.040 C 
ENDBRANCH   7   8
ENDBRANCH   1   7
TORSDOF 4
ENDMDL
