MODEL 1
REMARK VINA RESULT:      -4.0      0.000      0.000
REMARK  2 active torsions:
REMARK  status: ('A' for Active; 'I' for Inactive)
REMARK    1  A    between atoms: C1_1  and  C3_3 
REMARK       I    between atoms: C1_1  and  N9_9 
REMARK    2  A    between atoms: C8_8  and  N9_9 
ROOT
HETATM    1  C1  UNL     1     -35.028  14.583  -4.127  1.00 20.00     0.222 C 
HETATM    2  N9  UNL     1     -35.414  15.311  -5.236  1.00 20.00    -0.357 N 
HETATM    3  O10 UNL     1     -34.510  13.473  -4.130  1.00 20.00    -0.273 OA
HETATM    4  H25 UNL     1     -35.835  16.225  -5.093  1.00 20.00     0.162 HD
ENDROOT
BRANCH   1   5
HETATM    5  C3  UNL     1     -35.290  15.256  -2.850  1.00 20.00     0.082 A 
HETATM    6  C2  UNL     1     -35.592  16.733  -2.841  1.00 20.00     0.019 A 
HETATM    7  C4  UNL     1     -34.296  16.233  -2.268  1.00 20.00    -0.005 A 
HETATM    8  C5  UNL     1     -33.009  16.553  -2.946  1.00 20.00     0.011 C 
ENDBRANCH   1   5
BRANCH   2   9
HETATM    9  C8  UNL     1     -35.246  14.836  -6.591  1.00 20.00     0.076 C 
HETATM   10  C6  UNL     1     -33.807  15.073  -7.027  1.00 20.00     0.032 C 
HETATM   11  C7  UNL     1     -36.234  15.561  -7.493  1.00 20.00     0.032 C 
ENDBRANCH   2   9
TORSDOF 2
ENDMDL
MODEL 2
REMARK VINA RESULT:      -3.9     11.532     12.535
REMARK  2 active torsions:
REMARK  status: ('A' for Active; 'I' for Inactive)
REMARK    1  A    between atoms: C1_1  and  C3_3 
REMARK       I    between atoms: C1_1  and  N9_9 
REMARK    2  A    between atoms: C8_8  and  N9_9 
ROOT
HETATM    1  C1  UNL     1     -33.515   5.127   3.106  1.00 20.00     0.222 C 
HETATM    2  N9  UNL     1     -33.441   6.498   2.960  1.00 20.00    -0.357 N 
HETATM    3  O10 UNL     1     -32.738   4.302   2.641  1.00 20.00    -0.273 OA
HETATM    4  H25 UNL     1     -34.154   7.072   3.400  1.00 20.00     0.162 HD
ENDROOT
BRANCH   1   5
HETATM    5  C3  UNL     1     -34.656   4.673   3.909  1.00 20.00     0.082 A 
HETATM    6  C2  UNL     1     -35.800   5.620   4.169  1.00 20.00     0.019 A 
HETATM    7  C4  UNL     1     -34.895   5.215   5.297  1.00 20.00    -0.005 A 
HETATM    8  C5  UNL     1     -33.989   6.220   5.923  1.00 20.00     0.011 C 
ENDBRANCH   1   5
BRANCH   2   9
HETATM    9  C8  UNL     1     -32.395   7.157   2.209  1.00 20.00     0.076 C 
HETATM   10  C6  UNL     1     -31.410   7.793   3.180  1.00 20.00     0.032 C 
HETATM   11  C7  UNL     1     -33.026   8.193   1.290  1.00 20.00     0.032 C 
ENDBRANCH   2   9
TORSDOF 2
ENDMDL
MODEL 3
REMARK VINA RESULT:      -3.9      1.193      4.184
REMARK  2 active torsions:
REMARK  status: ('A' for Active; 'I' for Inactive)
REMARK    1  A    between atoms: C1_1  and  C3_3 
REMARK       I    between atoms: C1_1  and  N9_9 
REMARK    2  A    between atoms: C8_8  and  N9_9 
ROOT
HETATM    1  C1  UNL     1     -33.691  14.863  -4.997  1.00 20.00     0.222 C 
HETATM    2  N9  UNL     1     -33.620  16.076  -4.341  1.00 20.00    -0.357 N 
HETATM    3  O10 UNL     1     -33.608  13.753  -4.486  1.00 20.00    -0.273 OA
HETATM    4  H25 UNL     1     -33.705  16.929  -4.887  1.00 20.00     0.162 HD
ENDROOT
BRANCH   1   5
HETATM    5  C3  UNL     1     -33.886  14.979  -6.447  1.00 20.00     0.082 A 
HETATM    6  C2  UNL     1     -34.299  16.305  -7.033  1.00 20.00     0.019 A 
HETATM    7  C4  UNL     1     -35.266  15.155  -7.034  1.00 20.00    -0.005 A 
HETATM    8  C5  UNL     1     -36.488  15.209  -6.184  1.00 20.00     0.011 C 
ENDBRANCH   1   5
BRANCH   2   9
HETATM    9  C8  UNL     1     -33.433  16.192  -2.912  1.00 20.00     0.076 C 
HETATM   10  C6  UNL     1     -34.776  16.017  -2.217  1.00 20.00     0.032 C 
HETATM   11  C7  UNL     1     -32.812  17.546  -2.604  1.00 20.00     0.032 C 
ENDBRANCH   2   9
TORSDOF 2
ENDMDL
MODEL 4
REMARK VINA RESULT:      -3.8      2.216      3.328
REMARK  2 active torsions:
REMARK  status: ('A' for Active; 'I' for Inactive)
REMARK    1  A    between atoms: C1_1  and  C3_3 
REMARK       I    between atoms: C1_1  and  N9_9 
REMARK    2  A    between atoms: C8_8  and  N9_9 
ROOT
HETATM    1  C1  UNL     1     -36.553  14.476  -4.004  1.00 20.00     0.222 C 
HETATM    2  N9  UNL     1     -37.045  15.739  -3.739  1.00 20.00    -0.357 N 
HETATM    3  O10 UNL     1     -37.151  13.565  -4.563  1.00 20.00    -0.273 OA
HETATM    4  H25 UNL     1     -36.441  16.405  -3.266  1.00 20.00     0.162 HD
ENDROOT
BRANCH   1   5
HETATM    5  C3  UNL     1     -35.175  14.263  -3.547  1.00 20.00     0.082 A 
HETATM    6  C2  UNL     1     -34.297  15.457  -3.267  1.00 20.00     0.019 A 
HETATM    7  C4  UNL     1     -34.002  14.574  -4.446  1.00 20.00    -0.005 A 
HETATM    8  C5  UNL     1     -34.180  15.097  -5.830  1.00 20.00     0.011 C 
ENDBRANCH   1   5
BRANCH   2   9
HETATM    9  C8  UNL     1     -38.378  16.161  -4.105  1.00 20.00     0.076 C 
HETATM   10  C6  UNL     1     -38.368  16.657  -5.544  1.00 20.00     0.032 C 
HETATM   11  C7  UNL     1     -38.835  17.245  -3.140  1.00 20.00     0.032 C 
ENDBRANCH   2   9
TORSDOF 2
ENDMDL
MODEL 5
REMARK VINA RESULT:      -3.8     17.753     19.054
REMARK  2 active torsions:
REMARK  status: ('A' for Active; 'I' for Inactive)
REMARK    1  A    between atoms: C1_1  and  C3_3 
REMARK       I    between atoms: C1_1  and  N9_9 
REMARK    2  A    between atoms: C8_8  and  N9_9 
ROOT
HETATM    1  C1  UNL     1     -23.221  18.180  10.618  1.00 20.00     0.222 C 
HETATM    2  N9  UNL     1     -24.544  17.869  10.864  1.00 20.00    -0.357 N 
HETATM    3  O10 UNL     1     -22.269  17.940  11.351  1.00 20.00    -0.273 OA
HETATM    4  H25 UNL     1     -25.240  18.126  10.169  1.00 20.00     0.162 HD
ENDROOT
BRANCH   1   5
HETATM    5  C3  UNL     1     -22.996  18.865   9.340  1.00 20.00     0.082 A 
HETATM    6  C2  UNL     1     -23.835  18.492   8.144  1.00 20.00     0.019 A 
HETATM    7  C4  UNL     1     -22.375  18.140   8.170  1.00 20.00    -0.005 A 
HETATM    8  C5  UNL     1     -21.954  16.713   8.253  1.00 20.00     0.011 C 
ENDBRANCH   1   5
BRANCH   2   9
HETATM    9  C8  UNL     1     -24.987  17.193  12.062  1.00 20.00     0.076 C 
HETATM   10  C6  UNL     1     -24.790  15.693  11.891  1.00 20.00     0.032 C 
HETATM   11  C7  UNL     1     -26.447  17.542  12.314  1.00 20.00     0.032 C 
ENDBRANCH   2   9
TORSDOF 2
ENDMDL
MODEL 6
REMARK VINA RESULT:      -3.7      2.569      4.872
REMARK  2 active torsions:
REMARK  status: ('A' for Active; 'I' for Inactive)
REMARK    1  A    between atoms: C1_1  and  C3_3 
REMARK       I    between atoms: C1_1  and  N9_9 
REMARK    2  A    between atoms: C8_8  and  N9_9 
ROOT
HETATM    1  C1  UNL     1     -33.237  16.755  -3.457  1.00 20.00     0.222 C 
HETATM    2  N9  UNL     1     -32.894  16.936  -2.131  1.00 20.00    -0.357 N 
HETATM    3  O10 UNL     1     -33.536  17.633  -4.258  1.00 20.00    -0.273 OA
HETATM    4  H25 UNL     1     -32.666  16.118  -1.574  1.00 20.00     0.162 HD
ENDROOT
BRANCH   1   5
HETATM    5  C3  UNL     1     -33.223  15.354  -3.892  1.00 20.00     0.082 A 
HETATM    6  C2  UNL     1     -33.894  14.975  -5.188  1.00 20.00     0.019 A 
HETATM    7  C4  UNL     1     -34.485  14.525  -3.882  1.00 20.00    -0.005 A 
HETATM    8  C5  UNL     1     -35.792  15.076  -3.427  1.00 20.00     0.011 C 
ENDBRANCH   1   5
BRANCH   2   9
HETATM    9  C8  UNL     1     -32.843  18.235  -1.498  1.00 20.00     0.076 C 
HETATM   10  C6  UNL     1     -31.525  18.373  -0.749  1.00 20.00     0.032 C 
HETATM   11  C7  UNL     1     -34.037  18.376  -0.566  1.00 20.00     0.032 C 
ENDBRANCH   2   9
TORSDOF 2
ENDMDL
MODEL 7
REMARK VINA RESULT:      -3.6      1.969      2.417
REMARK  2 active torsions:
REMARK  status: ('A' for Active; 'I' for Inactive)
REMARK    1  A    between atoms: C1_1  and  C3_3 
REMARK       I    between atoms: C1_1  and  N9_9 
REMARK    2  A    between atoms: C8_8  and  N9_9 
ROOT
HETATM    1  C1  UNL     1     -35.294  14.890  -4.217  1.00 20.00     0.222 C 
HETATM    2  N9  UNL     1     -36.575  15.348  -3.975  1.00 20.00    -0.357 N 
HETATM    3  O10 UNL     1     -34.901  14.334  -5.236  1.00 20.00    -0.273 OA
HETATM    4  H25 UNL     1     -36.769  15.794  -3.083  1.00 20.00     0.162 HD
ENDROOT
BRANCH   1   5
HETATM    5  C3  UNL     1     -34.358  15.120  -3.112  1.00 20.00     0.082 A 
HETATM    6  C2  UNL     1     -34.690  16.154  -2.065  1.00 20.00     0.019 A 
HETATM    7  C4  UNL     1     -33.559  16.399  -3.024  1.00 20.00    -0.005 A 
HETATM    8  C5  UNL     1     -33.670  17.476  -4.047  1.00 20.00     0.011 C 
ENDBRANCH   1   5
BRANCH   2   9
HETATM    9  C8  UNL     1     -37.653  15.224  -4.930  1.00 20.00     0.076 C 
HETATM   10  C6  UNL     1     -37.766  16.518  -5.724  1.00 20.00     0.032 C 
HETATM   11  C7  UNL     1     -38.940  14.909  -4.183  1.00 20.00     0.032 C 
ENDBRANCH   2   9
TORSDOF 2
ENDMDL
MODEL 8
REMARK VINA RESULT:      -3.5      1.474      2.210
REMARK  2 active torsions:
REMARK  status: ('A' for Active; 'I' for Inactive)
REMARK    1  A    between atoms: C1_1  and  C3_3 
REMARK       I    between atoms: C1_1  and  N9_9 
REMARK    2  A    between atoms: C8_8  and  N9_9 
ROOT
HETATM    1  C1  UNL     1     -33.756  15.933  -4.087  1.00 20.00     0.222 C 
HETATM    2  N9  UNL     1     -34.896  15.800  -4.856  1.00 20.00    -0.357 N 
HETATM    3  O10 UNL     1     -32.892  15.083  -3.914  1.00 20.00    -0.273 OA
HETATM    4  H25 UNL     1     -35.535  16.587  -4.915  1.00 20.00     0.162 HD
ENDROOT
BRANCH   1   5
HETATM    5  C3  UNL     1     -33.623  17.242  -3.438  1.00 20.00     0.082 A 
HETATM    6  C2  UNL     1     -32.794  17.365  -2.185  1.00 20.00     0.019 A 
HETATM    7  C4  UNL     1     -34.287  17.523  -2.112  1.00 20.00    -0.005 A 
HETATM    8  C5  UNL     1     -35.110  16.502  -1.404  1.00 20.00     0.011 C 
ENDBRANCH   1   5
BRANCH   2   9
HETATM    9  C8  UNL     1     -35.222  14.593  -5.582  1.00 20.00     0.076 C 
HETATM   10  C6  UNL     1     -35.749  14.968  -6.961  1.00 20.00     0.032 C 
HETATM   11  C7  UNL     1     -36.248  13.800  -4.786  1.00 20.00     0.032 C 
ENDBRANCH   2   9
TORSDOF 2
ENDMDL
MODEL 9
REMARK VINA RESULT:      -3.5      3.389      4.766
REMARK  2 active torsions:
REMARK  status: ('A' for Active; 'I' for Inactive)
REMARK    1  A    between atoms: C1_1  and  C3_3 
REMARK       I    between atoms: C1_1  and  N9_9 
REMARK    2  A    between atoms: C8_8  and  N9_9 
ROOT
HETATM    1  C1  UNL     1     -33.185  18.540  -2.234  1.00 20.00     0.222 C 
HETATM    2  N9  UNL     1     -33.034  17.180  -2.421  1.00 20.00    -0.357 N 
HETATM    3  O10 UNL     1     -34.075  19.244  -2.696  1.00 20.00    -0.273 OA
HETATM    4  H25 UNL     1     -32.246  16.714  -1.979  1.00 20.00     0.162 HD
ENDROOT
BRANCH   1   5
HETATM    5  C3  UNL     1     -32.147  19.146  -1.392  1.00 20.00     0.082 A 
HETATM    6  C2  UNL     1     -31.249  18.256  -0.571  1.00 20.00     0.019 A 
HETATM    7  C4  UNL     1     -32.261  19.131   0.113  1.00 20.00    -0.005 A 
HETATM    8  C5  UNL     1     -33.424  18.517   0.815  1.00 20.00     0.011 C 
ENDBRANCH   1   5
BRANCH   2   9
HETATM    9  C8  UNL     1     -33.945  16.385  -3.214  1.00 20.00     0.076 C 
HETATM   10  C6  UNL     1     -35.020  15.804  -2.306  1.00 20.00     0.032 C 
HETATM   11  C7  UNL     1     -33.157  15.294  -3.923  1.00 20.00     0.032 C 
ENDBRANCH   2   9
TORSDOF 2
ENDMDL
