MODEL 1
REMARK VINA RESULT:      -4.3      0.000      0.000
REMARK  1 active torsions:
REMARK  status: ('A' for Active; 'I' for Inactive)
REMARK       I    between atoms: C1_1  and  N9_9 
REMARK    1  A    between atoms: C6_6  and  N9_9 
ROOT
HETATM    1  C2  UNL     1     -34.874  15.898  -2.108  1.00 20.00     0.002 C 
HETATM    2  C3  UNL     1     -33.681  16.809  -2.397  1.00 20.00     0.002 C 
HETATM    3  C4  UNL     1     -35.403  15.448  -3.467  1.00 20.00     0.031 C 
HETATM    4  C5  UNL     1     -33.547  16.865  -3.916  1.00 20.00     0.031 C 
HETATM    5  C6  UNL     1     -34.213  15.581  -4.424  1.00 20.00     0.029 C 
HETATM    6  C8  UNL     1     -33.271  14.377  -4.331  1.00 20.00     0.038 C 
ENDROOT
BRANCH   5   7
HETATM    7  N9  UNL     1     -34.659  15.733  -5.790  1.00 20.00    -0.353 N 
HETATM    8  C1  UNL     1     -35.473  14.818  -6.420  1.00 20.00     0.214 C 
HETATM    9  C7  UNL     1     -35.810  15.177  -7.829  1.00 20.00     0.117 C 
HETATM   10  O10 UNL     1     -35.921  13.783  -5.937  1.00 20.00    -0.274 OA
HETATM   11  H25 UNL     1     -34.359  16.551  -6.309  1.00 20.00     0.163 HD
ENDBRANCH   5   7
TORSDOF 1
ENDMDL
MODEL 2
REMARK VINA RESULT:      -4.3     18.204     18.930
REMARK  1 active torsions:
REMARK  status: ('A' for Active; 'I' for Inactive)
REMARK       I    between atoms: C1_1  and  N9_9 
REMARK    1  A    between atoms: C6_6  and  N9_9 
ROOT
HETATM    1  C2  UNL     1     -25.416  16.592  11.977  1.00 20.00     0.002 C 
HETATM    2  C3  UNL     1     -25.521  18.084  11.666  1.00 20.00     0.002 C 
HETATM    3  C4  UNL     1     -24.171  16.092  11.250  1.00 20.00     0.031 C 
HETATM    4  C5  UNL     1     -24.334  18.415  10.766  1.00 20.00     0.031 C 
HETATM    5  C6  UNL     1     -23.290  17.333  11.066  1.00 20.00     0.029 C 
HETATM    6  C8  UNL     1     -22.488  17.653  12.332  1.00 20.00     0.038 C 
ENDROOT
BRANCH   5   7
HETATM    7  N9  UNL     1     -22.381  17.166   9.956  1.00 20.00    -0.353 N 
HETATM    8  C1  UNL     1     -22.687  17.556   8.670  1.00 20.00     0.214 C 
HETATM    9  C7  UNL     1     -21.600  17.290   7.683  1.00 20.00     0.117 C 
HETATM   10  O10 UNL     1     -23.730  18.079   8.293  1.00 20.00    -0.274 OA
HETATM   11  H25 UNL     1     -21.476  16.744  10.130  1.00 20.00     0.163 HD
ENDBRANCH   5   7
TORSDOF 1
ENDMDL
MODEL 3
REMARK VINA RESULT:      -4.3      1.975      2.429
REMARK  1 active torsions:
REMARK  status: ('A' for Active; 'I' for Inactive)
REMARK       I    between atoms: C1_1  and  N9_9 
REMARK    1  A    between atoms: C6_6  and  N9_9 
ROOT
HETATM    1  C2  UNL     1     -33.500  16.678  -2.437  1.00 20.00     0.002 C 
HETATM    2  C3  UNL     1     -33.608  17.094  -3.904  1.00 20.00     0.002 C 
HETATM    3  C4  UNL     1     -34.811  15.975  -2.097  1.00 20.00     0.031 C 
HETATM    4  C5  UNL     1     -34.979  16.621  -4.379  1.00 20.00     0.031 C 
HETATM    5  C6  UNL     1     -35.354  15.471  -3.438  1.00 20.00     0.029 C 
HETATM    6  C8  UNL     1     -34.695  14.154  -3.860  1.00 20.00     0.038 C 
ENDROOT
BRANCH   5   7
HETATM    7  N9  UNL     1     -36.787  15.290  -3.384  1.00 20.00    -0.353 N 
HETATM    8  C1  UNL     1     -37.545  14.968  -4.489  1.00 20.00     0.214 C 
HETATM    9  C7  UNL     1     -39.002  14.829  -4.202  1.00 20.00     0.117 C 
HETATM   10  O10 UNL     1     -37.135  14.794  -5.632  1.00 20.00    -0.274 OA
HETATM   11  H25 UNL     1     -37.256  15.406  -2.493  1.00 20.00     0.163 HD
ENDBRANCH   5   7
TORSDOF 1
ENDMDL
MODEL 4
REMARK VINA RESULT:      -4.2     16.201     17.871
REMARK  1 active torsions:
REMARK  status: ('A' for Active; 'I' for Inactive)
REMARK       I    between atoms: C1_1  and  N9_9 
REMARK    1  A    between atoms: C6_6  and  N9_9 
ROOT
HETATM    1  C2  UNL     1     -23.913  16.314  11.546  1.00 20.00     0.002 C 
HETATM    2  C3  UNL     1     -24.251  17.583  12.329  1.00 20.00     0.002 C 
HETATM    3  C4  UNL     1     -24.283  16.600  10.093  1.00 20.00     0.031 C 
HETATM    4  C5  UNL     1     -24.808  18.574  11.310  1.00 20.00     0.031 C 
HETATM    5  C6  UNL     1     -24.235  18.126   9.961  1.00 20.00     0.029 C 
HETATM    6  C8  UNL     1     -22.805  18.634   9.754  1.00 20.00     0.038 C 
ENDROOT
BRANCH   5   7
HETATM    7  N9  UNL     1     -25.065  18.580   8.868  1.00 20.00    -0.353 N 
HETATM    8  C1  UNL     1     -24.601  18.710   7.578  1.00 20.00     0.214 C 
HETATM    9  C7  UNL     1     -25.631  19.193   6.612  1.00 20.00     0.117 C 
HETATM   10  O10 UNL     1     -23.466  18.471   7.181  1.00 20.00    -0.274 OA
HETATM   11  H25 UNL     1     -26.033  18.813   9.060  1.00 20.00     0.163 HD
ENDBRANCH   5   7
TORSDOF 1
ENDMDL
MODEL 5
REMARK VINA RESULT:      -4.1      3.438      5.185
REMARK  1 active torsions:
REMARK  status: ('A' for Active; 'I' for Inactive)
REMARK       I    between atoms: C1_1  and  N9_9 
REMARK    1  A    between atoms: C6_6  and  N9_9 
ROOT
HETATM    1  C2  UNL     1     -35.141  15.224  -3.100  1.00 20.00     0.002 C 
HETATM    2  C3  UNL     1     -33.863  15.364  -3.925  1.00 20.00     0.002 C 
HETATM    3  C4  UNL     1     -34.959  16.119  -1.877  1.00 20.00     0.031 C 
HETATM    4  C5  UNL     1     -32.970  16.338  -3.160  1.00 20.00     0.031 C 
HETATM    5  C6  UNL     1     -33.928  17.170  -2.301  1.00 20.00     0.029 C 
HETATM    6  C8  UNL     1     -34.570  18.305  -3.103  1.00 20.00     0.038 C 
ENDROOT
BRANCH   5   7
HETATM    7  N9  UNL     1     -33.247  17.724  -1.152  1.00 20.00    -0.353 N 
HETATM    8  C1  UNL     1     -32.224  18.640  -1.257  1.00 20.00     0.214 C 
HETATM    9  C7  UNL     1     -31.668  19.078   0.057  1.00 20.00     0.117 C 
HETATM   10  O10 UNL     1     -31.758  19.102  -2.293  1.00 20.00    -0.274 OA
HETATM   11  H25 UNL     1     -33.536  17.425  -0.228  1.00 20.00     0.163 HD
ENDBRANCH   5   7
TORSDOF 1
ENDMDL
MODEL 6
REMARK VINA RESULT:      -4.0     11.784     12.814
REMARK  1 active torsions:
REMARK  status: ('A' for Active; 'I' for Inactive)
REMARK       I    between atoms: C1_1  and  N9_9 
REMARK    1  A    between atoms: C6_6  and  N9_9 
ROOT
HETATM    1  C2  UNL     1     -42.084   4.313  -1.846  1.00 20.00     0.002 C 
HETATM    2  C3  UNL     1     -43.417   5.046  -1.994  1.00 20.00     0.002 C 
HETATM    3  C4  UNL     1     -41.142   5.285  -1.141  1.00 20.00     0.031 C 
HETATM    4  C5  UNL     1     -43.216   6.424  -1.371  1.00 20.00     0.031 C 
HETATM    5  C6  UNL     1     -42.057   6.251  -0.382  1.00 20.00     0.029 C 
HETATM    6  C8  UNL     1     -42.530   5.659   0.949  1.00 20.00     0.038 C 
ENDROOT
BRANCH   5   7
HETATM    7  N9  UNL     1     -41.393   7.511  -0.134  1.00 20.00    -0.353 N 
HETATM    8  C1  UNL     1     -42.064   8.648   0.258  1.00 20.00     0.214 C 
HETATM    9  C7  UNL     1     -41.179   9.833   0.459  1.00 20.00     0.117 C 
HETATM   10  O10 UNL     1     -43.271   8.757   0.448  1.00 20.00    -0.274 OA
HETATM   11  H25 UNL     1     -40.388   7.560  -0.255  1.00 20.00     0.163 HD
ENDBRANCH   5   7
TORSDOF 1
ENDMDL
MODEL 7
REMARK VINA RESULT:      -3.9      2.115      2.799
REMARK  1 active torsions:
REMARK  status: ('A' for Active; 'I' for Inactive)
REMARK       I    between atoms: C1_1  and  N9_9 
REMARK    1  A    between atoms: C6_6  and  N9_9 
ROOT
HETATM    1  C2  UNL     1     -33.293  15.425  -3.787  1.00 20.00     0.002 C 
HETATM    2  C3  UNL     1     -33.467  16.282  -2.533  1.00 20.00     0.002 C 
HETATM    3  C4  UNL     1     -34.698  15.029  -4.231  1.00 20.00     0.031 C 
HETATM    4  C5  UNL     1     -34.970  16.362  -2.281  1.00 20.00     0.031 C 
HETATM    5  C6  UNL     1     -35.620  16.104  -3.644  1.00 20.00     0.029 C 
HETATM    6  C8  UNL     1     -35.644  17.367  -4.511  1.00 20.00     0.038 C 
ENDROOT
BRANCH   5   7
HETATM    7  N9  UNL     1     -36.968  15.606  -3.491  1.00 20.00    -0.353 N 
HETATM    8  C1  UNL     1     -37.764  15.253  -4.559  1.00 20.00     0.214 C 
HETATM    9  C7  UNL     1     -39.118  14.763  -4.168  1.00 20.00     0.117 C 
HETATM   10  O10 UNL     1     -37.461  15.308  -5.746  1.00 20.00    -0.274 OA
HETATM   11  H25 UNL     1     -37.345  15.511  -2.555  1.00 20.00     0.163 HD
ENDBRANCH   5   7
TORSDOF 1
ENDMDL
MODEL 8
REMARK VINA RESULT:      -3.9      3.126      4.721
REMARK  1 active torsions:
REMARK  status: ('A' for Active; 'I' for Inactive)
REMARK       I    between atoms: C1_1  and  N9_9 
REMARK    1  A    between atoms: C6_6  and  N9_9 
ROOT
HETATM    1  C2  UNL     1     -34.105  14.559  -4.274  1.00 20.00     0.002 C 
HETATM    2  C3  UNL     1     -32.969  15.526  -3.942  1.00 20.00     0.002 C 
HETATM    3  C4  UNL     1     -35.178  14.783  -3.212  1.00 20.00     0.031 C 
HETATM    4  C5  UNL     1     -33.411  16.288  -2.696  1.00 20.00     0.031 C 
HETATM    5  C6  UNL     1     -34.941  16.208  -2.699  1.00 20.00     0.029 C 
HETATM    6  C8  UNL     1     -35.563  17.256  -3.626  1.00 20.00     0.038 C 
ENDROOT
BRANCH   5   7
HETATM    7  N9  UNL     1     -35.473  16.376  -1.365  1.00 20.00    -0.353 N 
HETATM    8  C1  UNL     1     -35.107  17.414  -0.537  1.00 20.00     0.214 C 
HETATM    9  C7  UNL     1     -35.782  17.391   0.794  1.00 20.00     0.117 C 
HETATM   10  O10 UNL     1     -34.311  18.310  -0.795  1.00 20.00    -0.274 OA
HETATM   11  H25 UNL     1     -36.146  15.699  -1.024  1.00 20.00     0.163 HD
ENDBRANCH   5   7
TORSDOF 1
ENDMDL
MODEL 9
REMARK VINA RESULT:      -3.9      2.098      3.130
REMARK  1 active torsions:
REMARK  status: ('A' for Active; 'I' for Inactive)
REMARK       I    between atoms: C1_1  and  N9_9 
REMARK    1  A    between atoms: C6_6  and  N9_9 
ROOT
HETATM    1  C2  UNL     1     -33.863  14.884  -5.651  1.00 20.00     0.002 C 
HETATM    2  C3  UNL     1     -33.658  14.683  -4.150  1.00 20.00     0.002 C 
HETATM    3  C4  UNL     1     -35.307  15.344  -5.826  1.00 20.00     0.031 C 
HETATM    4  C5  UNL     1     -34.989  15.032  -3.490  1.00 20.00     0.031 C 
HETATM    5  C6  UNL     1     -35.694  15.966  -4.480  1.00 20.00     0.029 C 
HETATM    6  C8  UNL     1     -35.194  17.408  -4.355  1.00 20.00     0.038 C 
ENDROOT
BRANCH   5   7
HETATM    7  N9  UNL     1     -37.127  15.941  -4.288  1.00 20.00    -0.353 N 
HETATM    8  C1  UNL     1     -37.867  14.779  -4.314  1.00 20.00     0.214 C 
HETATM    9  C7  UNL     1     -39.327  14.988  -4.090  1.00 20.00     0.117 C 
HETATM   10  O10 UNL     1     -37.440  13.644  -4.496  1.00 20.00    -0.274 OA
HETATM   11  H25 UNL     1     -37.609  16.818  -4.126  1.00 20.00     0.163 HD
ENDBRANCH   5   7
TORSDOF 1
ENDMDL
