MODEL 1
REMARK VINA RESULT:      -4.7      0.000      0.000
REMARK  1 active torsions:
REMARK  status: ('A' for Active; 'I' for Inactive)
REMARK    1  A    between atoms: C6_6  and  C9_9 
ROOT
HETATM    1  C1  UNL     1     -35.752  15.989  -5.415  1.00 20.00     0.085 C 
HETATM    2  C2  UNL     1     -33.287  14.638  -4.220  1.00 20.00     0.003 C 
HETATM    3  C3  UNL     1     -33.156  15.957  -3.455  1.00 20.00     0.005 C 
HETATM    4  C4  UNL     1     -34.713  14.073  -4.244  1.00 20.00     0.041 C 
HETATM    5  C5  UNL     1     -35.646  16.040  -2.929  1.00 20.00     0.045 C 
HETATM    6  C6  UNL     1     -34.211  16.087  -2.356  1.00 20.00    -0.012 C 
HETATM    7  C7  UNL     1     -35.787  15.163  -4.192  1.00 20.00     0.125 C 
HETATM    8  N10 UNL     1     -35.724  16.636  -6.377  1.00 20.00    -0.195 NA
HETATM    9 CL11 UNL     1     -37.412  14.391  -4.197  1.00 20.00    -0.103 Cl
ENDROOT
BRANCH   6  10
HETATM   10  C9  UNL     1     -33.999  17.357  -1.535  1.00 20.00     0.000 C 
HETATM   11  C8  UNL     1     -32.598  17.863  -1.655  1.00 20.00     0.005 C 
ENDBRANCH   6  10
TORSDOF 1
ENDMDL
MODEL 2
REMARK VINA RESULT:      -4.6     17.297     18.540
REMARK  1 active torsions:
REMARK  status: ('A' for Active; 'I' for Inactive)
REMARK    1  A    between atoms: C6_6  and  C9_9 
ROOT
HETATM    1  C1  UNL     1     -24.884  16.572  11.765  1.00 20.00     0.085 C 
HETATM    2  C2  UNL     1     -22.127  17.883  11.860  1.00 20.00     0.003 C 
HETATM    3  C3  UNL     1     -22.105  17.530  10.371  1.00 20.00     0.005 C 
HETATM    4  C4  UNL     1     -23.448  18.505  12.332  1.00 20.00     0.041 C 
HETATM    5  C5  UNL     1     -24.504  18.312  10.026  1.00 20.00     0.045 C 
HETATM    6  C6  UNL     1     -23.036  18.429   9.557  1.00 20.00    -0.012 C 
HETATM    7  C7  UNL     1     -24.658  18.012  11.532  1.00 20.00     0.125 C 
HETATM    8  N10 UNL     1     -25.062  15.440  11.948  1.00 20.00    -0.195 NA
HETATM    9 CL11 UNL     1     -26.141  18.823  12.148  1.00 20.00    -0.103 Cl
ENDROOT
BRANCH   6  10
HETATM   10  C9  UNL     1     -22.920  18.135   8.063  1.00 20.00     0.000 C 
HETATM   11  C8  UNL     1     -21.669  17.385   7.745  1.00 20.00     0.005 C 
ENDBRANCH   6  10
TORSDOF 1
ENDMDL
MODEL 3
REMARK VINA RESULT:      -4.5     17.576     18.505
REMARK  1 active torsions:
REMARK  status: ('A' for Active; 'I' for Inactive)
REMARK    1  A    between atoms: C6_6  and  C9_9 
ROOT
HETATM    1  C1  UNL     1     -22.321  17.807  11.455  1.00 20.00     0.085 C 
HETATM    2  C2  UNL     1     -24.674  15.860  11.527  1.00 20.00     0.003 C 
HETATM    3  C3  UNL     1     -25.403  17.046  12.164  1.00 20.00     0.005 C 
HETATM    4  C4  UNL     1     -23.839  16.234  10.296  1.00 20.00     0.041 C 
HETATM    5  C5  UNL     1     -24.434  18.699  10.488  1.00 20.00     0.045 C 
HETATM    6  C6  UNL     1     -25.717  18.139  11.142  1.00 20.00    -0.012 C 
HETATM    7  C7  UNL     1     -23.296  17.665  10.355  1.00 20.00     0.125 C 
HETATM    8  N10 UNL     1     -21.555  17.918  12.319  1.00 20.00    -0.195 NA
HETATM    9 CL11 UNL     1     -22.360  18.003   8.856  1.00 20.00    -0.103 Cl
ENDROOT
BRANCH   6  10
HETATM   10  C9  UNL     1     -26.538  19.263  11.771  1.00 20.00     0.000 C 
HETATM   11  C8  UNL     1     -27.962  19.221  11.323  1.00 20.00     0.005 C 
ENDBRANCH   6  10
TORSDOF 1
ENDMDL
MODEL 4
REMARK VINA RESULT:      -4.3      2.227      3.529
REMARK  1 active torsions:
REMARK  status: ('A' for Active; 'I' for Inactive)
REMARK    1  A    between atoms: C6_6  and  C9_9 
ROOT
HETATM    1  C1  UNL     1     -37.280  14.836  -4.156  1.00 20.00     0.085 C 
HETATM    2  C2  UNL     1     -34.269  14.751  -3.653  1.00 20.00     0.003 C 
HETATM    3  C3  UNL     1     -34.191  14.920  -5.172  1.00 20.00     0.005 C 
HETATM    4  C4  UNL     1     -35.279  15.686  -2.975  1.00 20.00     0.041 C 
HETATM    5  C5  UNL     1     -36.004  16.707  -5.189  1.00 20.00     0.045 C 
HETATM    6  C6  UNL     1     -34.565  16.336  -5.610  1.00 20.00    -0.012 C 
HETATM    7  C7  UNL     1     -36.466  16.036  -3.878  1.00 20.00     0.125 C 
HETATM    8  N10 UNL     1     -37.920  13.894  -4.374  1.00 20.00    -0.195 NA
HETATM    9 CL11 UNL     1     -37.567  17.153  -2.997  1.00 20.00    -0.103 Cl
ENDROOT
BRANCH   6  10
HETATM   10  C9  UNL     1     -34.378  16.516  -7.115  1.00 20.00     0.000 C 
HETATM   11  C8  UNL     1     -33.869  15.269  -7.759  1.00 20.00     0.005 C 
ENDBRANCH   6  10
TORSDOF 1
ENDMDL
MODEL 5
REMARK VINA RESULT:      -4.3     15.598     17.619
REMARK  1 active torsions:
REMARK  status: ('A' for Active; 'I' for Inactive)
REMARK    1  A    between atoms: C6_6  and  C9_9 
ROOT
HETATM    1  C1  UNL     1     -24.346  16.601  10.799  1.00 20.00     0.085 C 
HETATM    2  C2  UNL     1     -21.843  17.608   9.367  1.00 20.00     0.003 C 
HETATM    3  C3  UNL     1     -22.795  17.742   8.176  1.00 20.00     0.005 C 
HETATM    4  C4  UNL     1     -22.416  18.146  10.685  1.00 20.00     0.041 C 
HETATM    5  C5  UNL     1     -24.635  18.768   9.607  1.00 20.00     0.045 C 
HETATM    6  C6  UNL     1     -23.758  18.918   8.344  1.00 20.00    -0.012 C 
HETATM    7  C7  UNL     1     -23.941  18.021  10.766  1.00 20.00     0.125 C 
HETATM    8  N10 UNL     1     -24.664  15.486  10.825  1.00 20.00    -0.195 NA
HETATM    9 CL11 UNL     1     -24.505  18.703  12.332  1.00 20.00    -0.103 Cl
ENDROOT
BRANCH   6  10
HETATM   10  C9  UNL     1     -24.626  19.102   7.101  1.00 20.00     0.000 C 
HETATM   11  C8  UNL     1     -26.074  19.207   7.452  1.00 20.00     0.005 C 
ENDBRANCH   6  10
TORSDOF 1
ENDMDL
MODEL 6
REMARK VINA RESULT:      -4.3      2.082      2.896
REMARK  1 active torsions:
REMARK  status: ('A' for Active; 'I' for Inactive)
REMARK    1  A    between atoms: C6_6  and  C9_9 
ROOT
HETATM    1  C1  UNL     1     -35.474  13.912  -4.822  1.00 20.00     0.085 C 
HETATM    2  C2  UNL     1     -36.895  16.595  -4.481  1.00 20.00     0.003 C 
HETATM    3  C3  UNL     1     -36.269  16.546  -3.086  1.00 20.00     0.005 C 
HETATM    4  C4  UNL     1     -35.928  16.214  -5.610  1.00 20.00     0.041 C 
HETATM    5  C5  UNL     1     -34.023  15.755  -3.988  1.00 20.00     0.045 C 
HETATM    6  C6  UNL     1     -34.762  16.803  -3.127  1.00 20.00    -0.012 C 
HETATM    7  C7  UNL     1     -34.860  15.210  -5.165  1.00 20.00     0.125 C 
HETATM    8  N10 UNL     1     -35.958  12.893  -4.554  1.00 20.00    -0.195 NA
HETATM    9 CL11 UNL     1     -33.769  14.857  -6.552  1.00 20.00    -0.103 Cl
ENDROOT
BRANCH   6  10
HETATM   10  C9  UNL     1     -34.173  16.858  -1.718  1.00 20.00     0.000 C 
HETATM   11  C8  UNL     1     -35.240  16.977  -0.680  1.00 20.00     0.005 C 
ENDBRANCH   6  10
TORSDOF 1
ENDMDL
MODEL 7
REMARK VINA RESULT:      -4.3      0.954      1.117
REMARK  1 active torsions:
REMARK  status: ('A' for Active; 'I' for Inactive)
REMARK    1  A    between atoms: C6_6  and  C9_9 
ROOT
HETATM    1  C1  UNL     1     -36.214  16.153  -5.614  1.00 20.00     0.085 C 
HETATM    2  C2  UNL     1     -34.788  13.936  -4.071  1.00 20.00     0.003 C 
HETATM    3  C3  UNL     1     -34.083  15.111  -3.388  1.00 20.00     0.005 C 
HETATM    4  C4  UNL     1     -36.306  14.118  -4.210  1.00 20.00     0.041 C 
HETATM    5  C5  UNL     1     -36.250  16.425  -3.140  1.00 20.00     0.045 C 
HETATM    6  C6  UNL     1     -35.009  15.849  -2.421  1.00 20.00    -0.012 C 
HETATM    7  C7  UNL     1     -36.719  15.587  -4.348  1.00 20.00     0.125 C 
HETATM    8  N10 UNL     1     -35.818  16.598  -6.609  1.00 20.00    -0.195 NA
HETATM    9 CL11 UNL     1     -38.511  15.685  -4.475  1.00 20.00    -0.103 Cl
ENDROOT
BRANCH   6  10
HETATM   10  C9  UNL     1     -34.260  16.948  -1.670  1.00 20.00     0.000 C 
HETATM   11  C8  UNL     1     -32.980  17.305  -2.351  1.00 20.00     0.005 C 
ENDBRANCH   6  10
TORSDOF 1
ENDMDL
MODEL 8
REMARK VINA RESULT:      -4.2      1.642      2.384
REMARK  1 active torsions:
REMARK  status: ('A' for Active; 'I' for Inactive)
REMARK    1  A    between atoms: C6_6  and  C9_9 
ROOT
HETATM    1  C1  UNL     1     -35.163  16.483  -4.536  1.00 20.00     0.085 C 
HETATM    2  C2  UNL     1     -32.873  17.636  -2.877  1.00 20.00     0.003 C 
HETATM    3  C3  UNL     1     -34.009  18.131  -1.980  1.00 20.00     0.005 C 
HETATM    4  C4  UNL     1     -33.027  16.177  -3.326  1.00 20.00     0.041 C 
HETATM    5  C5  UNL     1     -35.247  15.910  -2.115  1.00 20.00     0.045 C 
HETATM    6  C6  UNL     1     -34.650  16.992  -1.187  1.00 20.00    -0.012 C 
HETATM    7  C7  UNL     1     -34.490  15.743  -3.450  1.00 20.00     0.125 C 
HETATM    8  N10 UNL     1     -35.691  17.064  -5.390  1.00 20.00    -0.195 NA
HETATM    9 CL11 UNL     1     -34.553  14.017  -3.953  1.00 20.00    -0.103 Cl
ENDROOT
BRANCH   6  10
HETATM   10  C9  UNL     1     -35.708  17.519  -0.219  1.00 20.00     0.000 C 
HETATM   11  C8  UNL     1     -35.152  17.707   1.154  1.00 20.00     0.005 C 
ENDBRANCH   6  10
TORSDOF 1
ENDMDL
MODEL 9
REMARK VINA RESULT:      -4.1      2.047      3.134
REMARK  1 active torsions:
REMARK  status: ('A' for Active; 'I' for Inactive)
REMARK    1  A    between atoms: C6_6  and  C9_9 
ROOT
HETATM    1  C1  UNL     1     -37.363  14.958  -4.561  1.00 20.00     0.085 C 
HETATM    2  C2  UNL     1     -36.552  17.017  -2.456  1.00 20.00     0.003 C 
HETATM    3  C3  UNL     1     -35.255  16.205  -2.421  1.00 20.00     0.005 C 
HETATM    4  C4  UNL     1     -37.060  17.315  -3.873  1.00 20.00     0.041 C 
HETATM    5  C5  UNL     1     -35.152  16.030  -4.959  1.00 20.00     0.045 C 
HETATM    6  C6  UNL     1     -34.403  16.435  -3.670  1.00 20.00    -0.012 C 
HETATM    7  C7  UNL     1     -36.681  16.227  -4.882  1.00 20.00     0.125 C 
HETATM    8  N10 UNL     1     -37.900  13.961  -4.308  1.00 20.00    -0.195 NA
HETATM    9 CL11 UNL     1     -37.300  16.690  -6.507  1.00 20.00    -0.103 Cl
ENDROOT
BRANCH   6  10
HETATM   10  C9  UNL     1     -33.066  15.703  -3.568  1.00 20.00     0.000 C 
HETATM   11  C8  UNL     1     -33.047  14.472  -4.414  1.00 20.00     0.005 C 
ENDBRANCH   6  10
TORSDOF 1
ENDMDL
