MODEL 1
REMARK VINA RESULT:      -4.6      0.000      0.000
REMARK  3 active torsions:
REMARK  status: ('A' for Active; 'I' for Inactive)
REMARK    1  A    between atoms: C5_5  and  C9_9 
REMARK    2  A    between atoms: C6_6  and  C10_10 
REMARK    3  A    between atoms: C10_10  and  O11_11 
ROOT
HETATM    1  C1  UNL     1     -22.360  17.401   9.635  1.00 20.00     0.001 C 
HETATM    2  C2  UNL     1     -23.212  17.051  10.852  1.00 20.00     0.005 C 
HETATM    3  C3  UNL     1     -22.563  18.851   9.203  1.00 20.00     0.007 C 
HETATM    4  C4  UNL     1     -24.895  18.816  10.183  1.00 20.00     0.011 C 
HETATM    5  C5  UNL     1     -24.697  17.355  10.616  1.00 20.00    -0.014 C 
HETATM    6  C6  UNL     1     -24.038  19.208   8.969  1.00 20.00     0.014 C 
ENDROOT
BRANCH   6   7
HETATM    7  C10 UNL     1     -24.572  18.589   7.674  1.00 20.00     0.118 C 
HETATM    8  C8  UNL     1     -25.929  19.156   7.303  1.00 20.00     0.040 C 
BRANCH   7   9
HETATM    9  O11 UNL     1     -23.645  18.845   6.627  1.00 20.00    -0.396 OA
HETATM   10  H31 UNL     1     -23.095  18.049   6.539  1.00 20.00     0.210 HD
ENDBRANCH   7   9
ENDBRANCH   6   7
BRANCH   5  11
HETATM   11  C9  UNL     1     -25.513  17.054  11.874  1.00 20.00     0.000 C 
HETATM   12  C7  UNL     1     -26.441  18.175  12.209  1.00 20.00     0.005 C 
ENDBRANCH   5  11
TORSDOF 3
ENDMDL
MODEL 2
REMARK VINA RESULT:      -4.6     15.242     17.711
REMARK  3 active torsions:
REMARK  status: ('A' for Active; 'I' for Inactive)
REMARK    1  A    between atoms: C5_5  and  C9_9 
REMARK    2  A    between atoms: C6_6  and  C10_10 
REMARK    3  A    between atoms: C10_10  and  O11_11 
ROOT
HETATM    1  C1  UNL     1     -36.277  15.099  -3.433  1.00 20.00     0.001 C 
HETATM    2  C2  UNL     1     -35.201  15.850  -2.655  1.00 20.00     0.005 C 
HETATM    3  C3  UNL     1     -35.715  13.851  -4.111  1.00 20.00     0.007 C 
HETATM    4  C4  UNL     1     -33.433  14.936  -4.214  1.00 20.00     0.011 C 
HETATM    5  C5  UNL     1     -33.994  16.195  -3.536  1.00 20.00    -0.014 C 
HETATM    6  C6  UNL     1     -34.495  14.145  -4.994  1.00 20.00     0.014 C 
ENDROOT
BRANCH   6   7
HETATM    7  C10 UNL     1     -34.891  14.855  -6.292  1.00 20.00     0.118 C 
HETATM    8  C8  UNL     1     -33.686  15.115  -7.175  1.00 20.00     0.040 C 
BRANCH   7   9
HETATM    9  O11 UNL     1     -35.829  14.046  -6.989  1.00 20.00    -0.396 OA
HETATM   10  H31 UNL     1     -36.189  14.590  -7.708  1.00 20.00     0.210 HD
ENDBRANCH   7   9
ENDBRANCH   6   7
BRANCH   5  11
HETATM   11  C9  UNL     1     -32.909  16.889  -2.712  1.00 20.00     0.000 C 
HETATM   12  C7  UNL     1     -33.485  17.602  -1.534  1.00 20.00     0.005 C 
ENDBRANCH   5  11
TORSDOF 3
ENDMDL
MODEL 3
REMARK VINA RESULT:      -4.5     15.073     17.496
REMARK  3 active torsions:
REMARK  status: ('A' for Active; 'I' for Inactive)
REMARK    1  A    between atoms: C5_5  and  C9_9 
REMARK    2  A    between atoms: C6_6  and  C10_10 
REMARK    3  A    between atoms: C10_10  and  O11_11 
ROOT
HETATM    1  C1  UNL     1     -33.323  14.618  -4.523  1.00 20.00     0.001 C 
HETATM    2  C2  UNL     1     -33.107  15.658  -3.427  1.00 20.00     0.005 C 
HETATM    3  C3  UNL     1     -34.372  15.074  -5.535  1.00 20.00     0.007 C 
HETATM    4  C4  UNL     1     -35.470  16.495  -3.753  1.00 20.00     0.011 C 
HETATM    5  C5  UNL     1     -34.420  16.035  -2.731  1.00 20.00    -0.014 C 
HETATM    6  C6  UNL     1     -35.702  15.477  -4.881  1.00 20.00     0.014 C 
ENDROOT
BRANCH   6   7
HETATM    7  C10 UNL     1     -36.486  14.256  -4.392  1.00 20.00     0.118 C 
HETATM    8  C8  UNL     1     -37.964  14.563  -4.252  1.00 20.00     0.040 C 
BRANCH   7   9
HETATM    9  O11 UNL     1     -36.304  13.193  -5.318  1.00 20.00    -0.396 OA
HETATM   10  H31 UNL     1     -35.742  12.533  -4.880  1.00 20.00     0.210 HD
ENDBRANCH   7   9
ENDBRANCH   6   7
BRANCH   5  11
HETATM   11  C9  UNL     1     -34.178  17.124  -1.685  1.00 20.00     0.000 C 
HETATM   12  C7  UNL     1     -32.805  17.701  -1.798  1.00 20.00     0.005 C 
ENDBRANCH   5  11
TORSDOF 3
ENDMDL
MODEL 4
REMARK VINA RESULT:      -4.5      1.786      2.840
REMARK  3 active torsions:
REMARK  status: ('A' for Active; 'I' for Inactive)
REMARK    1  A    between atoms: C5_5  and  C9_9 
REMARK    2  A    between atoms: C6_6  and  C10_10 
REMARK    3  A    between atoms: C10_10  and  O11_11 
ROOT
HETATM    1  C1  UNL     1     -24.897  15.868  11.951  1.00 20.00     0.001 C 
HETATM    2  C2  UNL     1     -25.895  16.969  12.299  1.00 20.00     0.005 C 
HETATM    3  C3  UNL     1     -23.470  16.406  11.869  1.00 20.00     0.007 C 
HETATM    4  C4  UNL     1     -24.366  18.689  11.250  1.00 20.00     0.011 C 
HETATM    5  C5  UNL     1     -25.803  18.152  11.327  1.00 20.00    -0.014 C 
HETATM    6  C6  UNL     1     -23.332  17.602  10.917  1.00 20.00     0.014 C 
ENDROOT
BRANCH   6   7
HETATM    7  C10 UNL     1     -23.414  17.171   9.450  1.00 20.00     0.118 C 
HETATM    8  C8  UNL     1     -23.336  18.362   8.514  1.00 20.00     0.040 C 
BRANCH   7   9
HETATM    9  O11 UNL     1     -22.346  16.276   9.174  1.00 20.00    -0.396 OA
HETATM   10  H31 UNL     1     -22.509  15.474   9.698  1.00 20.00     0.210 HD
ENDBRANCH   7   9
ENDBRANCH   6   7
BRANCH   5  11
HETATM   11  C9  UNL     1     -26.769  19.263  11.741  1.00 20.00     0.000 C 
HETATM   12  C7  UNL     1     -28.188  18.893  11.458  1.00 20.00     0.005 C 
ENDBRANCH   5  11
TORSDOF 3
ENDMDL
MODEL 5
REMARK VINA RESULT:      -4.2     15.612     18.100
REMARK  3 active torsions:
REMARK  status: ('A' for Active; 'I' for Inactive)
REMARK    1  A    between atoms: C5_5  and  C9_9 
REMARK    2  A    between atoms: C6_6  and  C10_10 
REMARK    3  A    between atoms: C10_10  and  O11_11 
ROOT
HETATM    1  C1  UNL     1     -37.296  15.971  -3.948  1.00 20.00     0.001 C 
HETATM    2  C2  UNL     1     -36.290  16.448  -2.904  1.00 20.00     0.005 C 
HETATM    3  C3  UNL     1     -37.069  14.508  -4.322  1.00 20.00     0.007 C 
HETATM    4  C4  UNL     1     -34.621  14.735  -3.728  1.00 20.00     0.011 C 
HETATM    5  C5  UNL     1     -34.843  16.209  -3.354  1.00 20.00    -0.014 C 
HETATM    6  C6  UNL     1     -35.629  14.217  -4.766  1.00 20.00     0.014 C 
ENDROOT
BRANCH   6   7
HETATM    7  C10 UNL     1     -35.343  14.775  -6.163  1.00 20.00     0.118 C 
HETATM    8  C8  UNL     1     -33.853  14.890  -6.422  1.00 20.00     0.040 C 
BRANCH   7   9
HETATM    9  O11 UNL     1     -35.931  13.915  -7.129  1.00 20.00    -0.396 OA
HETATM   10  H31 UNL     1     -36.741  13.558  -6.731  1.00 20.00     0.210 HD
ENDBRANCH   7   9
ENDBRANCH   6   7
BRANCH   5  11
HETATM   11  C9  UNL     1     -33.863  16.638  -2.261  1.00 20.00     0.000 C 
HETATM   12  C7  UNL     1     -34.575  17.207  -1.078  1.00 20.00     0.005 C 
ENDBRANCH   5  11
TORSDOF 3
ENDMDL
MODEL 6
REMARK VINA RESULT:      -4.2     12.337     15.009
REMARK  3 active torsions:
REMARK  status: ('A' for Active; 'I' for Inactive)
REMARK    1  A    between atoms: C5_5  and  C9_9 
REMARK    2  A    between atoms: C6_6  and  C10_10 
REMARK    3  A    between atoms: C10_10  and  O11_11 
ROOT
HETATM    1  C1  UNL     1     -35.389  16.954  -0.703  1.00 20.00     0.001 C 
HETATM    2  C2  UNL     1     -35.064  16.199  -1.989  1.00 20.00     0.005 C 
HETATM    3  C3  UNL     1     -34.982  18.423  -0.794  1.00 20.00     0.007 C 
HETATM    4  C4  UNL     1     -33.184  17.821  -2.468  1.00 20.00     0.011 C 
HETATM    5  C5  UNL     1     -33.587  16.341  -2.377  1.00 20.00    -0.014 C 
HETATM    6  C6  UNL     1     -33.512  18.616  -1.194  1.00 20.00     0.014 C 
ENDROOT
BRANCH   6   7
HETATM    7  C10 UNL     1     -32.561  18.267  -0.046  1.00 20.00     0.118 C 
HETATM    8  C8  UNL     1     -31.110  18.422  -0.458  1.00 20.00     0.040 C 
BRANCH   7   9
HETATM    9  O11 UNL     1     -32.839  19.121   1.055  1.00 20.00    -0.396 OA
HETATM   10  H31 UNL     1     -32.128  18.984   1.703  1.00 20.00     0.210 HD
ENDBRANCH   7   9
ENDBRANCH   6   7
BRANCH   5  11
HETATM   11  C9  UNL     1     -33.309  15.628  -3.700  1.00 20.00     0.000 C 
HETATM   12  C7  UNL     1     -34.307  14.547  -3.963  1.00 20.00     0.005 C 
ENDBRANCH   5  11
TORSDOF 3
ENDMDL
MODEL 7
REMARK VINA RESULT:      -4.2     14.654     17.022
REMARK  3 active torsions:
REMARK  status: ('A' for Active; 'I' for Inactive)
REMARK    1  A    between atoms: C5_5  and  C9_9 
REMARK    2  A    between atoms: C6_6  and  C10_10 
REMARK    3  A    between atoms: C10_10  and  O11_11 
ROOT
HETATM    1  C1  UNL     1     -33.229  15.849  -3.658  1.00 20.00     0.001 C 
HETATM    2  C2  UNL     1     -33.593  16.522  -2.337  1.00 20.00     0.005 C 
HETATM    3  C3  UNL     1     -34.184  16.255  -4.779  1.00 20.00     0.007 C 
HETATM    4  C4  UNL     1     -36.006  16.671  -3.075  1.00 20.00     0.011 C 
HETATM    5  C5  UNL     1     -35.052  16.259  -1.944  1.00 20.00    -0.014 C 
HETATM    6  C6  UNL     1     -35.659  16.024  -4.425  1.00 20.00     0.014 C 
ENDROOT
BRANCH   6   7
HETATM    7  C10 UNL     1     -36.022  14.536  -4.451  1.00 20.00     0.118 C 
HETATM    8  C8  UNL     1     -37.513  14.323  -4.275  1.00 20.00     0.040 C 
BRANCH   7   9
HETATM    9  O11 UNL     1     -35.604  13.984  -5.692  1.00 20.00    -0.396 OA
HETATM   10  H31 UNL     1     -34.750  14.394  -5.908  1.00 20.00     0.210 HD
ENDBRANCH   7   9
ENDBRANCH   6   7
BRANCH   5  11
HETATM   11  C9  UNL     1     -35.401  16.999  -0.653  1.00 20.00     0.000 C 
HETATM   12  C7  UNL     1     -34.307  17.928  -0.238  1.00 20.00     0.005 C 
ENDBRANCH   5  11
TORSDOF 3
ENDMDL
MODEL 8
REMARK VINA RESULT:      -4.2     15.860     18.294
REMARK  3 active torsions:
REMARK  status: ('A' for Active; 'I' for Inactive)
REMARK    1  A    between atoms: C5_5  and  C9_9 
REMARK    2  A    between atoms: C6_6  and  C10_10 
REMARK    3  A    between atoms: C10_10  and  O11_11 
ROOT
HETATM    1  C1  UNL     1     -35.365  13.747  -4.338  1.00 20.00     0.001 C 
HETATM    2  C2  UNL     1     -34.484  14.649  -3.478  1.00 20.00     0.005 C 
HETATM    3  C3  UNL     1     -36.171  14.551  -5.355  1.00 20.00     0.007 C 
HETATM    4  C4  UNL     1     -36.103  16.560  -3.821  1.00 20.00     0.011 C 
HETATM    5  C5  UNL     1     -35.296  15.755  -2.792  1.00 20.00    -0.014 C 
HETATM    6  C6  UNL     1     -36.991  15.680  -4.716  1.00 20.00     0.014 C 
ENDROOT
BRANCH   6   7
HETATM    7  C10 UNL     1     -38.205  15.140  -3.956  1.00 20.00     0.118 C 
HETATM    8  C8  UNL     1     -39.380  16.095  -4.031  1.00 20.00     0.040 C 
BRANCH   7   9
HETATM    9  O11 UNL     1     -38.572  13.885  -4.512  1.00 20.00    -0.396 OA
HETATM   10  H31 UNL     1     -39.446  13.663  -4.150  1.00 20.00     0.210 HD
ENDBRANCH   7   9
ENDBRANCH   6   7
BRANCH   5  11
HETATM   11  C9  UNL     1     -34.376  16.677  -1.992  1.00 20.00     0.000 C 
HETATM   12  C7  UNL     1     -33.050  16.846  -2.658  1.00 20.00     0.005 C 
ENDBRANCH   5  11
TORSDOF 3
ENDMDL
MODEL 9
REMARK VINA RESULT:      -4.2     12.742     15.281
REMARK  3 active torsions:
REMARK  status: ('A' for Active; 'I' for Inactive)
REMARK    1  A    between atoms: C5_5  and  C9_9 
REMARK    2  A    between atoms: C6_6  and  C10_10 
REMARK    3  A    between atoms: C10_10  and  O11_11 
ROOT
HETATM    1  C1  UNL     1     -35.328  16.067  -2.311  1.00 20.00     0.001 C 
HETATM    2  C2  UNL     1     -35.091  16.682  -0.935  1.00 20.00     0.005 C 
HETATM    3  C3  UNL     1     -34.013  15.761  -3.026  1.00 20.00     0.007 C 
HETATM    4  C4  UNL     1     -32.878  17.613  -1.731  1.00 20.00     0.011 C 
HETATM    5  C5  UNL     1     -34.199  17.928  -1.012  1.00 20.00    -0.014 C 
HETATM    6  C6  UNL     1     -33.080  16.976  -3.115  1.00 20.00     0.014 C 
ENDROOT
BRANCH   6   7
HETATM    7  C10 UNL     1     -33.575  17.997  -4.142  1.00 20.00     0.118 C 
HETATM    8  C8  UNL     1     -32.674  19.217  -4.195  1.00 20.00     0.040 C 
BRANCH   7   9
HETATM    9  O11 UNL     1     -33.616  17.379  -5.421  1.00 20.00    -0.396 OA
HETATM   10  H31 UNL     1     -32.847  17.706  -5.916  1.00 20.00     0.210 HD
ENDBRANCH   7   9
ENDBRANCH   6   7
BRANCH   5  11
HETATM   11  C9  UNL     1     -33.929  18.481   0.388  1.00 20.00     0.000 C 
HETATM   12  C7  UNL     1     -32.465  18.571   0.671  1.00 20.00     0.005 C 
ENDBRANCH   5  11
TORSDOF 3
ENDMDL
