MODEL 1
REMARK VINA RESULT:      -4.6      0.000      0.000
REMARK  4 active torsions:
REMARK  status: ('A' for Active; 'I' for Inactive)
REMARK    1  A    between atoms: C1_1  and  C6_6 
REMARK    2  A    between atoms: C1_1  and  C11_11 
REMARK    3  A    between atoms: C7_7  and  C12_12 
REMARK    4  A    between atoms: C11_11  and  C13_13 
ROOT
HETATM    1  C2  UNL     1     -32.503  17.766  -1.929  1.00 20.00     0.001 C 
HETATM    2  C3  UNL     1     -33.427  18.931  -1.580  1.00 20.00     0.012 C 
HETATM    3  C4  UNL     1     -33.200  16.727  -2.802  1.00 20.00     0.005 C 
HETATM    4  C5  UNL     1     -35.435  17.381  -1.819  1.00 20.00     0.016 C 
HETATM    5  C6  UNL     1     -34.768  18.488  -1.004  1.00 20.00     0.056 C 
HETATM    6  C7  UNL     1     -34.487  16.215  -2.143  1.00 20.00    -0.014 C 
ENDROOT
BRANCH   5   7
HETATM    7  C1  UNL     1     -34.616  17.997   0.428  1.00 20.00     0.131 C 
HETATM    8  O14 UNL     1     -35.235  17.013   0.827  1.00 20.00    -0.298 OA
BRANCH   7   9
HETATM    9  C11 UNL     1     -33.632  18.765   1.297  1.00 20.00     0.082 C 
BRANCH   9  10
HETATM   10  C13 UNL     1     -32.480  17.905   1.837  1.00 20.00    -0.016 C 
HETATM   11  C9  UNL     1     -32.542  17.782   3.362  1.00 20.00     0.010 C 
HETATM   12  C10 UNL     1     -31.136  18.509   1.423  1.00 20.00     0.010 C 
ENDBRANCH   9  10
ENDBRANCH   7   9
ENDBRANCH   5   7
BRANCH   6  13
HETATM   13  C12 UNL     1     -35.181  15.193  -3.043  1.00 20.00     0.000 C 
HETATM   14  C8  UNL     1     -34.223  14.561  -3.998  1.00 20.00     0.005 C 
ENDBRANCH   6  13
TORSDOF 4
ENDMDL
MODEL 2
REMARK VINA RESULT:      -4.6      1.817      2.935
REMARK  4 active torsions:
REMARK  status: ('A' for Active; 'I' for Inactive)
REMARK    1  A    between atoms: C1_1  and  C6_6 
REMARK    2  A    between atoms: C1_1  and  C11_11 
REMARK    3  A    between atoms: C7_7  and  C12_12 
REMARK    4  A    between atoms: C11_11  and  C13_13 
ROOT
HETATM    1  C2  UNL     1     -33.143  16.715  -2.483  1.00 20.00     0.001 C 
HETATM    2  C3  UNL     1     -32.713  18.155  -2.760  1.00 20.00     0.012 C 
HETATM    3  C4  UNL     1     -34.532  16.645  -1.858  1.00 20.00     0.005 C 
HETATM    4  C5  UNL     1     -34.213  18.944  -0.859  1.00 20.00     0.016 C 
HETATM    5  C6  UNL     1     -32.857  19.072  -1.551  1.00 20.00     0.056 C 
HETATM    6  C7  UNL     1     -34.614  17.487  -0.579  1.00 20.00    -0.014 C 
ENDROOT
BRANCH   5   7
HETATM    7  C1  UNL     1     -31.772  18.799  -0.520  1.00 20.00     0.131 C 
HETATM    8  O14 UNL     1     -30.713  18.265  -0.843  1.00 20.00    -0.298 OA
BRANCH   7   9
HETATM    9  C11 UNL     1     -32.066  19.263   0.899  1.00 20.00     0.082 C 
BRANCH   9  10
HETATM   10  C13 UNL     1     -31.425  18.385   1.983  1.00 20.00    -0.016 C 
HETATM   11  C9  UNL     1     -32.487  17.705   2.851  1.00 20.00     0.010 C 
HETATM   12  C10 UNL     1     -30.502  19.229   2.865  1.00 20.00     0.010 C 
ENDBRANCH   9  10
ENDBRANCH   7   9
ENDBRANCH   5   7
BRANCH   6  13
HETATM   13  C12 UNL     1     -36.019  17.421   0.018  1.00 20.00     0.000 C 
HETATM   14  C8  UNL     1     -36.016  17.775   1.469  1.00 20.00     0.005 C 
ENDBRANCH   6  13
TORSDOF 4
ENDMDL
MODEL 3
REMARK VINA RESULT:      -4.5      2.255      5.963
REMARK  4 active torsions:
REMARK  status: ('A' for Active; 'I' for Inactive)
REMARK    1  A    between atoms: C1_1  and  C6_6 
REMARK    2  A    between atoms: C1_1  and  C11_11 
REMARK    3  A    between atoms: C7_7  and  C12_12 
REMARK    4  A    between atoms: C11_11  and  C13_13 
ROOT
HETATM    1  C2  UNL     1     -32.796  17.670  -2.620  1.00 20.00     0.001 C 
HETATM    2  C3  UNL     1     -32.942  16.279  -3.235  1.00 20.00     0.012 C 
HETATM    3  C4  UNL     1     -33.454  17.757  -1.247  1.00 20.00     0.005 C 
HETATM    4  C5  UNL     1     -35.079  15.934  -1.894  1.00 20.00     0.016 C 
HETATM    5  C6  UNL     1     -34.378  15.767  -3.241  1.00 20.00     0.056 C 
HETATM    6  C7  UNL     1     -34.930  17.346  -1.306  1.00 20.00    -0.014 C 
ENDROOT
BRANCH   5   7
HETATM    7  C1  UNL     1     -35.210  16.475  -4.300  1.00 20.00     0.131 C 
HETATM    8  O14 UNL     1     -36.304  16.962  -4.023  1.00 20.00    -0.298 OA
BRANCH   7   9
HETATM    9  C11 UNL     1     -34.586  16.575  -5.684  1.00 20.00     0.082 C 
BRANCH   9  10
HETATM   10  C13 UNL     1     -34.428  15.221  -6.392  1.00 20.00    -0.016 C 
HETATM   11  C9  UNL     1     -33.871  15.393  -7.807  1.00 20.00     0.010 C 
HETATM   12  C10 UNL     1     -35.776  14.499  -6.452  1.00 20.00     0.010 C 
ENDBRANCH   9  10
ENDBRANCH   7   9
ENDBRANCH   5   7
BRANCH   6  13
HETATM   13  C12 UNL     1     -35.564  17.419   0.083  1.00 20.00     0.000 C 
HETATM   14  C8  UNL     1     -34.577  17.854   1.116  1.00 20.00     0.005 C 
ENDBRANCH   6  13
TORSDOF 4
ENDMDL
MODEL 4
REMARK VINA RESULT:      -4.5      2.612      5.024
REMARK  4 active torsions:
REMARK  status: ('A' for Active; 'I' for Inactive)
REMARK    1  A    between atoms: C1_1  and  C6_6 
REMARK    2  A    between atoms: C1_1  and  C11_11 
REMARK    3  A    between atoms: C7_7  and  C12_12 
REMARK    4  A    between atoms: C11_11  and  C13_13 
ROOT
HETATM    1  C2  UNL     1     -36.641  14.644  -4.997  1.00 20.00     0.001 C 
HETATM    2  C3  UNL     1     -35.727  13.750  -4.162  1.00 20.00     0.012 C 
HETATM    3  C4  UNL     1     -36.021  14.990  -6.347  1.00 20.00     0.005 C 
HETATM    4  C5  UNL     1     -33.706  14.727  -5.367  1.00 20.00     0.016 C 
HETATM    5  C6  UNL     1     -34.306  14.289  -4.031  1.00 20.00     0.056 C 
HETATM    6  C7  UNL     1     -34.641  15.637  -6.180  1.00 20.00    -0.014 C 
ENDROOT
BRANCH   5   7
HETATM    7  C1  UNL     1     -34.253  15.473  -3.077  1.00 20.00     0.131 C 
HETATM    8  O14 UNL     1     -35.168  15.689  -2.286  1.00 20.00    -0.298 OA
BRANCH   7   9
HETATM    9  C11 UNL     1     -32.995  16.326  -3.140  1.00 20.00     0.082 C 
BRANCH   9  10
HETATM   10  C13 UNL     1     -33.225  17.800  -2.775  1.00 20.00    -0.016 C 
HETATM   11  C9  UNL     1     -32.950  18.720  -3.967  1.00 20.00     0.010 C 
HETATM   12  C10 UNL     1     -32.329  18.196  -1.600  1.00 20.00     0.010 C 
ENDBRANCH   9  10
ENDBRANCH   7   9
ENDBRANCH   5   7
BRANCH   6  13
HETATM   13  C12 UNL     1     -34.027  15.955  -7.543  1.00 20.00     0.000 C 
HETATM   14  C8  UNL     1     -34.009  17.425  -7.808  1.00 20.00     0.005 C 
ENDBRANCH   6  13
TORSDOF 4
ENDMDL
MODEL 5
REMARK VINA RESULT:      -4.4      2.241      5.801
REMARK  4 active torsions:
REMARK  status: ('A' for Active; 'I' for Inactive)
REMARK    1  A    between atoms: C1_1  and  C6_6 
REMARK    2  A    between atoms: C1_1  and  C11_11 
REMARK    3  A    between atoms: C7_7  and  C12_12 
REMARK    4  A    between atoms: C11_11  and  C13_13 
ROOT
HETATM    1  C2  UNL     1     -35.194  16.794  -1.000  1.00 20.00     0.001 C 
HETATM    2  C3  UNL     1     -35.708  16.934  -2.431  1.00 20.00     0.012 C 
HETATM    3  C4  UNL     1     -34.074  17.784  -0.698  1.00 20.00     0.005 C 
HETATM    4  C5  UNL     1     -33.428  17.821  -3.140  1.00 20.00     0.016 C 
HETATM    5  C6  UNL     1     -34.600  16.901  -3.478  1.00 20.00     0.056 C 
HETATM    6  C7  UNL     1     -32.921  17.649  -1.699  1.00 20.00    -0.014 C 
ENDROOT
BRANCH   5   7
HETATM    7  C1  UNL     1     -34.058  15.491  -3.662  1.00 20.00     0.131 C 
HETATM    8  O14 UNL     1     -32.874  15.299  -3.929  1.00 20.00    -0.298 OA
BRANCH   7   9
HETATM    9  C11 UNL     1     -35.053  14.360  -3.452  1.00 20.00     0.082 C 
BRANCH   9  10
HETATM   10  C13 UNL     1     -35.882  14.024  -4.701  1.00 20.00    -0.016 C 
HETATM   11  C9  UNL     1     -35.346  14.748  -5.938  1.00 20.00     0.010 C 
HETATM   12  C10 UNL     1     -37.347  14.401  -4.476  1.00 20.00     0.010 C 
ENDBRANCH   9  10
ENDBRANCH   7   9
ENDBRANCH   5   7
BRANCH   6  13
HETATM   13  C12 UNL     1     -31.821  18.665  -1.393  1.00 20.00     0.000 C 
HETATM   14  C8  UNL     1     -31.084  18.316  -0.141  1.00 20.00     0.005 C 
ENDBRANCH   6  13
TORSDOF 4
ENDMDL
MODEL 6
REMARK VINA RESULT:      -4.3      2.572      6.248
REMARK  4 active torsions:
REMARK  status: ('A' for Active; 'I' for Inactive)
REMARK    1  A    between atoms: C1_1  and  C6_6 
REMARK    2  A    between atoms: C1_1  and  C11_11 
REMARK    3  A    between atoms: C7_7  and  C12_12 
REMARK    4  A    between atoms: C11_11  and  C13_13 
ROOT
HETATM    1  C2  UNL     1     -33.385  15.422  -4.210  1.00 20.00     0.001 C 
HETATM    2  C3  UNL     1     -34.494  14.470  -3.764  1.00 20.00     0.012 C 
HETATM    3  C4  UNL     1     -32.892  16.298  -3.064  1.00 20.00     0.005 C 
HETATM    4  C5  UNL     1     -35.148  16.123  -1.940  1.00 20.00     0.016 C 
HETATM    5  C6  UNL     1     -35.633  15.170  -3.031  1.00 20.00     0.056 C 
HETATM    6  C7  UNL     1     -34.044  17.079  -2.419  1.00 20.00    -0.014 C 
ENDROOT
BRANCH   5   7
HETATM    7  C1  UNL     1     -36.506  15.959  -3.996  1.00 20.00     0.131 C 
HETATM    8  O14 UNL     1     -36.920  17.078  -3.703  1.00 20.00    -0.298 OA
BRANCH   7   9
HETATM    9  C11 UNL     1     -36.785  15.298  -5.337  1.00 20.00     0.082 C 
BRANCH   9  10
HETATM   10  C13 UNL     1     -36.279  16.103  -6.543  1.00 20.00    -0.016 C 
HETATM   11  C9  UNL     1     -37.440  16.691  -7.349  1.00 20.00     0.010 C 
HETATM   12  C10 UNL     1     -35.422  15.213  -7.446  1.00 20.00     0.010 C 
ENDBRANCH   9  10
ENDBRANCH   7   9
ENDBRANCH   5   7
BRANCH   6  13
HETATM   13  C12 UNL     1     -33.532  17.932  -1.259  1.00 20.00     0.000 C 
HETATM   14  C8  UNL     1     -32.061  18.172  -1.360  1.00 20.00     0.005 C 
ENDBRANCH   6  13
TORSDOF 4
ENDMDL
MODEL 7
REMARK VINA RESULT:      -4.3      1.954      5.663
REMARK  4 active torsions:
REMARK  status: ('A' for Active; 'I' for Inactive)
REMARK    1  A    between atoms: C1_1  and  C6_6 
REMARK    2  A    between atoms: C1_1  and  C11_11 
REMARK    3  A    between atoms: C7_7  and  C12_12 
REMARK    4  A    between atoms: C11_11  and  C13_13 
ROOT
HETATM    1  C2  UNL     1     -32.960  17.060  -3.029  1.00 20.00     0.001 C 
HETATM    2  C3  UNL     1     -33.736  15.745  -2.984  1.00 20.00     0.012 C 
HETATM    3  C4  UNL     1     -32.932  17.752  -1.671  1.00 20.00     0.005 C 
HETATM    4  C5  UNL     1     -35.123  16.656  -1.052  1.00 20.00     0.016 C 
HETATM    5  C6  UNL     1     -35.125  15.883  -2.369  1.00 20.00     0.056 C 
HETATM    6  C7  UNL     1     -34.348  17.982  -1.130  1.00 20.00    -0.014 C 
ENDROOT
BRANCH   5   7
HETATM    7  C1  UNL     1     -36.083  16.578  -3.325  1.00 20.00     0.131 C 
HETATM    8  O14 UNL     1     -37.032  17.233  -2.903  1.00 20.00    -0.298 OA
BRANCH   7   9
HETATM    9  C11 UNL     1     -35.764  16.443  -4.807  1.00 20.00     0.082 C 
BRANCH   9  10
HETATM   10  C13 UNL     1     -36.526  15.306  -5.504  1.00 20.00    -0.016 C 
HETATM   11  C9  UNL     1     -36.891  14.192  -4.519  1.00 20.00     0.010 C 
HETATM   12  C10 UNL     1     -35.684  14.731  -6.645  1.00 20.00     0.010 C 
ENDBRANCH   9  10
ENDBRANCH   7   9
ENDBRANCH   5   7
BRANCH   6  13
HETATM   13  C12 UNL     1     -34.297  18.655   0.241  1.00 20.00     0.000 C 
HETATM   14  C8  UNL     1     -32.946  18.532   0.865  1.00 20.00     0.005 C 
ENDBRANCH   6  13
TORSDOF 4
ENDMDL
MODEL 8
REMARK VINA RESULT:      -4.3      3.300      6.603
REMARK  4 active torsions:
REMARK  status: ('A' for Active; 'I' for Inactive)
REMARK    1  A    between atoms: C1_1  and  C6_6 
REMARK    2  A    between atoms: C1_1  and  C11_11 
REMARK    3  A    between atoms: C7_7  and  C12_12 
REMARK    4  A    between atoms: C11_11  and  C13_13 
ROOT
HETATM    1  C2  UNL     1     -33.196  14.529  -4.402  1.00 20.00     0.001 C 
HETATM    2  C3  UNL     1     -34.345  13.605  -4.003  1.00 20.00     0.012 C 
HETATM    3  C4  UNL     1     -33.131  15.771  -3.519  1.00 20.00     0.005 C 
HETATM    4  C5  UNL     1     -35.617  15.616  -3.095  1.00 20.00     0.016 C 
HETATM    5  C6  UNL     1     -35.688  14.319  -3.900  1.00 20.00     0.056 C 
HETATM    6  C7  UNL     1     -34.462  16.533  -3.526  1.00 20.00    -0.014 C 
ENDROOT
BRANCH   5   7
HETATM    7  C1  UNL     1     -36.244  14.647  -5.278  1.00 20.00     0.131 C 
HETATM    8  O14 UNL     1     -35.964  13.955  -6.253  1.00 20.00    -0.298 OA
BRANCH   7   9
HETATM    9  C11 UNL     1     -37.186  15.839  -5.351  1.00 20.00     0.082 C 
BRANCH   9  10
HETATM   10  C13 UNL     1     -37.093  16.622  -6.669  1.00 20.00    -0.016 C 
HETATM   11  C9  UNL     1     -35.795  17.429  -6.749  1.00 20.00     0.010 C 
HETATM   12  C10 UNL     1     -38.293  17.561  -6.808  1.00 20.00     0.010 C 
ENDBRANCH   9  10
ENDBRANCH   7   9
ENDBRANCH   5   7
BRANCH   6  13
HETATM   13  C12 UNL     1     -34.383  17.761  -2.620  1.00 20.00     0.000 C 
HETATM   14  C8  UNL     1     -33.274  17.641  -1.627  1.00 20.00     0.005 C 
ENDBRANCH   6  13
TORSDOF 4
ENDMDL
MODEL 9
REMARK VINA RESULT:      -4.2      2.697      5.778
REMARK  4 active torsions:
REMARK  status: ('A' for Active; 'I' for Inactive)
REMARK    1  A    between atoms: C1_1  and  C6_6 
REMARK    2  A    between atoms: C1_1  and  C11_11 
REMARK    3  A    between atoms: C7_7  and  C12_12 
REMARK    4  A    between atoms: C11_11  and  C13_13 
ROOT
HETATM    1  C2  UNL     1     -32.877  16.799  -3.385  1.00 20.00     0.001 C 
HETATM    2  C3  UNL     1     -33.626  15.476  -3.538  1.00 20.00     0.012 C 
HETATM    3  C4  UNL     1     -33.000  17.363  -1.973  1.00 20.00     0.005 C 
HETATM    4  C5  UNL     1     -35.219  16.189  -1.683  1.00 20.00     0.016 C 
HETATM    5  C6  UNL     1     -35.072  15.540  -3.059  1.00 20.00     0.056 C 
HETATM    6  C7  UNL     1     -34.468  17.524  -1.561  1.00 20.00    -0.014 C 
ENDROOT
BRANCH   5   7
HETATM    7  C1  UNL     1     -35.944  16.309  -4.040  1.00 20.00     0.131 C 
HETATM    8  O14 UNL     1     -35.591  16.473  -5.206  1.00 20.00    -0.298 OA
BRANCH   7   9
HETATM    9  C11 UNL     1     -37.274  16.812  -3.500  1.00 20.00     0.082 C 
BRANCH   9  10
HETATM   10  C13 UNL     1     -38.493  16.312  -4.291  1.00 20.00    -0.016 C 
HETATM   11  C9  UNL     1     -39.793  16.917  -3.755  1.00 20.00     0.010 C 
HETATM   12  C10 UNL     1     -38.570  14.785  -4.229  1.00 20.00     0.010 C 
ENDBRANCH   9  10
ENDBRANCH   7   9
ENDBRANCH   5   7
BRANCH   6  13
HETATM   13  C12 UNL     1     -34.570  18.069  -0.136  1.00 20.00     0.000 C 
HETATM   14  C8  UNL     1     -35.460  17.223   0.714  1.00 20.00     0.005 C 
ENDBRANCH   6  13
TORSDOF 4
ENDMDL
