MODEL 1
REMARK VINA RESULT:      -4.9      0.000      0.000
REMARK  3 active torsions:
REMARK  status: ('A' for Active; 'I' for Inactive)
REMARK    1  A    between atoms: C1_1  and  C6_6 
REMARK    2  A    between atoms: C1_1  and  C10_10 
REMARK    3  A    between atoms: C7_7  and  C11_11 
ROOT
HETATM    1  C2  UNL     1     -35.383  17.260  -0.846  1.00 20.00     0.001 C 
HETATM    2  C3  UNL     1     -34.126  17.727  -0.116  1.00 20.00     0.012 C 
HETATM    3  C4  UNL     1     -35.066  16.171  -1.871  1.00 20.00     0.005 C 
HETATM    4  C5  UNL     1     -32.723  17.088  -2.118  1.00 20.00     0.016 C 
HETATM    5  C6  UNL     1     -33.053  18.176  -1.100  1.00 20.00     0.055 C 
HETATM    6  C7  UNL     1     -33.983  16.621  -2.861  1.00 20.00    -0.014 C 
ENDROOT
BRANCH   5   7
HETATM    7  C1  UNL     1     -31.792  18.462  -0.306  1.00 20.00     0.130 C 
HETATM    8  O12 UNL     1     -30.695  18.519  -0.857  1.00 20.00    -0.298 OA
BRANCH   7   9
HETATM    9  C10 UNL     1     -31.976  18.668   1.187  1.00 20.00     0.074 C 
HETATM   10  C8  UNL     1     -30.670  18.967   1.900  1.00 20.00     0.013 C 
ENDBRANCH   7   9
ENDBRANCH   5   7
BRANCH   6  11
HETATM   11  C11 UNL     1     -33.647  15.497  -3.840  1.00 20.00     0.000 C 
HETATM   12  C9  UNL     1     -34.650  14.393  -3.776  1.00 20.00     0.005 C 
ENDBRANCH   6  11
TORSDOF 3
ENDMDL
MODEL 2
REMARK VINA RESULT:      -4.9      2.332      5.249
REMARK  3 active torsions:
REMARK  status: ('A' for Active; 'I' for Inactive)
REMARK    1  A    between atoms: C1_1  and  C6_6 
REMARK    2  A    between atoms: C1_1  and  C10_10 
REMARK    3  A    between atoms: C7_7  and  C11_11 
ROOT
HETATM    1  C2  UNL     1     -35.562  16.767  -1.543  1.00 20.00     0.001 C 
HETATM    2  C3  UNL     1     -35.417  15.985  -2.846  1.00 20.00     0.012 C 
HETATM    3  C4  UNL     1     -34.551  17.909  -1.456  1.00 20.00     0.005 C 
HETATM    4  C5  UNL     1     -32.975  16.627  -2.961  1.00 20.00     0.016 C 
HETATM    5  C6  UNL     1     -33.988  15.488  -3.033  1.00 20.00     0.055 C 
HETATM    6  C7  UNL     1     -33.112  17.410  -1.647  1.00 20.00    -0.014 C 
ENDROOT
BRANCH   5   7
HETATM    7  C1  UNL     1     -33.893  14.874  -4.417  1.00 20.00     0.130 C 
HETATM    8  O12 UNL     1     -33.407  13.757  -4.584  1.00 20.00    -0.298 OA
BRANCH   7   9
HETATM    9  C10 UNL     1     -34.429  15.718  -5.560  1.00 20.00     0.074 C 
HETATM   10  C8  UNL     1     -34.056  15.161  -6.922  1.00 20.00     0.013 C 
ENDBRANCH   7   9
ENDBRANCH   5   7
BRANCH   6  11
HETATM   11  C11 UNL     1     -32.128  18.578  -1.609  1.00 20.00     0.000 C 
HETATM   12  C9  UNL     1     -31.189  18.471  -0.453  1.00 20.00     0.005 C 
ENDBRANCH   6  11
TORSDOF 3
ENDMDL
MODEL 3
REMARK VINA RESULT:      -4.8      2.532      5.443
REMARK  3 active torsions:
REMARK  status: ('A' for Active; 'I' for Inactive)
REMARK    1  A    between atoms: C1_1  and  C6_6 
REMARK    2  A    between atoms: C1_1  and  C10_10 
REMARK    3  A    between atoms: C7_7  and  C11_11 
ROOT
HETATM    1  C2  UNL     1     -32.793  17.692  -2.639  1.00 20.00     0.001 C 
HETATM    2  C3  UNL     1     -32.911  16.354  -3.365  1.00 20.00     0.012 C 
HETATM    3  C4  UNL     1     -33.467  17.650  -1.268  1.00 20.00     0.005 C 
HETATM    4  C5  UNL     1     -35.040  15.854  -2.099  1.00 20.00     0.016 C 
HETATM    5  C6  UNL     1     -34.366  15.910  -3.466  1.00 20.00     0.055 C 
HETATM    6  C7  UNL     1     -34.931  17.201  -1.368  1.00 20.00    -0.014 C 
ENDROOT
BRANCH   5   7
HETATM    7  C1  UNL     1     -34.379  14.508  -4.045  1.00 20.00     0.130 C 
HETATM    8  O12 UNL     1     -33.335  13.947  -4.370  1.00 20.00    -0.298 OA
BRANCH   7   9
HETATM    9  C10 UNL     1     -35.744  13.859  -4.192  1.00 20.00     0.074 C 
HETATM   10  C8  UNL     1     -36.639  14.596  -5.171  1.00 20.00     0.013 C 
ENDBRANCH   7   9
ENDBRANCH   5   7
BRANCH   6  11
HETATM   11  C11 UNL     1     -35.565  17.116   0.019  1.00 20.00     0.000 C 
HETATM   12  C9  UNL     1     -34.723  17.790   1.052  1.00 20.00     0.005 C 
ENDBRANCH   6  11
TORSDOF 3
ENDMDL
MODEL 4
REMARK VINA RESULT:      -4.7      1.921      5.112
REMARK  3 active torsions:
REMARK  status: ('A' for Active; 'I' for Inactive)
REMARK    1  A    between atoms: C1_1  and  C6_6 
REMARK    2  A    between atoms: C1_1  and  C10_10 
REMARK    3  A    between atoms: C7_7  and  C11_11 
ROOT
HETATM    1  C2  UNL     1     -35.379  17.074  -0.679  1.00 20.00     0.001 C 
HETATM    2  C3  UNL     1     -35.498  16.399  -2.043  1.00 20.00     0.012 C 
HETATM    3  C4  UNL     1     -34.324  18.179  -0.688  1.00 20.00     0.005 C 
HETATM    4  C5  UNL     1     -33.091  16.984  -2.544  1.00 20.00     0.016 C 
HETATM    5  C6  UNL     1     -34.145  15.882  -2.520  1.00 20.00     0.055 C 
HETATM    6  C7  UNL     1     -32.962  17.661  -1.171  1.00 20.00    -0.014 C 
ENDROOT
BRANCH   5   7
HETATM    7  C1  UNL     1     -34.320  15.381  -3.941  1.00 20.00     0.130 C 
HETATM    8  O12 UNL     1     -34.139  16.126  -4.903  1.00 20.00    -0.298 OA
BRANCH   7   9
HETATM    9  C10 UNL     1     -34.728  13.927  -4.092  1.00 20.00     0.074 C 
HETATM   10  C8  UNL     1     -36.168  13.766  -4.542  1.00 20.00     0.013 C 
ENDBRANCH   7   9
ENDBRANCH   5   7
BRANCH   6  11
HETATM   11  C11 UNL     1     -31.941  18.795  -1.222  1.00 20.00     0.000 C 
HETATM   12  C9  UNL     1     -30.997  18.739  -0.066  1.00 20.00     0.005 C 
ENDBRANCH   6  11
TORSDOF 3
ENDMDL
MODEL 5
REMARK VINA RESULT:      -4.6      2.414      3.674
REMARK  3 active torsions:
REMARK  status: ('A' for Active; 'I' for Inactive)
REMARK    1  A    between atoms: C1_1  and  C6_6 
REMARK    2  A    between atoms: C1_1  and  C10_10 
REMARK    3  A    between atoms: C7_7  and  C11_11 
ROOT
HETATM    1  C2  UNL     1     -32.717  15.259  -3.977  1.00 20.00     0.001 C 
HETATM    2  C3  UNL     1     -33.156  16.505  -3.212  1.00 20.00     0.012 C 
HETATM    3  C4  UNL     1     -33.890  14.605  -4.707  1.00 20.00     0.005 C 
HETATM    4  C5  UNL     1     -35.484  15.549  -2.988  1.00 20.00     0.016 C 
HETATM    5  C6  UNL     1     -34.306  16.190  -2.262  1.00 20.00     0.055 C 
HETATM    6  C7  UNL     1     -35.049  14.290  -3.752  1.00 20.00    -0.014 C 
ENDROOT
BRANCH   5   7
HETATM    7  C1  UNL     1     -34.786  17.502  -1.672  1.00 20.00     0.130 C 
HETATM    8  O12 UNL     1     -35.398  18.320  -2.358  1.00 20.00    -0.298 OA
BRANCH   7   9
HETATM    9  C10 UNL     1     -34.466  17.733  -0.206  1.00 20.00     0.074 C 
HETATM   10  C8  UNL     1     -35.587  17.288   0.714  1.00 20.00     0.013 C 
ENDBRANCH   7   9
ENDBRANCH   5   7
BRANCH   6  11
HETATM   11  C11 UNL     1     -36.227  13.687  -4.515  1.00 20.00     0.000 C 
HETATM   12  C9  UNL     1     -37.462  14.512  -4.364  1.00 20.00     0.005 C 
ENDBRANCH   6  11
TORSDOF 3
ENDMDL
MODEL 6
REMARK VINA RESULT:      -4.6      2.064      3.588
REMARK  3 active torsions:
REMARK  status: ('A' for Active; 'I' for Inactive)
REMARK    1  A    between atoms: C1_1  and  C6_6 
REMARK    2  A    between atoms: C1_1  and  C10_10 
REMARK    3  A    between atoms: C7_7  and  C11_11 
ROOT
HETATM    1  C2  UNL     1     -32.810  15.130  -4.151  1.00 20.00     0.001 C 
HETATM    2  C3  UNL     1     -33.161  16.296  -3.230  1.00 20.00     0.012 C 
HETATM    3  C4  UNL     1     -34.034  14.631  -4.917  1.00 20.00     0.005 C 
HETATM    4  C5  UNL     1     -35.533  15.444  -3.051  1.00 20.00     0.016 C 
HETATM    5  C6  UNL     1     -34.303  15.931  -2.290  1.00 20.00     0.055 C 
HETATM    6  C7  UNL     1     -35.186  14.265  -3.971  1.00 20.00    -0.014 C 
ENDROOT
BRANCH   5   7
HETATM    7  C1  UNL     1     -34.696  17.186  -1.534  1.00 20.00     0.130 C 
HETATM    8  O12 UNL     1     -35.846  17.350  -1.131  1.00 20.00    -0.298 OA
BRANCH   7   9
HETATM    9  C10 UNL     1     -33.593  18.206  -1.315  1.00 20.00     0.074 C 
HETATM   10  C8  UNL     1     -33.247  18.387   0.151  1.00 20.00     0.013 C 
ENDBRANCH   7   9
ENDBRANCH   5   7
BRANCH   6  11
HETATM   11  C11 UNL     1     -36.414  13.820  -4.765  1.00 20.00     0.000 C 
HETATM   12  C9  UNL     1     -37.641  14.554  -4.338  1.00 20.00     0.005 C 
ENDBRANCH   6  11
TORSDOF 3
ENDMDL
MODEL 7
REMARK VINA RESULT:      -4.4      3.599      6.434
REMARK  3 active torsions:
REMARK  status: ('A' for Active; 'I' for Inactive)
REMARK    1  A    between atoms: C1_1  and  C6_6 
REMARK    2  A    between atoms: C1_1  and  C10_10 
REMARK    3  A    between atoms: C7_7  and  C11_11 
ROOT
HETATM    1  C2  UNL     1     -33.900  14.918  -5.175  1.00 20.00     0.001 C 
HETATM    2  C3  UNL     1     -35.343  14.420  -5.141  1.00 20.00     0.012 C 
HETATM    3  C4  UNL     1     -33.438  15.395  -3.799  1.00 20.00     0.005 C 
HETATM    4  C5  UNL     1     -35.827  15.950  -3.190  1.00 20.00     0.016 C 
HETATM    5  C6  UNL     1     -36.278  15.480  -4.569  1.00 20.00     0.055 C 
HETATM    6  C7  UNL     1     -34.379  16.460  -3.221  1.00 20.00    -0.014 C 
ENDROOT
BRANCH   5   7
HETATM    7  C1  UNL     1     -37.648  14.849  -4.417  1.00 20.00     0.130 C 
HETATM    8  O12 UNL     1     -37.785  13.627  -4.389  1.00 20.00    -0.298 OA
BRANCH   7   9
HETATM    9  C10 UNL     1     -38.817  15.810  -4.303  1.00 20.00     0.074 C 
HETATM   10  C8  UNL     1     -38.880  16.794  -5.457  1.00 20.00     0.013 C 
ENDBRANCH   7   9
ENDBRANCH   5   7
BRANCH   6  11
HETATM   11  C11 UNL     1     -33.924  16.881  -1.824  1.00 20.00     0.000 C 
HETATM   12  C9  UNL     1     -35.076  16.994  -0.881  1.00 20.00     0.005 C 
ENDBRANCH   6  11
TORSDOF 3
ENDMDL
MODEL 8
REMARK VINA RESULT:      -4.4      2.036      5.167
REMARK  3 active torsions:
REMARK  status: ('A' for Active; 'I' for Inactive)
REMARK    1  A    between atoms: C1_1  and  C6_6 
REMARK    2  A    between atoms: C1_1  and  C10_10 
REMARK    3  A    between atoms: C7_7  and  C11_11 
ROOT
HETATM    1  C2  UNL     1     -31.720  18.670  -0.765  1.00 20.00     0.001 C 
HETATM    2  C3  UNL     1     -32.558  17.772  -1.670  1.00 20.00     0.012 C 
HETATM    3  C4  UNL     1     -32.023  18.422   0.712  1.00 20.00     0.005 C 
HETATM    4  C5  UNL     1     -34.355  17.660   0.103  1.00 20.00     0.016 C 
HETATM    5  C6  UNL     1     -34.045  17.920  -1.368  1.00 20.00     0.055 C 
HETATM    6  C7  UNL     1     -33.520  18.568   1.017  1.00 20.00    -0.014 C 
ENDROOT
BRANCH   5   7
HETATM    7  C1  UNL     1     -34.786  16.880  -2.187  1.00 20.00     0.130 C 
HETATM    8  O12 UNL     1     -36.013  16.886  -2.259  1.00 20.00    -0.298 OA
BRANCH   7   9
HETATM    9  C10 UNL     1     -33.924  15.851  -2.897  1.00 20.00     0.074 C 
HETATM   10  C8  UNL     1     -34.743  14.748  -3.541  1.00 20.00     0.013 C 
ENDBRANCH   7   9
ENDBRANCH   5   7
BRANCH   6  11
HETATM   11  C11 UNL     1     -33.803  18.263   2.487  1.00 20.00     0.000 C 
HETATM   12  C9  UNL     1     -32.614  17.666   3.164  1.00 20.00     0.005 C 
ENDBRANCH   6  11
TORSDOF 3
ENDMDL
MODEL 9
REMARK VINA RESULT:      -4.2      1.329      2.077
REMARK  3 active torsions:
REMARK  status: ('A' for Active; 'I' for Inactive)
REMARK    1  A    between atoms: C1_1  and  C6_6 
REMARK    2  A    between atoms: C1_1  and  C10_10 
REMARK    3  A    between atoms: C7_7  and  C11_11 
ROOT
HETATM    1  C2  UNL     1     -33.481  18.615  -4.391  1.00 20.00     0.001 C 
HETATM    2  C3  UNL     1     -32.865  19.103  -3.082  1.00 20.00     0.012 C 
HETATM    3  C4  UNL     1     -34.538  17.538  -4.148  1.00 20.00     0.005 C 
HETATM    4  C5  UNL     1     -33.362  16.868  -2.013  1.00 20.00     0.016 C 
HETATM    5  C6  UNL     1     -32.307  17.940  -2.269  1.00 20.00     0.055 C 
HETATM    6  C7  UNL     1     -33.978  16.368  -3.328  1.00 20.00    -0.014 C 
ENDROOT
BRANCH   5   7
HETATM    7  C1  UNL     1     -31.871  18.488  -0.924  1.00 20.00     0.130 C 
HETATM    8  O12 UNL     1     -30.684  18.504  -0.601  1.00 20.00    -0.298 OA
BRANCH   7   9
HETATM    9  C10 UNL     1     -32.977  19.005  -0.022  1.00 20.00     0.074 C 
HETATM   10  C8  UNL     1     -32.904  18.430   1.381  1.00 20.00     0.013 C 
ENDBRANCH   7   9
ENDBRANCH   5   7
BRANCH   6  11
HETATM   11  C11 UNL     1     -35.068  15.332  -3.054  1.00 20.00     0.000 C 
HETATM   12  C9  UNL     1     -34.951  14.156  -3.966  1.00 20.00     0.005 C 
ENDBRANCH   6  11
TORSDOF 3
ENDMDL
