MODEL 1
REMARK VINA RESULT:      -5.1      0.000      0.000
REMARK  1 active torsions:
REMARK  status: ('A' for Active; 'I' for Inactive)
REMARK    1  A    between atoms: C8_8  and  C10_10 
ROOT
HETATM    1  C1  UNL     1     -24.516  19.207   6.360  1.00 20.00     0.088 C 
HETATM    2  C2  UNL     1     -24.552  19.068   8.765  1.00 20.00    -0.070 C 
HETATM    3  C3  UNL     1     -25.206  19.139   7.596  1.00 20.00     0.096 C 
HETATM    4  C4  UNL     1     -23.049  19.056   8.849  1.00 20.00     0.035 C 
HETATM    5  C5  UNL     1     -25.267  18.973  10.088  1.00 20.00     0.039 C 
HETATM    6  C6  UNL     1     -22.562  17.849   9.651  1.00 20.00     0.005 C 
HETATM    7  C7  UNL     1     -23.245  17.760  11.019  1.00 20.00     0.005 C 
HETATM    8  C8  UNL     1     -24.778  17.755  10.887  1.00 20.00    -0.011 C 
HETATM    9  N11 UNL     1     -23.958  19.263   5.344  1.00 20.00    -0.192 NA
ENDROOT
BRANCH   8  10
HETATM   10  C10 UNL     1     -25.435  17.715  12.265  1.00 20.00     0.000 C 
HETATM   11  C9  UNL     1     -26.844  18.208  12.217  1.00 20.00     0.005 C 
ENDBRANCH   8  10
TORSDOF 1
ENDMDL
MODEL 2
REMARK VINA RESULT:      -4.9     14.108     16.315
REMARK  1 active torsions:
REMARK  status: ('A' for Active; 'I' for Inactive)
REMARK    1  A    between atoms: C8_8  and  C10_10 
ROOT
HETATM    1  C1  UNL     1     -35.083  14.665  -5.881  1.00 20.00     0.088 C 
HETATM    2  C2  UNL     1     -33.979  15.529  -3.922  1.00 20.00    -0.070 C 
HETATM    3  C3  UNL     1     -33.998  15.319  -5.246  1.00 20.00     0.096 C 
HETATM    4  C4  UNL     1     -35.101  15.091  -3.019  1.00 20.00     0.035 C 
HETATM    5  C5  UNL     1     -32.844  16.242  -3.232  1.00 20.00     0.039 C 
HETATM    6  C6  UNL     1     -35.615  16.264  -2.186  1.00 20.00     0.005 C 
HETATM    7  C7  UNL     1     -34.482  16.974  -1.440  1.00 20.00     0.005 C 
HETATM    8  C8  UNL     1     -33.367  17.424  -2.401  1.00 20.00    -0.011 C 
HETATM    9  N11 UNL     1     -35.969  14.131  -6.407  1.00 20.00    -0.192 NA
ENDROOT
BRANCH   8  10
HETATM   10  C10 UNL     1     -32.227  18.085  -1.629  1.00 20.00     0.000 C 
HETATM   11  C9  UNL     1     -32.640  18.449  -0.241  1.00 20.00     0.005 C 
ENDBRANCH   8  10
TORSDOF 1
ENDMDL
MODEL 3
REMARK VINA RESULT:      -4.8     12.423     14.891
REMARK  1 active torsions:
REMARK  status: ('A' for Active; 'I' for Inactive)
REMARK    1  A    between atoms: C8_8  and  C10_10 
ROOT
HETATM    1  C1  UNL     1     -31.688  18.753   0.484  1.00 20.00     0.088 C 
HETATM    2  C2  UNL     1     -32.874  17.856  -1.410  1.00 20.00    -0.070 C 
HETATM    3  C3  UNL     1     -31.719  18.130  -0.789  1.00 20.00     0.096 C 
HETATM    4  C4  UNL     1     -34.214  18.186  -0.807  1.00 20.00     0.035 C 
HETATM    5  C5  UNL     1     -32.929  17.175  -2.754  1.00 20.00     0.039 C 
HETATM    6  C6  UNL     1     -35.106  16.946  -0.759  1.00 20.00     0.005 C 
HETATM    7  C7  UNL     1     -35.210  16.264  -2.125  1.00 20.00     0.005 C 
HETATM    8  C8  UNL     1     -33.822  15.925  -2.697  1.00 20.00    -0.011 C 
HETATM    9  N11 UNL     1     -31.655  19.263   1.526  1.00 20.00    -0.192 NA
ENDROOT
BRANCH   8  10
HETATM   10  C10 UNL     1     -33.951  15.291  -4.080  1.00 20.00     0.000 C 
HETATM   11  C9  UNL     1     -34.848  14.098  -4.058  1.00 20.00     0.005 C 
ENDBRANCH   8  10
TORSDOF 1
ENDMDL
MODEL 4
REMARK VINA RESULT:      -4.5     14.266     16.301
REMARK  1 active torsions:
REMARK  status: ('A' for Active; 'I' for Inactive)
REMARK    1  A    between atoms: C8_8  and  C10_10 
ROOT
HETATM    1  C1  UNL     1     -36.313  14.040  -4.579  1.00 20.00     0.088 C 
HETATM    2  C2  UNL     1     -35.527  15.956  -3.348  1.00 20.00    -0.070 C 
HETATM    3  C3  UNL     1     -36.448  15.003  -3.547  1.00 20.00     0.096 C 
HETATM    4  C4  UNL     1     -34.290  16.073  -4.199  1.00 20.00     0.035 C 
HETATM    5  C5  UNL     1     -35.641  16.975  -2.244  1.00 20.00     0.039 C 
HETATM    6  C6  UNL     1     -33.034  16.083  -3.329  1.00 20.00     0.005 C 
HETATM    7  C7  UNL     1     -33.111  17.143  -2.227  1.00 20.00     0.005 C 
HETATM    8  C8  UNL     1     -34.377  16.976  -1.369  1.00 20.00    -0.011 C 
HETATM    9  N11 UNL     1     -36.209  13.248  -5.421  1.00 20.00    -0.192 NA
ENDROOT
BRANCH   8  10
HETATM   10  C10 UNL     1     -34.457  18.073  -0.309  1.00 20.00     0.000 C 
HETATM   11  C9  UNL     1     -33.101  18.481   0.164  1.00 20.00     0.005 C 
ENDBRANCH   8  10
TORSDOF 1
ENDMDL
MODEL 5
REMARK VINA RESULT:      -4.5     15.885     16.413
REMARK  1 active torsions:
REMARK  status: ('A' for Active; 'I' for Inactive)
REMARK    1  A    between atoms: C8_8  and  C10_10 
ROOT
HETATM    1  C1  UNL     1     -32.591   8.221   0.874  1.00 20.00     0.088 C 
HETATM    2  C2  UNL     1     -32.986   6.889   2.841  1.00 20.00    -0.070 C 
HETATM    3  C3  UNL     1     -32.972   8.082   2.232  1.00 20.00     0.096 C 
HETATM    4  C4  UNL     1     -32.602   5.616   2.133  1.00 20.00     0.035 C 
HETATM    5  C5  UNL     1     -33.409   6.717   4.278  1.00 20.00     0.039 C 
HETATM    6  C6  UNL     1     -33.710   4.571   2.260  1.00 20.00     0.005 C 
HETATM    7  C7  UNL     1     -34.123   4.350   3.717  1.00 20.00     0.005 C 
HETATM    8  C8  UNL     1     -34.527   5.670   4.397  1.00 20.00    -0.011 C 
HETATM    9  N11 UNL     1     -32.281   8.342  -0.238  1.00 20.00    -0.192 NA
ENDROOT
BRANCH   8  10
HETATM   10  C10 UNL     1     -34.887   5.431   5.862  1.00 20.00     0.000 C 
HETATM   11  C9  UNL     1     -34.374   6.524   6.741  1.00 20.00     0.005 C 
ENDBRANCH   8  10
TORSDOF 1
ENDMDL
MODEL 6
REMARK VINA RESULT:      -4.5     13.011     14.919
REMARK  1 active torsions:
REMARK  status: ('A' for Active; 'I' for Inactive)
REMARK    1  A    between atoms: C8_8  and  C10_10 
ROOT
HETATM    1  C1  UNL     1     -34.032  14.685  -3.978  1.00 20.00     0.088 C 
HETATM    2  C2  UNL     1     -34.595  16.449  -2.437  1.00 20.00    -0.070 C 
HETATM    3  C3  UNL     1     -34.846  15.240  -2.959  1.00 20.00     0.096 C 
HETATM    4  C4  UNL     1     -33.438  17.300  -2.891  1.00 20.00     0.035 C 
HETATM    5  C5  UNL     1     -35.436  17.047  -1.338  1.00 20.00     0.039 C 
HETATM    6  C6  UNL     1     -32.574  17.716  -1.701  1.00 20.00     0.005 C 
HETATM    7  C7  UNL     1     -33.404  18.366  -0.592  1.00 20.00     0.005 C 
HETATM    8  C8  UNL     1     -34.561  17.457  -0.143  1.00 20.00    -0.011 C 
HETATM    9  N11 UNL     1     -33.369  14.224  -4.812  1.00 20.00    -0.192 NA
ENDROOT
BRANCH   8  10
HETATM   10  C10 UNL     1     -35.402  18.147   0.928  1.00 20.00     0.000 C 
HETATM   11  C9  UNL     1     -34.649  18.295   2.210  1.00 20.00     0.005 C 
ENDBRANCH   8  10
TORSDOF 1
ENDMDL
MODEL 7
REMARK VINA RESULT:      -4.4     15.019     17.186
REMARK  1 active torsions:
REMARK  status: ('A' for Active; 'I' for Inactive)
REMARK    1  A    between atoms: C8_8  and  C10_10 
ROOT
HETATM    1  C1  UNL     1     -37.895  14.878  -4.169  1.00 20.00     0.088 C 
HETATM    2  C2  UNL     1     -35.772  16.006  -4.020  1.00 20.00    -0.070 C 
HETATM    3  C3  UNL     1     -37.074  15.936  -3.708  1.00 20.00     0.096 C 
HETATM    4  C4  UNL     1     -35.091  14.972  -4.877  1.00 20.00     0.035 C 
HETATM    5  C5  UNL     1     -34.878  17.112  -3.521  1.00 20.00     0.039 C 
HETATM    6  C6  UNL     1     -33.861  14.406  -4.168  1.00 20.00     0.005 C 
HETATM    7  C7  UNL     1     -32.917  15.513  -3.693  1.00 20.00     0.005 C 
HETATM    8  C8  UNL     1     -33.646  16.536  -2.804  1.00 20.00    -0.011 C 
HETATM    9  N11 UNL     1     -38.574  14.013  -4.543  1.00 20.00    -0.192 NA
ENDROOT
BRANCH   8  10
HETATM   10  C10 UNL     1     -32.696  17.656  -2.383  1.00 20.00     0.000 C 
HETATM   11  C9  UNL     1     -32.983  18.129  -0.996  1.00 20.00     0.005 C 
ENDBRANCH   8  10
TORSDOF 1
ENDMDL
MODEL 8
REMARK VINA RESULT:      -4.3     16.358     18.411
REMARK  1 active torsions:
REMARK  status: ('A' for Active; 'I' for Inactive)
REMARK    1  A    between atoms: C8_8  and  C10_10 
ROOT
HETATM    1  C1  UNL     1     -39.593  15.296  -4.581  1.00 20.00     0.088 C 
HETATM    2  C2  UNL     1     -37.289  15.837  -4.134  1.00 20.00    -0.070 C 
HETATM    3  C3  UNL     1     -38.594  16.070  -3.940  1.00 20.00     0.096 C 
HETATM    4  C4  UNL     1     -36.790  14.743  -5.041  1.00 20.00     0.035 C 
HETATM    5  C5  UNL     1     -36.212  16.636  -3.445  1.00 20.00     0.039 C 
HETATM    6  C6  UNL     1     -35.817  13.828  -4.299  1.00 20.00     0.005 C 
HETATM    7  C7  UNL     1     -34.689  14.617  -3.629  1.00 20.00     0.005 C 
HETATM    8  C8  UNL     1     -35.240  15.710  -2.696  1.00 20.00    -0.011 C 
HETATM    9  N11 UNL     1     -40.416  14.664  -5.103  1.00 20.00    -0.192 NA
ENDROOT
BRANCH   8  10
HETATM   10  C10 UNL     1     -34.099  16.514  -2.077  1.00 20.00     0.000 C 
HETATM   11  C9  UNL     1     -33.006  16.767  -3.063  1.00 20.00     0.005 C 
ENDBRANCH   8  10
TORSDOF 1
ENDMDL
MODEL 9
REMARK VINA RESULT:      -4.2     11.468     14.013
REMARK  1 active torsions:
REMARK  status: ('A' for Active; 'I' for Inactive)
REMARK    1  A    between atoms: C8_8  and  C10_10 
ROOT
HETATM    1  C1  UNL     1     -31.879  18.580   2.217  1.00 20.00     0.088 C 
HETATM    2  C2  UNL     1     -32.654  18.328  -0.049  1.00 20.00    -0.070 C 
HETATM    3  C3  UNL     1     -31.651  18.339   0.840  1.00 20.00     0.096 C 
HETATM    4  C4  UNL     1     -34.087  18.569   0.347  1.00 20.00     0.035 C 
HETATM    5  C5  UNL     1     -32.434  18.052  -1.515  1.00 20.00     0.039 C 
HETATM    6  C6  UNL     1     -34.981  17.428  -0.138  1.00 20.00     0.005 C 
HETATM    7  C7  UNL     1     -34.805  17.162  -1.635  1.00 20.00     0.005 C 
HETATM    8  C8  UNL     1     -33.332  16.900  -1.994  1.00 20.00    -0.011 C 
HETATM    9  N11 UNL     1     -32.059  18.776   3.347  1.00 20.00    -0.192 NA
ENDROOT
BRANCH   8  10
HETATM   10  C10 UNL     1     -33.175  16.686  -3.498  1.00 20.00     0.000 C 
HETATM   11  C9  UNL     1     -33.465  15.273  -3.886  1.00 20.00     0.005 C 
ENDBRANCH   8  10
TORSDOF 1
ENDMDL
