MODEL 1
REMARK VINA RESULT:      -5.2      0.000      0.000
REMARK  3 active torsions:
REMARK  status: ('A' for Active; 'I' for Inactive)
REMARK    1  A    between atoms: C1_1  and  C9_9 
REMARK    2  A    between atoms: C6_6  and  C9_9 
REMARK    3  A    between atoms: C7_7  and  C10_10 
ROOT
HETATM    1  C2  UNL     1     -33.843   4.040   2.531  1.00 20.00     0.001 C 
HETATM    2  C3  UNL     1     -32.840   5.105   2.099  1.00 20.00     0.005 C 
HETATM    3  C4  UNL     1     -34.161   4.136   4.020  1.00 20.00     0.005 C 
HETATM    4  C5  UNL     1     -33.632   6.607   3.970  1.00 20.00     0.009 C 
HETATM    5  C6  UNL     1     -33.317   6.515   2.470  1.00 20.00    -0.008 C 
HETATM    6  C7  UNL     1     -34.646   5.540   4.405  1.00 20.00    -0.014 C 
ENDROOT
BRANCH   5   7
HETATM    7  C9  UNL     1     -32.275   7.559   2.074  1.00 20.00     0.074 C 
BRANCH   7   8
HETATM    8  C1  UNL     1     -32.644   8.284   0.809  1.00 20.00     0.231 C 
HETATM    9  O11 UNL     1     -32.996   9.457   0.745  1.00 20.00    -0.307 OA
ENDBRANCH   7   8
ENDBRANCH   5   7
BRANCH   6  10
HETATM   10  C10 UNL     1     -34.910   5.625   5.908  1.00 20.00     0.000 C 
HETATM   11  C8  UNL     1     -34.160   6.753   6.535  1.00 20.00     0.005 C 
ENDBRANCH   6  10
TORSDOF 3
ENDMDL
MODEL 2
REMARK VINA RESULT:      -5.1     11.046     11.725
REMARK  3 active torsions:
REMARK  status: ('A' for Active; 'I' for Inactive)
REMARK    1  A    between atoms: C1_1  and  C9_9 
REMARK    2  A    between atoms: C6_6  and  C9_9 
REMARK    3  A    between atoms: C7_7  and  C10_10 
ROOT
HETATM    1  C2  UNL     1     -32.676  15.459  -3.840  1.00 20.00     0.001 C 
HETATM    2  C3  UNL     1     -33.783  14.757  -4.620  1.00 20.00     0.005 C 
HETATM    3  C4  UNL     1     -33.211  16.650  -3.049  1.00 20.00     0.005 C 
HETATM    4  C5  UNL     1     -35.477  15.537  -2.914  1.00 20.00     0.009 C 
HETATM    5  C6  UNL     1     -34.939  14.335  -3.704  1.00 20.00    -0.008 C 
HETATM    6  C7  UNL     1     -34.365  16.241  -2.124  1.00 20.00    -0.014 C 
ENDROOT
BRANCH   5   7
HETATM    7  C9  UNL     1     -36.056  13.680  -4.515  1.00 20.00     0.074 C 
BRANCH   7   8
HETATM    8  C1  UNL     1     -37.348  14.447  -4.433  1.00 20.00     0.231 C 
HETATM    9  O11 UNL     1     -38.464  13.944  -4.369  1.00 20.00    -0.307 OA
ENDBRANCH   7   8
ENDBRANCH   5   7
BRANCH   6  10
HETATM   10  C10 UNL     1     -34.917  17.457  -1.382  1.00 20.00     0.000 C 
HETATM   11  C8  UNL     1     -35.393  17.097  -0.013  1.00 20.00     0.005 C 
ENDBRANCH   6  10
TORSDOF 3
ENDMDL
MODEL 3
REMARK VINA RESULT:      -4.8     11.224     11.807
REMARK  3 active torsions:
REMARK  status: ('A' for Active; 'I' for Inactive)
REMARK    1  A    between atoms: C1_1  and  C9_9 
REMARK    2  A    between atoms: C6_6  and  C9_9 
REMARK    3  A    between atoms: C7_7  and  C10_10 
ROOT
HETATM    1  C2  UNL     1     -32.830  16.065  -3.365  1.00 20.00     0.001 C 
HETATM    2  C3  UNL     1     -34.087  15.604  -4.098  1.00 20.00     0.005 C 
HETATM    3  C4  UNL     1     -33.121  17.235  -2.430  1.00 20.00     0.005 C 
HETATM    4  C5  UNL     1     -35.508  16.442  -2.184  1.00 20.00     0.009 C 
HETATM    5  C6  UNL     1     -35.217  15.260  -3.121  1.00 20.00    -0.008 C 
HETATM    6  C7  UNL     1     -34.246  16.903  -1.442  1.00 20.00    -0.014 C 
ENDROOT
BRANCH   5   7
HETATM    7  C9  UNL     1     -36.479  14.850  -3.878  1.00 20.00     0.074 C 
BRANCH   7   8
HETATM    8  C1  UNL     1     -36.231  13.706  -4.823  1.00 20.00     0.231 C 
HETATM    9  O11 UNL     1     -35.861  12.584  -4.492  1.00 20.00    -0.307 OA
ENDBRANCH   7   8
ENDBRANCH   5   7
BRANCH   6  10
HETATM   10  C10 UNL     1     -34.553  18.106  -0.551  1.00 20.00     0.000 C 
HETATM   11  C8  UNL     1     -34.904  17.686   0.839  1.00 20.00     0.005 C 
ENDBRANCH   6  10
TORSDOF 3
ENDMDL
MODEL 4
REMARK VINA RESULT:      -4.8     10.987     12.091
REMARK  3 active torsions:
REMARK  status: ('A' for Active; 'I' for Inactive)
REMARK    1  A    between atoms: C1_1  and  C9_9 
REMARK    2  A    between atoms: C6_6  and  C9_9 
REMARK    3  A    between atoms: C7_7  and  C10_10 
ROOT
HETATM    1  C2  UNL     1     -35.440  17.119  -1.230  1.00 20.00     0.001 C 
HETATM    2  C3  UNL     1     -35.223  15.843  -2.039  1.00 20.00     0.005 C 
HETATM    3  C4  UNL     1     -34.119  17.709  -0.743  1.00 20.00     0.005 C 
HETATM    4  C5  UNL     1     -32.929  16.664  -2.713  1.00 20.00     0.009 C 
HETATM    5  C6  UNL     1     -34.258  16.073  -3.209  1.00 20.00    -0.008 C 
HETATM    6  C7  UNL     1     -33.146  17.950  -1.904  1.00 20.00    -0.014 C 
ENDROOT
BRANCH   5   7
HETATM    7  C9  UNL     1     -34.017  14.772  -3.973  1.00 20.00     0.074 C 
BRANCH   7   8
HETATM    8  C1  UNL     1     -35.283  13.985  -4.173  1.00 20.00     0.231 C 
HETATM    9  O11 UNL     1     -35.350  12.762  -4.244  1.00 20.00    -0.307 OA
ENDBRANCH   7   8
ENDBRANCH   5   7
BRANCH   6  10
HETATM   10  C10 UNL     1     -31.815  18.494  -1.387  1.00 20.00     0.000 C 
HETATM   11  C8  UNL     1     -31.719  18.392   0.100  1.00 20.00     0.005 C 
ENDBRANCH   6  10
TORSDOF 3
ENDMDL
MODEL 5
REMARK VINA RESULT:      -4.8     10.966     11.825
REMARK  3 active torsions:
REMARK  status: ('A' for Active; 'I' for Inactive)
REMARK    1  A    between atoms: C1_1  and  C9_9 
REMARK    2  A    between atoms: C6_6  and  C9_9 
REMARK    3  A    between atoms: C7_7  and  C10_10 
ROOT
HETATM    1  C2  UNL     1     -32.746  17.522  -2.325  1.00 20.00     0.001 C 
HETATM    2  C3  UNL     1     -33.108  16.631  -3.509  1.00 20.00     0.005 C 
HETATM    3  C4  UNL     1     -33.989  18.035  -1.603  1.00 20.00     0.005 C 
HETATM    4  C5  UNL     1     -35.269  15.992  -2.364  1.00 20.00     0.009 C 
HETATM    5  C6  UNL     1     -34.018  15.470  -3.085  1.00 20.00    -0.008 C 
HETATM    6  C7  UNL     1     -34.905  16.883  -1.168  1.00 20.00    -0.014 C 
ENDROOT
BRANCH   5   7
HETATM    7  C9  UNL     1     -34.408  14.622  -4.295  1.00 20.00     0.074 C 
BRANCH   7   8
HETATM    8  C1  UNL     1     -35.715  13.906  -4.093  1.00 20.00     0.231 C 
HETATM    9  O11 UNL     1     -35.990  12.799  -4.545  1.00 20.00    -0.307 OA
ENDBRANCH   7   8
ENDBRANCH   5   7
BRANCH   6  10
HETATM   10  C10 UNL     1     -36.165  17.424  -0.494  1.00 20.00     0.000 C 
HETATM   11  C8  UNL     1     -35.994  17.532   0.986  1.00 20.00     0.005 C 
ENDBRANCH   6  10
TORSDOF 3
ENDMDL
MODEL 6
REMARK VINA RESULT:      -4.7     11.465     12.587
REMARK  3 active torsions:
REMARK  status: ('A' for Active; 'I' for Inactive)
REMARK    1  A    between atoms: C1_1  and  C9_9 
REMARK    2  A    between atoms: C6_6  and  C9_9 
REMARK    3  A    between atoms: C7_7  and  C10_10 
ROOT
HETATM    1  C2  UNL     1     -35.240  16.247  -1.537  1.00 20.00     0.001 C 
HETATM    2  C3  UNL     1     -34.438  17.543  -1.464  1.00 20.00     0.005 C 
HETATM    3  C4  UNL     1     -35.189  15.629  -2.931  1.00 20.00     0.005 C 
HETATM    4  C5  UNL     1     -32.943  16.720  -3.328  1.00 20.00     0.009 C 
HETATM    5  C6  UNL     1     -32.989  17.338  -1.923  1.00 20.00    -0.008 C 
HETATM    6  C7  UNL     1     -33.744  15.412  -3.400  1.00 20.00    -0.014 C 
ENDROOT
BRANCH   5   7
HETATM    7  C9  UNL     1     -32.221  18.658  -1.889  1.00 20.00     0.074 C 
BRANCH   7   8
HETATM    8  C1  UNL     1     -31.458  18.843  -0.607  1.00 20.00     0.231 C 
HETATM    9  O11 UNL     1     -30.365  18.346  -0.358  1.00 20.00    -0.307 OA
ENDBRANCH   7   8
ENDBRANCH   5   7
BRANCH   6  10
HETATM   10  C10 UNL     1     -33.718  14.840  -4.817  1.00 20.00     0.000 C 
HETATM   11  C8  UNL     1     -34.580  15.630  -5.746  1.00 20.00     0.005 C 
ENDBRANCH   6  10
TORSDOF 3
ENDMDL
MODEL 7
REMARK VINA RESULT:      -4.5     10.912     12.252
REMARK  3 active torsions:
REMARK  status: ('A' for Active; 'I' for Inactive)
REMARK    1  A    between atoms: C1_1  and  C9_9 
REMARK    2  A    between atoms: C6_6  and  C9_9 
REMARK    3  A    between atoms: C7_7  and  C10_10 
ROOT
HETATM    1  C2  UNL     1     -34.090  17.532  -4.673  1.00 20.00     0.001 C 
HETATM    2  C3  UNL     1     -34.824  16.209  -4.863  1.00 20.00     0.005 C 
HETATM    3  C4  UNL     1     -34.317  18.108  -3.278  1.00 20.00     0.005 C 
HETATM    4  C5  UNL     1     -34.678  15.773  -2.378  1.00 20.00     0.009 C 
HETATM    5  C6  UNL     1     -34.445  15.191  -3.780  1.00 20.00    -0.008 C 
HETATM    6  C7  UNL     1     -33.935  17.102  -2.184  1.00 20.00    -0.014 C 
ENDROOT
BRANCH   5   7
HETATM    7  C9  UNL     1     -35.229  13.893  -3.962  1.00 20.00     0.074 C 
BRANCH   7   8
HETATM    8  C1  UNL     1     -36.491  14.094  -4.754  1.00 20.00     0.231 C 
HETATM    9  O11 UNL     1     -37.601  13.686  -4.428  1.00 20.00    -0.307 OA
ENDBRANCH   7   8
ENDBRANCH   5   7
BRANCH   6  10
HETATM   10  C10 UNL     1     -34.218  17.682  -0.798  1.00 20.00     0.000 C 
HETATM   11  C8  UNL     1     -35.430  17.065  -0.180  1.00 20.00     0.005 C 
ENDBRANCH   6  10
TORSDOF 3
ENDMDL
MODEL 8
REMARK VINA RESULT:      -4.5     11.074     12.618
REMARK  3 active torsions:
REMARK  status: ('A' for Active; 'I' for Inactive)
REMARK    1  A    between atoms: C1_1  and  C9_9 
REMARK    2  A    between atoms: C6_6  and  C9_9 
REMARK    3  A    between atoms: C7_7  and  C10_10 
ROOT
HETATM    1  C2  UNL     1     -34.067  17.754  -4.931  1.00 20.00     0.001 C 
HETATM    2  C3  UNL     1     -34.864  16.453  -4.918  1.00 20.00     0.005 C 
HETATM    3  C4  UNL     1     -33.876  18.313  -3.524  1.00 20.00     0.005 C 
HETATM    4  C5  UNL     1     -34.039  15.975  -2.577  1.00 20.00     0.009 C 
HETATM    5  C6  UNL     1     -34.226  15.409  -3.992  1.00 20.00    -0.008 C 
HETATM    6  C7  UNL     1     -33.232  17.281  -2.589  1.00 20.00    -0.014 C 
ENDROOT
BRANCH   5   7
HETATM    7  C9  UNL     1     -35.068  14.135  -3.956  1.00 20.00     0.074 C 
BRANCH   7   8
HETATM    8  C1  UNL     1     -36.496  14.382  -4.359  1.00 20.00     0.231 C 
HETATM    9  O11 UNL     1     -37.364  13.519  -4.447  1.00 20.00    -0.307 OA
ENDBRANCH   7   8
ENDBRANCH   5   7
BRANCH   6  10
HETATM   10  C10 UNL     1     -33.097  17.846  -1.176  1.00 20.00     0.000 C 
HETATM   11  C8  UNL     1     -31.705  18.309  -0.899  1.00 20.00     0.005 C 
ENDBRANCH   6  10
TORSDOF 3
ENDMDL
MODEL 9
REMARK VINA RESULT:      -4.4     11.527     12.165
REMARK  3 active torsions:
REMARK  status: ('A' for Active; 'I' for Inactive)
REMARK    1  A    between atoms: C1_1  and  C9_9 
REMARK    2  A    between atoms: C6_6  and  C9_9 
REMARK    3  A    between atoms: C7_7  and  C10_10 
ROOT
HETATM    1  C2  UNL     1     -33.180  14.796  -4.326  1.00 20.00     0.001 C 
HETATM    2  C3  UNL     1     -34.581  14.598  -4.895  1.00 20.00     0.005 C 
HETATM    3  C4  UNL     1     -33.094  16.052  -3.464  1.00 20.00     0.005 C 
HETATM    4  C5  UNL     1     -35.555  15.847  -2.926  1.00 20.00     0.009 C 
HETATM    5  C6  UNL     1     -35.643  14.580  -3.788  1.00 20.00    -0.008 C 
HETATM    6  C7  UNL     1     -34.147  16.045  -2.348  1.00 20.00    -0.014 C 
ENDROOT
BRANCH   5   7
HETATM    7  C9  UNL     1     -37.041  14.431  -4.385  1.00 20.00     0.074 C 
BRANCH   7   8
HETATM    8  C1  UNL     1     -37.514  15.692  -5.056  1.00 20.00     0.231 C 
HETATM    9  O11 UNL     1     -37.882  15.775  -6.223  1.00 20.00    -0.307 OA
ENDBRANCH   7   8
ENDBRANCH   5   7
BRANCH   6  10
HETATM   10  C10 UNL     1     -34.074  17.333  -1.530  1.00 20.00     0.000 C 
HETATM   11  C8  UNL     1     -32.689  17.891  -1.503  1.00 20.00     0.005 C 
ENDBRANCH   6  10
TORSDOF 3
ENDMDL
