MODEL 1
REMARK VINA RESULT:      -4.3      0.000      0.000
REMARK  3 active torsions:
REMARK  status: ('A' for Active; 'I' for Inactive)
REMARK    1  A    between atoms: C5_5  and  C8_8 
REMARK    2  A    between atoms: C6_6  and  C9_9 
REMARK    3  A    between atoms: C9_9  and  C10_10 
ROOT
HETATM    1  C1  UNL     1     -32.904  17.739  -1.637  1.00 20.00     0.001 C 
HETATM    2  C2  UNL     1     -33.114  16.705  -2.741  1.00 20.00     0.005 C 
HETATM    3  C3  UNL     1     -34.156  18.583  -1.410  1.00 20.00     0.005 C 
HETATM    4  C4  UNL     1     -35.592  16.676  -2.244  1.00 20.00     0.009 C 
HETATM    5  C5  UNL     1     -34.337  15.820  -2.470  1.00 20.00    -0.014 C 
HETATM    6  C6  UNL     1     -35.411  17.739  -1.148  1.00 20.00    -0.013 C 
ENDROOT
BRANCH   6   7
HETATM    7  C9  UNL     1     -35.393  17.115   0.250  1.00 20.00     0.020 C 
BRANCH   7   8
HETATM    8  C10 UNL     1     -35.165  18.134   1.355  1.00 20.00     0.115 C 
HETATM    9 CL11 UNL     1     -33.597  17.909   2.163  1.00 20.00    -0.130 Cl
ENDBRANCH   7   8
ENDBRANCH   6   7
BRANCH   5  10
HETATM   10  C8  UNL     1     -34.556  14.842  -3.624  1.00 20.00     0.000 C 
HETATM   11  C7  UNL     1     -33.295  14.592  -4.381  1.00 20.00     0.005 C 
ENDBRANCH   5  10
TORSDOF 3
ENDMDL
MODEL 2
REMARK VINA RESULT:      -4.1      2.825      4.619
REMARK  3 active torsions:
REMARK  status: ('A' for Active; 'I' for Inactive)
REMARK    1  A    between atoms: C5_5  and  C8_8 
REMARK    2  A    between atoms: C6_6  and  C9_9 
REMARK    3  A    between atoms: C9_9  and  C10_10 
ROOT
HETATM    1  C1  UNL     1     -32.922  16.860  -3.368  1.00 20.00     0.001 C 
HETATM    2  C2  UNL     1     -33.002  17.464  -1.968  1.00 20.00     0.005 C 
HETATM    3  C3  UNL     1     -33.633  15.511  -3.442  1.00 20.00     0.005 C 
HETATM    4  C4  UNL     1     -35.159  16.213  -1.551  1.00 20.00     0.009 C 
HETATM    5  C5  UNL     1     -34.450  17.574  -1.475  1.00 20.00    -0.014 C 
HETATM    6  C6  UNL     1     -35.084  15.569  -2.945  1.00 20.00    -0.013 C 
ENDROOT
BRANCH   6   7
HETATM    7  C9  UNL     1     -35.999  16.277  -3.947  1.00 20.00     0.020 C 
BRANCH   7   8
HETATM    8  C10 UNL     1     -36.543  15.347  -5.019  1.00 20.00     0.115 C 
HETATM    9 CL11 UNL     1     -36.374  13.635  -4.572  1.00 20.00    -0.130 Cl
ENDBRANCH   7   8
ENDBRANCH   6   7
BRANCH   5  10
HETATM   10  C8  UNL     1     -34.491  18.120  -0.048  1.00 20.00     0.000 C 
HETATM   11  C7  UNL     1     -35.426  17.338   0.813  1.00 20.00     0.005 C 
ENDBRANCH   5  10
TORSDOF 3
ENDMDL
MODEL 3
REMARK VINA RESULT:      -4.1      2.646      4.753
REMARK  3 active torsions:
REMARK  status: ('A' for Active; 'I' for Inactive)
REMARK    1  A    between atoms: C5_5  and  C8_8 
REMARK    2  A    between atoms: C6_6  and  C9_9 
REMARK    3  A    between atoms: C9_9  and  C10_10 
ROOT
HETATM    1  C1  UNL     1     -34.974  16.745  -1.329  1.00 20.00     0.001 C 
HETATM    2  C2  UNL     1     -34.040  17.785  -0.713  1.00 20.00     0.005 C 
HETATM    3  C3  UNL     1     -35.117  16.939  -2.837  1.00 20.00     0.005 C 
HETATM    4  C4  UNL     1     -32.822  17.999  -2.917  1.00 20.00     0.009 C 
HETATM    5  C5  UNL     1     -32.670  17.802  -1.401  1.00 20.00    -0.014 C 
HETATM    6  C6  UNL     1     -33.767  16.977  -3.568  1.00 20.00    -0.013 C 
ENDROOT
BRANCH   6   7
HETATM    7  C9  UNL     1     -33.130  15.588  -3.654  1.00 20.00     0.020 C 
BRANCH   7   8
HETATM    8  C10 UNL     1     -33.799  14.687  -4.680  1.00 20.00     0.115 C 
HETATM    9 CL11 UNL     1     -34.996  13.601  -3.941  1.00 20.00    -0.130 Cl
ENDBRANCH   7   8
ENDBRANCH   6   7
BRANCH   5  10
HETATM   10  C8  UNL     1     -31.785  18.896  -0.805  1.00 20.00     0.000 C 
HETATM   11  C7  UNL     1     -30.925  18.369   0.296  1.00 20.00     0.005 C 
ENDBRANCH   5  10
TORSDOF 3
ENDMDL
MODEL 4
REMARK VINA RESULT:      -4.1      3.047      4.706
REMARK  3 active torsions:
REMARK  status: ('A' for Active; 'I' for Inactive)
REMARK    1  A    between atoms: C5_5  and  C8_8 
REMARK    2  A    between atoms: C6_6  and  C9_9 
REMARK    3  A    between atoms: C9_9  and  C10_10 
ROOT
HETATM    1  C1  UNL     1     -33.658  14.715  -4.653  1.00 20.00     0.001 C 
HETATM    2  C2  UNL     1     -32.894  15.571  -3.646  1.00 20.00     0.005 C 
HETATM    3  C3  UNL     1     -34.898  14.080  -4.028  1.00 20.00     0.005 C 
HETATM    4  C4  UNL     1     -35.036  15.984  -2.369  1.00 20.00     0.009 C 
HETATM    5  C5  UNL     1     -33.792  16.632  -2.998  1.00 20.00    -0.014 C 
HETATM    6  C6  UNL     1     -35.822  15.104  -3.354  1.00 20.00    -0.013 C 
ENDROOT
BRANCH   6   7
HETATM    7  C9  UNL     1     -36.585  15.942  -4.382  1.00 20.00     0.020 C 
BRANCH   7   8
HETATM    8  C10 UNL     1     -38.039  16.175  -4.002  1.00 20.00     0.115 C 
HETATM    9 CL11 UNL     1     -39.029  14.713  -4.207  1.00 20.00    -0.130 Cl
ENDBRANCH   7   8
ENDBRANCH   6   7
BRANCH   5  10
HETATM   10  C8  UNL     1     -33.014  17.425  -1.950  1.00 20.00     0.000 C 
HETATM   11  C7  UNL     1     -33.900  17.891  -0.842  1.00 20.00     0.005 C 
ENDBRANCH   5  10
TORSDOF 3
ENDMDL
MODEL 5
REMARK VINA RESULT:      -4.1      1.467      1.467
REMARK  3 active torsions:
REMARK  status: ('A' for Active; 'I' for Inactive)
REMARK    1  A    between atoms: C5_5  and  C8_8 
REMARK    2  A    between atoms: C6_6  and  C9_9 
REMARK    3  A    between atoms: C9_9  and  C10_10 
ROOT
HETATM    1  C1  UNL     1     -32.818  17.699  -1.697  1.00 20.00     0.001 C 
HETATM    2  C2  UNL     1     -33.055  16.661  -2.790  1.00 20.00     0.005 C 
HETATM    3  C3  UNL     1     -34.049  18.573  -1.473  1.00 20.00     0.005 C 
HETATM    4  C4  UNL     1     -35.531  16.692  -2.285  1.00 20.00     0.009 C 
HETATM    5  C5  UNL     1     -34.296  15.805  -2.507  1.00 20.00    -0.014 C 
HETATM    6  C6  UNL     1     -35.322  17.759  -1.199  1.00 20.00    -0.013 C 
ENDROOT
BRANCH   6   7
HETATM    7  C9  UNL     1     -35.313  17.148   0.204  1.00 20.00     0.020 C 
BRANCH   7   8
HETATM    8  C10 UNL     1     -36.375  17.738   1.119  1.00 20.00     0.115 C 
HETATM    9 CL11 UNL     1     -37.858  18.167   0.237  1.00 20.00    -0.130 Cl
ENDBRANCH   7   8
ENDBRANCH   6   7
BRANCH   5  10
HETATM   10  C8  UNL     1     -34.542  14.822  -3.651  1.00 20.00     0.000 C 
HETATM   11  C7  UNL     1     -33.300  14.577  -4.442  1.00 20.00     0.005 C 
ENDBRANCH   5  10
TORSDOF 3
ENDMDL
MODEL 6
REMARK VINA RESULT:      -4.0      3.294      5.230
REMARK  3 active torsions:
REMARK  status: ('A' for Active; 'I' for Inactive)
REMARK    1  A    between atoms: C5_5  and  C8_8 
REMARK    2  A    between atoms: C6_6  and  C9_9 
REMARK    3  A    between atoms: C9_9  and  C10_10 
ROOT
HETATM    1  C1  UNL     1     -32.957  15.246  -4.117  1.00 20.00     0.001 C 
HETATM    2  C2  UNL     1     -33.014  16.172  -2.905  1.00 20.00     0.005 C 
HETATM    3  C3  UNL     1     -34.031  14.163  -4.050  1.00 20.00     0.005 C 
HETATM    4  C4  UNL     1     -35.481  15.688  -2.649  1.00 20.00     0.009 C 
HETATM    5  C5  UNL     1     -34.407  16.785  -2.717  1.00 20.00    -0.014 C 
HETATM    6  C6  UNL     1     -35.443  14.729  -3.849  1.00 20.00    -0.013 C 
ENDROOT
BRANCH   6   7
HETATM    7  C9  UNL     1     -35.976  15.390  -5.122  1.00 20.00     0.020 C 
BRANCH   7   8
HETATM    8  C10 UNL     1     -35.719  14.567  -6.375  1.00 20.00     0.115 C 
HETATM    9 CL11 UNL     1     -34.506  15.319  -7.435  1.00 20.00    -0.130 Cl
ENDBRANCH   7   8
ENDBRANCH   6   7
BRANCH   5  10
HETATM   10  C8  UNL     1     -34.446  17.652  -1.460  1.00 20.00     0.000 C 
HETATM   11  C7  UNL     1     -35.330  17.062  -0.412  1.00 20.00     0.005 C 
ENDBRANCH   5  10
TORSDOF 3
ENDMDL
MODEL 7
REMARK VINA RESULT:      -4.0     10.849     11.807
REMARK  3 active torsions:
REMARK  status: ('A' for Active; 'I' for Inactive)
REMARK    1  A    between atoms: C5_5  and  C8_8 
REMARK    2  A    between atoms: C6_6  and  C9_9 
REMARK    3  A    between atoms: C9_9  and  C10_10 
ROOT
HETATM    1  C1  UNL     1     -32.575   7.882   4.370  1.00 20.00     0.001 C 
HETATM    2  C2  UNL     1     -33.456   6.847   5.065  1.00 20.00     0.005 C 
HETATM    3  C3  UNL     1     -31.721   7.250   3.273  1.00 20.00     0.005 C 
HETATM    4  C4  UNL     1     -33.456   5.436   2.968  1.00 20.00     0.009 C 
HETATM    5  C5  UNL     1     -34.323   6.070   4.067  1.00 20.00    -0.014 C 
HETATM    6  C6  UNL     1     -32.545   6.449   2.256  1.00 20.00    -0.013 C 
ENDROOT
BRANCH   6   7
HETATM    7  C9  UNL     1     -33.337   7.365   1.320  1.00 20.00     0.020 C 
BRANCH   7   8
HETATM    8  C10 UNL     1     -32.469   8.399   0.621  1.00 20.00     0.115 C 
HETATM    9 CL11 UNL     1     -32.884  10.060   1.101  1.00 20.00    -0.130 Cl
ENDBRANCH   7   8
ENDBRANCH   6   7
BRANCH   5  10
HETATM   10  C8  UNL     1     -35.142   5.000   4.787  1.00 20.00     0.000 C 
HETATM   11  C7  UNL     1     -34.821   4.949   6.244  1.00 20.00     0.005 C 
ENDBRANCH   5  10
TORSDOF 3
ENDMDL
MODEL 8
REMARK VINA RESULT:      -3.9      2.003      2.716
REMARK  3 active torsions:
REMARK  status: ('A' for Active; 'I' for Inactive)
REMARK    1  A    between atoms: C5_5  and  C8_8 
REMARK    2  A    between atoms: C6_6  and  C9_9 
REMARK    3  A    between atoms: C9_9  and  C10_10 
ROOT
HETATM    1  C1  UNL     1     -34.428  17.706  -4.680  1.00 20.00     0.001 C 
HETATM    2  C2  UNL     1     -34.897  16.264  -4.856  1.00 20.00     0.005 C 
HETATM    3  C3  UNL     1     -34.743  18.235  -3.282  1.00 20.00     0.005 C 
HETATM    4  C4  UNL     1     -34.650  15.878  -2.370  1.00 20.00     0.009 C 
HETATM    5  C5  UNL     1     -34.327  15.340  -3.773  1.00 20.00    -0.014 C 
HETATM    6  C6  UNL     1     -34.203  17.334  -2.163  1.00 20.00    -0.013 C 
ENDROOT
BRANCH   6   7
HETATM    7  C9  UNL     1     -32.682  17.448  -2.028  1.00 20.00     0.020 C 
BRANCH   7   8
HETATM    8  C10 UNL     1     -32.238  18.731  -1.345  1.00 20.00     0.115 C 
HETATM    9 CL11 UNL     1     -30.956  18.446  -0.147  1.00 20.00    -0.130 Cl
ENDBRANCH   7   8
ENDBRANCH   6   7
BRANCH   5  10
HETATM   10  C8  UNL     1     -34.868  13.920  -3.939  1.00 20.00     0.000 C 
HETATM   11  C7  UNL     1     -36.238  13.920  -4.533  1.00 20.00     0.005 C 
ENDBRANCH   5  10
TORSDOF 3
ENDMDL
MODEL 9
REMARK VINA RESULT:      -3.9      1.973      3.191
REMARK  3 active torsions:
REMARK  status: ('A' for Active; 'I' for Inactive)
REMARK    1  A    between atoms: C5_5  and  C8_8 
REMARK    2  A    between atoms: C6_6  and  C9_9 
REMARK    3  A    between atoms: C9_9  and  C10_10 
ROOT
HETATM    1  C1  UNL     1     -35.940  16.702  -2.776  1.00 20.00     0.001 C 
HETATM    2  C2  UNL     1     -36.052  15.788  -3.994  1.00 20.00     0.005 C 
HETATM    3  C3  UNL     1     -34.733  16.343  -1.911  1.00 20.00     0.005 C 
HETATM    4  C4  UNL     1     -33.553  15.414  -3.945  1.00 20.00     0.009 C 
HETATM    5  C5  UNL     1     -34.761  15.777  -4.822  1.00 20.00    -0.014 C 
HETATM    6  C6  UNL     1     -33.418  16.306  -2.701  1.00 20.00    -0.013 C 
ENDROOT
BRANCH   6   7
HETATM    7  C9  UNL     1     -32.933  17.713  -3.061  1.00 20.00     0.020 C 
BRANCH   7   8
HETATM    8  C10 UNL     1     -32.821  18.632  -1.855  1.00 20.00     0.115 C 
HETATM    9 CL11 UNL     1     -31.457  18.196  -0.802  1.00 20.00    -0.130 Cl
ENDBRANCH   7   8
ENDBRANCH   6   7
BRANCH   5  10
HETATM   10  C8  UNL     1     -34.884  14.804  -5.994  1.00 20.00     0.000 C 
HETATM   11  C7  UNL     1     -33.989  15.189  -7.124  1.00 20.00     0.005 C 
ENDBRANCH   5  10
TORSDOF 3
ENDMDL
