MODEL 1
REMARK VINA RESULT:      -4.7      0.000      0.000
REMARK  3 active torsions:
REMARK  status: ('A' for Active; 'I' for Inactive)
REMARK    1  A    between atoms: C1_1  and  C9_9 
REMARK    2  A    between atoms: C6_6  and  C9_9 
REMARK    3  A    between atoms: C7_7  and  C10_10 
ROOT
HETATM    1  C2  UNL     1     -33.815   5.253   2.237  1.00 20.00     0.001 C 
HETATM    2  C3  UNL     1     -32.453   5.889   1.963  1.00 20.00     0.005 C 
HETATM    3  C4  UNL     1     -34.125   5.207   3.730  1.00 20.00     0.005 C 
HETATM    4  C5  UNL     1     -32.647   7.226   4.100  1.00 20.00     0.009 C 
HETATM    5  C6  UNL     1     -32.296   7.274   2.605  1.00 20.00    -0.008 C 
HETATM    6  C7  UNL     1     -34.020   6.593   4.380  1.00 20.00    -0.014 C 
ENDROOT
BRANCH   5   7
HETATM    7  C9  UNL     1     -33.110   8.338   1.865  1.00 20.00     0.074 C 
BRANCH   7   8
HETATM    8  C1  UNL     1     -32.757   8.413   0.404  1.00 20.00     0.231 C 
HETATM    9  O11 UNL     1     -33.566   8.486  -0.514  1.00 20.00    -0.307 OA
ENDBRANCH   7   8
ENDBRANCH   5   7
BRANCH   6  10
HETATM   10  C10 UNL     1     -34.272   6.501   5.884  1.00 20.00     0.000 C 
HETATM   11  C8  UNL     1     -34.802   5.161   6.270  1.00 20.00     0.005 C 
ENDBRANCH   6  10
TORSDOF 3
ENDMDL
MODEL 2
REMARK VINA RESULT:      -4.6     10.535     11.948
REMARK  3 active torsions:
REMARK  status: ('A' for Active; 'I' for Inactive)
REMARK    1  A    between atoms: C1_1  and  C9_9 
REMARK    2  A    between atoms: C6_6  and  C9_9 
REMARK    3  A    between atoms: C7_7  and  C10_10 
ROOT
HETATM    1  C2  UNL     1     -34.459  17.490  -4.776  1.00 20.00     0.001 C 
HETATM    2  C3  UNL     1     -35.696  16.850  -4.150  1.00 20.00     0.005 C 
HETATM    3  C4  UNL     1     -33.568  18.143  -3.723  1.00 20.00     0.005 C 
HETATM    4  C5  UNL     1     -34.430  16.519  -1.987  1.00 20.00     0.009 C 
HETATM    5  C6  UNL     1     -35.358  15.866  -3.022  1.00 20.00    -0.008 C 
HETATM    6  C7  UNL     1     -33.180  17.159  -2.612  1.00 20.00    -0.014 C 
ENDROOT
BRANCH   5   7
HETATM    7  C9  UNL     1     -34.772  14.560  -3.565  1.00 20.00     0.074 C 
BRANCH   7   8
HETATM    8  C1  UNL     1     -35.754  13.806  -4.422  1.00 20.00     0.231 C 
HETATM    9  O11 UNL     1     -35.838  12.585  -4.489  1.00 20.00    -0.307 OA
ENDBRANCH   7   8
ENDBRANCH   5   7
BRANCH   6  10
HETATM   10  C10 UNL     1     -32.344  17.859  -1.543  1.00 20.00     0.000 C 
HETATM   11  C8  UNL     1     -33.179  18.281  -0.381  1.00 20.00     0.005 C 
ENDBRANCH   6  10
TORSDOF 3
ENDMDL
MODEL 3
REMARK VINA RESULT:      -4.6     10.769     11.393
REMARK  3 active torsions:
REMARK  status: ('A' for Active; 'I' for Inactive)
REMARK    1  A    between atoms: C1_1  and  C9_9 
REMARK    2  A    between atoms: C6_6  and  C9_9 
REMARK    3  A    between atoms: C7_7  and  C10_10 
ROOT
HETATM    1  C2  UNL     1     -33.403  15.469  -3.810  1.00 20.00     0.001 C 
HETATM    2  C3  UNL     1     -34.484  15.908  -4.796  1.00 20.00     0.005 C 
HETATM    3  C4  UNL     1     -33.306  16.419  -2.620  1.00 20.00     0.005 C 
HETATM    4  C5  UNL     1     -35.740  17.037  -2.915  1.00 20.00     0.009 C 
HETATM    5  C6  UNL     1     -35.854  16.110  -4.134  1.00 20.00    -0.008 C 
HETATM    6  C7  UNL     1     -34.658  16.596  -1.917  1.00 20.00    -0.014 C 
ENDROOT
BRANCH   5   7
HETATM    7  C9  UNL     1     -36.512  14.776  -3.773  1.00 20.00     0.074 C 
BRANCH   7   8
HETATM    8  C1  UNL     1     -36.257  13.715  -4.809  1.00 20.00     0.231 C 
HETATM    9  O11 UNL     1     -35.824  12.592  -4.576  1.00 20.00    -0.307 OA
ENDBRANCH   7   8
ENDBRANCH   5   7
BRANCH   6  10
HETATM   10  C10 UNL     1     -34.540  17.601  -0.772  1.00 20.00     0.000 C 
HETATM   11  C8  UNL     1     -35.396  17.215   0.388  1.00 20.00     0.005 C 
ENDBRANCH   6  10
TORSDOF 3
ENDMDL
MODEL 4
REMARK VINA RESULT:      -4.6     10.986     11.625
REMARK  3 active torsions:
REMARK  status: ('A' for Active; 'I' for Inactive)
REMARK    1  A    between atoms: C1_1  and  C9_9 
REMARK    2  A    between atoms: C6_6  and  C9_9 
REMARK    3  A    between atoms: C7_7  and  C10_10 
ROOT
HETATM    1  C2  UNL     1     -33.266  15.281  -4.078  1.00 20.00     0.001 C 
HETATM    2  C3  UNL     1     -34.378  15.747  -5.016  1.00 20.00     0.005 C 
HETATM    3  C4  UNL     1     -33.023  16.281  -2.951  1.00 20.00     0.005 C 
HETATM    4  C5  UNL     1     -35.423  17.060  -3.124  1.00 20.00     0.009 C 
HETATM    5  C6  UNL     1     -35.683  16.082  -4.280  1.00 20.00    -0.008 C 
HETATM    6  C7  UNL     1     -34.309  16.592  -2.174  1.00 20.00    -0.014 C 
ENDROOT
BRANCH   5   7
HETATM    7  C9  UNL     1     -36.406  14.820  -3.804  1.00 20.00     0.074 C 
BRANCH   7   8
HETATM    8  C1  UNL     1     -36.283  13.686  -4.786  1.00 20.00     0.231 C 
HETATM    9  O11 UNL     1     -35.824  12.579  -4.531  1.00 20.00    -0.307 OA
ENDBRANCH   7   8
ENDBRANCH   5   7
BRANCH   6  10
HETATM   10  C10 UNL     1     -34.044  17.643  -1.098  1.00 20.00     0.000 C 
HETATM   11  C8  UNL     1     -32.642  18.149  -1.157  1.00 20.00     0.005 C 
ENDBRANCH   6  10
TORSDOF 3
ENDMDL
MODEL 5
REMARK VINA RESULT:      -4.5     11.014     12.120
REMARK  3 active torsions:
REMARK  status: ('A' for Active; 'I' for Inactive)
REMARK    1  A    between atoms: C1_1  and  C9_9 
REMARK    2  A    between atoms: C6_6  and  C9_9 
REMARK    3  A    between atoms: C7_7  and  C10_10 
ROOT
HETATM    1  C2  UNL     1     -35.505  16.967  -0.882  1.00 20.00     0.001 C 
HETATM    2  C3  UNL     1     -35.114  18.439  -1.008  1.00 20.00     0.005 C 
HETATM    3  C4  UNL     1     -35.093  16.167  -2.115  1.00 20.00     0.005 C 
HETATM    4  C5  UNL     1     -33.213  17.802  -2.548  1.00 20.00     0.009 C 
HETATM    5  C6  UNL     1     -33.627  18.640  -1.329  1.00 20.00    -0.008 C 
HETATM    6  C7  UNL     1     -33.598  16.320  -2.423  1.00 20.00    -0.014 C 
ENDROOT
BRANCH   5   7
HETATM    7  C9  UNL     1     -32.740  18.353  -0.115  1.00 20.00     0.074 C 
BRANCH   7   8
HETATM    8  C1  UNL     1     -31.360  18.933  -0.265  1.00 20.00     0.231 C 
HETATM    9  O11 UNL     1     -30.339  18.282  -0.457  1.00 20.00    -0.307 OA
ENDBRANCH   7   8
ENDBRANCH   5   7
BRANCH   6  10
HETATM   10  C10 UNL     1     -33.233  15.560  -3.697  1.00 20.00     0.000 C 
HETATM   11  C8  UNL     1     -34.268  14.544  -4.046  1.00 20.00     0.005 C 
ENDBRANCH   6  10
TORSDOF 3
ENDMDL
MODEL 6
REMARK VINA RESULT:      -4.4     10.764     11.690
REMARK  3 active torsions:
REMARK  status: ('A' for Active; 'I' for Inactive)
REMARK    1  A    between atoms: C1_1  and  C9_9 
REMARK    2  A    between atoms: C6_6  and  C9_9 
REMARK    3  A    between atoms: C7_7  and  C10_10 
ROOT
HETATM    1  C2  UNL     1     -35.773  15.278  -3.042  1.00 20.00     0.001 C 
HETATM    2  C3  UNL     1     -34.993  14.257  -3.867  1.00 20.00     0.005 C 
HETATM    3  C4  UNL     1     -34.856  16.077  -2.121  1.00 20.00     0.005 C 
HETATM    4  C5  UNL     1     -32.931  15.712  -3.720  1.00 20.00     0.009 C 
HETATM    5  C6  UNL     1     -33.828  14.879  -4.649  1.00 20.00    -0.008 C 
HETATM    6  C7  UNL     1     -33.711  16.746  -2.892  1.00 20.00    -0.014 C 
ENDROOT
BRANCH   5   7
HETATM    7  C9  UNL     1     -34.320  15.696  -5.846  1.00 20.00     0.074 C 
BRANCH   7   8
HETATM    8  C1  UNL     1     -35.069  14.854  -6.843  1.00 20.00     0.231 C 
HETATM    9  O11 UNL     1     -36.286  14.849  -6.988  1.00 20.00    -0.307 OA
ENDBRANCH   7   8
ENDBRANCH   5   7
BRANCH   6  10
HETATM   10  C10 UNL     1     -32.777  17.483  -1.934  1.00 20.00     0.000 C 
HETATM   11  C8  UNL     1     -33.519  18.049  -0.770  1.00 20.00     0.005 C 
ENDBRANCH   6  10
TORSDOF 3
ENDMDL
MODEL 7
REMARK VINA RESULT:      -4.2     10.822     11.905
REMARK  3 active torsions:
REMARK  status: ('A' for Active; 'I' for Inactive)
REMARK    1  A    between atoms: C1_1  and  C9_9 
REMARK    2  A    between atoms: C6_6  and  C9_9 
REMARK    3  A    between atoms: C7_7  and  C10_10 
ROOT
HETATM    1  C2  UNL     1     -35.493  16.557  -1.957  1.00 20.00     0.001 C 
HETATM    2  C3  UNL     1     -35.003  15.357  -2.764  1.00 20.00     0.005 C 
HETATM    3  C4  UNL     1     -34.343  17.267  -1.248  1.00 20.00     0.005 C 
HETATM    4  C5  UNL     1     -32.744  16.460  -3.033  1.00 20.00     0.009 C 
HETATM    5  C6  UNL     1     -33.880  15.712  -3.748  1.00 20.00    -0.008 C 
HETATM    6  C7  UNL     1     -33.232  17.673  -2.224  1.00 20.00    -0.014 C 
ENDROOT
BRANCH   5   7
HETATM    7  C9  UNL     1     -34.407  16.498  -4.951  1.00 20.00     0.074 C 
BRANCH   7   8
HETATM    8  C1  UNL     1     -34.459  15.661  -6.201  1.00 20.00     0.231 C 
HETATM    9  O11 UNL     1     -34.658  14.452  -6.232  1.00 20.00    -0.307 OA
ENDBRANCH   7   8
ENDBRANCH   5   7
BRANCH   6  10
HETATM   10  C10 UNL     1     -32.070  18.321  -1.474  1.00 20.00     0.000 C 
HETATM   11  C8  UNL     1     -32.374  18.482  -0.023  1.00 20.00     0.005 C 
ENDBRANCH   6  10
TORSDOF 3
ENDMDL
MODEL 8
REMARK VINA RESULT:      -4.0     10.777     12.483
REMARK  3 active torsions:
REMARK  status: ('A' for Active; 'I' for Inactive)
REMARK    1  A    between atoms: C1_1  and  C9_9 
REMARK    2  A    between atoms: C6_6  and  C9_9 
REMARK    3  A    between atoms: C7_7  and  C10_10 
ROOT
HETATM    1  C2  UNL     1     -34.464  18.927  -3.667  1.00 20.00     0.001 C 
HETATM    2  C3  UNL     1     -32.961  18.697  -3.524  1.00 20.00     0.005 C 
HETATM    3  C4  UNL     1     -35.205  17.629  -3.979  1.00 20.00     0.005 C 
HETATM    4  C5  UNL     1     -33.393  16.311  -2.807  1.00 20.00     0.009 C 
HETATM    5  C6  UNL     1     -32.614  17.601  -2.507  1.00 20.00    -0.008 C 
HETATM    6  C7  UNL     1     -34.907  16.536  -2.945  1.00 20.00    -0.014 C 
ENDROOT
BRANCH   5   7
HETATM    7  C9  UNL     1     -32.831  18.074  -1.067  1.00 20.00     0.074 C 
BRANCH   7   8
HETATM    8  C1  UNL     1     -31.612  18.745  -0.497  1.00 20.00     0.231 C 
HETATM    9  O11 UNL     1     -30.481  18.270  -0.494  1.00 20.00    -0.307 OA
ENDBRANCH   7   8
ENDBRANCH   5   7
BRANCH   6  10
HETATM   10  C10 UNL     1     -35.612  15.234  -3.322  1.00 20.00     0.000 C 
HETATM   11  C8  UNL     1     -34.654  14.232  -3.874  1.00 20.00     0.005 C 
ENDBRANCH   6  10
TORSDOF 3
ENDMDL
MODEL 9
REMARK VINA RESULT:      -3.9     10.649     12.700
REMARK  3 active torsions:
REMARK  status: ('A' for Active; 'I' for Inactive)
REMARK    1  A    between atoms: C1_1  and  C9_9 
REMARK    2  A    between atoms: C6_6  and  C9_9 
REMARK    3  A    between atoms: C7_7  and  C10_10 
ROOT
HETATM    1  C2  UNL     1     -33.240  16.364  -2.983  1.00 20.00     0.001 C 
HETATM    2  C3  UNL     1     -32.920  15.206  -3.925  1.00 20.00     0.005 C 
HETATM    3  C4  UNL     1     -33.779  17.575  -3.740  1.00 20.00     0.005 C 
HETATM    4  C5  UNL     1     -34.664  16.048  -5.551  1.00 20.00     0.009 C 
HETATM    5  C6  UNL     1     -34.104  14.817  -4.822  1.00 20.00    -0.008 C 
HETATM    6  C7  UNL     1     -34.993  17.214  -4.606  1.00 20.00    -0.014 C 
ENDROOT
BRANCH   5   7
HETATM    7  C9  UNL     1     -35.191  14.078  -4.038  1.00 20.00     0.074 C 
BRANCH   7   8
HETATM    8  C1  UNL     1     -36.419  13.819  -4.869  1.00 20.00     0.231 C 
HETATM    9  O11 UNL     1     -37.555  13.693  -4.428  1.00 20.00    -0.307 OA
ENDBRANCH   7   8
ENDBRANCH   5   7
BRANCH   6  10
HETATM   10  C10 UNL     1     -35.467  18.431  -5.399  1.00 20.00     0.000 C 
HETATM   11  C8  UNL     1     -36.065  18.035  -6.707  1.00 20.00     0.005 C 
ENDBRANCH   6  10
TORSDOF 3
ENDMDL
