MODEL 1
REMARK VINA RESULT:      -4.4      0.000      0.000
REMARK  0 active torsions:
REMARK  status: ('A' for Active; 'I' for Inactive)
ROOT
HETATM    1  C1  UNL     1     -21.877  17.882  10.180  1.00 20.00     0.066 C 
HETATM    2  C2  UNL     1     -24.230  16.983  10.057  1.00 20.00     0.077 C 
HETATM    3  C3  UNL     1     -22.027  17.903  11.695  1.00 20.00     0.171 C 
HETATM    4  C4  UNL     1     -23.681  19.253   8.870  1.00 20.00     0.207 A 
HETATM    5  C5  UNL     1     -23.233  17.983   9.555  1.00 20.00     0.087 A 
HETATM    6  C6  UNL     1     -24.269  16.994  11.599  1.00 20.00     0.056 C 
HETATM    7  C7  UNL     1     -24.989  18.234  12.147  1.00 20.00     0.045 C 
HETATM    8  C8  UNL     1     -25.013  15.745  12.092  1.00 20.00     0.045 C 
HETATM    9  O9  UNL     1     -23.210  18.120   8.127  1.00 20.00    -0.375 OA
HETATM   10  O10 UNL     1     -22.935  16.890  12.135  1.00 20.00    -0.381 OA
ENDROOT
TORSDOF 0
ENDMDL
MODEL 2
REMARK VINA RESULT:      -4.2     17.894     19.276
REMARK  0 active torsions:
REMARK  status: ('A' for Active; 'I' for Inactive)
ROOT
HETATM    1  C1  UNL     1     -35.098  14.772  -6.023  1.00 20.00     0.066 C 
HETATM    2  C2  UNL     1     -34.710  14.743  -3.531  1.00 20.00     0.077 C 
HETATM    3  C3  UNL     1     -34.857  16.276  -5.984  1.00 20.00     0.171 C 
HETATM    4  C4  UNL     1     -37.015  13.916  -4.462  1.00 20.00     0.207 A 
HETATM    5  C5  UNL     1     -35.576  14.320  -4.679  1.00 20.00     0.087 A 
HETATM    6  C6  UNL     1     -34.433  16.259  -3.599  1.00 20.00     0.056 C 
HETATM    7  C7  UNL     1     -35.662  17.086  -3.194  1.00 20.00     0.045 C 
HETATM    8  C8  UNL     1     -33.281  16.603  -2.645  1.00 20.00     0.045 C 
HETATM    9  O9  UNL     1     -35.975  12.943  -4.634  1.00 20.00    -0.375 OA
HETATM   10  O10 UNL     1     -33.974  16.627  -4.915  1.00 20.00    -0.381 OA
ENDROOT
TORSDOF 0
ENDMDL
MODEL 3
REMARK VINA RESULT:      -4.2     18.556     19.929
REMARK  0 active torsions:
REMARK  status: ('A' for Active; 'I' for Inactive)
ROOT
HETATM    1  C1  UNL     1     -36.102  14.305  -6.413  1.00 20.00     0.066 C 
HETATM    2  C2  UNL     1     -34.961  13.973  -4.189  1.00 20.00     0.077 C 
HETATM    3  C3  UNL     1     -34.933  15.194  -6.814  1.00 20.00     0.171 C 
HETATM    4  C4  UNL     1     -37.355  15.037  -4.236  1.00 20.00     0.207 A 
HETATM    5  C5  UNL     1     -36.225  14.306  -4.922  1.00 20.00     0.087 A 
HETATM    6  C6  UNL     1     -33.799  14.848  -4.703  1.00 20.00     0.056 C 
HETATM    7  C7  UNL     1     -33.904  16.296  -4.203  1.00 20.00     0.045 C 
HETATM    8  C8  UNL     1     -32.470  14.260  -4.206  1.00 20.00     0.045 C 
HETATM    9  O9  UNL     1     -37.384  13.617  -4.431  1.00 20.00    -0.375 OA
HETATM   10  O10 UNL     1     -33.733  14.800  -6.142  1.00 20.00    -0.381 OA
ENDROOT
TORSDOF 0
ENDMDL
MODEL 4
REMARK VINA RESULT:      -4.2     17.264     18.514
REMARK  0 active torsions:
REMARK  status: ('A' for Active; 'I' for Inactive)
ROOT
HETATM    1  C1  UNL     1     -33.672  13.975  -4.271  1.00 20.00     0.066 C 
HETATM    2  C2  UNL     1     -35.665  14.863  -3.007  1.00 20.00     0.077 C 
HETATM    3  C3  UNL     1     -33.004  15.325  -4.052  1.00 20.00     0.171 C 
HETATM    4  C4  UNL     1     -35.990  14.069  -5.482  1.00 20.00     0.207 A 
HETATM    5  C5  UNL     1     -35.158  14.153  -4.225  1.00 20.00     0.087 A 
HETATM    6  C6  UNL     1     -34.888  16.179  -2.792  1.00 20.00     0.056 C 
HETATM    7  C7  UNL     1     -35.301  17.261  -3.801  1.00 20.00     0.045 C 
HETATM    8  C8  UNL     1     -35.169  16.703  -1.377  1.00 20.00     0.045 C 
HETATM    9  O9  UNL     1     -35.898  12.971  -4.564  1.00 20.00    -0.375 OA
HETATM   10  O10 UNL     1     -33.469  15.938  -2.845  1.00 20.00    -0.381 OA
ENDROOT
TORSDOF 0
ENDMDL
MODEL 5
REMARK VINA RESULT:      -4.0     18.569     19.980
REMARK  0 active torsions:
REMARK  status: ('A' for Active; 'I' for Inactive)
ROOT
HETATM    1  C1  UNL     1     -34.715  13.773  -3.955  1.00 20.00     0.066 C 
HETATM    2  C2  UNL     1     -34.195  15.337  -5.865  1.00 20.00     0.077 C 
HETATM    3  C3  UNL     1     -36.126  13.651  -4.517  1.00 20.00     0.171 C 
HETATM    4  C4  UNL     1     -33.949  16.215  -3.408  1.00 20.00     0.207 A 
HETATM    5  C5  UNL     1     -34.130  15.081  -4.389  1.00 20.00     0.087 A 
HETATM    6  C6  UNL     1     -35.630  15.111  -6.384  1.00 20.00     0.056 C 
HETATM    7  C7  UNL     1     -36.575  16.251  -5.975  1.00 20.00     0.045 C 
HETATM    8  C8  UNL     1     -35.603  15.031  -7.917  1.00 20.00     0.045 C 
HETATM    9  O9  UNL     1     -32.855  15.374  -3.801  1.00 20.00    -0.375 OA
HETATM   10  O10 UNL     1     -36.132  13.837  -5.935  1.00 20.00    -0.381 OA
ENDROOT
TORSDOF 0
ENDMDL
MODEL 6
REMARK VINA RESULT:      -4.0     17.611     18.986
REMARK  0 active torsions:
REMARK  status: ('A' for Active; 'I' for Inactive)
ROOT
HETATM    1  C1  UNL     1     -33.101  15.763  -3.642  1.00 20.00     0.066 C 
HETATM    2  C2  UNL     1     -35.395  16.152  -4.617  1.00 20.00     0.077 C 
HETATM    3  C3  UNL     1     -33.093  14.416  -4.351  1.00 20.00     0.171 C 
HETATM    4  C4  UNL     1     -35.113  16.143  -2.012  1.00 20.00     0.207 A 
HETATM    5  C5  UNL     1     -34.519  16.177  -3.400  1.00 20.00     0.087 A 
HETATM    6  C6  UNL     1     -35.273  14.793  -5.336  1.00 20.00     0.056 C 
HETATM    7  C7  UNL     1     -36.006  13.675  -4.581  1.00 20.00     0.045 C 
HETATM    8  C8  UNL     1     -35.883  14.910  -6.739  1.00 20.00     0.045 C 
HETATM    9  O9  UNL     1     -34.654  17.365  -2.607  1.00 20.00    -0.375 OA
HETATM   10  O10 UNL     1     -33.886  14.456  -5.540  1.00 20.00    -0.381 OA
ENDROOT
TORSDOF 0
ENDMDL
MODEL 7
REMARK VINA RESULT:      -3.9     16.526     17.982
REMARK  0 active torsions:
REMARK  status: ('A' for Active; 'I' for Inactive)
ROOT
HETATM    1  C1  UNL     1     -34.695  16.410  -5.204  1.00 20.00     0.066 C 
HETATM    2  C2  UNL     1     -33.177  15.881  -3.261  1.00 20.00     0.077 C 
HETATM    3  C3  UNL     1     -35.257  17.558  -4.377  1.00 20.00     0.171 C 
HETATM    4  C4  UNL     1     -34.862  14.052  -4.083  1.00 20.00     0.207 A 
HETATM    5  C5  UNL     1     -34.147  15.367  -4.281  1.00 20.00     0.087 A 
HETATM    6  C6  UNL     1     -33.773  17.097  -2.520  1.00 20.00     0.056 C 
HETATM    7  C7  UNL     1     -34.862  16.682  -1.520  1.00 20.00     0.045 C 
HETATM    8  C8  UNL     1     -32.655  17.813  -1.750  1.00 20.00     0.045 C 
HETATM    9  O9  UNL     1     -33.720  14.168  -4.943  1.00 20.00    -0.375 OA
HETATM   10  O10 UNL     1     -34.278  18.061  -3.464  1.00 20.00    -0.381 OA
ENDROOT
TORSDOF 0
ENDMDL
MODEL 8
REMARK VINA RESULT:      -3.8     15.464     16.883
REMARK  0 active torsions:
REMARK  status: ('A' for Active; 'I' for Inactive)
ROOT
HETATM    1  C1  UNL     1     -33.864  17.721  -0.791  1.00 20.00     0.066 C 
HETATM    2  C2  UNL     1     -33.045  16.635  -2.916  1.00 20.00     0.077 C 
HETATM    3  C3  UNL     1     -35.243  17.158  -1.104  1.00 20.00     0.171 C 
HETATM    4  C4  UNL     1     -32.835  19.234  -2.661  1.00 20.00     0.207 A 
HETATM    5  C5  UNL     1     -33.098  17.870  -2.068  1.00 20.00     0.087 A 
HETATM    6  C6  UNL     1     -34.465  16.067  -3.122  1.00 20.00     0.056 C 
HETATM    7  C7  UNL     1     -35.284  16.912  -4.109  1.00 20.00     0.045 C 
HETATM    8  C8  UNL     1     -34.360  14.640  -3.677  1.00 20.00     0.045 C 
HETATM    9  O9  UNL     1     -31.832  18.529  -1.916  1.00 20.00    -0.375 OA
HETATM   10  O10 UNL     1     -35.145  15.945  -1.857  1.00 20.00    -0.381 OA
ENDROOT
TORSDOF 0
ENDMDL
MODEL 9
REMARK VINA RESULT:      -3.7     22.824     24.012
REMARK  0 active torsions:
REMARK  status: ('A' for Active; 'I' for Inactive)
ROOT
HETATM    1  C1  UNL     1     -41.395   5.634  -0.786  1.00 20.00     0.066 C 
HETATM    2  C2  UNL     1     -41.792   7.363   1.007  1.00 20.00     0.077 C 
HETATM    3  C3  UNL     1     -41.564   6.745  -1.813  1.00 20.00     0.171 C 
HETATM    4  C4  UNL     1     -43.417   5.315   0.843  1.00 20.00     0.207 A 
HETATM    5  C5  UNL     1     -42.131   6.008   0.462  1.00 20.00     0.087 A 
HETATM    6  C6  UNL     1     -41.898   8.428  -0.105  1.00 20.00     0.056 C 
HETATM    7  C7  UNL     1     -43.358   8.750  -0.455  1.00 20.00     0.045 C 
HETATM    8  C8  UNL     1     -41.218   9.719   0.370  1.00 20.00     0.045 C 
HETATM    9  O9  UNL     1     -42.165   4.972   1.453  1.00 20.00    -0.375 OA
HETATM   10  O10 UNL     1     -41.167   8.008  -1.274  1.00 20.00    -0.381 OA
ENDROOT
TORSDOF 0
ENDMDL
