MODEL 1
REMARK VINA RESULT:      -4.8      0.000      0.000
REMARK  2 active torsions:
REMARK  status: ('A' for Active; 'I' for Inactive)
REMARK    1  A    between atoms: C8_8  and  C12_12 
REMARK    2  A    between atoms: C11_11  and  N13_13 
ROOT
HETATM    1  C1  UNL     1     -32.817  17.804   2.750  1.00 20.00     0.013 C 
HETATM    2  C2  UNL     1     -33.526  18.252   1.892  1.00 20.00    -0.087 C 
HETATM    3  C11 UNL     1     -34.395  18.803   0.848  1.00 20.00     0.364 C 
ENDROOT
BRANCH   3   4
HETATM    4  N13 UNL     1     -34.195  18.095  -0.417  1.00 20.00     0.099 N 
HETATM    5  C6  UNL     1     -34.172  19.026  -1.548  1.00 20.00     0.273 C 
HETATM    6  C3  UNL     1     -33.502  18.464  -2.818  1.00 20.00     0.031 C 
HETATM    7  C4  UNL     1     -32.911  17.058  -2.680  1.00 20.00     0.007 C 
HETATM    8  C8  UNL     1     -33.958  15.932  -2.566  1.00 20.00    -0.010 C 
HETATM    9  C5  UNL     1     -35.292  16.365  -1.938  1.00 20.00     0.035 C 
HETATM   10  C7  UNL     1     -35.182  17.017  -0.555  1.00 20.00     0.274 C 
BRANCH   8  11
HETATM   11  C12 UNL     1     -34.231  15.321  -3.946  1.00 20.00    -0.019 C 
HETATM   12  C9  UNL     1     -33.011  14.549  -4.435  1.00 20.00     0.010 C 
HETATM   13  C10 UNL     1     -35.459  14.419  -3.893  1.00 20.00     0.010 C 
ENDBRANCH   8  11
ENDBRANCH   3   4
TORSDOF 2
ENDMDL
MODEL 2
REMARK VINA RESULT:      -4.8      1.705      2.133
REMARK  2 active torsions:
REMARK  status: ('A' for Active; 'I' for Inactive)
REMARK    1  A    between atoms: C8_8  and  C12_12 
REMARK    2  A    between atoms: C11_11  and  N13_13 
ROOT
HETATM    1  C1  UNL     1     -30.653  18.153   1.153  1.00 20.00     0.013 C 
HETATM    2  C2  UNL     1     -31.198  18.643   0.202  1.00 20.00    -0.087 C 
HETATM    3  C11 UNL     1     -31.861  19.247  -0.957  1.00 20.00     0.364 C 
ENDROOT
BRANCH   3   4
HETATM    4  N13 UNL     1     -32.641  18.246  -1.685  1.00 20.00     0.099 N 
HETATM    5  C6  UNL     1     -32.921  18.685  -3.055  1.00 20.00     0.273 C 
HETATM    6  C3  UNL     1     -33.294  17.544  -4.022  1.00 20.00     0.031 C 
HETATM    7  C4  UNL     1     -33.249  16.135  -3.423  1.00 20.00     0.007 C 
HETATM    8  C8  UNL     1     -34.374  15.833  -2.413  1.00 20.00    -0.010 C 
HETATM    9  C5  UNL     1     -34.903  17.066  -1.663  1.00 20.00     0.035 C 
HETATM   10  C7  UNL     1     -33.841  17.884  -0.921  1.00 20.00     0.274 C 
BRANCH   8  11
HETATM   11  C12 UNL     1     -35.545  15.136  -3.117  1.00 20.00    -0.019 C 
HETATM   12  C9  UNL     1     -36.490  16.167  -3.722  1.00 20.00     0.010 C 
HETATM   13  C10 UNL     1     -35.027  14.181  -4.188  1.00 20.00     0.010 C 
ENDBRANCH   8  11
ENDBRANCH   3   4
TORSDOF 2
ENDMDL
MODEL 3
REMARK VINA RESULT:      -4.7      1.232      1.250
REMARK  2 active torsions:
REMARK  status: ('A' for Active; 'I' for Inactive)
REMARK    1  A    between atoms: C8_8  and  C12_12 
REMARK    2  A    between atoms: C11_11  and  N13_13 
ROOT
HETATM    1  C1  UNL     1     -30.806  18.562   0.988  1.00 20.00     0.013 C 
HETATM    2  C2  UNL     1     -31.969  18.508   0.696  1.00 20.00    -0.087 C 
HETATM    3  C11 UNL     1     -33.390  18.444   0.345  1.00 20.00     0.364 C 
ENDROOT
BRANCH   3   4
HETATM    4  N13 UNL     1     -33.580  17.719  -0.911  1.00 20.00     0.099 N 
HETATM    5  C6  UNL     1     -33.325  18.583  -2.067  1.00 20.00     0.273 C 
HETATM    6  C3  UNL     1     -33.026  17.822  -3.374  1.00 20.00     0.031 C 
HETATM    7  C4  UNL     1     -32.976  16.296  -3.248  1.00 20.00     0.007 C 
HETATM    8  C8  UNL     1     -34.344  15.629  -3.009  1.00 20.00    -0.010 C 
HETATM    9  C5  UNL     1     -35.366  16.515  -2.279  1.00 20.00     0.035 C 
HETATM   10  C7  UNL     1     -34.898  17.074  -0.931  1.00 20.00     0.274 C 
BRANCH   8  11
HETATM   11  C12 UNL     1     -34.947  15.166  -4.342  1.00 20.00    -0.019 C 
HETATM   12  C9  UNL     1     -33.842  14.786  -5.320  1.00 20.00     0.010 C 
HETATM   13  C10 UNL     1     -35.897  13.995  -4.115  1.00 20.00     0.010 C 
ENDBRANCH   8  11
ENDBRANCH   3   4
TORSDOF 2
ENDMDL
MODEL 4
REMARK VINA RESULT:      -4.6      2.184      5.471
REMARK  2 active torsions:
REMARK  status: ('A' for Active; 'I' for Inactive)
REMARK    1  A    between atoms: C8_8  and  C12_12 
REMARK    2  A    between atoms: C11_11  and  N13_13 
ROOT
HETATM    1  C1  UNL     1     -35.767  14.697  -6.828  1.00 20.00     0.013 C 
HETATM    2  C2  UNL     1     -35.680  14.407  -5.666  1.00 20.00    -0.087 C 
HETATM    3  C11 UNL     1     -35.576  14.046  -4.250  1.00 20.00     0.364 C 
ENDROOT
BRANCH   3   4
HETATM    4  N13 UNL     1     -35.082  15.177  -3.464  1.00 20.00     0.099 N 
HETATM    5  C6  UNL     1     -36.019  16.302  -3.507  1.00 20.00     0.273 C 
HETATM    6  C3  UNL     1     -35.841  17.319  -2.362  1.00 20.00     0.031 C 
HETATM    7  C4  UNL     1     -34.766  16.963  -1.330  1.00 20.00     0.007 C 
HETATM    8  C8  UNL     1     -33.319  17.081  -1.846  1.00 20.00    -0.010 C 
HETATM    9  C5  UNL     1     -33.162  16.854  -3.358  1.00 20.00     0.035 C 
HETATM   10  C7  UNL     1     -33.717  15.524  -3.879  1.00 20.00     0.274 C 
BRANCH   8  11
HETATM   11  C12 UNL     1     -32.739  18.455  -1.484  1.00 20.00    -0.019 C 
HETATM   12  C9  UNL     1     -31.469  18.293  -0.656  1.00 20.00     0.010 C 
HETATM   13  C10 UNL     1     -32.463  19.263  -2.747  1.00 20.00     0.010 C 
ENDBRANCH   8  11
ENDBRANCH   3   4
TORSDOF 2
ENDMDL
MODEL 5
REMARK VINA RESULT:      -4.4      1.735      2.735
REMARK  2 active torsions:
REMARK  status: ('A' for Active; 'I' for Inactive)
REMARK    1  A    between atoms: C8_8  and  C12_12 
REMARK    2  A    between atoms: C11_11  and  N13_13 
ROOT
HETATM    1  C1  UNL     1     -30.801  18.145   0.146  1.00 20.00     0.013 C 
HETATM    2  C2  UNL     1     -31.537  18.568  -0.704  1.00 20.00    -0.087 C 
HETATM    3  C11 UNL     1     -32.430  19.090  -1.741  1.00 20.00     0.364 C 
ENDROOT
BRANCH   3   4
HETATM    4  N13 UNL     1     -33.486  18.124  -2.047  1.00 20.00     0.099 N 
HETATM    5  C6  UNL     1     -34.161  17.672  -0.827  1.00 20.00     0.273 C 
HETATM    6  C3  UNL     1     -35.554  17.057  -1.065  1.00 20.00     0.031 C 
HETATM    7  C4  UNL     1     -36.040  17.076  -2.517  1.00 20.00     0.007 C 
HETATM    8  C8  UNL     1     -35.298  16.102  -3.453  1.00 20.00    -0.010 C 
HETATM    9  C5  UNL     1     -33.849  15.802  -3.039  1.00 20.00     0.035 C 
HETATM   10  C7  UNL     1     -32.951  17.033  -2.870  1.00 20.00     0.274 C 
BRANCH   8  11
HETATM   11  C12 UNL     1     -36.070  14.781  -3.561  1.00 20.00    -0.019 C 
HETATM   12  C9  UNL     1     -37.368  14.986  -4.333  1.00 20.00     0.010 C 
HETATM   13  C10 UNL     1     -35.206  13.715  -4.227  1.00 20.00     0.010 C 
ENDBRANCH   8  11
ENDBRANCH   3   4
TORSDOF 2
ENDMDL
MODEL 6
REMARK VINA RESULT:      -4.3      2.332      5.676
REMARK  2 active torsions:
REMARK  status: ('A' for Active; 'I' for Inactive)
REMARK    1  A    between atoms: C8_8  and  C12_12 
REMARK    2  A    between atoms: C11_11  and  N13_13 
ROOT
HETATM    1  C1  UNL     1     -34.017  15.451  -7.917  1.00 20.00     0.013 C 
HETATM    2  C2  UNL     1     -34.633  15.115  -6.943  1.00 20.00    -0.087 C 
HETATM    3  C11 UNL     1     -35.387  14.699  -5.757  1.00 20.00     0.364 C 
ENDROOT
BRANCH   3   4
HETATM    4  N13 UNL     1     -35.076  15.563  -4.618  1.00 20.00     0.099 N 
HETATM    5  C6  UNL     1     -35.421  16.959  -4.901  1.00 20.00     0.273 C 
HETATM    6  C3  UNL     1     -35.587  17.838  -3.646  1.00 20.00     0.031 C 
HETATM    7  C4  UNL     1     -35.434  17.107  -2.308  1.00 20.00     0.007 C 
HETATM    8  C8  UNL     1     -33.993  16.669  -1.980  1.00 20.00    -0.010 C 
HETATM    9  C5  UNL     1     -33.116  16.394  -3.212  1.00 20.00     0.035 C 
HETATM   10  C7  UNL     1     -33.682  15.369  -4.200  1.00 20.00     0.274 C 
BRANCH   8  11
HETATM   11  C12 UNL     1     -33.306  17.723  -1.103  1.00 20.00    -0.019 C 
HETATM   12  C9  UNL     1     -32.315  18.536  -1.929  1.00 20.00     0.010 C 
HETATM   13  C10 UNL     1     -34.345  18.632  -0.454  1.00 20.00     0.010 C 
ENDBRANCH   8  11
ENDBRANCH   3   4
TORSDOF 2
ENDMDL
MODEL 7
REMARK VINA RESULT:      -4.2      2.087      5.367
REMARK  2 active torsions:
REMARK  status: ('A' for Active; 'I' for Inactive)
REMARK    1  A    between atoms: C8_8  and  C12_12 
REMARK    2  A    between atoms: C11_11  and  N13_13 
ROOT
HETATM    1  C1  UNL     1     -39.024  14.759  -4.295  1.00 20.00     0.013 C 
HETATM    2  C2  UNL     1     -37.827  14.698  -4.235  1.00 20.00    -0.087 C 
HETATM    3  C11 UNL     1     -36.365  14.619  -4.165  1.00 20.00     0.364 C 
ENDROOT
BRANCH   3   4
HETATM    4  N13 UNL     1     -35.833  15.657  -3.283  1.00 20.00     0.099 N 
HETATM    5  C6  UNL     1     -36.185  16.995  -3.767  1.00 20.00     0.273 C 
HETATM    6  C3  UNL     1     -36.102  18.099  -2.694  1.00 20.00     0.031 C 
HETATM    7  C4  UNL     1     -35.734  17.619  -1.286  1.00 20.00     0.007 C 
HETATM    8  C8  UNL     1     -34.271  17.163  -1.127  1.00 20.00    -0.010 C 
HETATM    9  C5  UNL     1     -33.633  16.613  -2.413  1.00 20.00     0.035 C 
HETATM   10  C7  UNL     1     -34.393  15.459  -3.076  1.00 20.00     0.274 C 
BRANCH   8  11
HETATM   11  C12 UNL     1     -33.411  18.317  -0.598  1.00 20.00    -0.019 C 
HETATM   12  C9  UNL     1     -33.489  18.383   0.923  1.00 20.00     0.010 C 
HETATM   13  C10 UNL     1     -31.966  18.157  -1.060  1.00 20.00     0.010 C 
ENDBRANCH   8  11
ENDBRANCH   3   4
TORSDOF 2
ENDMDL
MODEL 8
REMARK VINA RESULT:      -4.2      2.285      5.305
REMARK  2 active torsions:
REMARK  status: ('A' for Active; 'I' for Inactive)
REMARK    1  A    between atoms: C8_8  and  C12_12 
REMARK    2  A    between atoms: C11_11  and  N13_13 
ROOT
HETATM    1  C1  UNL     1     -39.556  15.004  -4.205  1.00 20.00     0.013 C 
HETATM    2  C2  UNL     1     -38.395  14.701  -4.242  1.00 20.00    -0.087 C 
HETATM    3  C11 UNL     1     -36.979  14.324  -4.291  1.00 20.00     0.364 C 
ENDROOT
BRANCH   3   4
HETATM    4  N13 UNL     1     -36.157  15.317  -3.599  1.00 20.00     0.099 N 
HETATM    5  C6  UNL     1     -36.357  16.656  -4.161  1.00 20.00     0.273 C 
HETATM    6  C3  UNL     1     -35.933  17.805  -3.226  1.00 20.00     0.031 C 
HETATM    7  C4  UNL     1     -35.436  17.376  -1.842  1.00 20.00     0.007 C 
HETATM    8  C8  UNL     1     -34.060  16.684  -1.843  1.00 20.00    -0.010 C 
HETATM    9  C5  UNL     1     -33.725  15.935  -3.142  1.00 20.00     0.035 C 
HETATM   10  C7  UNL     1     -34.754  14.886  -3.575  1.00 20.00     0.274 C 
BRANCH   8  11
HETATM   11  C12 UNL     1     -32.953  17.706  -1.556  1.00 20.00    -0.019 C 
HETATM   12  C9  UNL     1     -32.606  18.482  -2.821  1.00 20.00     0.010 C 
HETATM   13  C10 UNL     1     -33.382  18.653  -0.440  1.00 20.00     0.010 C 
ENDBRANCH   8  11
ENDBRANCH   3   4
TORSDOF 2
ENDMDL
MODEL 9
REMARK VINA RESULT:      -4.1      1.401      2.192
REMARK  2 active torsions:
REMARK  status: ('A' for Active; 'I' for Inactive)
REMARK    1  A    between atoms: C8_8  and  C12_12 
REMARK    2  A    between atoms: C11_11  and  N13_13 
ROOT
HETATM    1  C1  UNL     1     -34.215  18.078   1.718  1.00 20.00     0.013 C 
HETATM    2  C2  UNL     1     -33.742  18.194   0.621  1.00 20.00    -0.087 C 
HETATM    3  C11 UNL     1     -33.160  18.340  -0.716  1.00 20.00     0.364 C 
ENDROOT
BRANCH   3   4
HETATM    4  N13 UNL     1     -33.820  17.446  -1.667  1.00 20.00     0.099 N 
HETATM    5  C6  UNL     1     -32.987  17.223  -2.852  1.00 20.00     0.273 C 
HETATM    6  C3  UNL     1     -33.355  15.961  -3.656  1.00 20.00     0.031 C 
HETATM    7  C4  UNL     1     -34.479  15.107  -3.061  1.00 20.00     0.007 C 
HETATM    8  C8  UNL     1     -35.881  15.742  -3.151  1.00 20.00    -0.010 C 
HETATM    9  C5  UNL     1     -35.884  17.279  -3.157  1.00 20.00     0.035 C 
HETATM   10  C7  UNL     1     -35.170  17.937  -1.973  1.00 20.00     0.274 C 
BRANCH   8  11
HETATM   11  C12 UNL     1     -36.611  15.236  -4.402  1.00 20.00    -0.019 C 
HETATM   12  C9  UNL     1     -36.277  16.113  -5.603  1.00 20.00     0.010 C 
HETATM   13  C10 UNL     1     -36.248  13.780  -4.676  1.00 20.00     0.010 C 
ENDBRANCH   8  11
ENDBRANCH   3   4
TORSDOF 2
ENDMDL
