MODEL 1
REMARK VINA RESULT:      -4.7      0.000      0.000
REMARK  3 active torsions:
REMARK  status: ('A' for Active; 'I' for Inactive)
REMARK    1  A    between atoms: C5_5  and  C9_9 
REMARK    2  A    between atoms: C6_6  and  C10_10 
REMARK    3  A    between atoms: C6_6  and  O11_11 
ROOT
HETATM    1  C1  UNL     1     -32.779  15.242  -4.019  1.00 20.00     0.003 C 
HETATM    2  C2  UNL     1     -33.353  16.219  -2.998  1.00 20.00     0.005 C 
HETATM    3  C3  UNL     1     -33.797  14.903  -5.109  1.00 20.00     0.038 C 
HETATM    4  C4  UNL     1     -35.684  15.357  -3.469  1.00 20.00     0.042 C 
HETATM    5  C5  UNL     1     -34.653  15.695  -2.378  1.00 20.00    -0.012 C 
HETATM    6  C6  UNL     1     -35.135  14.403  -4.543  1.00 20.00     0.058 C 
ENDROOT
BRANCH   6   7
HETATM    7  C10 UNL     1     -36.153  14.204  -5.667  1.00 20.00     0.033 C 
HETATM    8  C8  UNL     1     -35.709  14.860  -6.932  1.00 20.00     0.008 C 
ENDBRANCH   6   7
BRANCH   6   9
HETATM    9  O11 UNL     1     -34.897  13.126  -3.940  1.00 20.00    -0.390 OA
HETATM   10  H31 UNL     1     -35.324  13.154  -3.072  1.00 20.00     0.210 HD
ENDBRANCH   6   9
BRANCH   5  11
HETATM   11  C9  UNL     1     -35.227  16.708  -1.389  1.00 20.00     0.000 C 
HETATM   12  C7  UNL     1     -34.208  17.723  -0.986  1.00 20.00     0.005 C 
ENDBRANCH   5  11
TORSDOF 3
ENDMDL
MODEL 2
REMARK VINA RESULT:      -4.4      1.419      2.262
REMARK  3 active torsions:
REMARK  status: ('A' for Active; 'I' for Inactive)
REMARK    1  A    between atoms: C5_5  and  C9_9 
REMARK    2  A    between atoms: C6_6  and  C10_10 
REMARK    3  A    between atoms: C6_6  and  O11_11 
ROOT
HETATM    1  C1  UNL     1     -34.705  14.889  -6.401  1.00 20.00     0.003 C 
HETATM    2  C2  UNL     1     -33.941  15.718  -5.374  1.00 20.00     0.005 C 
HETATM    3  C3  UNL     1     -36.192  14.793  -6.056  1.00 20.00     0.038 C 
HETATM    4  C4  UNL     1     -35.624  15.083  -3.595  1.00 20.00     0.042 C 
HETATM    5  C5  UNL     1     -34.130  15.177  -3.952  1.00 20.00    -0.012 C 
HETATM    6  C6  UNL     1     -36.442  14.286  -4.626  1.00 20.00     0.058 C 
ENDROOT
BRANCH   6   7
HETATM    7  C10 UNL     1     -37.934  14.333  -4.293  1.00 20.00     0.033 C 
HETATM    8  C8  UNL     1     -38.529  15.661  -4.626  1.00 20.00     0.008 C 
ENDBRANCH   6   7
BRANCH   6   9
HETATM    9  O11 UNL     1     -36.027  12.916  -4.577  1.00 20.00    -0.390 OA
HETATM   10  H31 UNL     1     -35.552  12.809  -3.741  1.00 20.00     0.210 HD
ENDBRANCH   6   9
BRANCH   5  11
HETATM   11  C9  UNL     1     -33.388  16.047  -2.940  1.00 20.00     0.000 C 
HETATM   12  C7  UNL     1     -34.320  16.644  -1.937  1.00 20.00     0.005 C 
ENDBRANCH   5  11
TORSDOF 3
ENDMDL
MODEL 3
REMARK VINA RESULT:      -4.3      1.875      3.361
REMARK  3 active torsions:
REMARK  status: ('A' for Active; 'I' for Inactive)
REMARK    1  A    between atoms: C5_5  and  C9_9 
REMARK    2  A    between atoms: C6_6  and  C10_10 
REMARK    3  A    between atoms: C6_6  and  O11_11 
ROOT
HETATM    1  C1  UNL     1     -35.385  17.102  -1.215  1.00 20.00     0.003 C 
HETATM    2  C2  UNL     1     -34.099  17.638  -0.593  1.00 20.00     0.005 C 
HETATM    3  C3  UNL     1     -35.109  15.931  -2.158  1.00 20.00     0.038 C 
HETATM    4  C4  UNL     1     -32.787  16.859  -2.610  1.00 20.00     0.042 C 
HETATM    5  C5  UNL     1     -33.074  18.036  -1.661  1.00 20.00    -0.012 C 
HETATM    6  C6  UNL     1     -34.061  16.261  -3.232  1.00 20.00     0.058 C 
ENDROOT
BRANCH   6   7
HETATM    7  C10 UNL     1     -33.731  15.020  -4.062  1.00 20.00     0.033 C 
HETATM    8  C8  UNL     1     -34.799  13.983  -3.948  1.00 20.00     0.008 C 
ENDBRANCH   6   7
BRANCH   6   9
HETATM    9  O11 UNL     1     -34.638  17.233  -4.112  1.00 20.00    -0.390 OA
HETATM   10  H31 UNL     1     -35.327  17.683  -3.602  1.00 20.00     0.210 HD
ENDBRANCH   6   9
BRANCH   5  11
HETATM   11  C9  UNL     1     -31.783  18.531  -1.012  1.00 20.00     0.000 C 
HETATM   12  C7  UNL     1     -31.857  18.474   0.479  1.00 20.00     0.005 C 
ENDBRANCH   5  11
TORSDOF 3
ENDMDL
MODEL 4
REMARK VINA RESULT:      -4.3     15.323     17.752
REMARK  3 active torsions:
REMARK  status: ('A' for Active; 'I' for Inactive)
REMARK    1  A    between atoms: C5_5  and  C9_9 
REMARK    2  A    between atoms: C6_6  and  C10_10 
REMARK    3  A    between atoms: C6_6  and  O11_11 
ROOT
HETATM    1  C1  UNL     1     -22.224  18.125   8.866  1.00 20.00     0.003 C 
HETATM    2  C2  UNL     1     -23.498  18.499   8.115  1.00 20.00     0.005 C 
HETATM    3  C3  UNL     1     -22.484  17.045   9.916  1.00 20.00     0.038 C 
HETATM    4  C4  UNL     1     -24.887  17.847  10.127  1.00 20.00     0.042 C 
HETATM    5  C5  UNL     1     -24.615  18.933   9.071  1.00 20.00    -0.012 C 
HETATM    6  C6  UNL     1     -23.620  17.412  10.884  1.00 20.00     0.058 C 
ENDROOT
BRANCH   6   7
HETATM    7  C10 UNL     1     -23.922  16.245  11.825  1.00 20.00     0.033 C 
HETATM    8  C8  UNL     1     -25.365  16.207  12.207  1.00 20.00     0.008 C 
ENDBRANCH   6   7
BRANCH   6   9
HETATM    9  O11 UNL     1     -23.166  18.510  11.683  1.00 20.00    -0.390 OA
HETATM   10  H31 UNL     1     -23.600  19.299  11.327  1.00 20.00     0.210 HD
ENDBRANCH   6   9
BRANCH   5  11
HETATM   11  C9  UNL     1     -25.890  19.263   8.297  1.00 20.00     0.000 C 
HETATM   12  C7  UNL     1     -25.771  18.896   6.854  1.00 20.00     0.005 C 
ENDBRANCH   5  11
TORSDOF 3
ENDMDL
MODEL 5
REMARK VINA RESULT:      -4.3      2.022      4.587
REMARK  3 active torsions:
REMARK  status: ('A' for Active; 'I' for Inactive)
REMARK    1  A    between atoms: C5_5  and  C9_9 
REMARK    2  A    between atoms: C6_6  and  C10_10 
REMARK    3  A    between atoms: C6_6  and  O11_11 
ROOT
HETATM    1  C1  UNL     1     -32.880  17.408  -2.880  1.00 20.00     0.003 C 
HETATM    2  C2  UNL     1     -33.072  15.989  -3.405  1.00 20.00     0.005 C 
HETATM    3  C3  UNL     1     -33.526  17.594  -1.507  1.00 20.00     0.038 C 
HETATM    4  C4  UNL     1     -35.209  15.773  -2.068  1.00 20.00     0.042 C 
HETATM    5  C5  UNL     1     -34.553  15.595  -3.448  1.00 20.00    -0.012 C 
HETATM    6  C6  UNL     1     -35.007  17.182  -1.482  1.00 20.00     0.058 C 
ENDROOT
BRANCH   6   7
HETATM    7  C10 UNL     1     -35.564  17.266  -0.060  1.00 20.00     0.033 C 
HETATM    8  C8  UNL     1     -34.579  17.877   0.880  1.00 20.00     0.008 C 
ENDBRANCH   6   7
BRANCH   6   9
HETATM    9  O11 UNL     1     -35.728  18.120  -2.289  1.00 20.00    -0.390 OA
HETATM   10  H31 UNL     1     -36.071  18.790  -1.682  1.00 20.00     0.210 HD
ENDBRANCH   6   9
BRANCH   5  11
HETATM   11  C9  UNL     1     -34.715  14.157  -3.939  1.00 20.00     0.000 C 
HETATM   12  C7  UNL     1     -36.107  13.888  -4.411  1.00 20.00     0.005 C 
ENDBRANCH   5  11
TORSDOF 3
ENDMDL
MODEL 6
REMARK VINA RESULT:      -4.3      1.573      2.140
REMARK  3 active torsions:
REMARK  status: ('A' for Active; 'I' for Inactive)
REMARK    1  A    between atoms: C5_5  and  C9_9 
REMARK    2  A    between atoms: C6_6  and  C10_10 
REMARK    3  A    between atoms: C6_6  and  O11_11 
ROOT
HETATM    1  C1  UNL     1     -34.345  17.216  -5.567  1.00 20.00     0.003 C 
HETATM    2  C2  UNL     1     -33.968  17.870  -4.242  1.00 20.00     0.005 C 
HETATM    3  C3  UNL     1     -35.062  15.882  -5.355  1.00 20.00     0.038 C 
HETATM    4  C4  UNL     1     -33.843  15.594  -3.143  1.00 20.00     0.042 C 
HETATM    5  C5  UNL     1     -33.124  16.936  -3.367  1.00 20.00    -0.012 C 
HETATM    6  C6  UNL     1     -34.276  14.916  -4.455  1.00 20.00     0.058 C 
ENDROOT
BRANCH   6   7
HETATM    7  C10 UNL     1     -35.096  13.656  -4.173  1.00 20.00     0.033 C 
HETATM    8  C8  UNL     1     -36.528  13.838  -4.549  1.00 20.00     0.008 C 
ENDBRANCH   6   7
BRANCH   6   9
HETATM    9  O11 UNL     1     -33.101  14.520  -5.173  1.00 20.00    -0.390 OA
HETATM   10  H31 UNL     1     -32.526  15.297  -5.197  1.00 20.00     0.210 HD
ENDBRANCH   6   9
BRANCH   5  11
HETATM   11  C9  UNL     1     -32.795  17.600  -2.031  1.00 20.00     0.000 C 
HETATM   12  C7  UNL     1     -33.983  17.637  -1.125  1.00 20.00     0.005 C 
ENDBRANCH   5  11
TORSDOF 3
ENDMDL
MODEL 7
REMARK VINA RESULT:      -4.2      1.268      4.301
REMARK  3 active torsions:
REMARK  status: ('A' for Active; 'I' for Inactive)
REMARK    1  A    between atoms: C5_5  and  C9_9 
REMARK    2  A    between atoms: C6_6  and  C10_10 
REMARK    3  A    between atoms: C6_6  and  O11_11 
ROOT
HETATM    1  C1  UNL     1     -35.932  13.605  -4.481  1.00 20.00     0.003 C 
HETATM    2  C2  UNL     1     -36.328  14.350  -5.752  1.00 20.00     0.005 C 
HETATM    3  C3  UNL     1     -35.035  14.457  -3.583  1.00 20.00     0.038 C 
HETATM    4  C4  UNL     1     -34.196  15.707  -5.632  1.00 20.00     0.042 C 
HETATM    5  C5  UNL     1     -35.101  14.843  -6.527  1.00 20.00    -0.012 C 
HETATM    6  C6  UNL     1     -33.802  15.008  -4.318  1.00 20.00     0.058 C 
ENDROOT
BRANCH   6   7
HETATM    7  C10 UNL     1     -33.014  15.955  -3.412  1.00 20.00     0.033 C 
HETATM    8  C8  UNL     1     -33.871  16.515  -2.326  1.00 20.00     0.008 C 
ENDBRANCH   6   7
BRANCH   6   9
HETATM    9  O11 UNL     1     -32.955  13.896  -4.630  1.00 20.00    -0.390 OA
HETATM   10  H31 UNL     1     -32.688  14.012  -5.553  1.00 20.00     0.210 HD
ENDBRANCH   6   9
BRANCH   5  11
HETATM   11  C9  UNL     1     -35.525  15.619  -7.773  1.00 20.00     0.000 C 
HETATM   12  C7  UNL     1     -34.982  17.011  -7.768  1.00 20.00     0.005 C 
ENDBRANCH   5  11
TORSDOF 3
ENDMDL
MODEL 8
REMARK VINA RESULT:      -4.2      1.614      1.850
REMARK  3 active torsions:
REMARK  status: ('A' for Active; 'I' for Inactive)
REMARK    1  A    between atoms: C5_5  and  C9_9 
REMARK    2  A    between atoms: C6_6  and  C10_10 
REMARK    3  A    between atoms: C6_6  and  O11_11 
ROOT
HETATM    1  C1  UNL     1     -34.597  14.141  -4.166  1.00 20.00     0.003 C 
HETATM    2  C2  UNL     1     -34.049  15.220  -3.237  1.00 20.00     0.005 C 
HETATM    3  C3  UNL     1     -35.675  14.694  -5.098  1.00 20.00     0.038 C 
HETATM    4  C4  UNL     1     -36.250  16.460  -3.362  1.00 20.00     0.042 C 
HETATM    5  C5  UNL     1     -35.164  15.895  -2.430  1.00 20.00    -0.012 C 
HETATM    6  C6  UNL     1     -36.806  15.414  -4.345  1.00 20.00     0.058 C 
ENDROOT
BRANCH   6   7
HETATM    7  C10 UNL     1     -37.784  16.056  -5.329  1.00 20.00     0.033 C 
HETATM    8  C8  UNL     1     -37.090  16.525  -6.565  1.00 20.00     0.008 C 
ENDBRANCH   6   7
BRANCH   6   9
HETATM    9  O11 UNL     1     -37.524  14.424  -3.599  1.00 20.00    -0.390 OA
HETATM   10  H31 UNL     1     -38.249  14.131  -4.169  1.00 20.00     0.210 HD
ENDBRANCH   6   9
BRANCH   5  11
HETATM   11  C9  UNL     1     -34.594  16.997  -1.539  1.00 20.00     0.000 C 
HETATM   12  C7  UNL     1     -33.213  17.385  -1.955  1.00 20.00     0.005 C 
ENDBRANCH   5  11
TORSDOF 3
ENDMDL
MODEL 9
REMARK VINA RESULT:      -4.2      1.619      2.129
REMARK  3 active torsions:
REMARK  status: ('A' for Active; 'I' for Inactive)
REMARK    1  A    between atoms: C5_5  and  C9_9 
REMARK    2  A    between atoms: C6_6  and  C10_10 
REMARK    3  A    between atoms: C6_6  and  O11_11 
ROOT
HETATM    1  C1  UNL     1     -34.121  17.624  -4.845  1.00 20.00     0.003 C 
HETATM    2  C2  UNL     1     -34.365  18.151  -3.434  1.00 20.00     0.005 C 
HETATM    3  C3  UNL     1     -34.614  16.186  -5.004  1.00 20.00     0.038 C 
HETATM    4  C4  UNL     1     -34.231  15.795  -2.521  1.00 20.00     0.042 C 
HETATM    5  C5  UNL     1     -33.734  17.243  -2.371  1.00 20.00    -0.012 C 
HETATM    6  C6  UNL     1     -34.039  15.235  -3.942  1.00 20.00     0.058 C 
ENDROOT
BRANCH   6   7
HETATM    7  C10 UNL     1     -34.664  13.846  -4.069  1.00 20.00     0.033 C 
HETATM    8  C8  UNL     1     -36.106  13.925  -4.444  1.00 20.00     0.008 C 
ENDBRANCH   6   7
BRANCH   6   9
HETATM    9  O11 UNL     1     -32.635  15.106  -4.195  1.00 20.00    -0.390 OA
HETATM   10  H31 UNL     1     -32.259  14.676  -3.414  1.00 20.00     0.210 HD
ENDBRANCH   6   9
BRANCH   5  11
HETATM   11  C9  UNL     1     -34.027  17.771  -0.968  1.00 20.00     0.000 C 
HETATM   12  C7  UNL     1     -35.273  17.171  -0.402  1.00 20.00     0.005 C 
ENDBRANCH   5  11
TORSDOF 3
ENDMDL
