MODEL 1
REMARK VINA RESULT:      -4.5      0.000      0.000
REMARK  3 active torsions:
REMARK  status: ('A' for Active; 'I' for Inactive)
REMARK    1  A    between atoms: C5_5  and  C8_8 
REMARK    2  A    between atoms: C6_6  and  C9_9 
REMARK    3  A    between atoms: C9_9  and  C10_10 
ROOT
HETATM    1  C1  UNL     1     -33.831   5.099   2.370  1.00 20.00     0.001 C 
HETATM    2  C2  UNL     1     -34.266   5.095   3.833  1.00 20.00     0.005 C 
HETATM    3  C3  UNL     1     -32.420   5.659   2.203  1.00 20.00     0.005 C 
HETATM    4  C4  UNL     1     -32.722   7.042   4.299  1.00 20.00     0.009 C 
HETATM    5  C5  UNL     1     -34.143   6.485   4.470  1.00 20.00    -0.014 C 
HETATM    6  C6  UNL     1     -32.245   7.045   2.838  1.00 20.00    -0.013 C 
ENDROOT
BRANCH   6   7
HETATM    7  C9  UNL     1     -32.939   8.136   2.018  1.00 20.00     0.020 C 
BRANCH   7   8
HETATM    8  C10 UNL     1     -32.394   8.257   0.603  1.00 20.00     0.115 C 
HETATM    9 CL11 UNL     1     -33.606   8.897  -0.530  1.00 20.00    -0.130 Cl
ENDBRANCH   7   8
ENDBRANCH   6   7
BRANCH   5  10
HETATM   10  C8  UNL     1     -34.524   6.432   5.950  1.00 20.00     0.000 C 
HETATM   11  C7  UNL     1     -34.865   5.044   6.381  1.00 20.00     0.005 C 
ENDBRANCH   5  10
TORSDOF 3
ENDMDL
MODEL 2
REMARK VINA RESULT:      -4.4     10.963     12.295
REMARK  3 active torsions:
REMARK  status: ('A' for Active; 'I' for Inactive)
REMARK    1  A    between atoms: C5_5  and  C8_8 
REMARK    2  A    between atoms: C6_6  and  C9_9 
REMARK    3  A    between atoms: C9_9  and  C10_10 
ROOT
HETATM    1  C1  UNL     1     -34.718  17.243  -0.761  1.00 20.00     0.001 C 
HETATM    2  C2  UNL     1     -34.809  16.315  -1.970  1.00 20.00     0.005 C 
HETATM    3  C3  UNL     1     -34.192  18.624  -1.149  1.00 20.00     0.005 C 
HETATM    4  C4  UNL     1     -32.949  17.602  -3.101  1.00 20.00     0.009 C 
HETATM    5  C5  UNL     1     -33.472  16.210  -2.712  1.00 20.00    -0.014 C 
HETATM    6  C6  UNL     1     -32.859  18.568  -1.909  1.00 20.00    -0.013 C 
ENDROOT
BRANCH   6   7
HETATM    7  C9  UNL     1     -31.693  18.217  -0.981  1.00 20.00     0.020 C 
BRANCH   7   8
HETATM    8  C10 UNL     1     -31.616  19.112   0.246  1.00 20.00     0.115 C 
HETATM    9 CL11 UNL     1     -31.920  18.214   1.751  1.00 20.00    -0.130 Cl
ENDBRANCH   7   8
ENDBRANCH   6   7
BRANCH   5  10
HETATM   10  C8  UNL     1     -33.615  15.327  -3.953  1.00 20.00     0.000 C 
HETATM   11  C7  UNL     1     -34.726  14.342  -3.802  1.00 20.00     0.005 C 
ENDBRANCH   5  10
TORSDOF 3
ENDMDL
MODEL 3
REMARK VINA RESULT:      -4.4     10.940     11.858
REMARK  3 active torsions:
REMARK  status: ('A' for Active; 'I' for Inactive)
REMARK    1  A    between atoms: C5_5  and  C8_8 
REMARK    2  A    between atoms: C6_6  and  C9_9 
REMARK    3  A    between atoms: C9_9  and  C10_10 
ROOT
HETATM    1  C1  UNL     1     -35.828  15.153  -3.242  1.00 20.00     0.001 C 
HETATM    2  C2  UNL     1     -34.960  15.983  -2.300  1.00 20.00     0.005 C 
HETATM    3  C3  UNL     1     -35.014  14.081  -3.963  1.00 20.00     0.005 C 
HETATM    4  C4  UNL     1     -32.940  15.514  -3.747  1.00 20.00     0.009 C 
HETATM    5  C5  UNL     1     -33.756  16.597  -3.025  1.00 20.00    -0.014 C 
HETATM    6  C6  UNL     1     -33.787  14.648  -4.693  1.00 20.00    -0.013 C 
ENDROOT
BRANCH   6   7
HETATM    7  C9  UNL     1     -34.184  15.413  -5.958  1.00 20.00     0.020 C 
BRANCH   7   8
HETATM    8  C10 UNL     1     -35.386  14.809  -6.668  1.00 20.00     0.115 C 
HETATM    9 CL11 UNL     1     -36.766  15.930  -6.722  1.00 20.00    -0.130 Cl
ENDBRANCH   7   8
ENDBRANCH   6   7
BRANCH   5  10
HETATM   10  C8  UNL     1     -32.873  17.366  -2.041  1.00 20.00     0.000 C 
HETATM   11  C7  UNL     1     -33.661  17.885  -0.884  1.00 20.00     0.005 C 
ENDBRANCH   5  10
TORSDOF 3
ENDMDL
MODEL 4
REMARK VINA RESULT:      -4.2     15.166     15.736
REMARK  3 active torsions:
REMARK  status: ('A' for Active; 'I' for Inactive)
REMARK    1  A    between atoms: C5_5  and  C8_8 
REMARK    2  A    between atoms: C6_6  and  C9_9 
REMARK    3  A    between atoms: C9_9  and  C10_10 
ROOT
HETATM    1  C1  UNL     1     -22.672  17.602   8.509  1.00 20.00     0.001 C 
HETATM    2  C2  UNL     1     -22.865  16.822   9.807  1.00 20.00     0.005 C 
HETATM    3  C3  UNL     1     -23.119  19.055   8.654  1.00 20.00     0.005 C 
HETATM    4  C4  UNL     1     -24.752  18.372  10.461  1.00 20.00     0.009 C 
HETATM    5  C5  UNL     1     -24.308  16.908  10.317  1.00 20.00    -0.014 C 
HETATM    6  C6  UNL     1     -24.556  19.193   9.176  1.00 20.00    -0.013 C 
ENDROOT
BRANCH   6   7
HETATM    7  C9  UNL     1     -25.586  18.823   8.106  1.00 20.00     0.020 C 
BRANCH   7   8
HETATM    8  C10 UNL     1     -25.178  19.262   6.708  1.00 20.00     0.115 C 
HETATM    9 CL11 UNL     1     -26.289  18.651   5.461  1.00 20.00    -0.130 Cl
ENDBRANCH   7   8
ENDBRANCH   6   7
BRANCH   5  10
HETATM   10  C8  UNL     1     -24.451  16.172  11.649  1.00 20.00     0.000 C 
HETATM   11  C7  UNL     1     -25.753  16.479  12.311  1.00 20.00     0.005 C 
ENDBRANCH   5  10
TORSDOF 3
ENDMDL
MODEL 5
REMARK VINA RESULT:      -4.2     11.101     12.150
REMARK  3 active torsions:
REMARK  status: ('A' for Active; 'I' for Inactive)
REMARK    1  A    between atoms: C5_5  and  C8_8 
REMARK    2  A    between atoms: C6_6  and  C9_9 
REMARK    3  A    between atoms: C9_9  and  C10_10 
ROOT
HETATM    1  C1  UNL     1     -35.595  16.347  -1.965  1.00 20.00     0.001 C 
HETATM    2  C2  UNL     1     -34.793  17.134  -0.932  1.00 20.00     0.005 C 
HETATM    3  C3  UNL     1     -34.694  15.465  -2.826  1.00 20.00     0.005 C 
HETATM    4  C4  UNL     1     -32.769  17.061  -2.445  1.00 20.00     0.009 C 
HETATM    5  C5  UNL     1     -33.673  17.955  -1.582  1.00 20.00    -0.014 C 
HETATM    6  C6  UNL     1     -33.546  16.242  -3.487  1.00 20.00    -0.013 C 
ENDROOT
BRANCH   6   7
HETATM    7  C9  UNL     1     -34.045  17.117  -4.640  1.00 20.00     0.020 C 
BRANCH   7   8
HETATM    8  C10 UNL     1     -34.857  16.345  -5.668  1.00 20.00     0.115 C 
HETATM    9 CL11 UNL     1     -33.934  15.002  -6.381  1.00 20.00    -0.130 Cl
ENDBRANCH   7   8
ENDBRANCH   6   7
BRANCH   5  10
HETATM   10  C8  UNL     1     -32.850  18.678  -0.515  1.00 20.00     0.000 C 
HETATM   11  C7  UNL     1     -31.402  18.323  -0.602  1.00 20.00     0.005 C 
ENDBRANCH   5  10
TORSDOF 3
ENDMDL
MODEL 6
REMARK VINA RESULT:      -4.1     10.778     12.334
REMARK  3 active torsions:
REMARK  status: ('A' for Active; 'I' for Inactive)
REMARK    1  A    between atoms: C5_5  and  C8_8 
REMARK    2  A    between atoms: C6_6  and  C9_9 
REMARK    3  A    between atoms: C9_9  and  C10_10 
ROOT
HETATM    1  C1  UNL     1     -35.366  17.801  -3.971  1.00 20.00     0.001 C 
HETATM    2  C2  UNL     1     -35.532  16.333  -4.354  1.00 20.00     0.005 C 
HETATM    3  C3  UNL     1     -33.895  18.210  -3.932  1.00 20.00     0.005 C 
HETATM    4  C4  UNL     1     -33.245  15.823  -3.403  1.00 20.00     0.009 C 
HETATM    5  C5  UNL     1     -34.724  15.407  -3.437  1.00 20.00    -0.014 C 
HETATM    6  C6  UNL     1     -33.041  17.301  -3.036  1.00 20.00    -0.013 C 
ENDROOT
BRANCH   6   7
HETATM    7  C9  UNL     1     -33.309  17.559  -1.551  1.00 20.00     0.020 C 
BRANCH   7   8
HETATM    8  C10 UNL     1     -32.520  18.735  -0.997  1.00 20.00     0.115 C 
HETATM    9 CL11 UNL     1     -30.948  18.236  -0.332  1.00 20.00    -0.130 Cl
ENDBRANCH   7   8
ENDBRANCH   6   7
BRANCH   5  10
HETATM   10  C8  UNL     1     -34.861  13.952  -3.888  1.00 20.00     0.000 C 
HETATM   11  C7  UNL     1     -36.177  13.702  -4.547  1.00 20.00     0.005 C 
ENDBRANCH   5  10
TORSDOF 3
ENDMDL
MODEL 7
REMARK VINA RESULT:      -4.0     11.041     12.196
REMARK  3 active torsions:
REMARK  status: ('A' for Active; 'I' for Inactive)
REMARK    1  A    between atoms: C5_5  and  C8_8 
REMARK    2  A    between atoms: C6_6  and  C9_9 
REMARK    3  A    between atoms: C9_9  and  C10_10 
ROOT
HETATM    1  C1  UNL     1     -32.842  17.637  -2.611  1.00 20.00     0.001 C 
HETATM    2  C2  UNL     1     -32.941  16.248  -3.236  1.00 20.00     0.005 C 
HETATM    3  C3  UNL     1     -33.602  17.716  -1.289  1.00 20.00     0.005 C 
HETATM    4  C4  UNL     1     -35.157  15.882  -2.074  1.00 20.00     0.009 C 
HETATM    5  C5  UNL     1     -34.398  15.801  -3.407  1.00 20.00    -0.014 C 
HETATM    6  C6  UNL     1     -35.065  17.264  -1.408  1.00 20.00    -0.013 C 
ENDROOT
BRANCH   6   7
HETATM    7  C9  UNL     1     -35.921  18.303  -2.137  1.00 20.00     0.020 C 
BRANCH   7   8
HETATM    8  C10 UNL     1     -37.338  17.823  -2.412  1.00 20.00     0.115 C 
HETATM    9 CL11 UNL     1     -37.620  17.517  -4.141  1.00 20.00    -0.130 Cl
ENDBRANCH   7   8
ENDBRANCH   6   7
BRANCH   5  10
HETATM   10  C8  UNL     1     -34.461  14.382  -3.974  1.00 20.00     0.000 C 
HETATM   11  C7  UNL     1     -35.864  13.971  -4.275  1.00 20.00     0.005 C 
ENDBRANCH   5  10
TORSDOF 3
ENDMDL
MODEL 8
REMARK VINA RESULT:      -4.0     10.990     11.685
REMARK  3 active torsions:
REMARK  status: ('A' for Active; 'I' for Inactive)
REMARK    1  A    between atoms: C5_5  and  C8_8 
REMARK    2  A    between atoms: C6_6  and  C9_9 
REMARK    3  A    between atoms: C9_9  and  C10_10 
ROOT
HETATM    1  C1  UNL     1     -33.010  16.579  -2.964  1.00 20.00     0.001 C 
HETATM    2  C2  UNL     1     -33.630  17.220  -1.726  1.00 20.00     0.005 C 
HETATM    3  C3  UNL     1     -33.963  16.621  -4.157  1.00 20.00     0.005 C 
HETATM    4  C4  UNL     1     -35.939  16.639  -2.578  1.00 20.00     0.009 C 
HETATM    5  C5  UNL     1     -34.985  16.592  -1.374  1.00 20.00    -0.014 C 
HETATM    6  C6  UNL     1     -35.340  16.016  -3.849  1.00 20.00    -0.013 C 
ENDROOT
BRANCH   6   7
HETATM    7  C9  UNL     1     -35.280  14.489  -3.757  1.00 20.00     0.020 C 
BRANCH   7   8
HETATM    8  C10 UNL     1     -36.131  13.794  -4.809  1.00 20.00     0.115 C 
HETATM    9 CL11 UNL     1     -35.791  14.391  -6.449  1.00 20.00    -0.130 Cl
ENDBRANCH   7   8
ENDBRANCH   6   7
BRANCH   5  10
HETATM   10  C8  UNL     1     -35.607  17.300  -0.170  1.00 20.00     0.000 C 
HETATM   11  C7  UNL     1     -34.567  17.924   0.700  1.00 20.00     0.005 C 
ENDBRANCH   5  10
TORSDOF 3
ENDMDL
MODEL 9
REMARK VINA RESULT:      -4.0     11.462     12.075
REMARK  3 active torsions:
REMARK  status: ('A' for Active; 'I' for Inactive)
REMARK    1  A    between atoms: C5_5  and  C8_8 
REMARK    2  A    between atoms: C6_6  and  C9_9 
REMARK    3  A    between atoms: C9_9  and  C10_10 
ROOT
HETATM    1  C1  UNL     1     -33.448  14.652  -4.644  1.00 20.00     0.001 C 
HETATM    2  C2  UNL     1     -33.190  15.615  -3.488  1.00 20.00     0.005 C 
HETATM    3  C3  UNL     1     -34.493  15.201  -5.612  1.00 20.00     0.005 C 
HETATM    4  C4  UNL     1     -35.532  16.537  -3.732  1.00 20.00     0.009 C 
HETATM    5  C5  UNL     1     -34.485  15.985  -2.753  1.00 20.00    -0.014 C 
HETATM    6  C6  UNL     1     -35.804  15.599  -4.919  1.00 20.00    -0.013 C 
ENDROOT
BRANCH   6   7
HETATM    7  C9  UNL     1     -36.617  14.372  -4.497  1.00 20.00     0.020 C 
BRANCH   7   8
HETATM    8  C10 UNL     1     -38.083  14.686  -4.242  1.00 20.00     0.115 C 
HETATM    9 CL11 UNL     1     -38.682  15.993  -5.290  1.00 20.00    -0.130 Cl
ENDBRANCH   7   8
ENDBRANCH   6   7
BRANCH   5  10
HETATM   10  C8  UNL     1     -34.201  16.999  -1.645  1.00 20.00     0.000 C 
HETATM   11  C7  UNL     1     -32.867  17.646  -1.819  1.00 20.00     0.005 C 
ENDBRANCH   5  10
TORSDOF 3
ENDMDL
