MODEL 1
REMARK VINA RESULT:      -4.8      0.000      0.000
REMARK  3 active torsions:
REMARK  status: ('A' for Active; 'I' for Inactive)
REMARK    1  A    between atoms: C6_6  and  C10_10 
REMARK    2  A    between atoms: C7_7  and  N11_11 
REMARK    3  A    between atoms: C9_9  and  N11_11 
ROOT
HETATM    1  C1  UNL     1     -32.867   9.096   0.787  1.00 20.00     0.013 C 
HETATM    2  C2  UNL     1     -32.767   8.087   1.429  1.00 20.00    -0.087 C 
HETATM    3  C9  UNL     1     -32.643   6.852   2.207  1.00 20.00     0.362 C 
ENDROOT
BRANCH   3   4
HETATM    4  N11 UNL     1     -32.425   7.152   3.613  1.00 20.00     0.098 N 
HETATM    5  H28 UNL     1     -31.955   8.050   3.700  1.00 20.00     0.317 HD
BRANCH   4   6
HETATM    6  C7  UNL     1     -33.678   7.211   4.322  1.00 20.00     0.222 C 
HETATM    7  C4  UNL     1     -33.523   6.746   5.773  1.00 20.00     0.036 C 
HETATM    8  C3  UNL     1     -34.680   5.784   6.018  1.00 20.00     0.007 C 
HETATM    9  C6  UNL     1     -34.935   5.138   4.659  1.00 20.00    -0.013 C 
HETATM   10  C5  UNL     1     -34.744   6.306   3.689  1.00 20.00     0.040 C 
BRANCH   9  11
HETATM   11  C10 UNL     1     -33.978   3.982   4.374  1.00 20.00     0.000 C 
HETATM   12  C8  UNL     1     -33.717   3.819   2.910  1.00 20.00     0.005 C 
ENDBRANCH   9  11
ENDBRANCH   4   6
ENDBRANCH   3   4
TORSDOF 3
ENDMDL
MODEL 2
REMARK VINA RESULT:      -4.7     15.763     16.602
REMARK  3 active torsions:
REMARK  status: ('A' for Active; 'I' for Inactive)
REMARK    1  A    between atoms: C6_6  and  C10_10 
REMARK    2  A    between atoms: C7_7  and  N11_11 
REMARK    3  A    between atoms: C9_9  and  N11_11 
ROOT
HETATM    1  C1  UNL     1     -21.293  17.024   7.194  1.00 20.00     0.013 C 
HETATM    2  C2  UNL     1     -22.174  17.501   7.854  1.00 20.00    -0.087 C 
HETATM    3  C9  UNL     1     -23.254  18.082   8.656  1.00 20.00     0.362 C 
ENDROOT
BRANCH   3   4
HETATM    4  N11 UNL     1     -22.752  18.528   9.946  1.00 20.00     0.098 N 
HETATM    5  H28 UNL     1     -23.226  19.387  10.217  1.00 20.00     0.317 HD
BRANCH   4   6
HETATM    6  C7  UNL     1     -22.985  17.528  10.957  1.00 20.00     0.222 C 
HETATM    7  C4  UNL     1     -24.012  16.491  10.492  1.00 20.00     0.036 C 
HETATM    8  C3  UNL     1     -24.981  16.328  11.657  1.00 20.00     0.007 C 
HETATM    9  C6  UNL     1     -25.002  17.697  12.332  1.00 20.00    -0.013 C 
HETATM   10  C5  UNL     1     -23.538  18.134  12.253  1.00 20.00     0.040 C 
BRANCH   9  11
HETATM   11  C10 UNL     1     -25.941  18.678  11.632  1.00 20.00     0.000 C 
HETATM   12  C8  UNL     1     -27.374  18.426  11.980  1.00 20.00     0.005 C 
ENDBRANCH   9  11
ENDBRANCH   4   6
ENDBRANCH   3   4
TORSDOF 3
ENDMDL
MODEL 3
REMARK VINA RESULT:      -4.5     15.273     16.704
REMARK  3 active torsions:
REMARK  status: ('A' for Active; 'I' for Inactive)
REMARK    1  A    between atoms: C6_6  and  C10_10 
REMARK    2  A    between atoms: C7_7  and  N11_11 
REMARK    3  A    between atoms: C9_9  and  N11_11 
ROOT
HETATM    1  C1  UNL     1     -29.222  18.292  11.650  1.00 20.00     0.013 C 
HETATM    2  C2  UNL     1     -28.061  18.263  11.954  1.00 20.00    -0.087 C 
HETATM    3  C9  UNL     1     -26.646  18.228  12.332  1.00 20.00     0.362 C 
ENDROOT
BRANCH   3   4
HETATM    4  N11 UNL     1     -25.811  17.984  11.167  1.00 20.00     0.098 N 
HETATM    5  H28 UNL     1     -25.497  18.872  10.781  1.00 20.00     0.317 HD
BRANCH   4   6
HETATM    6  C7  UNL     1     -24.657  17.197  11.523  1.00 20.00     0.222 C 
HETATM    7  C4  UNL     1     -23.612  18.038  12.262  1.00 20.00     0.036 C 
HETATM    8  C3  UNL     1     -22.280  17.702  11.603  1.00 20.00     0.007 C 
HETATM    9  C6  UNL     1     -22.639  17.387  10.153  1.00 20.00    -0.013 C 
HETATM   10  C5  UNL     1     -23.952  16.614  10.292  1.00 20.00     0.040 C 
BRANCH   9  11
HETATM   11  C10 UNL     1     -22.791  18.646   9.302  1.00 20.00     0.000 C 
HETATM   12  C8  UNL     1     -23.734  18.440   8.160  1.00 20.00     0.005 C 
ENDBRANCH   9  11
ENDBRANCH   4   6
ENDBRANCH   3   4
TORSDOF 3
ENDMDL
MODEL 4
REMARK VINA RESULT:      -4.5     11.442     13.096
REMARK  3 active torsions:
REMARK  status: ('A' for Active; 'I' for Inactive)
REMARK    1  A    between atoms: C6_6  and  C10_10 
REMARK    2  A    between atoms: C7_7  and  N11_11 
REMARK    3  A    between atoms: C9_9  and  N11_11 
ROOT
HETATM    1  C1  UNL     1     -34.644  17.105  -7.917  1.00 20.00     0.013 C 
HETATM    2  C2  UNL     1     -34.545  16.124  -7.233  1.00 20.00    -0.087 C 
HETATM    3  C9  UNL     1     -34.428  14.923  -6.401  1.00 20.00     0.362 C 
ENDROOT
BRANCH   3   4
HETATM    4  N11 UNL     1     -33.156  14.910  -5.697  1.00 20.00     0.098 N 
HETATM    5  H28 UNL     1     -32.687  15.804  -5.825  1.00 20.00     0.317 HD
BRANCH   4   6
HETATM    6  C7  UNL     1     -33.356  14.685  -4.288  1.00 20.00     0.222 C 
HETATM    7  C4  UNL     1     -34.839  14.481  -3.959  1.00 20.00     0.036 C 
HETATM    8  C3  UNL     1     -35.110  15.362  -2.745  1.00 20.00     0.007 C 
HETATM    9  C6  UNL     1     -34.152  16.540  -2.905  1.00 20.00    -0.013 C 
HETATM   10  C5  UNL     1     -32.884  15.873  -3.440  1.00 20.00     0.040 C 
BRANCH   9  11
HETATM   11  C10 UNL     1     -34.693  17.607  -3.855  1.00 20.00     0.000 C 
HETATM   12  C8  UNL     1     -33.603  18.466  -4.412  1.00 20.00     0.005 C 
ENDBRANCH   9  11
ENDBRANCH   4   6
ENDBRANCH   3   4
TORSDOF 3
ENDMDL
MODEL 5
REMARK VINA RESULT:      -4.4     11.402     13.076
REMARK  3 active torsions:
REMARK  status: ('A' for Active; 'I' for Inactive)
REMARK    1  A    between atoms: C6_6  and  C10_10 
REMARK    2  A    between atoms: C7_7  and  N11_11 
REMARK    3  A    between atoms: C9_9  and  N11_11 
ROOT
HETATM    1  C1  UNL     1     -35.404  19.158  -4.514  1.00 20.00     0.013 C 
HETATM    2  C2  UNL     1     -35.369  18.260  -5.310  1.00 20.00    -0.087 C 
HETATM    3  C9  UNL     1     -35.332  17.167  -6.285  1.00 20.00     0.362 C 
ENDROOT
BRANCH   3   4
HETATM    4  N11 UNL     1     -34.052  16.478  -6.233  1.00 20.00     0.098 N 
HETATM    5  H28 UNL     1     -33.478  16.881  -5.496  1.00 20.00     0.317 HD
BRANCH   4   6
HETATM    6  C7  UNL     1     -34.239  15.075  -5.965  1.00 20.00     0.222 C 
HETATM    7  C4  UNL     1     -35.717  14.740  -5.741  1.00 20.00     0.036 C 
HETATM    8  C3  UNL     1     -35.751  13.867  -4.492  1.00 20.00     0.007 C 
HETATM    9  C6  UNL     1     -34.576  14.358  -3.650  1.00 20.00    -0.013 C 
HETATM   10  C5  UNL     1     -33.497  14.624  -4.701  1.00 20.00     0.040 C 
BRANCH   9  11
HETATM   11  C10 UNL     1     -34.920  15.606  -2.839  1.00 20.00     0.000 C 
HETATM   12  C8  UNL     1     -33.702  16.401  -2.492  1.00 20.00     0.005 C 
ENDBRANCH   9  11
ENDBRANCH   4   6
ENDBRANCH   3   4
TORSDOF 3
ENDMDL
MODEL 6
REMARK VINA RESULT:      -4.4     11.258     12.539
REMARK  3 active torsions:
REMARK  status: ('A' for Active; 'I' for Inactive)
REMARK    1  A    between atoms: C6_6  and  C10_10 
REMARK    2  A    between atoms: C7_7  and  N11_11 
REMARK    3  A    between atoms: C9_9  and  N11_11 
ROOT
HETATM    1  C1  UNL     1     -31.417  18.155  -0.705  1.00 20.00     0.013 C 
HETATM    2  C2  UNL     1     -32.205  18.191  -1.610  1.00 20.00    -0.087 C 
HETATM    3  C9  UNL     1     -33.169  18.242  -2.713  1.00 20.00     0.362 C 
ENDROOT
BRANCH   3   4
HETATM    4  N11 UNL     1     -32.918  17.169  -3.662  1.00 20.00     0.098 N 
HETATM    5  H28 UNL     1     -31.927  17.147  -3.896  1.00 20.00     0.317 HD
BRANCH   4   6
HETATM    6  C7  UNL     1     -33.293  15.895  -3.102  1.00 20.00     0.222 C 
HETATM    7  C4  UNL     1     -33.305  14.796  -4.169  1.00 20.00     0.036 C 
HETATM    8  C3  UNL     1     -34.613  14.043  -3.961  1.00 20.00     0.007 C 
HETATM    9  C6  UNL     1     -35.582  15.097  -3.431  1.00 20.00    -0.013 C 
HETATM   10  C5  UNL     1     -34.700  15.923  -2.493  1.00 20.00     0.040 C 
BRANCH   9  11
HETATM   11  C10 UNL     1     -36.195  15.940  -4.548  1.00 20.00     0.000 C 
HETATM   12  C8  UNL     1     -36.628  17.286  -4.060  1.00 20.00     0.005 C 
ENDBRANCH   9  11
ENDBRANCH   4   6
ENDBRANCH   3   4
TORSDOF 3
ENDMDL
MODEL 7
REMARK VINA RESULT:      -4.3     11.563     12.896
REMARK  3 active torsions:
REMARK  status: ('A' for Active; 'I' for Inactive)
REMARK    1  A    between atoms: C6_6  and  C10_10 
REMARK    2  A    between atoms: C7_7  and  N11_11 
REMARK    3  A    between atoms: C9_9  and  N11_11 
ROOT
HETATM    1  C1  UNL     1     -33.943  15.155  -7.774  1.00 20.00     0.013 C 
HETATM    2  C2  UNL     1     -34.258  16.105  -7.113  1.00 20.00    -0.087 C 
HETATM    3  C9  UNL     1     -34.649  17.265  -6.307  1.00 20.00     0.362 C 
ENDROOT
BRANCH   3   4
HETATM    4  N11 UNL     1     -33.686  17.499  -5.243  1.00 20.00     0.098 N 
HETATM    5  H28 UNL     1     -33.173  18.357  -5.431  1.00 20.00     0.317 HD
BRANCH   4   6
HETATM    6  C7  UNL     1     -34.352  17.622  -3.972  1.00 20.00     0.222 C 
HETATM    7  C4  UNL     1     -33.504  17.040  -2.837  1.00 20.00     0.036 C 
HETATM    8  C3  UNL     1     -34.456  16.175  -2.020  1.00 20.00     0.007 C 
HETATM    9  C6  UNL     1     -35.469  15.656  -3.037  1.00 20.00    -0.013 C 
HETATM   10  C5  UNL     1     -35.688  16.868  -3.943  1.00 20.00     0.040 C 
BRANCH   9  11
HETATM   11  C10 UNL     1     -34.954  14.440  -3.805  1.00 20.00     0.000 C 
HETATM   12  C8  UNL     1     -36.057  13.716  -4.510  1.00 20.00     0.005 C 
ENDBRANCH   9  11
ENDBRANCH   4   6
ENDBRANCH   3   4
TORSDOF 3
ENDMDL
MODEL 8
REMARK VINA RESULT:      -4.2     11.383     12.390
REMARK  3 active torsions:
REMARK  status: ('A' for Active; 'I' for Inactive)
REMARK    1  A    between atoms: C6_6  and  C10_10 
REMARK    2  A    between atoms: C7_7  and  N11_11 
REMARK    3  A    between atoms: C9_9  and  N11_11 
ROOT
HETATM    1  C1  UNL     1     -34.945  17.016  -1.241  1.00 20.00     0.013 C 
HETATM    2  C2  UNL     1     -34.139  16.672  -2.061  1.00 20.00    -0.087 C 
HETATM    3  C9  UNL     1     -33.150  16.248  -3.057  1.00 20.00     0.362 C 
ENDROOT
BRANCH   3   4
HETATM    4  N11 UNL     1     -33.665  16.441  -4.403  1.00 20.00     0.098 N 
HETATM    5  H28 UNL     1     -32.991  16.969  -4.953  1.00 20.00     0.317 HD
BRANCH   4   6
HETATM    6  C7  UNL     1     -33.899  15.172  -5.045  1.00 20.00     0.222 C 
HETATM    7  C4  UNL     1     -34.881  15.308  -6.213  1.00 20.00     0.036 C 
HETATM    8  C3  UNL     1     -35.879  14.169  -6.039  1.00 20.00     0.007 C 
HETATM    9  C6  UNL     1     -35.959  13.957  -4.530  1.00 20.00    -0.013 C 
HETATM   10  C5  UNL     1     -34.507  14.141  -4.086  1.00 20.00     0.040 C 
BRANCH   9  11
HETATM   11  C10 UNL     1     -36.905  14.947  -3.852  1.00 20.00     0.000 C 
HETATM   12  C8  UNL     1     -38.321  14.760  -4.295  1.00 20.00     0.005 C 
ENDBRANCH   9  11
ENDBRANCH   4   6
ENDBRANCH   3   4
TORSDOF 3
ENDMDL
MODEL 9
REMARK VINA RESULT:      -4.2     11.161     12.773
REMARK  3 active torsions:
REMARK  status: ('A' for Active; 'I' for Inactive)
REMARK    1  A    between atoms: C6_6  and  C10_10 
REMARK    2  A    between atoms: C7_7  and  N11_11 
REMARK    3  A    between atoms: C9_9  and  N11_11 
ROOT
HETATM    1  C1  UNL     1     -37.494  17.945  -5.553  1.00 20.00     0.013 C 
HETATM    2  C2  UNL     1     -36.969  17.621  -4.523  1.00 20.00    -0.087 C 
HETATM    3  C9  UNL     1     -36.328  17.233  -3.264  1.00 20.00     0.362 C 
ENDROOT
BRANCH   3   4
HETATM    4  N11 UNL     1     -36.456  15.802  -3.044  1.00 20.00     0.098 N 
HETATM    5  H28 UNL     1     -36.865  15.366  -3.868  1.00 20.00     0.317 HD
BRANCH   4   6
HETATM    6  C7  UNL     1     -35.168  15.207  -2.794  1.00 20.00     0.222 C 
HETATM    7  C4  UNL     1     -34.046  16.248  -2.873  1.00 20.00     0.036 C 
HETATM    8  C3  UNL     1     -32.959  15.609  -3.728  1.00 20.00     0.007 C 
HETATM    9  C6  UNL     1     -33.716  14.706  -4.699  1.00 20.00    -0.013 C 
HETATM   10  C5  UNL     1     -34.823  14.120  -3.820  1.00 20.00     0.040 C 
BRANCH   9  11
HETATM   11  C10 UNL     1     -34.270  15.473  -5.898  1.00 20.00     0.000 C 
HETATM   12  C8  UNL     1     -35.454  14.789  -6.502  1.00 20.00     0.005 C 
ENDBRANCH   9  11
ENDBRANCH   4   6
ENDBRANCH   3   4
TORSDOF 3
ENDMDL
