MODEL 1
REMARK VINA RESULT:      -3.9      0.000      0.000
REMARK  3 active torsions:
REMARK  status: ('A' for Active; 'I' for Inactive)
REMARK    1  A    between atoms: C4_4  and  C6_6 
REMARK    2  A    between atoms: C5_5  and  C6_6 
REMARK    3  A    between atoms: C5_5  and  O8_8 
ROOT
HETATM    1  C1  UNL     1     -33.928   5.184   3.533  1.00 20.00     0.066 C 
HETATM    2  C6  UNL     1     -33.796   6.614   3.878  1.00 20.00     0.116 C 
HETATM    3  N7  UNL     1     -34.034   4.061   3.260  1.00 20.00    -0.197 NA
ENDROOT
BRANCH   2   4
HETATM    4  C4  UNL     1     -33.773   6.808   5.405  1.00 20.00     0.017 C 
HETATM    5  C2  UNL     1     -34.636   5.793   6.148  1.00 20.00     0.006 C 
ENDBRANCH   2   4
BRANCH   2   6
HETATM    6  C5  UNL     1     -32.513   7.182   3.258  1.00 20.00     0.186 C 
BRANCH   6   7
HETATM    7  O8  UNL     1     -32.551   7.009   1.845  1.00 20.00    -0.395 OA
HETATM    8  C3  UNL     1     -32.644   8.256   1.171  1.00 20.00     0.201 C 
ENDBRANCH   6   7
ENDBRANCH   2   6
TORSDOF 3
ENDMDL
MODEL 2
REMARK VINA RESULT:      -3.8     11.527     11.989
REMARK  3 active torsions:
REMARK  status: ('A' for Active; 'I' for Inactive)
REMARK    1  A    between atoms: C4_4  and  C6_6 
REMARK    2  A    between atoms: C5_5  and  C6_6 
REMARK    3  A    between atoms: C5_5  and  O8_8 
ROOT
HETATM    1  C1  UNL     1     -36.524  14.476  -4.236  1.00 20.00     0.066 C 
HETATM    2  C6  UNL     1     -35.369  15.381  -4.062  1.00 20.00     0.116 C 
HETATM    3  N7  UNL     1     -37.432  13.767  -4.373  1.00 20.00    -0.197 NA
ENDROOT
BRANCH   2   4
HETATM    4  C4  UNL     1     -35.125  15.676  -2.572  1.00 20.00     0.017 C 
HETATM    5  C2  UNL     1     -33.850  16.475  -2.322  1.00 20.00     0.006 C 
ENDBRANCH   2   4
BRANCH   2   6
HETATM    6  C5  UNL     1     -34.117  14.752  -4.686  1.00 20.00     0.186 C 
BRANCH   6   7
HETATM    7  O8  UNL     1     -34.412  14.317  -6.009  1.00 20.00    -0.395 OA
HETATM    8  C3  UNL     1     -34.063  15.302  -6.970  1.00 20.00     0.201 C 
ENDBRANCH   6   7
ENDBRANCH   2   6
TORSDOF 3
ENDMDL
MODEL 3
REMARK VINA RESULT:      -3.7     16.192     16.919
REMARK  3 active torsions:
REMARK  status: ('A' for Active; 'I' for Inactive)
REMARK    1  A    between atoms: C4_4  and  C6_6 
REMARK    2  A    between atoms: C5_5  and  C6_6 
REMARK    3  A    between atoms: C5_5  and  O8_8 
ROOT
HETATM    1  C1  UNL     1     -22.079  17.384   8.164  1.00 20.00     0.066 C 
HETATM    2  C6  UNL     1     -22.672  18.059   9.338  1.00 20.00     0.116 C 
HETATM    3  N7  UNL     1     -21.612  16.855   7.244  1.00 20.00    -0.197 NA
ENDROOT
BRANCH   2   4
HETATM    4  C4  UNL     1     -23.577  19.224   8.899  1.00 20.00     0.017 C 
HETATM    5  C2  UNL     1     -24.897  18.758   8.294  1.00 20.00     0.006 C 
ENDBRANCH   2   4
BRANCH   2   6
HETATM    6  C5  UNL     1     -23.477  17.051  10.166  1.00 20.00     0.186 C 
BRANCH   6   7
HETATM    7  O8  UNL     1     -23.701  17.576  11.470  1.00 20.00    -0.395 OA
HETATM    8  C3  UNL     1     -22.489  17.689  12.200  1.00 20.00     0.201 C 
ENDBRANCH   6   7
ENDBRANCH   2   6
TORSDOF 3
ENDMDL
MODEL 4
REMARK VINA RESULT:      -3.6     11.417     12.102
REMARK  3 active torsions:
REMARK  status: ('A' for Active; 'I' for Inactive)
REMARK    1  A    between atoms: C4_4  and  C6_6 
REMARK    2  A    between atoms: C5_5  and  C6_6 
REMARK    3  A    between atoms: C5_5  and  O8_8 
ROOT
HETATM    1  C1  UNL     1     -35.773  13.828  -4.227  1.00 20.00     0.066 C 
HETATM    2  C6  UNL     1     -35.632  15.237  -3.801  1.00 20.00     0.116 C 
HETATM    3  N7  UNL     1     -35.886  12.723  -4.559  1.00 20.00    -0.197 NA
ENDROOT
BRANCH   2   4
HETATM    4  C4  UNL     1     -34.328  15.440  -3.010  1.00 20.00     0.017 C 
HETATM    5  C2  UNL     1     -34.417  16.574  -1.995  1.00 20.00     0.006 C 
ENDBRANCH   2   4
BRANCH   2   6
HETATM    6  C5  UNL     1     -35.650  16.155  -5.030  1.00 20.00     0.186 C 
BRANCH   6   7
HETATM    7  O8  UNL     1     -34.345  16.222  -5.593  1.00 20.00    -0.395 OA
HETATM    8  C3  UNL     1     -34.347  15.827  -6.958  1.00 20.00     0.201 C 
ENDBRANCH   6   7
ENDBRANCH   2   6
TORSDOF 3
ENDMDL
MODEL 5
REMARK VINA RESULT:      -3.5     15.782     16.351
REMARK  3 active torsions:
REMARK  status: ('A' for Active; 'I' for Inactive)
REMARK    1  A    between atoms: C4_4  and  C6_6 
REMARK    2  A    between atoms: C5_5  and  C6_6 
REMARK    3  A    between atoms: C5_5  and  O8_8 
ROOT
HETATM    1  C1  UNL     1     -24.246  16.570  10.690  1.00 20.00     0.066 C 
HETATM    2  C6  UNL     1     -23.815  17.538   9.660  1.00 20.00     0.116 C 
HETATM    3  N7  UNL     1     -24.584  15.807  11.497  1.00 20.00    -0.197 NA
ENDROOT
BRANCH   2   4
HETATM    4  C4  UNL     1     -24.803  18.714   9.570  1.00 20.00     0.017 C 
HETATM    5  C2  UNL     1     -25.216  19.038   8.138  1.00 20.00     0.006 C 
ENDBRANCH   2   4
BRANCH   2   6
HETATM    6  C5  UNL     1     -22.410  18.056   9.990  1.00 20.00     0.186 C 
BRANCH   6   7
HETATM    7  O8  UNL     1     -21.755  18.453   8.790  1.00 20.00    -0.395 OA
HETATM    8  C3  UNL     1     -21.713  17.393   7.846  1.00 20.00     0.201 C 
ENDBRANCH   6   7
ENDBRANCH   2   6
TORSDOF 3
ENDMDL
MODEL 6
REMARK VINA RESULT:      -3.5     11.249     11.984
REMARK  3 active torsions:
REMARK  status: ('A' for Active; 'I' for Inactive)
REMARK    1  A    between atoms: C4_4  and  C6_6 
REMARK    2  A    between atoms: C5_5  and  C6_6 
REMARK    3  A    between atoms: C5_5  and  O8_8 
ROOT
HETATM    1  C1  UNL     1     -36.009  13.971  -4.224  1.00 20.00     0.066 C 
HETATM    2  C6  UNL     1     -34.654  14.376  -3.796  1.00 20.00     0.116 C 
HETATM    3  N7  UNL     1     -37.073  13.651  -4.558  1.00 20.00    -0.197 NA
ENDROOT
BRANCH   2   4
HETATM    4  C4  UNL     1     -33.790  14.761  -5.011  1.00 20.00     0.017 C 
HETATM    5  C2  UNL     1     -34.506  15.697  -5.979  1.00 20.00     0.006 C 
ENDBRANCH   2   4
BRANCH   2   6
HETATM    6  C5  UNL     1     -34.748  15.556  -2.822  1.00 20.00     0.186 C 
BRANCH   6   7
HETATM    7  O8  UNL     1     -33.454  16.119  -2.630  1.00 20.00    -0.395 OA
HETATM    8  C3  UNL     1     -33.517  17.323  -1.879  1.00 20.00     0.201 C 
ENDBRANCH   6   7
ENDBRANCH   2   6
TORSDOF 3
ENDMDL
MODEL 7
REMARK VINA RESULT:      -3.5     11.679     12.061
REMARK  3 active torsions:
REMARK  status: ('A' for Active; 'I' for Inactive)
REMARK    1  A    between atoms: C4_4  and  C6_6 
REMARK    2  A    between atoms: C5_5  and  C6_6 
REMARK    3  A    between atoms: C5_5  and  O8_8 
ROOT
HETATM    1  C1  UNL     1     -34.215  14.766  -5.134  1.00 20.00     0.066 C 
HETATM    2  C6  UNL     1     -34.512  14.896  -3.692  1.00 20.00     0.116 C 
HETATM    3  N7  UNL     1     -33.982  14.661  -6.265  1.00 20.00    -0.197 NA
ENDROOT
BRANCH   2   4
HETATM    4  C4  UNL     1     -33.583  15.932  -3.034  1.00 20.00     0.017 C 
HETATM    5  C2  UNL     1     -34.257  16.710  -1.910  1.00 20.00     0.006 C 
ENDBRANCH   2   4
BRANCH   2   6
HETATM    6  C5  UNL     1     -35.977  15.307  -3.498  1.00 20.00     0.186 C 
BRANCH   6   7
HETATM    7  O8  UNL     1     -36.828  14.233  -3.885  1.00 20.00    -0.395 OA
HETATM    8  C3  UNL     1     -38.095  14.704  -4.321  1.00 20.00     0.201 C 
ENDBRANCH   6   7
ENDBRANCH   2   6
TORSDOF 3
ENDMDL
MODEL 8
REMARK VINA RESULT:      -3.5     11.898     12.439
REMARK  3 active torsions:
REMARK  status: ('A' for Active; 'I' for Inactive)
REMARK    1  A    between atoms: C4_4  and  C6_6 
REMARK    2  A    between atoms: C5_5  and  C6_6 
REMARK    3  A    between atoms: C5_5  and  O8_8 
ROOT
HETATM    1  C1  UNL     1     -35.822  14.413  -5.930  1.00 20.00     0.066 C 
HETATM    2  C6  UNL     1     -35.807  14.183  -4.470  1.00 20.00     0.116 C 
HETATM    3  N7  UNL     1     -35.833  14.592  -7.076  1.00 20.00    -0.197 NA
ENDROOT
BRANCH   2   4
HETATM    4  C4  UNL     1     -34.581  14.852  -3.823  1.00 20.00     0.017 C 
HETATM    5  C2  UNL     1     -33.267  14.455  -4.485  1.00 20.00     0.006 C 
ENDBRANCH   2   4
BRANCH   2   6
HETATM    6  C5  UNL     1     -37.096  14.729  -3.844  1.00 20.00     0.186 C 
BRANCH   6   7
HETATM    7  O8  UNL     1     -38.215  14.017  -4.360  1.00 20.00    -0.395 OA
HETATM    8  C3  UNL     1     -39.390  14.815  -4.349  1.00 20.00     0.201 C 
ENDBRANCH   6   7
ENDBRANCH   2   6
TORSDOF 3
ENDMDL
MODEL 9
REMARK VINA RESULT:      -3.4     16.084     16.601
REMARK  3 active torsions:
REMARK  status: ('A' for Active; 'I' for Inactive)
REMARK    1  A    between atoms: C4_4  and  C6_6 
REMARK    2  A    between atoms: C5_5  and  C6_6 
REMARK    3  A    between atoms: C5_5  and  O8_8 
ROOT
HETATM    1  C1  UNL     1     -25.212  18.554  11.127  1.00 20.00     0.066 C 
HETATM    2  C6  UNL     1     -24.027  17.918  10.514  1.00 20.00     0.116 C 
HETATM    3  N7  UNL     1     -26.141  19.053  11.609  1.00 20.00    -0.197 NA
ENDROOT
BRANCH   2   4
HETATM    4  C4  UNL     1     -24.185  16.388  10.476  1.00 20.00     0.017 C 
HETATM    5  C2  UNL     1     -24.618  15.800  11.815  1.00 20.00     0.006 C 
ENDBRANCH   2   4
BRANCH   2   6
HETATM    6  C5  UNL     1     -23.823  18.461   9.094  1.00 20.00     0.186 C 
BRANCH   6   7
HETATM    7  O8  UNL     1     -22.593  19.176   9.030  1.00 20.00    -0.395 OA
HETATM    8  C3  UNL     1     -21.480  18.315   9.223  1.00 20.00     0.201 C 
ENDBRANCH   6   7
ENDBRANCH   2   6
TORSDOF 3
ENDMDL
