MODEL 1
REMARK VINA RESULT:      -4.5      0.000      0.000
REMARK  0 active torsions:
REMARK  status: ('A' for Active; 'I' for Inactive)
ROOT
HETATM    1  C1  UNL     1     -23.991  18.200   8.483  1.00 20.00     0.035 C 
HETATM    2  C2  UNL     1     -24.550  18.597   9.851  1.00 20.00     0.011 C 
HETATM    3  C3  UNL     1     -22.464  17.914  11.110  1.00 20.00     0.043 C 
HETATM    4  C4  UNL     1     -22.515  17.983   8.489  1.00 20.00     0.151 A 
HETATM    5  C5  UNL     1     -21.773  17.799   9.785  1.00 20.00     0.151 A 
HETATM    6  C6  UNL     1     -23.998  17.741  11.016  1.00 20.00    -0.045 C 
HETATM    7  C7  UNL     1     -24.635  18.225  12.332  1.00 20.00     0.015 C 
HETATM    8  C8  UNL     1     -24.357  16.254  10.829  1.00 20.00     0.015 C 
HETATM    9  O9  UNL     1     -21.737  19.040   9.052  1.00 20.00    -0.375 OA
ENDROOT
TORSDOF 0
ENDMDL
MODEL 2
REMARK VINA RESULT:      -4.3     17.632     19.035
REMARK  0 active torsions:
REMARK  status: ('A' for Active; 'I' for Inactive)
ROOT
HETATM    1  C1  UNL     1     -36.556  16.127  -4.966  1.00 20.00     0.035 C 
HETATM    2  C2  UNL     1     -35.076  16.428  -4.721  1.00 20.00     0.011 C 
HETATM    3  C3  UNL     1     -34.548  14.099  -3.885  1.00 20.00     0.043 C 
HETATM    4  C4  UNL     1     -36.870  14.669  -4.962  1.00 20.00     0.151 A 
HETATM    5  C5  UNL     1     -35.896  13.677  -4.388  1.00 20.00     0.151 A 
HETATM    6  C6  UNL     1     -34.463  15.608  -3.561  1.00 20.00    -0.045 C 
HETATM    7  C7  UNL     1     -32.981  16.000  -3.405  1.00 20.00     0.015 C 
HETATM    8  C8  UNL     1     -35.179  15.909  -2.231  1.00 20.00     0.015 C 
HETATM    9  O9  UNL     1     -36.055  13.858  -5.809  1.00 20.00    -0.375 OA
ENDROOT
TORSDOF 0
ENDMDL
MODEL 3
REMARK VINA RESULT:      -4.2     23.226     24.154
REMARK  0 active torsions:
REMARK  status: ('A' for Active; 'I' for Inactive)
ROOT
HETATM    1  C1  UNL     1     -43.027   6.480  -1.707  1.00 20.00     0.035 C 
HETATM    2  C2  UNL     1     -42.384   7.841  -1.433  1.00 20.00     0.011 C 
HETATM    3  C3  UNL     1     -41.125   7.043   0.612  1.00 20.00     0.043 C 
HETATM    4  C4  UNL     1     -42.386   5.361  -0.957  1.00 20.00     0.151 A 
HETATM    5  C5  UNL     1     -41.483   5.642   0.214  1.00 20.00     0.151 A 
HETATM    6  C6  UNL     1     -42.110   8.103   0.067  1.00 20.00    -0.045 C 
HETATM    7  C7  UNL     1     -41.472   9.497   0.218  1.00 20.00     0.015 C 
HETATM    8  C8  UNL     1     -43.417   8.085   0.881  1.00 20.00     0.015 C 
HETATM    9  O9  UNL     1     -40.966   5.269  -1.079  1.00 20.00    -0.375 OA
ENDROOT
TORSDOF 0
ENDMDL
MODEL 4
REMARK VINA RESULT:      -4.1      1.455      2.371
REMARK  0 active torsions:
REMARK  status: ('A' for Active; 'I' for Inactive)
ROOT
HETATM    1  C1  UNL     1     -22.682  17.772   8.826  1.00 20.00     0.035 C 
HETATM    2  C2  UNL     1     -23.250  16.625   9.665  1.00 20.00     0.011 C 
HETATM    3  C3  UNL     1     -25.087  18.033  10.687  1.00 20.00     0.043 C 
HETATM    4  C4  UNL     1     -23.604  18.941   8.724  1.00 20.00     0.151 A 
HETATM    5  C5  UNL     1     -24.763  19.088   9.672  1.00 20.00     0.151 A 
HETATM    6  C6  UNL     1     -23.899  17.091  10.990  1.00 20.00    -0.045 C 
HETATM    7  C7  UNL     1     -24.424  15.856  11.746  1.00 20.00     0.015 C 
HETATM    8  C8  UNL     1     -22.871  17.802  11.890  1.00 20.00     0.015 C 
HETATM    9  O9  UNL     1     -24.938  18.643   8.312  1.00 20.00    -0.375 OA
ENDROOT
TORSDOF 0
ENDMDL
MODEL 5
REMARK VINA RESULT:      -4.1     17.661     19.114
REMARK  0 active torsions:
REMARK  status: ('A' for Active; 'I' for Inactive)
ROOT
HETATM    1  C1  UNL     1     -34.890  14.640  -6.174  1.00 20.00     0.035 C 
HETATM    2  C2  UNL     1     -33.818  15.034  -5.156  1.00 20.00     0.011 C 
HETATM    3  C3  UNL     1     -35.421  15.056  -3.198  1.00 20.00     0.043 C 
HETATM    4  C4  UNL     1     -36.147  14.139  -5.545  1.00 20.00     0.151 A 
HETATM    5  C5  UNL     1     -36.424  14.384  -4.087  1.00 20.00     0.151 A 
HETATM    6  C6  UNL     1     -34.365  15.874  -3.977  1.00 20.00    -0.045 C 
HETATM    7  C7  UNL     1     -33.201  16.214  -3.028  1.00 20.00     0.015 C 
HETATM    8  C8  UNL     1     -34.977  17.197  -4.476  1.00 20.00     0.015 C 
HETATM    9  O9  UNL     1     -35.982  13.103  -4.577  1.00 20.00    -0.375 OA
ENDROOT
TORSDOF 0
ENDMDL
MODEL 6
REMARK VINA RESULT:      -4.1     23.481     24.482
REMARK  0 active torsions:
REMARK  status: ('A' for Active; 'I' for Inactive)
ROOT
HETATM    1  C1  UNL     1     -41.729   5.533  -1.125  1.00 20.00     0.035 C 
HETATM    2  C2  UNL     1     -41.142   6.880  -0.698  1.00 20.00     0.011 C 
HETATM    3  C3  UNL     1     -42.978   7.361   0.977  1.00 20.00     0.043 C 
HETATM    4  C4  UNL     1     -42.773   5.021  -0.190  1.00 20.00     0.151 A 
HETATM    5  C5  UNL     1     -43.417   5.937   0.815  1.00 20.00     0.151 A 
HETATM    6  C6  UNL     1     -42.211   7.906  -0.251  1.00 20.00    -0.045 C 
HETATM    7  C7  UNL     1     -41.505   9.216   0.146  1.00 20.00     0.015 C 
HETATM    8  C8  UNL     1     -43.191   8.219  -1.397  1.00 20.00     0.015 C 
HETATM    9  O9  UNL     1     -42.403   4.983   1.189  1.00 20.00    -0.375 OA
ENDROOT
TORSDOF 0
ENDMDL
MODEL 7
REMARK VINA RESULT:      -4.0     23.997     24.490
REMARK  0 active torsions:
REMARK  status: ('A' for Active; 'I' for Inactive)
ROOT
HETATM    1  C1  UNL     1     -43.371   7.094   1.084  1.00 20.00     0.035 C 
HETATM    2  C2  UNL     1     -42.196   6.203   0.676  1.00 20.00     0.011 C 
HETATM    3  C3  UNL     1     -41.691   7.514  -1.429  1.00 20.00     0.043 C 
HETATM    4  C4  UNL     1     -43.417   8.387   0.342  1.00 20.00     0.151 A 
HETATM    5  C5  UNL     1     -42.621   8.575  -0.921  1.00 20.00     0.151 A 
HETATM    6  C6  UNL     1     -41.994   6.110  -0.855  1.00 20.00    -0.045 C 
HETATM    7  C7  UNL     1     -40.795   5.187  -1.142  1.00 20.00     0.015 C 
HETATM    8  C8  UNL     1     -43.235   5.511  -1.543  1.00 20.00     0.015 C 
HETATM    9  O9  UNL     1     -42.205   9.142   0.338  1.00 20.00    -0.375 OA
ENDROOT
TORSDOF 0
ENDMDL
MODEL 8
REMARK VINA RESULT:      -4.0     17.583     19.016
REMARK  0 active torsions:
REMARK  status: ('A' for Active; 'I' for Inactive)
ROOT
HETATM    1  C1  UNL     1     -35.805  13.844  -4.305  1.00 20.00     0.035 C 
HETATM    2  C2  UNL     1     -35.123  14.804  -3.327  1.00 20.00     0.011 C 
HETATM    3  C3  UNL     1     -34.356  16.398  -5.136  1.00 20.00     0.043 C 
HETATM    4  C4  UNL     1     -36.005  14.428  -5.663  1.00 20.00     0.151 A 
HETATM    5  C5  UNL     1     -35.255  15.663  -6.084  1.00 20.00     0.151 A 
HETATM    6  C6  UNL     1     -33.904  15.539  -3.933  1.00 20.00    -0.045 C 
HETATM    7  C7  UNL     1     -33.301  16.465  -2.860  1.00 20.00     0.015 C 
HETATM    8  C8  UNL     1     -32.815  14.540  -4.369  1.00 20.00     0.015 C 
HETATM    9  O9  UNL     1     -36.643  15.704  -5.699  1.00 20.00    -0.375 OA
ENDROOT
TORSDOF 0
ENDMDL
MODEL 9
REMARK VINA RESULT:      -3.9     23.305     24.261
REMARK  0 active torsions:
REMARK  status: ('A' for Active; 'I' for Inactive)
ROOT
HETATM    1  C1  UNL     1     -42.072   8.137  -1.694  1.00 20.00     0.035 C 
HETATM    2  C2  UNL     1     -42.993   6.939  -1.458  1.00 20.00     0.011 C 
HETATM    3  C3  UNL     1     -42.173   6.536   0.902  1.00 20.00     0.043 C 
HETATM    4  C4  UNL     1     -41.472   8.677  -0.439  1.00 20.00     0.151 A 
HETATM    5  C5  UNL     1     -41.486   7.866   0.828  1.00 20.00     0.151 A 
HETATM    6  C6  UNL     1     -42.406   5.890  -0.484  1.00 20.00    -0.045 C 
HETATM    7  C7  UNL     1     -43.413   4.735  -0.332  1.00 20.00     0.015 C 
HETATM    8  C8  UNL     1     -41.088   5.306  -1.028  1.00 20.00     0.015 C 
HETATM    9  O9  UNL     1     -42.394   8.964   0.613  1.00 20.00    -0.375 OA
ENDROOT
TORSDOF 0
ENDMDL
