MODEL 1
REMARK VINA RESULT:      -3.6      0.000      0.000
REMARK  4 active torsions:
REMARK  status: ('A' for Active; 'I' for Inactive)
REMARK    1  A    between atoms: C7_7  and  C10_10 
REMARK    2  A    between atoms: C8_8  and  N11_11 
REMARK    3  A    between atoms: C9_9  and  N11_11 
REMARK    4  A    between atoms: C10_10  and  N11_11 
ROOT
HETATM    1  C1  UNL     1     -38.442  14.781  -4.171  1.00 20.00     0.013 C 
HETATM    2  C2  UNL     1     -37.352  14.375  -4.468  1.00 20.00    -0.087 C 
HETATM    3  C9  UNL     1     -36.024  13.875  -4.831  1.00 20.00     0.365 C 
ENDROOT
BRANCH   3   4
HETATM    4  N11 UNL     1     -35.055  14.970  -4.878  1.00 20.00     0.104 N 
BRANCH   4   5
HETATM    5  C8  UNL     1     -34.432  15.045  -6.199  1.00 20.00     0.224 A 
HETATM    6  C5  UNL     1     -35.280  15.122  -7.437  1.00 20.00     0.038 A 
HETATM    7  C6  UNL     1     -34.485  16.317  -6.998  1.00 20.00     0.038 A 
ENDBRANCH   4   5
BRANCH   4   8
HETATM    8  C10 UNL     1     -34.038  14.796  -3.842  1.00 20.00     0.278 C 
BRANCH   8   9
HETATM    9  C7  UNL     1     -34.230  15.770  -2.729  1.00 20.00     0.014 A 
HETATM   10  C3  UNL     1     -33.220  16.858  -2.491  1.00 20.00     0.007 A 
HETATM   11  C4  UNL     1     -34.582  17.200  -3.027  1.00 20.00     0.007 A 
ENDBRANCH   8   9
ENDBRANCH   4   8
ENDBRANCH   3   4
TORSDOF 4
ENDMDL
MODEL 2
REMARK VINA RESULT:      -3.6      3.359      5.847
REMARK  4 active torsions:
REMARK  status: ('A' for Active; 'I' for Inactive)
REMARK    1  A    between atoms: C7_7  and  C10_10 
REMARK    2  A    between atoms: C8_8  and  N11_11 
REMARK    3  A    between atoms: C9_9  and  N11_11 
REMARK    4  A    between atoms: C10_10  and  N11_11 
ROOT
HETATM    1  C1  UNL     1     -30.677  18.520   0.580  1.00 20.00     0.013 C 
HETATM    2  C2  UNL     1     -31.358  18.413  -0.402  1.00 20.00    -0.087 C 
HETATM    3  C9  UNL     1     -32.185  18.285  -1.604  1.00 20.00     0.365 C 
ENDROOT
BRANCH   3   4
HETATM    4  N11 UNL     1     -33.394  17.512  -1.320  1.00 20.00     0.104 N 
BRANCH   4   5
HETATM    5  C8  UNL     1     -33.988  17.017  -2.561  1.00 20.00     0.224 A 
HETATM    6  C5  UNL     1     -33.306  15.936  -3.353  1.00 20.00     0.038 A 
HETATM    7  C6  UNL     1     -34.585  15.638  -2.626  1.00 20.00     0.038 A 
ENDBRANCH   4   5
BRANCH   4   8
HETATM    8  C10 UNL     1     -34.358  18.326  -0.581  1.00 20.00     0.278 C 
BRANCH   8   9
HETATM    9  C7  UNL     1     -34.791  17.644   0.673  1.00 20.00     0.014 A 
HETATM   10  C3  UNL     1     -34.278  18.113   2.006  1.00 20.00     0.007 A 
HETATM   11  C4  UNL     1     -35.717  18.338   1.632  1.00 20.00     0.007 A 
ENDBRANCH   8   9
ENDBRANCH   4   8
ENDBRANCH   3   4
TORSDOF 4
ENDMDL
MODEL 3
REMARK VINA RESULT:      -3.5      0.885      4.076
REMARK  4 active torsions:
REMARK  status: ('A' for Active; 'I' for Inactive)
REMARK    1  A    between atoms: C7_7  and  C10_10 
REMARK    2  A    between atoms: C8_8  and  N11_11 
REMARK    3  A    between atoms: C9_9  and  N11_11 
REMARK    4  A    between atoms: C10_10  and  N11_11 
ROOT
HETATM    1  C1  UNL     1     -34.033  15.372  -7.630  1.00 20.00     0.013 C 
HETATM    2  C2  UNL     1     -33.830  15.079  -6.483  1.00 20.00    -0.087 C 
HETATM    3  C9  UNL     1     -33.577  14.721  -5.085  1.00 20.00     0.365 C 
ENDROOT
BRANCH   3   4
HETATM    4  N11 UNL     1     -34.735  15.043  -4.252  1.00 20.00     0.104 N 
BRANCH   4   5
HETATM    5  C8  UNL     1     -34.309  15.393  -2.898  1.00 20.00     0.224 A 
HETATM    6  C5  UNL     1     -33.405  16.571  -2.666  1.00 20.00     0.038 A 
HETATM    7  C6  UNL     1     -34.838  16.630  -2.226  1.00 20.00     0.038 A 
ENDBRANCH   4   5
BRANCH   4   8
HETATM    8  C10 UNL     1     -35.668  13.917  -4.219  1.00 20.00     0.278 C 
BRANCH   8   9
HETATM    9  C7  UNL     1     -36.928  14.240  -4.950  1.00 20.00     0.014 A 
HETATM   10  C3  UNL     1     -38.145  14.701  -4.196  1.00 20.00     0.007 A 
HETATM   11  C4  UNL     1     -37.390  15.665  -5.068  1.00 20.00     0.007 A 
ENDBRANCH   8   9
ENDBRANCH   4   8
ENDBRANCH   3   4
TORSDOF 4
ENDMDL
MODEL 4
REMARK VINA RESULT:      -3.5      2.911      5.683
REMARK  4 active torsions:
REMARK  status: ('A' for Active; 'I' for Inactive)
REMARK    1  A    between atoms: C7_7  and  C10_10 
REMARK    2  A    between atoms: C8_8  and  N11_11 
REMARK    3  A    between atoms: C9_9  and  N11_11 
REMARK    4  A    between atoms: C10_10  and  N11_11 
ROOT
HETATM    1  C1  UNL     1     -35.785  17.414   0.931  1.00 20.00     0.013 C 
HETATM    2  C2  UNL     1     -35.123  17.946   0.083  1.00 20.00    -0.087 C 
HETATM    3  C9  UNL     1     -34.319  18.601  -0.952  1.00 20.00     0.365 C 
ENDROOT
BRANCH   3   4
HETATM    4  N11 UNL     1     -33.173  17.770  -1.319  1.00 20.00     0.104 N 
BRANCH   4   5
HETATM    5  C8  UNL     1     -31.927  18.518  -1.160  1.00 20.00     0.224 A 
HETATM    6  C5  UNL     1     -31.641  19.259   0.116  1.00 20.00     0.038 A 
HETATM    7  C6  UNL     1     -30.855  18.028  -0.227  1.00 20.00     0.038 A 
ENDBRANCH   4   5
BRANCH   4   8
HETATM    8  C10 UNL     1     -33.310  17.290  -2.693  1.00 20.00     0.278 C 
BRANCH   8   9
HETATM    9  C7  UNL     1     -33.775  15.873  -2.725  1.00 20.00     0.014 A 
HETATM   10  C3  UNL     1     -35.215  15.555  -3.026  1.00 20.00     0.007 A 
HETATM   11  C4  UNL     1     -34.146  15.228  -4.031  1.00 20.00     0.007 A 
ENDBRANCH   8   9
ENDBRANCH   4   8
ENDBRANCH   3   4
TORSDOF 4
ENDMDL
MODEL 5
REMARK VINA RESULT:      -3.5      0.990      3.355
REMARK  4 active torsions:
REMARK  status: ('A' for Active; 'I' for Inactive)
REMARK    1  A    between atoms: C7_7  and  C10_10 
REMARK    2  A    between atoms: C8_8  and  N11_11 
REMARK    3  A    between atoms: C9_9  and  N11_11 
REMARK    4  A    between atoms: C10_10  and  N11_11 
ROOT
HETATM    1  C1  UNL     1     -37.379  14.375  -4.484  1.00 20.00     0.013 C 
HETATM    2  C2  UNL     1     -36.228  14.121  -4.254  1.00 20.00    -0.087 C 
HETATM    3  C9  UNL     1     -34.826  13.806  -3.972  1.00 20.00     0.365 C 
ENDROOT
BRANCH   3   4
HETATM    4  N11 UNL     1     -33.946  14.847  -4.501  1.00 20.00     0.104 N 
BRANCH   4   5
HETATM    5  C8  UNL     1     -34.162  16.108  -3.793  1.00 20.00     0.224 A 
HETATM    6  C5  UNL     1     -34.333  16.122  -2.300  1.00 20.00     0.038 A 
HETATM    7  C6  UNL     1     -33.086  16.686  -2.916  1.00 20.00     0.038 A 
ENDBRANCH   4   5
BRANCH   4   8
HETATM    8  C10 UNL     1     -34.169  15.022  -5.936  1.00 20.00     0.278 C 
BRANCH   8   9
HETATM    9  C7  UNL     1     -34.497  16.440  -6.261  1.00 20.00     0.014 A 
HETATM   10  C3  UNL     1     -34.291  16.965  -7.655  1.00 20.00     0.007 A 
HETATM   11  C4  UNL     1     -35.684  16.763  -7.126  1.00 20.00     0.007 A 
ENDBRANCH   8   9
ENDBRANCH   4   8
ENDBRANCH   3   4
TORSDOF 4
ENDMDL
MODEL 6
REMARK VINA RESULT:      -3.4      2.684      5.769
REMARK  4 active torsions:
REMARK  status: ('A' for Active; 'I' for Inactive)
REMARK    1  A    between atoms: C7_7  and  C10_10 
REMARK    2  A    between atoms: C8_8  and  N11_11 
REMARK    3  A    between atoms: C9_9  and  N11_11 
REMARK    4  A    between atoms: C10_10  and  N11_11 
ROOT
HETATM    1  C1  UNL     1     -30.945  18.259  -0.093  1.00 20.00     0.013 C 
HETATM    2  C2  UNL     1     -31.745  18.562  -0.935  1.00 20.00    -0.087 C 
HETATM    3  C9  UNL     1     -32.717  18.937  -1.964  1.00 20.00     0.365 C 
ENDROOT
BRANCH   3   4
HETATM    4  N11 UNL     1     -33.667  17.850  -2.198  1.00 20.00     0.104 N 
BRANCH   4   5
HETATM    5  C8  UNL     1     -34.387  17.526  -0.966  1.00 20.00     0.224 A 
HETATM    6  C5  UNL     1     -35.215  18.570  -0.272  1.00 20.00     0.038 A 
HETATM    7  C6  UNL     1     -35.886  17.419  -0.962  1.00 20.00     0.038 A 
ENDBRANCH   4   5
BRANCH   4   8
HETATM    8  C10 UNL     1     -32.975  16.668  -2.711  1.00 20.00     0.278 C 
BRANCH   8   9
HETATM    9  C7  UNL     1     -33.749  16.026  -3.812  1.00 20.00     0.014 A 
HETATM   10  C3  UNL     1     -33.395  14.641  -4.280  1.00 20.00     0.007 A 
HETATM   11  C4  UNL     1     -34.670  14.875  -3.519  1.00 20.00     0.007 A 
ENDBRANCH   8   9
ENDBRANCH   4   8
ENDBRANCH   3   4
TORSDOF 4
ENDMDL
MODEL 7
REMARK VINA RESULT:      -3.4     10.774     12.019
REMARK  4 active torsions:
REMARK  status: ('A' for Active; 'I' for Inactive)
REMARK    1  A    between atoms: C7_7  and  C10_10 
REMARK    2  A    between atoms: C8_8  and  N11_11 
REMARK    3  A    between atoms: C9_9  and  N11_11 
REMARK    4  A    between atoms: C10_10  and  N11_11 
ROOT
HETATM    1  C1  UNL     1     -34.408   6.502   6.316  1.00 20.00     0.013 C 
HETATM    2  C2  UNL     1     -33.661   6.869   5.451  1.00 20.00    -0.087 C 
HETATM    3  C9  UNL     1     -32.745   7.319   4.400  1.00 20.00     0.365 C 
ENDROOT
BRANCH   3   4
HETATM    4  N11 UNL     1     -33.136   6.767   3.103  1.00 20.00     0.104 N 
BRANCH   4   5
HETATM    5  C8  UNL     1     -32.926   5.319   3.079  1.00 20.00     0.224 A 
HETATM    6  C5  UNL     1     -34.062   4.381   3.377  1.00 20.00     0.038 A 
HETATM    7  C6  UNL     1     -33.519   4.479   1.982  1.00 20.00     0.038 A 
ENDBRANCH   4   5
BRANCH   4   8
HETATM    8  C10 UNL     1     -32.384   7.410   2.026  1.00 20.00     0.278 C 
BRANCH   8   9
HETATM    9  C7  UNL     1     -33.281   8.220   1.152  1.00 20.00     0.014 A 
HETATM   10  C3  UNL     1     -32.883   9.612   0.743  1.00 20.00     0.007 A 
HETATM   11  C4  UNL     1     -32.895   8.503  -0.273  1.00 20.00     0.007 A 
ENDBRANCH   8   9
ENDBRANCH   4   8
ENDBRANCH   3   4
TORSDOF 4
ENDMDL
MODEL 8
REMARK VINA RESULT:      -3.4      3.022      4.580
REMARK  4 active torsions:
REMARK  status: ('A' for Active; 'I' for Inactive)
REMARK    1  A    between atoms: C7_7  and  C10_10 
REMARK    2  A    between atoms: C8_8  and  N11_11 
REMARK    3  A    between atoms: C9_9  and  N11_11 
REMARK    4  A    between atoms: C10_10  and  N11_11 
ROOT
HETATM    1  C1  UNL     1     -35.850  17.359   0.770  1.00 20.00     0.013 C 
HETATM    2  C2  UNL     1     -35.801  17.652  -0.393  1.00 20.00    -0.087 C 
HETATM    3  C9  UNL     1     -35.747  18.011  -1.812  1.00 20.00     0.365 C 
ENDROOT
BRANCH   3   4
HETATM    4  N11 UNL     1     -34.372  17.953  -2.308  1.00 20.00     0.104 N 
BRANCH   4   5
HETATM    5  C8  UNL     1     -33.860  16.585  -2.238  1.00 20.00     0.224 A 
HETATM    6  C5  UNL     1     -34.598  15.462  -2.911  1.00 20.00     0.038 A 
HETATM    7  C6  UNL     1     -33.280  15.924  -3.457  1.00 20.00     0.038 A 
ENDBRANCH   4   5
BRANCH   4   8
HETATM    8  C10 UNL     1     -33.516  18.859  -1.542  1.00 20.00     0.278 C 
BRANCH   8   9
HETATM    9  C7  UNL     1     -32.483  18.103  -0.776  1.00 20.00     0.014 A 
HETATM   10  C3  UNL     1     -31.197  18.774  -0.375  1.00 20.00     0.007 A 
HETATM   11  C4  UNL     1     -32.224  18.428   0.669  1.00 20.00     0.007 A 
ENDBRANCH   8   9
ENDBRANCH   4   8
ENDBRANCH   3   4
TORSDOF 4
ENDMDL
MODEL 9
REMARK VINA RESULT:      -3.4      1.248      3.202
REMARK  4 active torsions:
REMARK  status: ('A' for Active; 'I' for Inactive)
REMARK    1  A    between atoms: C7_7  and  C10_10 
REMARK    2  A    between atoms: C8_8  and  N11_11 
REMARK    3  A    between atoms: C9_9  and  N11_11 
REMARK    4  A    between atoms: C10_10  and  N11_11 
ROOT
HETATM    1  C1  UNL     1     -35.527  14.903  -6.967  1.00 20.00     0.013 C 
HETATM    2  C2  UNL     1     -35.925  14.514  -5.903  1.00 20.00    -0.087 C 
HETATM    3  C9  UNL     1     -36.408  14.034  -4.606  1.00 20.00     0.365 C 
ENDROOT
BRANCH   3   4
HETATM    4  N11 UNL     1     -36.941  15.140  -3.812  1.00 20.00     0.104 N 
BRANCH   4   5
HETATM    5  C8  UNL     1     -38.142  15.689  -4.440  1.00 20.00     0.224 A 
HETATM    6  C5  UNL     1     -39.441  14.935  -4.386  1.00 20.00     0.038 A 
HETATM    7  C6  UNL     1     -39.278  16.202  -3.600  1.00 20.00     0.038 A 
ENDBRANCH   4   5
BRANCH   4   8
HETATM    8  C10 UNL     1     -35.929  16.183  -3.646  1.00 20.00     0.278 C 
BRANCH   8   9
HETATM    9  C7  UNL     1     -34.837  15.734  -2.735  1.00 20.00     0.014 A 
HETATM   10  C3  UNL     1     -33.399  15.849  -3.162  1.00 20.00     0.007 A 
HETATM   11  C4  UNL     1     -33.937  16.743  -2.078  1.00 20.00     0.007 A 
ENDBRANCH   8   9
ENDBRANCH   4   8
ENDBRANCH   3   4
TORSDOF 4
ENDMDL
