MODEL 1
REMARK VINA RESULT:      -4.6      0.000      0.000
REMARK  2 active torsions:
REMARK  status: ('A' for Active; 'I' for Inactive)
REMARK    1  A    between atoms: C2_2  and  C9_9 
REMARK    2  A    between atoms: C9_9  and  N11_11 
ROOT
HETATM    1  C1  UNL     1     -33.254  16.976  -2.277  1.00 20.00    -0.109 C 
HETATM    2  C2  UNL     1     -33.287  16.171  -3.168  1.00 20.00    -0.077 C 
HETATM    3  C8  UNL     1     -33.214  17.956  -1.193  1.00 20.00     0.112 C 
ENDROOT
BRANCH   2   4
HETATM    4  C9  UNL     1     -33.329  15.183  -4.250  1.00 20.00     0.367 C 
BRANCH   4   5
HETATM    5  N11 UNL     1     -34.268  15.586  -5.283  1.00 20.00     0.117 N 
HETATM    6  C6  UNL     1     -33.937  15.068  -6.609  1.00 20.00     0.275 C 
HETATM    7  C4  UNL     1     -35.222  15.260  -7.408  1.00 20.00     0.033 C 
HETATM    8  C5  UNL     1     -36.298  15.600  -6.379  1.00 20.00     0.053 C 
HETATM    9  C7  UNL     1     -35.676  15.261  -5.027  1.00 20.00     0.329 C 
HETATM   10  C3  UNL     1     -35.935  13.854  -4.670  1.00 20.00     0.095 C 
HETATM   11  N10 UNL     1     -36.139  12.747  -4.390  1.00 20.00    -0.195 NA
ENDBRANCH   4   5
ENDBRANCH   2   4
TORSDOF 2
ENDMDL
MODEL 2
REMARK VINA RESULT:      -4.4      1.058      1.153
REMARK  2 active torsions:
REMARK  status: ('A' for Active; 'I' for Inactive)
REMARK    1  A    between atoms: C2_2  and  C9_9 
REMARK    2  A    between atoms: C9_9  and  N11_11 
ROOT
HETATM    1  C1  UNL     1     -32.967  17.376  -1.928  1.00 20.00    -0.109 C 
HETATM    2  C2  UNL     1     -33.679  16.563  -2.452  1.00 20.00    -0.077 C 
HETATM    3  C8  UNL     1     -32.099  18.365  -1.291  1.00 20.00     0.112 C 
ENDROOT
BRANCH   2   4
HETATM    4  C9  UNL     1     -34.546  15.566  -3.087  1.00 20.00     0.367 C 
BRANCH   4   5
HETATM    5  N11 UNL     1     -34.655  15.809  -4.515  1.00 20.00     0.117 N 
HETATM    6  C6  UNL     1     -33.900  14.860  -5.329  1.00 20.00     0.275 C 
HETATM    7  C4  UNL     1     -34.472  15.043  -6.731  1.00 20.00     0.033 C 
HETATM    8  C5  UNL     1     -35.738  15.880  -6.551  1.00 20.00     0.053 C 
HETATM    9  C7  UNL     1     -36.020  15.854  -5.051  1.00 20.00     0.329 C 
HETATM   10  C3  UNL     1     -36.867  14.700  -4.698  1.00 20.00     0.095 C 
HETATM   11  N10 UNL     1     -37.532  13.791  -4.421  1.00 20.00    -0.195 NA
ENDBRANCH   4   5
ENDBRANCH   2   4
TORSDOF 2
ENDMDL
MODEL 3
REMARK VINA RESULT:      -4.3     14.352     17.558
REMARK  2 active torsions:
REMARK  status: ('A' for Active; 'I' for Inactive)
REMARK    1  A    between atoms: C2_2  and  C9_9 
REMARK    2  A    between atoms: C9_9  and  N11_11 
ROOT
HETATM    1  C1  UNL     1     -26.128  18.847   5.936  1.00 20.00    -0.109 C 
HETATM    2  C2  UNL     1     -25.825  19.014   7.087  1.00 20.00    -0.077 C 
HETATM    3  C8  UNL     1     -26.497  18.644   4.536  1.00 20.00     0.112 C 
ENDROOT
BRANCH   2   4
HETATM    4  C9  UNL     1     -25.451  19.223   8.488  1.00 20.00     0.367 C 
BRANCH   4   5
HETATM    5  N11 UNL     1     -24.363  18.340   8.872  1.00 20.00     0.117 N 
HETATM    6  C6  UNL     1     -23.094  19.032   9.084  1.00 20.00     0.275 C 
HETATM    7  C4  UNL     1     -22.246  18.019   9.846  1.00 20.00     0.033 C 
HETATM    8  C5  UNL     1     -23.215  16.921  10.282  1.00 20.00     0.053 C 
HETATM    9  C7  UNL     1     -24.606  17.504  10.053  1.00 20.00     0.329 C 
HETATM   10  C3  UNL     1     -25.070  18.234  11.247  1.00 20.00     0.095 C 
HETATM   11  N10 UNL     1     -25.435  18.809  12.187  1.00 20.00    -0.195 NA
ENDBRANCH   4   5
ENDBRANCH   2   4
TORSDOF 2
ENDMDL
MODEL 4
REMARK VINA RESULT:      -4.2     14.929     17.547
REMARK  2 active torsions:
REMARK  status: ('A' for Active; 'I' for Inactive)
REMARK    1  A    between atoms: C2_2  and  C9_9 
REMARK    2  A    between atoms: C9_9  and  N11_11 
ROOT
HETATM    1  C1  UNL     1     -26.917  19.246   7.378  1.00 20.00    -0.109 C 
HETATM    2  C2  UNL     1     -25.719  19.231   7.459  1.00 20.00    -0.077 C 
HETATM    3  C8  UNL     1     -28.376  19.263   7.279  1.00 20.00     0.112 C 
ENDROOT
BRANCH   2   4
HETATM    4  C9  UNL     1     -24.257  19.220   7.553  1.00 20.00     0.367 C 
BRANCH   4   5
HETATM    5  N11 UNL     1     -23.826  18.826   8.884  1.00 20.00     0.117 N 
HETATM    6  C6  UNL     1     -24.602  17.722   9.447  1.00 20.00     0.275 C 
HETATM    7  C4  UNL     1     -23.747  17.229  10.610  1.00 20.00     0.033 C 
HETATM    8  C5  UNL     1     -22.387  17.903  10.433  1.00 20.00     0.053 C 
HETATM    9  C7  UNL     1     -22.408  18.474   9.018  1.00 20.00     0.329 C 
HETATM   10  C3  UNL     1     -21.918  17.480   8.045  1.00 20.00     0.095 C 
HETATM   11  N10 UNL     1     -21.534  16.698   7.279  1.00 20.00    -0.195 NA
ENDBRANCH   4   5
ENDBRANCH   2   4
TORSDOF 2
ENDMDL
MODEL 5
REMARK VINA RESULT:      -4.1      2.831      4.114
REMARK  2 active torsions:
REMARK  status: ('A' for Active; 'I' for Inactive)
REMARK    1  A    between atoms: C2_2  and  C9_9 
REMARK    2  A    between atoms: C9_9  and  N11_11 
ROOT
HETATM    1  C1  UNL     1     -31.179  18.499  -0.047  1.00 20.00    -0.109 C 
HETATM    2  C2  UNL     1     -31.781  18.414  -1.083  1.00 20.00    -0.077 C 
HETATM    3  C8  UNL     1     -30.446  18.603   1.213  1.00 20.00     0.112 C 
ENDROOT
BRANCH   2   4
HETATM    4  C9  UNL     1     -32.515  18.317  -2.348  1.00 20.00     0.367 C 
BRANCH   4   5
HETATM    5  N11 UNL     1     -33.141  17.013  -2.486  1.00 20.00     0.117 N 
HETATM    6  C6  UNL     1     -34.398  16.886  -1.752  1.00 20.00     0.275 C 
HETATM    7  C4  UNL     1     -35.049  15.644  -2.352  1.00 20.00     0.033 C 
HETATM    8  C5  UNL     1     -34.242  15.326  -3.609  1.00 20.00     0.053 C 
HETATM    9  C7  UNL     1     -33.392  16.568  -3.861  1.00 20.00     0.329 C 
HETATM   10  C3  UNL     1     -34.117  17.535  -4.706  1.00 20.00     0.095 C 
HETATM   11  N10 UNL     1     -34.688  18.296  -5.370  1.00 20.00    -0.195 NA
ENDBRANCH   4   5
ENDBRANCH   2   4
TORSDOF 2
ENDMDL
MODEL 6
REMARK VINA RESULT:      -3.9      1.843      2.629
REMARK  2 active torsions:
REMARK  status: ('A' for Active; 'I' for Inactive)
REMARK    1  A    between atoms: C2_2  and  C9_9 
REMARK    2  A    between atoms: C9_9  and  N11_11 
ROOT
HETATM    1  C1  UNL     1     -35.506  17.214  -0.609  1.00 20.00    -0.109 C 
HETATM    2  C2  UNL     1     -35.817  17.109  -1.765  1.00 20.00    -0.077 C 
HETATM    3  C8  UNL     1     -35.128  17.340   0.797  1.00 20.00     0.112 C 
ENDROOT
BRANCH   2   4
HETATM    4  C9  UNL     1     -36.203  16.984  -3.173  1.00 20.00     0.367 C 
BRANCH   4   5
HETATM    5  N11 UNL     1     -35.145  16.356  -3.946  1.00 20.00     0.117 N 
HETATM    6  C6  UNL     1     -34.239  15.539  -3.143  1.00 20.00     0.275 C 
HETATM    7  C4  UNL     1     -33.502  14.689  -4.173  1.00 20.00     0.033 C 
HETATM    8  C5  UNL     1     -34.269  14.873  -5.481  1.00 20.00     0.053 C 
HETATM    9  C7  UNL     1     -35.585  15.534  -5.080  1.00 20.00     0.329 C 
HETATM   10  C3  UNL     1     -36.603  14.519  -4.753  1.00 20.00     0.095 C 
HETATM   11  N10 UNL     1     -37.404  13.719  -4.497  1.00 20.00    -0.195 NA
ENDBRANCH   4   5
ENDBRANCH   2   4
TORSDOF 2
ENDMDL
MODEL 7
REMARK VINA RESULT:      -3.9      1.593      2.626
REMARK  2 active torsions:
REMARK  status: ('A' for Active; 'I' for Inactive)
REMARK    1  A    between atoms: C2_2  and  C9_9 
REMARK    2  A    between atoms: C9_9  and  N11_11 
ROOT
HETATM    1  C1  UNL     1     -34.069  17.595  -0.945  1.00 20.00    -0.109 C 
HETATM    2  C2  UNL     1     -33.891  16.903  -1.910  1.00 20.00    -0.077 C 
HETATM    3  C8  UNL     1     -34.285  18.436   0.231  1.00 20.00     0.112 C 
ENDROOT
BRANCH   2   4
HETATM    4  C9  UNL     1     -33.681  16.059  -3.090  1.00 20.00     0.367 C 
BRANCH   4   5
HETATM    5  N11 UNL     1     -34.809  15.167  -3.297  1.00 20.00     0.117 N 
HETATM    6  C6  UNL     1     -36.078  15.864  -3.493  1.00 20.00     0.275 C 
HETATM    7  C4  UNL     1     -36.996  14.796  -4.078  1.00 20.00     0.033 C 
HETATM    8  C5  UNL     1     -36.081  13.633  -4.459  1.00 20.00     0.053 C 
HETATM    9  C7  UNL     1     -34.667  14.203  -4.394  1.00 20.00     0.329 C 
HETATM   10  C3  UNL     1     -34.279  14.789  -5.691  1.00 20.00     0.095 C 
HETATM   11  N10 UNL     1     -33.974  15.250  -6.711  1.00 20.00    -0.195 NA
ENDBRANCH   4   5
ENDBRANCH   2   4
TORSDOF 2
ENDMDL
MODEL 8
REMARK VINA RESULT:      -3.8     11.117     12.426
REMARK  2 active torsions:
REMARK  status: ('A' for Active; 'I' for Inactive)
REMARK    1  A    between atoms: C2_2  and  C9_9 
REMARK    2  A    between atoms: C9_9  and  N11_11 
ROOT
HETATM    1  C1  UNL     1     -32.911   8.418   0.652  1.00 20.00    -0.109 C 
HETATM    2  C2  UNL     1     -32.688   7.747   1.623  1.00 20.00    -0.077 C 
HETATM    3  C8  UNL     1     -33.181   9.236  -0.530  1.00 20.00     0.112 C 
ENDROOT
BRANCH   2   4
HETATM    4  C9  UNL     1     -32.423   6.926   2.807  1.00 20.00     0.367 C 
BRANCH   4   5
HETATM    5  N11 UNL     1     -33.529   6.019   3.067  1.00 20.00     0.117 N 
HETATM    6  C6  UNL     1     -33.107   4.653   3.368  1.00 20.00     0.275 C 
HETATM    7  C4  UNL     1     -34.346   4.015   3.986  1.00 20.00     0.033 C 
HETATM    8  C5  UNL     1     -35.304   5.171   4.272  1.00 20.00     0.053 C 
HETATM    9  C7  UNL     1     -34.457   6.432   4.126  1.00 20.00     0.329 C 
HETATM   10  C3  UNL     1     -33.821   6.787   5.408  1.00 20.00     0.095 C 
HETATM   11  N10 UNL     1     -33.321   7.066   6.417  1.00 20.00    -0.195 NA
ENDBRANCH   4   5
ENDBRANCH   2   4
TORSDOF 2
ENDMDL
MODEL 9
REMARK VINA RESULT:      -3.7      2.445      3.831
REMARK  2 active torsions:
REMARK  status: ('A' for Active; 'I' for Inactive)
REMARK    1  A    between atoms: C2_2  and  C9_9 
REMARK    2  A    between atoms: C9_9  and  N11_11 
ROOT
HETATM    1  C1  UNL     1     -34.542  17.708   0.550  1.00 20.00    -0.109 C 
HETATM    2  C2  UNL     1     -35.000  17.323  -0.492  1.00 20.00    -0.077 C 
HETATM    3  C8  UNL     1     -33.985  18.177   1.818  1.00 20.00     0.112 C 
ENDROOT
BRANCH   2   4
HETATM    4  C9  UNL     1     -35.552  16.849  -1.764  1.00 20.00     0.367 C 
BRANCH   4   5
HETATM    5  N11 UNL     1     -34.647  15.909  -2.404  1.00 20.00     0.117 N 
HETATM    6  C6  UNL     1     -35.309  15.009  -3.346  1.00 20.00     0.275 C 
HETATM    7  C4  UNL     1     -34.161  14.426  -4.163  1.00 20.00     0.033 C 
HETATM    8  C5  UNL     1     -32.940  15.278  -3.821  1.00 20.00     0.053 C 
HETATM    9  C7  UNL     1     -33.499  16.501  -3.099  1.00 20.00     0.329 C 
HETATM   10  C3  UNL     1     -33.836  17.567  -4.061  1.00 20.00     0.095 C 
HETATM   11  N10 UNL     1     -34.102  18.406  -4.818  1.00 20.00    -0.195 NA
ENDBRANCH   4   5
ENDBRANCH   2   4
TORSDOF 2
ENDMDL
