MODEL 1
REMARK VINA RESULT:      -4.2      0.000      0.000
REMARK  3 active torsions:
REMARK  status: ('A' for Active; 'I' for Inactive)
REMARK    1  A    between atoms: C4_4  and  C5_5 
REMARK    2  A    between atoms: C4_4  and  C6_6 
REMARK    3  A    between atoms: C5_5  and  C7_7 
ROOT
HETATM    1  C5  UNL     1     -33.615   6.540   4.008  1.00 20.00     0.009 C 
ENDROOT
BRANCH   1   2
HETATM    2  C4  UNL     1     -32.990   6.345   2.620  1.00 20.00     0.016 C 
BRANCH   2   3
HETATM    3  C6  UNL     1     -32.142   7.551   2.234  1.00 20.00     0.114 C 
HETATM    4 CL8  UNL     1     -32.800   8.333   0.779  1.00 20.00    -0.130 Cl
ENDBRANCH   2   3
ENDBRANCH   1   2
BRANCH   1   5
HETATM    5  C7  UNL     1     -34.552   5.402   4.493  1.00 20.00    -0.051 C 
HETATM    6  C1  UNL     1     -34.065   4.030   3.998  1.00 20.00     0.014 C 
HETATM    7  C2  UNL     1     -34.655   5.379   6.026  1.00 20.00     0.014 C 
HETATM    8  C3  UNL     1     -35.958   5.659   3.914  1.00 20.00     0.014 C 
ENDBRANCH   1   5
TORSDOF 3
ENDMDL
MODEL 2
REMARK VINA RESULT:      -4.2      0.027      1.528
REMARK  3 active torsions:
REMARK  status: ('A' for Active; 'I' for Inactive)
REMARK    1  A    between atoms: C4_4  and  C5_5 
REMARK    2  A    between atoms: C4_4  and  C6_6 
REMARK    3  A    between atoms: C5_5  and  C7_7 
ROOT
HETATM    1  C5  UNL     1     -33.582   6.517   4.031  1.00 20.00     0.009 C 
ENDROOT
BRANCH   1   2
HETATM    2  C4  UNL     1     -33.009   6.342   2.619  1.00 20.00     0.016 C 
BRANCH   2   3
HETATM    3  C6  UNL     1     -32.147   7.540   2.233  1.00 20.00     0.114 C 
HETATM    4 CL8  UNL     1     -32.792   8.324   0.773  1.00 20.00    -0.130 Cl
ENDBRANCH   2   3
ENDBRANCH   1   2
BRANCH   1   5
HETATM    5  C7  UNL     1     -34.576   5.419   4.497  1.00 20.00    -0.051 C 
HETATM    6  C1  UNL     1     -34.662   5.359   6.031  1.00 20.00     0.014 C 
HETATM    7  C2  UNL     1     -35.981   5.659   3.920  1.00 20.00     0.014 C 
HETATM    8  C3  UNL     1     -34.063   4.059   3.983  1.00 20.00     0.014 C 
ENDBRANCH   1   5
TORSDOF 3
ENDMDL
MODEL 3
REMARK VINA RESULT:      -3.7      2.299      3.938
REMARK  3 active torsions:
REMARK  status: ('A' for Active; 'I' for Inactive)
REMARK    1  A    between atoms: C4_4  and  C5_5 
REMARK    2  A    between atoms: C4_4  and  C6_6 
REMARK    3  A    between atoms: C5_5  and  C7_7 
ROOT
HETATM    1  C5  UNL     1     -34.269   6.749   3.676  1.00 20.00     0.009 C 
ENDROOT
BRANCH   1   2
HETATM    2  C4  UNL     1     -34.797   5.368   4.086  1.00 20.00     0.016 C 
BRANCH   2   3
HETATM    3  C6  UNL     1     -34.810   5.223   5.605  1.00 20.00     0.114 C 
HETATM    4 CL8  UNL     1     -34.159   6.687   6.374  1.00 20.00    -0.130 Cl
ENDBRANCH   2   3
ENDBRANCH   1   2
BRANCH   1   5
HETATM    5  C7  UNL     1     -32.959   6.750   2.842  1.00 20.00    -0.051 C 
HETATM    6  C1  UNL     1     -33.108   7.605   1.572  1.00 20.00     0.014 C 
HETATM    7  C2  UNL     1     -31.773   7.274   3.668  1.00 20.00     0.014 C 
HETATM    8  C3  UNL     1     -32.658   5.298   2.421  1.00 20.00     0.014 C 
ENDBRANCH   1   5
TORSDOF 3
ENDMDL
MODEL 4
REMARK VINA RESULT:      -3.7      2.304      3.988
REMARK  3 active torsions:
REMARK  status: ('A' for Active; 'I' for Inactive)
REMARK    1  A    between atoms: C4_4  and  C5_5 
REMARK    2  A    between atoms: C4_4  and  C6_6 
REMARK    3  A    between atoms: C5_5  and  C7_7 
ROOT
HETATM    1  C5  UNL     1     -34.255   6.761   3.694  1.00 20.00     0.009 C 
ENDROOT
BRANCH   1   2
HETATM    2  C4  UNL     1     -34.832   5.399   4.101  1.00 20.00     0.016 C 
BRANCH   2   3
HETATM    3  C6  UNL     1     -34.815   5.236   5.617  1.00 20.00     0.114 C 
HETATM    4 CL8  UNL     1     -34.156   6.694   6.392  1.00 20.00    -0.130 Cl
ENDBRANCH   2   3
ENDBRANCH   1   2
BRANCH   1   5
HETATM    5  C7  UNL     1     -32.971   6.717   2.822  1.00 20.00    -0.051 C 
HETATM    6  C1  UNL     1     -32.638   5.278   2.393  1.00 20.00     0.014 C 
HETATM    7  C2  UNL     1     -33.117   7.597   1.570  1.00 20.00     0.014 C 
HETATM    8  C3  UNL     1     -31.800   7.258   3.666  1.00 20.00     0.014 C 
ENDBRANCH   1   5
TORSDOF 3
ENDMDL
MODEL 5
REMARK VINA RESULT:      -3.6      2.299      3.931
REMARK  3 active torsions:
REMARK  status: ('A' for Active; 'I' for Inactive)
REMARK    1  A    between atoms: C4_4  and  C5_5 
REMARK    2  A    between atoms: C4_4  and  C6_6 
REMARK    3  A    between atoms: C5_5  and  C7_7 
ROOT
HETATM    1  C5  UNL     1     -34.281   6.738   3.688  1.00 20.00     0.009 C 
ENDROOT
BRANCH   1   2
HETATM    2  C4  UNL     1     -34.842   5.378   4.124  1.00 20.00     0.016 C 
BRANCH   2   3
HETATM    3  C6  UNL     1     -34.810   5.241   5.642  1.00 20.00     0.114 C 
HETATM    4 CL8  UNL     1     -34.130   6.706   6.384  1.00 20.00    -0.130 Cl
ENDBRANCH   2   3
ENDBRANCH   1   2
BRANCH   1   5
HETATM    5  C7  UNL     1     -32.973   6.691   2.852  1.00 20.00    -0.051 C 
HETATM    6  C1  UNL     1     -31.782   7.250   3.648  1.00 20.00     0.014 C 
HETATM    7  C2  UNL     1     -32.652   5.258   2.400  1.00 20.00     0.014 C 
HETATM    8  C3  UNL     1     -33.175   7.565   1.598  1.00 20.00     0.014 C 
ENDBRANCH   1   5
TORSDOF 3
ENDMDL
MODEL 6
REMARK VINA RESULT:      -3.6     15.888     16.848
REMARK  3 active torsions:
REMARK  status: ('A' for Active; 'I' for Inactive)
REMARK    1  A    between atoms: C4_4  and  C5_5 
REMARK    2  A    between atoms: C4_4  and  C6_6 
REMARK    3  A    between atoms: C5_5  and  C7_7 
ROOT
HETATM    1  C5  UNL     1     -24.907  18.370  10.734  1.00 20.00     0.009 C 
ENDROOT
BRANCH   1   2
HETATM    2  C4  UNL     1     -25.730  18.814  11.951  1.00 20.00     0.016 C 
BRANCH   2   3
HETATM    3  C6  UNL     1     -27.213  18.886  11.603  1.00 20.00     0.114 C 
HETATM    4 CL8  UNL     1     -28.089  17.521  12.332  1.00 20.00    -0.130 Cl
ENDBRANCH   2   3
ENDBRANCH   1   2
BRANCH   1   5
HETATM    5  C7  UNL     1     -23.869  17.245  10.996  1.00 20.00    -0.051 C 
HETATM    6  C1  UNL     1     -23.169  16.818   9.695  1.00 20.00     0.014 C 
HETATM    7  C2  UNL     1     -22.810  17.690  12.017  1.00 20.00     0.014 C 
HETATM    8  C3  UNL     1     -24.618  16.026  11.570  1.00 20.00     0.014 C 
ENDBRANCH   1   5
TORSDOF 3
ENDMDL
MODEL 7
REMARK VINA RESULT:      -3.6     15.987     17.008
REMARK  3 active torsions:
REMARK  status: ('A' for Active; 'I' for Inactive)
REMARK    1  A    between atoms: C4_4  and  C5_5 
REMARK    2  A    between atoms: C4_4  and  C6_6 
REMARK    3  A    between atoms: C5_5  and  C7_7 
ROOT
HETATM    1  C5  UNL     1     -23.865  17.281   9.974  1.00 20.00     0.009 C 
ENDROOT
BRANCH   1   2
HETATM    2  C4  UNL     1     -23.127  18.513   9.434  1.00 20.00     0.016 C 
BRANCH   2   3
HETATM    3  C6  UNL     1     -21.699  18.157   9.034  1.00 20.00     0.114 C 
HETATM    4 CL8  UNL     1     -21.681  17.352   7.449  1.00 20.00    -0.130 Cl
ENDBRANCH   2   3
ENDBRANCH   1   2
BRANCH   1   5
HETATM    5  C7  UNL     1     -24.217  17.315  11.486  1.00 20.00    -0.051 C 
HETATM    6  C1  UNL     1     -23.004  17.736  12.332  1.00 20.00     0.014 C 
HETATM    7  C2  UNL     1     -25.386  18.274  11.764  1.00 20.00     0.014 C 
HETATM    8  C3  UNL     1     -24.640  15.895  11.911  1.00 20.00     0.014 C 
ENDBRANCH   1   5
TORSDOF 3
ENDMDL
MODEL 8
REMARK VINA RESULT:      -3.5     15.688     16.540
REMARK  3 active torsions:
REMARK  status: ('A' for Active; 'I' for Inactive)
REMARK    1  A    between atoms: C4_4  and  C5_5 
REMARK    2  A    between atoms: C4_4  and  C6_6 
REMARK    3  A    between atoms: C5_5  and  C7_7 
ROOT
HETATM    1  C5  UNL     1     -24.036  17.604   9.930  1.00 20.00     0.009 C 
ENDROOT
BRANCH   1   2
HETATM    2  C4  UNL     1     -24.745  18.826   9.332  1.00 20.00     0.016 C 
BRANCH   2   3
HETATM    3  C6  UNL     1     -24.527  18.894   7.824  1.00 20.00     0.114 C 
HETATM    4 CL8  UNL     1     -26.082  18.802   6.967  1.00 20.00    -0.130 Cl
ENDBRANCH   2   3
ENDBRANCH   1   2
BRANCH   1   5
HETATM    5  C7  UNL     1     -24.230  17.390  11.455  1.00 20.00    -0.051 C 
HETATM    6  C1  UNL     1     -22.930  17.673  12.227  1.00 20.00     0.014 C 
HETATM    7  C2  UNL     1     -25.350  18.287  12.005  1.00 20.00     0.014 C 
HETATM    8  C3  UNL     1     -24.625  15.919  11.687  1.00 20.00     0.014 C 
ENDBRANCH   1   5
TORSDOF 3
ENDMDL
MODEL 9
REMARK VINA RESULT:      -3.5     11.617     12.396
REMARK  3 active torsions:
REMARK  status: ('A' for Active; 'I' for Inactive)
REMARK    1  A    between atoms: C4_4  and  C5_5 
REMARK    2  A    between atoms: C4_4  and  C6_6 
REMARK    3  A    between atoms: C5_5  and  C7_7 
ROOT
HETATM    1  C5  UNL     1     -34.635  15.099  -3.311  1.00 20.00     0.009 C 
ENDROOT
BRANCH   1   2
HETATM    2  C4  UNL     1     -33.510  14.716  -4.282  1.00 20.00     0.016 C 
BRANCH   2   3
HETATM    3  C6  UNL     1     -33.966  14.876  -5.728  1.00 20.00     0.114 C 
HETATM    4 CL8  UNL     1     -35.696  14.491  -5.880  1.00 20.00    -0.130 Cl
ENDBRANCH   2   3
ENDBRANCH   1   2
BRANCH   1   5
HETATM    5  C7  UNL     1     -34.538  16.519  -2.691  1.00 20.00    -0.051 C 
HETATM    6  C1  UNL     1     -35.244  17.561  -3.574  1.00 20.00     0.014 C 
HETATM    7  C2  UNL     1     -35.149  16.554  -1.281  1.00 20.00     0.014 C 
HETATM    8  C3  UNL     1     -33.047  16.896  -2.587  1.00 20.00     0.014 C 
ENDBRANCH   1   5
TORSDOF 3
ENDMDL
