MODEL 1
REMARK VINA RESULT:      -5.6      0.000      0.000
REMARK  1 active torsions:
REMARK  status: ('A' for Active; 'I' for Inactive)
REMARK    1  A    between atoms: C2_2  and  C3_3 
ROOT
HETATM    1  C1  UNL     1     -33.553   6.876   4.867  1.00 20.00    -0.020 C 
HETATM    2  C2  UNL     1     -33.586   6.127   3.758  1.00 20.00    -0.062 C 
HETATM    3  C5  UNL     1     -34.315   6.241   5.983  1.00 20.00     0.028 C 
HETATM    4  C6  UNL     1     -34.374   4.872   3.959  1.00 20.00     0.038 C 
HETATM    5  C7  UNL     1     -35.108   5.144   5.272  1.00 20.00     0.008 C 
ENDROOT
BRANCH   2   6
HETATM    6  C3  UNL     1     -32.947   6.428   2.517  1.00 20.00     0.002 C 
HETATM    7  C4  UNL     1     -32.768   7.676   2.052  1.00 20.00    -0.030 C 
HETATM    8  C8  UNL     1     -32.105   7.994   0.753  1.00 20.00     0.036 C 
ENDBRANCH   2   6
TORSDOF 1
ENDMDL
MODEL 2
REMARK VINA RESULT:      -4.2     11.336     11.913
REMARK  1 active torsions:
REMARK  status: ('A' for Active; 'I' for Inactive)
REMARK    1  A    between atoms: C2_2  and  C3_3 
ROOT
HETATM    1  C1  UNL     1     -33.018  16.697  -2.722  1.00 20.00    -0.020 C 
HETATM    2  C2  UNL     1     -34.170  16.022  -2.634  1.00 20.00    -0.062 C 
HETATM    3  C5  UNL     1     -32.890  17.712  -1.635  1.00 20.00     0.028 C 
HETATM    4  C6  UNL     1     -34.994  16.479  -1.473  1.00 20.00     0.038 C 
HETATM    5  C7  UNL     1     -34.308  17.785  -1.069  1.00 20.00     0.008 C 
ENDROOT
BRANCH   2   6
HETATM    6  C3  UNL     1     -34.602  14.971  -3.500  1.00 20.00     0.002 C 
HETATM    7  C4  UNL     1     -35.890  14.729  -3.795  1.00 20.00    -0.030 C 
HETATM    8  C8  UNL     1     -36.346  13.629  -4.695  1.00 20.00     0.036 C 
ENDBRANCH   2   6
TORSDOF 1
ENDMDL
MODEL 3
REMARK VINA RESULT:      -4.2     11.099     11.902
REMARK  1 active torsions:
REMARK  status: ('A' for Active; 'I' for Inactive)
REMARK    1  A    between atoms: C2_2  and  C3_3 
ROOT
HETATM    1  C1  UNL     1     -33.090  15.831  -3.410  1.00 20.00    -0.020 C 
HETATM    2  C2  UNL     1     -34.174  16.039  -2.653  1.00 20.00    -0.062 C 
HETATM    3  C5  UNL     1     -33.333  14.785  -4.446  1.00 20.00     0.028 C 
HETATM    4  C6  UNL     1     -35.314  15.165  -3.067  1.00 20.00     0.038 C 
HETATM    5  C7  UNL     1     -34.638  14.141  -3.979  1.00 20.00     0.008 C 
ENDROOT
BRANCH   2   6
HETATM    6  C3  UNL     1     -34.292  16.981  -1.586  1.00 20.00     0.002 C 
HETATM    7  C4  UNL     1     -35.267  16.943  -0.663  1.00 20.00    -0.030 C 
HETATM    8  C8  UNL     1     -35.397  17.928   0.452  1.00 20.00     0.036 C 
ENDBRANCH   2   6
TORSDOF 1
ENDMDL
MODEL 4
REMARK VINA RESULT:      -4.2     11.178     12.244
REMARK  1 active torsions:
REMARK  status: ('A' for Active; 'I' for Inactive)
REMARK    1  A    between atoms: C2_2  and  C3_3 
ROOT
HETATM    1  C1  UNL     1     -33.023  16.087  -3.362  1.00 20.00    -0.020 C 
HETATM    2  C2  UNL     1     -33.767  16.593  -2.372  1.00 20.00    -0.062 C 
HETATM    3  C5  UNL     1     -33.783  15.081  -4.162  1.00 20.00     0.028 C 
HETATM    4  C6  UNL     1     -35.142  16.006  -2.355  1.00 20.00     0.038 C 
HETATM    5  C7  UNL     1     -35.004  14.802  -3.287  1.00 20.00     0.008 C 
ENDROOT
BRANCH   2   6
HETATM    6  C3  UNL     1     -33.359  17.588  -1.432  1.00 20.00     0.002 C 
HETATM    7  C4  UNL     1     -32.118  18.102  -1.380  1.00 20.00    -0.030 C 
HETATM    8  C8  UNL     1     -31.686  19.139  -0.397  1.00 20.00     0.036 C 
ENDBRANCH   2   6
TORSDOF 1
ENDMDL
MODEL 5
REMARK VINA RESULT:      -4.2     11.301     11.927
REMARK  1 active torsions:
REMARK  status: ('A' for Active; 'I' for Inactive)
REMARK    1  A    between atoms: C2_2  and  C3_3 
ROOT
HETATM    1  C1  UNL     1     -34.992  16.570  -1.457  1.00 20.00    -0.020 C 
HETATM    2  C2  UNL     1     -34.298  16.102  -2.502  1.00 20.00    -0.062 C 
HETATM    3  C5  UNL     1     -34.325  17.754  -0.839  1.00 20.00     0.028 C 
HETATM    4  C6  UNL     1     -33.059  16.902  -2.747  1.00 20.00     0.038 C 
HETATM    5  C7  UNL     1     -32.932  17.725  -1.465  1.00 20.00     0.008 C 
ENDROOT
BRANCH   2   6
HETATM    6  C3  UNL     1     -34.659  14.996  -3.329  1.00 20.00     0.002 C 
HETATM    7  C4  UNL     1     -35.900  14.792  -3.803  1.00 20.00    -0.030 C 
HETATM    8  C8  UNL     1     -36.282  13.635  -4.665  1.00 20.00     0.036 C 
ENDBRANCH   2   6
TORSDOF 1
ENDMDL
MODEL 6
REMARK VINA RESULT:      -4.0      9.179      9.841
REMARK  1 active torsions:
REMARK  status: ('A' for Active; 'I' for Inactive)
REMARK    1  A    between atoms: C2_2  and  C3_3 
ROOT
HETATM    1  C1  UNL     1     -41.230   6.429   0.486  1.00 20.00    -0.020 C 
HETATM    2  C2  UNL     1     -41.471   6.260  -0.819  1.00 20.00    -0.062 C 
HETATM    3  C5  UNL     1     -41.331   7.864   0.884  1.00 20.00     0.028 C 
HETATM    4  C6  UNL     1     -41.772   7.557  -1.500  1.00 20.00     0.038 C 
HETATM    5  C7  UNL     1     -41.336   8.590  -0.460  1.00 20.00     0.008 C 
ENDROOT
BRANCH   2   6
HETATM    6  C3  UNL     1     -41.475   5.018  -1.524  1.00 20.00     0.002 C 
HETATM    7  C4  UNL     1     -42.582   4.455  -2.038  1.00 20.00    -0.030 C 
HETATM    8  C8  UNL     1     -42.591   3.156  -2.772  1.00 20.00     0.036 C 
ENDBRANCH   2   6
TORSDOF 1
ENDMDL
MODEL 7
REMARK VINA RESULT:      -3.9      9.229      9.893
REMARK  1 active torsions:
REMARK  status: ('A' for Active; 'I' for Inactive)
REMARK    1  A    between atoms: C2_2  and  C3_3 
ROOT
HETATM    1  C1  UNL     1     -41.240   7.320  -1.362  1.00 20.00    -0.020 C 
HETATM    2  C2  UNL     1     -41.510   6.113  -0.853  1.00 20.00    -0.062 C 
HETATM    3  C5  UNL     1     -41.330   8.389  -0.324  1.00 20.00     0.028 C 
HETATM    4  C6  UNL     1     -41.823   6.184   0.608  1.00 20.00     0.038 C 
HETATM    5  C7  UNL     1     -42.037   7.682   0.832  1.00 20.00     0.008 C 
ENDROOT
BRANCH   2   6
HETATM    6  C3  UNL     1     -41.496   4.874  -1.562  1.00 20.00     0.002 C 
HETATM    7  C4  UNL     1     -42.584   4.324  -2.127  1.00 20.00    -0.030 C 
HETATM    8  C8  UNL     1     -42.574   3.027  -2.866  1.00 20.00     0.036 C 
ENDBRANCH   2   6
TORSDOF 1
ENDMDL
MODEL 8
REMARK VINA RESULT:      -3.9     11.004     11.872
REMARK  1 active torsions:
REMARK  status: ('A' for Active; 'I' for Inactive)
REMARK    1  A    between atoms: C2_2  and  C3_3 
ROOT
HETATM    1  C1  UNL     1     -34.834  14.181  -3.750  1.00 20.00    -0.020 C 
HETATM    2  C2  UNL     1     -35.207  15.342  -3.199  1.00 20.00    -0.062 C 
HETATM    3  C5  UNL     1     -35.886  13.639  -4.659  1.00 20.00     0.028 C 
HETATM    4  C6  UNL     1     -36.569  15.759  -3.655  1.00 20.00     0.038 C 
HETATM    5  C7  UNL     1     -37.108  14.487  -4.309  1.00 20.00     0.008 C 
ENDROOT
BRANCH   2   6
HETATM    6  C3  UNL     1     -34.435  16.138  -2.299  1.00 20.00     0.002 C 
HETATM    7  C4  UNL     1     -33.375  16.872  -2.674  1.00 20.00    -0.030 C 
HETATM    8  C8  UNL     1     -32.562  17.702  -1.736  1.00 20.00     0.036 C 
ENDBRANCH   2   6
TORSDOF 1
ENDMDL
MODEL 9
REMARK VINA RESULT:      -3.9     11.296     12.222
REMARK  1 active torsions:
REMARK  status: ('A' for Active; 'I' for Inactive)
REMARK    1  A    between atoms: C2_2  and  C3_3 
ROOT
HETATM    1  C1  UNL     1     -35.056  15.677  -2.458  1.00 20.00    -0.020 C 
HETATM    2  C2  UNL     1     -34.782  16.709  -1.651  1.00 20.00    -0.062 C 
HETATM    3  C5  UNL     1     -33.917  15.376  -3.375  1.00 20.00     0.028 C 
HETATM    4  C6  UNL     1     -33.414  17.259  -1.901  1.00 20.00     0.038 C 
HETATM    5  C7  UNL     1     -33.030  16.612  -3.232  1.00 20.00     0.008 C 
ENDROOT
BRANCH   2   6
HETATM    6  C3  UNL     1     -35.640  17.246  -0.644  1.00 20.00     0.002 C 
HETATM    7  C4  UNL     1     -35.311  17.315   0.657  1.00 20.00    -0.030 C 
HETATM    8  C8  UNL     1     -36.207  17.872   1.714  1.00 20.00     0.036 C 
ENDBRANCH   2   6
TORSDOF 1
ENDMDL
