MODEL 1
REMARK VINA RESULT:      -5.5      0.000      0.000
REMARK  3 active torsions:
REMARK  status: ('A' for Active; 'I' for Inactive)
REMARK    1  A    between atoms: C6_6  and  C10_10 
REMARK    2  A    between atoms: C7_7  and  N11_11 
REMARK    3  A    between atoms: C9_9  and  N11_11 
ROOT
HETATM    1  C1  UNL     1     -33.298   9.149  -0.260  1.00 20.00     0.013 C 
HETATM    2  C2  UNL     1     -32.944   8.630   0.764  1.00 20.00    -0.087 C 
HETATM    3  C9  UNL     1     -32.515   8.000   2.015  1.00 20.00     0.362 C 
ENDROOT
BRANCH   3   4
HETATM    4  N11 UNL     1     -32.347   6.563   1.836  1.00 20.00     0.098 N 
HETATM    5  H28 UNL     1     -31.355   6.356   1.720  1.00 20.00     0.317 HD
BRANCH   4   6
HETATM    6  C7  UNL     1     -32.864   5.831   2.980  1.00 20.00     0.222 C 
HETATM    7  C4  UNL     1     -33.456   4.481   2.598  1.00 20.00     0.036 C 
HETATM    8  C3  UNL     1     -34.236   4.103   3.850  1.00 20.00     0.007 C 
HETATM    9  C6  UNL     1     -34.830   5.426   4.358  1.00 20.00    -0.013 C 
HETATM   10  C5  UNL     1     -34.033   6.542   3.659  1.00 20.00     0.040 C 
BRANCH   9  11
HETATM   11  C10 UNL     1     -34.777   5.531   5.877  1.00 20.00     0.000 C 
HETATM   12  C8  UNL     1     -34.053   6.760   6.325  1.00 20.00     0.005 C 
ENDBRANCH   9  11
ENDBRANCH   4   6
ENDBRANCH   3   4
TORSDOF 3
ENDMDL
MODEL 2
REMARK VINA RESULT:      -4.6     11.275     12.192
REMARK  3 active torsions:
REMARK  status: ('A' for Active; 'I' for Inactive)
REMARK    1  A    between atoms: C6_6  and  C10_10 
REMARK    2  A    between atoms: C7_7  and  N11_11 
REMARK    3  A    between atoms: C9_9  and  N11_11 
ROOT
HETATM    1  C1  UNL     1     -34.108  15.372  -7.847  1.00 20.00     0.013 C 
HETATM    2  C2  UNL     1     -34.076  15.073  -6.684  1.00 20.00    -0.087 C 
HETATM    3  C9  UNL     1     -34.041  14.706  -5.266  1.00 20.00     0.362 C 
ENDROOT
BRANCH   3   4
HETATM    4  N11 UNL     1     -32.887  15.306  -4.608  1.00 20.00     0.098 N 
HETATM    5  H28 UNL     1     -32.563  16.098  -5.163  1.00 20.00     0.317 HD
BRANCH   4   6
HETATM    6  C7  UNL     1     -33.227  15.758  -3.269  1.00 20.00     0.222 C 
HETATM    7  C4  UNL     1     -34.697  15.551  -2.932  1.00 20.00     0.036 C 
HETATM    8  C3  UNL     1     -34.869  16.415  -1.689  1.00 20.00     0.007 C 
HETATM    9  C6  UNL     1     -33.994  17.652  -1.946  1.00 20.00    -0.013 C 
HETATM   10  C5  UNL     1     -33.038  17.263  -3.087  1.00 20.00     0.040 C 
BRANCH   9  11
HETATM   11  C10 UNL     1     -33.257  18.101  -0.691  1.00 20.00     0.000 C 
HETATM   12  C8  UNL     1     -31.800  18.319  -0.949  1.00 20.00     0.005 C 
ENDBRANCH   9  11
ENDBRANCH   4   6
ENDBRANCH   3   4
TORSDOF 3
ENDMDL
MODEL 3
REMARK VINA RESULT:      -4.5      9.691     10.398
REMARK  3 active torsions:
REMARK  status: ('A' for Active; 'I' for Inactive)
REMARK    1  A    between atoms: C6_6  and  C10_10 
REMARK    2  A    between atoms: C7_7  and  N11_11 
REMARK    3  A    between atoms: C9_9  and  N11_11 
ROOT
HETATM    1  C1  UNL     1     -41.653   2.003  -4.225  1.00 20.00     0.013 C 
HETATM    2  C2  UNL     1     -42.421   2.748  -3.678  1.00 20.00    -0.087 C 
HETATM    3  C9  UNL     1     -43.359   3.657  -3.015  1.00 20.00     0.362 C 
ENDROOT
BRANCH   3   4
HETATM    4  N11 UNL     1     -43.054   3.763  -1.593  1.00 20.00     0.098 N 
HETATM    5  H28 UNL     1     -42.326   3.088  -1.358  1.00 20.00     0.317 HD
BRANCH   4   6
HETATM    6  C7  UNL     1     -42.602   5.101  -1.254  1.00 20.00     0.222 C 
HETATM    7  C4  UNL     1     -41.085   5.225  -1.237  1.00 20.00     0.036 C 
HETATM    8  C3  UNL     1     -40.875   6.549  -0.515  1.00 20.00     0.007 C 
HETATM    9  C6  UNL     1     -41.963   6.581   0.571  1.00 20.00    -0.013 C 
HETATM   10  C5  UNL     1     -42.999   5.520   0.161  1.00 20.00     0.040 C 
BRANCH   9  11
HETATM   11  C10 UNL     1     -42.574   7.967   0.727  1.00 20.00     0.000 C 
HETATM   12  C8  UNL     1     -41.733   9.021   0.080  1.00 20.00     0.005 C 
ENDBRANCH   9  11
ENDBRANCH   4   6
ENDBRANCH   3   4
TORSDOF 3
ENDMDL
MODEL 4
REMARK VINA RESULT:      -4.4     11.267     12.322
REMARK  3 active torsions:
REMARK  status: ('A' for Active; 'I' for Inactive)
REMARK    1  A    between atoms: C6_6  and  C10_10 
REMARK    2  A    between atoms: C7_7  and  N11_11 
REMARK    3  A    between atoms: C9_9  and  N11_11 
ROOT
HETATM    1  C1  UNL     1     -30.671  18.508   0.616  1.00 20.00     0.013 C 
HETATM    2  C2  UNL     1     -31.336  18.398  -0.379  1.00 20.00    -0.087 C 
HETATM    3  C9  UNL     1     -32.143  18.265  -1.594  1.00 20.00     0.362 C 
ENDROOT
BRANCH   3   4
HETATM    4  N11 UNL     1     -33.495  17.827  -1.269  1.00 20.00     0.098 N 
HETATM    5  H28 UNL     1     -34.068  18.645  -1.061  1.00 20.00     0.317 HD
BRANCH   4   6
HETATM    6  C7  UNL     1     -34.085  17.089  -2.373  1.00 20.00     0.222 C 
HETATM    7  C4  UNL     1     -35.147  16.097  -1.919  1.00 20.00     0.036 C 
HETATM    8  C3  UNL     1     -35.323  15.223  -3.153  1.00 20.00     0.007 C 
HETATM    9  C6  UNL     1     -33.910  15.083  -3.741  1.00 20.00    -0.013 C 
HETATM   10  C5  UNL     1     -33.074  16.205  -3.102  1.00 20.00     0.040 C 
BRANCH   9  11
HETATM   11  C10 UNL     1     -33.915  15.150  -5.263  1.00 20.00     0.000 C 
HETATM   12  C8  UNL     1     -35.241  14.757  -5.832  1.00 20.00     0.005 C 
ENDBRANCH   9  11
ENDBRANCH   4   6
ENDBRANCH   3   4
TORSDOF 3
ENDMDL
MODEL 5
REMARK VINA RESULT:      -4.2     10.810     11.936
REMARK  3 active torsions:
REMARK  status: ('A' for Active; 'I' for Inactive)
REMARK    1  A    between atoms: C6_6  and  C10_10 
REMARK    2  A    between atoms: C7_7  and  N11_11 
REMARK    3  A    between atoms: C9_9  and  N11_11 
ROOT
HETATM    1  C1  UNL     1     -33.382  18.325   2.048  1.00 20.00     0.013 C 
HETATM    2  C2  UNL     1     -34.285  17.861   1.405  1.00 20.00    -0.087 C 
HETATM    3  C9  UNL     1     -35.388  17.294   0.626  1.00 20.00     0.362 C 
ENDROOT
BRANCH   3   4
HETATM    4  N11 UNL     1     -35.279  17.679  -0.776  1.00 20.00     0.098 N 
HETATM    5  H28 UNL     1     -34.715  18.527  -0.845  1.00 20.00     0.317 HD
BRANCH   4   6
HETATM    6  C7  UNL     1     -34.664  16.623  -1.561  1.00 20.00     0.222 C 
HETATM    7  C4  UNL     1     -33.424  17.091  -2.311  1.00 20.00     0.036 C 
HETATM    8  C3  UNL     1     -33.203  15.962  -3.309  1.00 20.00     0.007 C 
HETATM    9  C6  UNL     1     -34.616  15.536  -3.739  1.00 20.00    -0.013 C 
HETATM   10  C5  UNL     1     -35.571  16.110  -2.678  1.00 20.00     0.040 C 
BRANCH   9  11
HETATM   11  C10 UNL     1     -34.738  14.024  -3.881  1.00 20.00     0.000 C 
HETATM   12  C8  UNL     1     -36.026  13.629  -4.530  1.00 20.00     0.005 C 
ENDBRANCH   9  11
ENDBRANCH   4   6
ENDBRANCH   3   4
TORSDOF 3
ENDMDL
MODEL 6
REMARK VINA RESULT:      -4.1     11.380     12.408
REMARK  3 active torsions:
REMARK  status: ('A' for Active; 'I' for Inactive)
REMARK    1  A    between atoms: C6_6  and  C10_10 
REMARK    2  A    between atoms: C7_7  and  N11_11 
REMARK    3  A    between atoms: C9_9  and  N11_11 
ROOT
HETATM    1  C1  UNL     1     -32.630  17.976   2.912  1.00 20.00     0.013 C 
HETATM    2  C2  UNL     1     -32.548  18.235   1.741  1.00 20.00    -0.087 C 
HETATM    3  C9  UNL     1     -32.444  18.549   0.314  1.00 20.00     0.362 C 
ENDROOT
BRANCH   3   4
HETATM    4  N11 UNL     1     -33.727  19.007  -0.206  1.00 20.00     0.098 N 
HETATM    5  H28 UNL     1     -33.622  19.961  -0.555  1.00 20.00     0.317 HD
BRANCH   4   6
HETATM    6  C7  UNL     1     -34.193  18.147  -1.279  1.00 20.00     0.222 C 
HETATM    7  C4  UNL     1     -35.070  17.005  -0.782  1.00 20.00     0.036 C 
HETATM    8  C3  UNL     1     -35.107  16.075  -1.987  1.00 20.00     0.007 C 
HETATM    9  C6  UNL     1     -33.695  16.155  -2.589  1.00 20.00    -0.013 C 
HETATM   10  C5  UNL     1     -33.054  17.421  -1.994  1.00 20.00     0.040 C 
BRANCH   9  11
HETATM   11  C10 UNL     1     -33.724  16.172  -4.112  1.00 20.00     0.000 C 
HETATM   12  C8  UNL     1     -33.661  14.792  -4.685  1.00 20.00     0.005 C 
ENDBRANCH   9  11
ENDBRANCH   4   6
ENDBRANCH   3   4
TORSDOF 3
ENDMDL
MODEL 7
REMARK VINA RESULT:      -4.1     10.937     12.062
REMARK  3 active torsions:
REMARK  status: ('A' for Active; 'I' for Inactive)
REMARK    1  A    between atoms: C6_6  and  C10_10 
REMARK    2  A    between atoms: C7_7  and  N11_11 
REMARK    3  A    between atoms: C9_9  and  N11_11 
ROOT
HETATM    1  C1  UNL     1     -35.466  13.748  -4.201  1.00 20.00     0.013 C 
HETATM    2  C2  UNL     1     -34.401  14.303  -4.161  1.00 20.00    -0.087 C 
HETATM    3  C9  UNL     1     -33.101  14.976  -4.115  1.00 20.00     0.362 C 
ENDROOT
BRANCH   3   4
HETATM    4  N11 UNL     1     -33.270  16.406  -3.885  1.00 20.00     0.098 N 
HETATM    5  H28 UNL     1     -34.118  16.721  -4.357  1.00 20.00     0.317 HD
BRANCH   4   6
HETATM    6  C7  UNL     1     -33.367  16.699  -2.466  1.00 20.00     0.222 C 
HETATM    7  C4  UNL     1     -34.797  16.969  -2.016  1.00 20.00     0.036 C 
HETATM    8  C3  UNL     1     -34.592  17.598  -0.644  1.00 20.00     0.007 C 
HETATM    9  C6  UNL     1     -33.335  18.471  -0.795  1.00 20.00    -0.013 C 
HETATM   10  C5  UNL     1     -32.633  17.981  -2.074  1.00 20.00     0.040 C 
BRANCH   9  11
HETATM   11  C10 UNL     1     -32.437  18.395   0.432  1.00 20.00     0.000 C 
HETATM   12  C8  UNL     1     -30.999  18.611   0.083  1.00 20.00     0.005 C 
ENDBRANCH   9  11
ENDBRANCH   4   6
ENDBRANCH   3   4
TORSDOF 3
ENDMDL
MODEL 8
REMARK VINA RESULT:      -4.1     11.035     12.063
REMARK  3 active torsions:
REMARK  status: ('A' for Active; 'I' for Inactive)
REMARK    1  A    between atoms: C6_6  and  C10_10 
REMARK    2  A    between atoms: C7_7  and  N11_11 
REMARK    3  A    between atoms: C9_9  and  N11_11 
ROOT
HETATM    1  C1  UNL     1     -31.045  18.527   0.082  1.00 20.00     0.013 C 
HETATM    2  C2  UNL     1     -31.813  18.413  -0.834  1.00 20.00    -0.087 C 
HETATM    3  C9  UNL     1     -32.747  18.275  -1.955  1.00 20.00     0.362 C 
ENDROOT
BRANCH   3   4
HETATM    4  N11 UNL     1     -33.920  17.508  -1.555  1.00 20.00     0.098 N 
HETATM    5  H28 UNL     1     -34.757  18.064  -1.731  1.00 20.00     0.317 HD
BRANCH   4   6
HETATM    6  C7  UNL     1     -34.003  16.259  -2.294  1.00 20.00     0.222 C 
HETATM    7  C4  UNL     1     -32.902  16.116  -3.336  1.00 20.00     0.036 C 
HETATM    8  C3  UNL     1     -33.414  14.964  -4.192  1.00 20.00     0.007 C 
HETATM    9  C6  UNL     1     -34.935  15.174  -4.265  1.00 20.00    -0.013 C 
HETATM   10  C5  UNL     1     -35.282  16.146  -3.124  1.00 20.00     0.040 C 
BRANCH   9  11
HETATM   11  C10 UNL     1     -35.698  13.860  -4.168  1.00 20.00     0.000 C 
HETATM   12  C8  UNL     1     -37.136  14.023  -4.546  1.00 20.00     0.005 C 
ENDBRANCH   9  11
ENDBRANCH   4   6
ENDBRANCH   3   4
TORSDOF 3
ENDMDL
MODEL 9
REMARK VINA RESULT:      -4.1     11.116     12.103
REMARK  3 active torsions:
REMARK  status: ('A' for Active; 'I' for Inactive)
REMARK    1  A    between atoms: C6_6  and  C10_10 
REMARK    2  A    between atoms: C7_7  and  N11_11 
REMARK    3  A    between atoms: C9_9  and  N11_11 
ROOT
HETATM    1  C1  UNL     1     -35.327  15.112  -7.295  1.00 20.00     0.013 C 
HETATM    2  C2  UNL     1     -35.697  14.610  -6.269  1.00 20.00    -0.087 C 
HETATM    3  C9  UNL     1     -36.152  13.996  -5.019  1.00 20.00     0.362 C 
ENDROOT
BRANCH   3   4
HETATM    4  N11 UNL     1     -35.084  13.995  -4.027  1.00 20.00     0.098 N 
HETATM    5  H28 UNL     1     -34.286  13.479  -4.398  1.00 20.00     0.317 HD
BRANCH   4   6
HETATM    6  C7  UNL     1     -34.675  15.350  -3.699  1.00 20.00     0.222 C 
HETATM    7  C4  UNL     1     -33.162  15.522  -3.683  1.00 20.00     0.036 C 
HETATM    8  C3  UNL     1     -32.995  16.858  -2.971  1.00 20.00     0.007 C 
HETATM    9  C6  UNL     1     -34.084  16.865  -1.886  1.00 20.00    -0.013 C 
HETATM   10  C5  UNL     1     -35.086  15.768  -2.288  1.00 20.00     0.040 C 
BRANCH   9  11
HETATM   11  C10 UNL     1     -34.738  18.232  -1.742  1.00 20.00     0.000 C 
HETATM   12  C8  UNL     1     -33.802  19.237  -1.149  1.00 20.00     0.005 C 
ENDBRANCH   9  11
ENDBRANCH   4   6
ENDBRANCH   3   4
TORSDOF 3
ENDMDL
