MODEL 1
REMARK VINA RESULT:      -4.9      0.000      0.000
REMARK  0 active torsions:
REMARK  status: ('A' for Active; 'I' for Inactive)
ROOT
HETATM    1  C1  UNL     1     -34.950  15.826  -6.332  1.00 20.00     0.004 C 
HETATM    2  C2  UNL     1     -35.785  14.570  -6.085  1.00 20.00     0.040 C 
HETATM    3  C3  UNL     1     -34.405  16.473  -5.053  1.00 20.00     0.009 C 
HETATM    4  C4  UNL     1     -35.329  14.627  -3.566  1.00 20.00     0.049 C 
HETATM    5  C5  UNL     1     -37.771  14.940  -4.448  1.00 20.00     0.207 A 
HETATM    6  C6  UNL     1     -36.327  14.553  -4.693  1.00 20.00     0.083 A 
HETATM    7  C7  UNL     1     -34.075  15.468  -3.928  1.00 20.00    -0.045 C 
HETATM    8  C8  UNL     1     -33.616  16.253  -2.682  1.00 20.00     0.015 C 
HETATM    9  C9  UNL     1     -32.911  14.549  -4.351  1.00 20.00     0.015 C 
HETATM   10  O10 UNL     1     -37.353  13.570  -4.484  1.00 20.00    -0.375 OA
ENDROOT
TORSDOF 0
ENDMDL
MODEL 2
REMARK VINA RESULT:      -4.4      1.094      1.235
REMARK  0 active torsions:
REMARK  status: ('A' for Active; 'I' for Inactive)
ROOT
HETATM    1  C1  UNL     1     -35.009  16.669  -5.543  1.00 20.00     0.004 C 
HETATM    2  C2  UNL     1     -35.075  15.149  -5.681  1.00 20.00     0.040 C 
HETATM    3  C3  UNL     1     -35.088  17.168  -4.095  1.00 20.00     0.009 C 
HETATM    4  C4  UNL     1     -35.100  14.808  -3.143  1.00 20.00     0.049 C 
HETATM    5  C5  UNL     1     -37.171  14.088  -4.567  1.00 20.00     0.207 A 
HETATM    6  C6  UNL     1     -35.726  14.531  -4.486  1.00 20.00     0.083 A 
HETATM    7  C7  UNL     1     -34.446  16.214  -3.063  1.00 20.00    -0.045 C 
HETATM    8  C8  UNL     1     -34.666  16.794  -1.651  1.00 20.00     0.015 C 
HETATM    9  C9  UNL     1     -32.925  16.117  -3.293  1.00 20.00     0.015 C 
HETATM   10  O10 UNL     1     -36.091  13.154  -4.673  1.00 20.00    -0.375 OA
ENDROOT
TORSDOF 0
ENDMDL
MODEL 3
REMARK VINA RESULT:      -4.3     18.315     19.509
REMARK  0 active torsions:
REMARK  status: ('A' for Active; 'I' for Inactive)
ROOT
HETATM    1  C1  UNL     1     -22.214  17.773  11.808  1.00 20.00     0.004 C 
HETATM    2  C2  UNL     1     -22.182  17.418  10.322  1.00 20.00     0.040 C 
HETATM    3  C3  UNL     1     -23.609  18.134  12.332  1.00 20.00     0.009 C 
HETATM    4  C4  UNL     1     -24.725  17.620  10.104  1.00 20.00     0.049 C 
HETATM    5  C5  UNL     1     -23.178  19.263   8.784  1.00 20.00     0.207 A 
HETATM    6  C6  UNL     1     -23.356  18.004   9.606  1.00 20.00     0.083 A 
HETATM    7  C7  UNL     1     -24.761  17.376  11.637  1.00 20.00    -0.045 C 
HETATM    8  C8  UNL     1     -26.102  17.890  12.200  1.00 20.00     0.015 C 
HETATM    9  C9  UNL     1     -24.676  15.867  11.947  1.00 20.00     0.015 C 
HETATM   10  O10 UNL     1     -23.237  17.968   8.175  1.00 20.00    -0.375 OA
ENDROOT
TORSDOF 0
ENDMDL
MODEL 4
REMARK VINA RESULT:      -4.2      1.397      2.371
REMARK  0 active torsions:
REMARK  status: ('A' for Active; 'I' for Inactive)
ROOT
HETATM    1  C1  UNL     1     -35.082  13.387  -4.033  1.00 20.00     0.004 C 
HETATM    2  C2  UNL     1     -36.329  13.966  -4.699  1.00 20.00     0.040 C 
HETATM    3  C3  UNL     1     -33.950  14.404  -3.842  1.00 20.00     0.009 C 
HETATM    4  C4  UNL     1     -35.349  16.331  -4.739  1.00 20.00     0.049 C 
HETATM    5  C5  UNL     1     -35.860  15.103  -6.990  1.00 20.00     0.207 A 
HETATM    6  C6  UNL     1     -35.996  15.193  -5.485  1.00 20.00     0.083 A 
HETATM    7  C7  UNL     1     -34.434  15.847  -3.581  1.00 20.00    -0.045 C 
HETATM    8  C8  UNL     1     -33.203  16.773  -3.488  1.00 20.00     0.015 C 
HETATM    9  C9  UNL     1     -35.179  15.929  -2.233  1.00 20.00     0.015 C 
HETATM   10  O10 UNL     1     -37.045  15.614  -6.371  1.00 20.00    -0.375 OA
ENDROOT
TORSDOF 0
ENDMDL
MODEL 5
REMARK VINA RESULT:      -4.2      1.548      2.394
REMARK  0 active torsions:
REMARK  status: ('A' for Active; 'I' for Inactive)
ROOT
HETATM    1  C1  UNL     1     -33.255  15.437  -3.905  1.00 20.00     0.004 C 
HETATM    2  C2  UNL     1     -34.082  14.152  -3.909  1.00 20.00     0.040 C 
HETATM    3  C3  UNL     1     -34.095  16.718  -3.825  1.00 20.00     0.009 C 
HETATM    4  C4  UNL     1     -36.278  15.430  -3.592  1.00 20.00     0.049 C 
HETATM    5  C5  UNL     1     -35.877  14.069  -5.788  1.00 20.00     0.207 A 
HETATM    6  C6  UNL     1     -35.479  14.416  -4.369  1.00 20.00     0.083 A 
HETATM    7  C7  UNL     1     -35.398  16.569  -3.008  1.00 20.00    -0.045 C 
HETATM    8  C8  UNL     1     -36.179  17.897  -3.076  1.00 20.00     0.015 C 
HETATM    9  C9  UNL     1     -35.075  16.295  -1.525  1.00 20.00     0.015 C 
HETATM   10  O10 UNL     1     -36.219  13.225  -4.683  1.00 20.00    -0.375 OA
ENDROOT
TORSDOF 0
ENDMDL
MODEL 6
REMARK VINA RESULT:      -4.0      2.266      3.694
REMARK  0 active torsions:
REMARK  status: ('A' for Active; 'I' for Inactive)
ROOT
HETATM    1  C1  UNL     1     -33.397  16.883  -2.374  1.00 20.00     0.004 C 
HETATM    2  C2  UNL     1     -33.162  17.768  -3.597  1.00 20.00     0.040 C 
HETATM    3  C3  UNL     1     -34.396  15.744  -2.612  1.00 20.00     0.009 C 
HETATM    4  C4  UNL     1     -34.660  16.313  -5.078  1.00 20.00     0.049 C 
HETATM    5  C5  UNL     1     -35.340  18.789  -4.584  1.00 20.00     0.207 A 
HETATM    6  C6  UNL     1     -34.310  17.681  -4.550  1.00 20.00     0.083 A 
HETATM    7  C7  UNL     1     -34.383  15.182  -4.051  1.00 20.00    -0.045 C 
HETATM    8  C8  UNL     1     -35.483  14.108  -4.173  1.00 20.00     0.015 C 
HETATM    9  C9  UNL     1     -33.032  14.500  -4.349  1.00 20.00     0.015 C 
HETATM   10  O10 UNL     1     -34.299  18.699  -5.563  1.00 20.00    -0.375 OA
ENDROOT
TORSDOF 0
ENDMDL
MODEL 7
REMARK VINA RESULT:      -4.0     18.032     19.295
REMARK  0 active torsions:
REMARK  status: ('A' for Active; 'I' for Inactive)
ROOT
HETATM    1  C1  UNL     1     -25.002  18.702   9.383  1.00 20.00     0.004 C 
HETATM    2  C2  UNL     1     -23.588  19.215   9.111  1.00 20.00     0.040 C 
HETATM    3  C3  UNL     1     -25.049  17.416  10.217  1.00 20.00     0.009 C 
HETATM    4  C4  UNL     1     -22.527  17.385  10.554  1.00 20.00     0.049 C 
HETATM    5  C5  UNL     1     -22.037  17.457   7.987  1.00 20.00     0.207 A 
HETATM    6  C6  UNL     1     -22.586  18.113   9.236  1.00 20.00     0.083 A 
HETATM    7  C7  UNL     1     -23.910  17.294  11.254  1.00 20.00    -0.045 C 
HETATM    8  C8  UNL     1     -24.030  15.929  11.961  1.00 20.00     0.015 C 
HETATM    9  C9  UNL     1     -24.044  18.389  12.332  1.00 20.00     0.015 C 
HETATM   10  O10 UNL     1     -21.293  18.445   8.707  1.00 20.00    -0.375 OA
ENDROOT
TORSDOF 0
ENDMDL
MODEL 8
REMARK VINA RESULT:      -3.9      1.592      2.646
REMARK  0 active torsions:
REMARK  status: ('A' for Active; 'I' for Inactive)
ROOT
HETATM    1  C1  UNL     1     -34.515  14.144  -4.124  1.00 20.00     0.004 C 
HETATM    2  C2  UNL     1     -35.730  14.798  -4.779  1.00 20.00     0.040 C 
HETATM    3  C3  UNL     1     -33.492  15.143  -3.570  1.00 20.00     0.009 C 
HETATM    4  C4  UNL     1     -34.942  17.152  -4.152  1.00 20.00     0.049 C 
HETATM    5  C5  UNL     1     -35.123  16.475  -6.671  1.00 20.00     0.207 A 
HETATM    6  C6  UNL     1     -35.418  16.194  -5.213  1.00 20.00     0.083 A 
HETATM    7  C7  UNL     1     -34.113  16.454  -3.039  1.00 20.00    -0.045 C 
HETATM    8  C8  UNL     1     -32.976  17.394  -2.591  1.00 20.00     0.015 C 
HETATM    9  C9  UNL     1     -34.995  16.171  -1.806  1.00 20.00     0.015 C 
HETATM   10  O10 UNL     1     -36.402  16.759  -6.094  1.00 20.00    -0.375 OA
ENDROOT
TORSDOF 0
ENDMDL
MODEL 9
REMARK VINA RESULT:      -3.9      2.544      3.993
REMARK  0 active torsions:
REMARK  status: ('A' for Active; 'I' for Inactive)
ROOT
HETATM    1  C1  UNL     1     -36.018  16.505  -2.888  1.00 20.00     0.004 C 
HETATM    2  C2  UNL     1     -34.835  16.590  -1.923  1.00 20.00     0.040 C 
HETATM    3  C3  UNL     1     -35.621  16.171  -4.331  1.00 20.00     0.009 C 
HETATM    4  C4  UNL     1     -33.165  15.882  -3.730  1.00 20.00     0.049 C 
HETATM    5  C5  UNL     1     -32.994  18.267  -2.671  1.00 20.00     0.207 A 
HETATM    6  C6  UNL     1     -33.563  16.864  -2.658  1.00 20.00     0.083 A 
HETATM    7  C7  UNL     1     -34.387  15.249  -4.450  1.00 20.00    -0.045 C 
HETATM    8  C8  UNL     1     -34.052  15.062  -5.944  1.00 20.00     0.015 C 
HETATM    9  C9  UNL     1     -34.697  13.857  -3.865  1.00 20.00     0.015 C 
HETATM   10  O10 UNL     1     -32.475  17.252  -1.805  1.00 20.00    -0.375 OA
ENDROOT
TORSDOF 0
ENDMDL
