MODEL 1
REMARK VINA RESULT:      -4.9      0.000      0.000
REMARK  1 active torsions:
REMARK  status: ('A' for Active; 'I' for Inactive)
REMARK    1  A    between atoms: C8_8  and  N10_10 
ROOT
HETATM    1  C1  UNL     1     -24.680  18.921   7.354  1.00 20.00     0.177 C 
HETATM    2  N9  UNL     1     -24.267  19.229   6.315  1.00 20.00    -0.172 NA
HETATM    3  N10 UNL     1     -25.162  18.562   8.558  1.00 20.00    -0.324 N 
HETATM    4  H22 UNL     1     -25.911  17.861   8.626  1.00 20.00     0.172 HD
ENDROOT
BRANCH   3   5
HETATM    5  C8  UNL     1     -24.387  18.672   9.814  1.00 20.00     0.096 C 
HETATM    6  C5  UNL     1     -25.294  18.457  11.039  1.00 20.00     0.031 C 
HETATM    7  C6  UNL     1     -24.653  17.239  11.733  1.00 20.00    -0.012 C 
HETATM    8  C2  UNL     1     -23.298  17.658  12.331  1.00 20.00     0.005 C 
HETATM    9  C4  UNL     1     -24.218  16.391  10.539  1.00 20.00     0.011 C 
HETATM   10  C3  UNL     1     -22.410  17.829  11.088  1.00 20.00     0.007 C 
HETATM   11  C7  UNL     1     -23.373  17.514   9.930  1.00 20.00     0.009 C 
ENDBRANCH   3   5
TORSDOF 1
ENDMDL
MODEL 2
REMARK VINA RESULT:      -4.9      2.009      2.587
REMARK  1 active torsions:
REMARK  status: ('A' for Active; 'I' for Inactive)
REMARK    1  A    between atoms: C8_8  and  N10_10 
ROOT
HETATM    1  C1  UNL     1     -21.478  17.180   8.224  1.00 20.00     0.177 C 
HETATM    2  N9  UNL     1     -21.515  17.019   7.076  1.00 20.00    -0.172 NA
HETATM    3  N10 UNL     1     -21.431  17.364   9.556  1.00 20.00    -0.324 N 
HETATM    4  H22 UNL     1     -20.528  17.354  10.047  1.00 20.00     0.172 HD
ENDROOT
BRANCH   3   5
HETATM    5  C8  UNL     1     -22.470  18.094  10.316  1.00 20.00     0.096 C 
HETATM    6  C5  UNL     1     -23.673  18.434   9.416  1.00 20.00     0.031 C 
HETATM    7  C6  UNL     1     -24.843  17.722  10.123  1.00 20.00    -0.012 C 
HETATM    8  C2  UNL     1     -25.143  18.446  11.447  1.00 20.00     0.005 C 
HETATM    9  C4  UNL     1     -24.180  16.437  10.613  1.00 20.00     0.011 C 
HETATM   10  C3  UNL     1     -23.947  18.059  12.332  1.00 20.00     0.007 C 
HETATM   11  C7  UNL     1     -23.095  17.184  11.394  1.00 20.00     0.009 C 
ENDBRANCH   3   5
TORSDOF 1
ENDMDL
MODEL 3
REMARK VINA RESULT:      -4.9     15.995     17.623
REMARK  1 active torsions:
REMARK  status: ('A' for Active; 'I' for Inactive)
REMARK    1  A    between atoms: C8_8  and  N10_10 
ROOT
HETATM    1  C1  UNL     1     -36.821  14.046  -4.452  1.00 20.00     0.177 C 
HETATM    2  N9  UNL     1     -37.977  13.954  -4.451  1.00 20.00    -0.172 NA
HETATM    3  N10 UNL     1     -35.479  14.151  -4.457  1.00 20.00    -0.324 N 
HETATM    4  H22 UNL     1     -34.963  14.133  -5.346  1.00 20.00     0.172 HD
ENDROOT
BRANCH   3   5
HETATM    5  C8  UNL     1     -34.707  14.809  -3.379  1.00 20.00     0.096 C 
HETATM    6  C5  UNL     1     -33.358  15.327  -3.908  1.00 20.00     0.031 C 
HETATM    7  C6  UNL     1     -33.438  16.841  -3.630  1.00 20.00    -0.012 C 
HETATM    8  C2  UNL     1     -33.367  17.076  -2.110  1.00 20.00     0.005 C 
HETATM    9  C4  UNL     1     -34.907  17.137  -3.922  1.00 20.00     0.011 C 
HETATM   10  C3  UNL     1     -34.738  16.583  -1.620  1.00 20.00     0.007 C 
HETATM   11  C7  UNL     1     -35.414  16.101  -2.916  1.00 20.00     0.009 C 
ENDBRANCH   3   5
TORSDOF 1
ENDMDL
MODEL 4
REMARK VINA RESULT:      -4.6     16.315     17.558
REMARK  1 active torsions:
REMARK  status: ('A' for Active; 'I' for Inactive)
REMARK    1  A    between atoms: C8_8  and  N10_10 
ROOT
HETATM    1  C1  UNL     1     -37.657  14.937  -4.089  1.00 20.00     0.177 C 
HETATM    2  N9  UNL     1     -38.086  13.906  -4.403  1.00 20.00    -0.172 NA
HETATM    3  N10 UNL     1     -37.164  16.134  -3.724  1.00 20.00    -0.324 N 
HETATM    4  H22 UNL     1     -37.657  16.705  -3.026  1.00 20.00     0.172 HD
ENDROOT
BRANCH   3   5
HETATM    5  C8  UNL     1     -35.731  16.492  -3.824  1.00 20.00     0.096 C 
HETATM    6  C5  UNL     1     -35.470  17.885  -3.223  1.00 20.00     0.031 C 
HETATM    7  C6  UNL     1     -34.457  17.591  -2.098  1.00 20.00    -0.012 C 
HETATM    8  C2  UNL     1     -33.112  17.190  -2.728  1.00 20.00     0.005 C 
HETATM    9  C4  UNL     1     -34.962  16.253  -1.564  1.00 20.00     0.011 C 
HETATM   10  C3  UNL     1     -33.396  15.786  -3.285  1.00 20.00     0.007 C 
HETATM   11  C7  UNL     1     -34.877  15.567  -2.930  1.00 20.00     0.009 C 
ENDBRANCH   3   5
TORSDOF 1
ENDMDL
MODEL 5
REMARK VINA RESULT:      -4.5     16.642     18.257
REMARK  1 active torsions:
REMARK  status: ('A' for Active; 'I' for Inactive)
REMARK    1  A    between atoms: C8_8  and  N10_10 
ROOT
HETATM    1  C1  UNL     1     -37.842  14.826  -4.000  1.00 20.00     0.177 C 
HETATM    2  N9  UNL     1     -38.615  14.103  -4.475  1.00 20.00    -0.172 NA
HETATM    3  N10 UNL     1     -36.949  15.667  -3.449  1.00 20.00    -0.324 N 
HETATM    4  H22 UNL     1     -37.265  16.415  -2.818  1.00 20.00     0.172 HD
ENDROOT
BRANCH   3   5
HETATM    5  C8  UNL     1     -35.526  15.321  -3.234  1.00 20.00     0.096 C 
HETATM    6  C5  UNL     1     -35.094  14.170  -4.160  1.00 20.00     0.031 C 
HETATM    7  C6  UNL     1     -33.950  14.798  -4.980  1.00 20.00    -0.012 C 
HETATM    8  C2  UNL     1     -32.737  15.021  -4.059  1.00 20.00     0.005 C 
HETATM    9  C4  UNL     1     -34.455  16.226  -5.181  1.00 20.00     0.011 C 
HETATM   10  C3  UNL     1     -33.186  16.195  -3.174  1.00 20.00     0.007 C 
HETATM   11  C7  UNL     1     -34.611  16.482  -3.679  1.00 20.00     0.009 C 
ENDBRANCH   3   5
TORSDOF 1
ENDMDL
MODEL 6
REMARK VINA RESULT:      -4.4     16.602     18.270
REMARK  1 active torsions:
REMARK  status: ('A' for Active; 'I' for Inactive)
REMARK    1  A    between atoms: C8_8  and  N10_10 
ROOT
HETATM    1  C1  UNL     1     -35.181  15.199  -7.228  1.00 20.00     0.177 C 
HETATM    2  N9  UNL     1     -36.059  14.797  -7.870  1.00 20.00    -0.172 NA
HETATM    3  N10 UNL     1     -34.159  15.665  -6.487  1.00 20.00    -0.324 N 
HETATM    4  H22 UNL     1     -33.306  16.011  -6.945  1.00 20.00     0.172 HD
ENDROOT
BRANCH   3   5
HETATM    5  C8  UNL     1     -34.323  16.217  -5.125  1.00 20.00     0.096 C 
HETATM    6  C5  UNL     1     -35.767  16.026  -4.625  1.00 20.00     0.031 C 
HETATM    7  C6  UNL     1     -35.581  15.176  -3.352  1.00 20.00    -0.012 C 
HETATM    8  C2  UNL     1     -34.913  16.039  -2.267  1.00 20.00     0.005 C 
HETATM    9  C4  UNL     1     -34.438  14.248  -3.759  1.00 20.00     0.011 C 
HETATM   10  C3  UNL     1     -33.470  16.181  -2.776  1.00 20.00     0.007 C 
HETATM   11  C7  UNL     1     -33.496  15.405  -4.105  1.00 20.00     0.009 C 
ENDBRANCH   3   5
TORSDOF 1
ENDMDL
MODEL 7
REMARK VINA RESULT:      -4.4     23.603     24.616
REMARK  1 active torsions:
REMARK  status: ('A' for Active; 'I' for Inactive)
REMARK    1  A    between atoms: C8_8  and  N10_10 
ROOT
HETATM    1  C1  UNL     1     -42.615   3.625  -2.581  1.00 20.00     0.177 C 
HETATM    2  N9  UNL     1     -42.095   2.775  -3.176  1.00 20.00    -0.172 NA
HETATM    3  N10 UNL     1     -43.221   4.610  -1.894  1.00 20.00    -0.324 N 
HETATM    4  H22 UNL     1     -44.247   4.676  -1.884  1.00 20.00     0.172 HD
ENDROOT
BRANCH   3   5
HETATM    5  C8  UNL     1     -42.607   5.293  -0.734  1.00 20.00     0.096 C 
HETATM    6  C5  UNL     1     -41.162   5.720  -1.048  1.00 20.00     0.031 C 
HETATM    7  C6  UNL     1     -41.205   7.249  -0.863  1.00 20.00    -0.012 C 
HETATM    8  C2  UNL     1     -41.379   7.568   0.632  1.00 20.00     0.005 C 
HETATM    9  C4  UNL     1     -42.586   7.593  -1.418  1.00 20.00     0.011 C 
HETATM   10  C3  UNL     1     -42.837   7.166   0.904  1.00 20.00     0.007 C 
HETATM   11  C7  UNL     1     -43.311   6.640  -0.463  1.00 20.00     0.009 C 
ENDBRANCH   3   5
TORSDOF 1
ENDMDL
MODEL 8
REMARK VINA RESULT:      -4.3     13.912     16.304
REMARK  1 active torsions:
REMARK  status: ('A' for Active; 'I' for Inactive)
REMARK    1  A    between atoms: C8_8  and  N10_10 
ROOT
HETATM    1  C1  UNL     1     -32.143  18.318  -1.390  1.00 20.00     0.177 C 
HETATM    2  N9  UNL     1     -31.143  18.701  -0.943  1.00 20.00    -0.172 NA
HETATM    3  N10 UNL     1     -33.304  17.878  -1.907  1.00 20.00    -0.324 N 
HETATM    4  H22 UNL     1     -33.928  18.529  -2.401  1.00 20.00     0.172 HD
ENDROOT
BRANCH   3   5
HETATM    5  C8  UNL     1     -33.542  16.471  -2.300  1.00 20.00     0.096 C 
HETATM    6  C5  UNL     1     -35.003  16.065  -2.031  1.00 20.00     0.031 C 
HETATM    7  C6  UNL     1     -35.512  15.665  -3.429  1.00 20.00    -0.012 C 
HETATM    8  C2  UNL     1     -34.826  14.356  -3.857  1.00 20.00     0.005 C 
HETATM    9  C4  UNL     1     -34.814  16.689  -4.322  1.00 20.00     0.011 C 
HETATM   10  C3  UNL     1     -33.385  14.801  -4.152  1.00 20.00     0.007 C 
HETATM   11  C7  UNL     1     -33.416  16.306  -3.830  1.00 20.00     0.009 C 
ENDBRANCH   3   5
TORSDOF 1
ENDMDL
MODEL 9
REMARK VINA RESULT:      -4.3     16.194     17.552
REMARK  1 active torsions:
REMARK  status: ('A' for Active; 'I' for Inactive)
REMARK    1  A    between atoms: C8_8  and  N10_10 
ROOT
HETATM    1  C1  UNL     1     -36.253  13.980  -4.467  1.00 20.00     0.177 C 
HETATM    2  N9  UNL     1     -36.258  13.289  -5.399  1.00 20.00    -0.172 NA
HETATM    3  N10 UNL     1     -36.248  14.778  -3.384  1.00 20.00    -0.324 N 
HETATM    4  H22 UNL     1     -36.339  14.372  -2.444  1.00 20.00     0.172 HD
ENDROOT
BRANCH   3   5
HETATM    5  C8  UNL     1     -35.609  16.112  -3.355  1.00 20.00     0.096 C 
HETATM    6  C5  UNL     1     -34.871  16.340  -2.024  1.00 20.00     0.031 C 
HETATM    7  C6  UNL     1     -33.415  16.577  -2.473  1.00 20.00    -0.012 C 
HETATM    8  C2  UNL     1     -33.328  17.935  -3.193  1.00 20.00     0.005 C 
HETATM    9  C4  UNL     1     -33.283  15.598  -3.638  1.00 20.00     0.011 C 
HETATM   10  C3  UNL     1     -34.040  17.664  -4.528  1.00 20.00     0.007 C 
HETATM   11  C7  UNL     1     -34.472  16.193  -4.397  1.00 20.00     0.009 C 
ENDBRANCH   3   5
TORSDOF 1
ENDMDL
