MODEL 1
REMARK VINA RESULT:      -4.0      0.000      0.000
REMARK  3 active torsions:
REMARK  status: ('A' for Active; 'I' for Inactive)
REMARK    1  A    between atoms: C4_4  and  C6_6 
REMARK    2  A    between atoms: C5_5  and  C6_6 
REMARK    3  A    between atoms: C5_5  and  O8_8 
ROOT
HETATM    1  C1  UNL     1     -36.063  14.109  -4.215  1.00 20.00     0.066 C 
HETATM    2  C6  UNL     1     -34.749  14.620  -3.775  1.00 20.00     0.116 C 
HETATM    3  N7  UNL     1     -37.095  13.705  -4.561  1.00 20.00    -0.197 NA
ENDROOT
BRANCH   2   4
HETATM    4  C4  UNL     1     -34.908  15.597  -2.598  1.00 20.00     0.017 C 
HETATM    5  C2  UNL     1     -33.717  16.535  -2.433  1.00 20.00     0.006 C 
ENDBRANCH   2   4
BRANCH   2   6
HETATM    6  C5  UNL     1     -34.044  15.316  -4.947  1.00 20.00     0.186 C 
BRANCH   6   7
HETATM    7  O8  UNL     1     -34.087  14.476  -6.096  1.00 20.00    -0.395 OA
HETATM    8  C3  UNL     1     -34.030  15.236  -7.295  1.00 20.00     0.201 C 
ENDBRANCH   6   7
ENDBRANCH   2   6
TORSDOF 3
ENDMDL
MODEL 2
REMARK VINA RESULT:      -3.8     11.165     11.784
REMARK  3 active torsions:
REMARK  status: ('A' for Active; 'I' for Inactive)
REMARK    1  A    between atoms: C4_4  and  C6_6 
REMARK    2  A    between atoms: C5_5  and  C6_6 
REMARK    3  A    between atoms: C5_5  and  O8_8 
ROOT
HETATM    1  C1  UNL     1     -33.737   6.720   4.751  1.00 20.00     0.066 C 
HETATM    2  C6  UNL     1     -33.559   6.581   3.291  1.00 20.00     0.116 C 
HETATM    3  N7  UNL     1     -33.878   6.831   5.898  1.00 20.00    -0.197 NA
ENDROOT
BRANCH   2   4
HETATM    4  C4  UNL     1     -33.525   5.098   2.883  1.00 20.00     0.017 C 
HETATM    5  C2  UNL     1     -34.284   4.195   3.850  1.00 20.00     0.006 C 
ENDBRANCH   2   4
BRANCH   2   6
HETATM    6  C5  UNL     1     -32.263   7.277   2.857  1.00 20.00     0.186 C 
BRANCH   6   7
HETATM    7  O8  UNL     1     -32.235   7.393   1.438  1.00 20.00    -0.395 OA
HETATM    8  C3  UNL     1     -32.825   8.611   1.006  1.00 20.00     0.201 C 
ENDBRANCH   6   7
ENDBRANCH   2   6
TORSDOF 3
ENDMDL
MODEL 3
REMARK VINA RESULT:      -3.7     10.809     12.225
REMARK  3 active torsions:
REMARK  status: ('A' for Active; 'I' for Inactive)
REMARK    1  A    between atoms: C4_4  and  C6_6 
REMARK    2  A    between atoms: C5_5  and  C6_6 
REMARK    3  A    between atoms: C5_5  and  O8_8 
ROOT
HETATM    1  C1  UNL     1     -41.549   9.022   0.329  1.00 20.00     0.066 C 
HETATM    2  C6  UNL     1     -41.704   7.554   0.270  1.00 20.00     0.116 C 
HETATM    3  N7  UNL     1     -41.425  10.176   0.379  1.00 20.00    -0.197 NA
ENDROOT
BRANCH   2   4
HETATM    4  C4  UNL     1     -41.140   6.997  -1.048  1.00 20.00     0.017 C 
HETATM    5  C2  UNL     1     -40.971   5.482  -1.033  1.00 20.00     0.006 C 
ENDBRANCH   2   4
BRANCH   2   6
HETATM    6  C5  UNL     1     -43.186   7.183   0.408  1.00 20.00     0.186 C 
BRANCH   6   7
HETATM    7  O8  UNL     1     -43.417   6.609   1.690  1.00 20.00    -0.395 OA
HETATM    8  C3  UNL     1     -43.417   5.190   1.631  1.00 20.00     0.201 C 
ENDBRANCH   6   7
ENDBRANCH   2   6
TORSDOF 3
ENDMDL
MODEL 4
REMARK VINA RESULT:      -3.7      2.146      2.960
REMARK  3 active torsions:
REMARK  status: ('A' for Active; 'I' for Inactive)
REMARK    1  A    between atoms: C4_4  and  C6_6 
REMARK    2  A    between atoms: C5_5  and  C6_6 
REMARK    3  A    between atoms: C5_5  and  O8_8 
ROOT
HETATM    1  C1  UNL     1     -34.500  14.869  -5.733  1.00 20.00     0.066 C 
HETATM    2  C6  UNL     1     -35.256  14.893  -4.465  1.00 20.00     0.116 C 
HETATM    3  N7  UNL     1     -33.907  14.851  -6.732  1.00 20.00    -0.197 NA
ENDROOT
BRANCH   2   4
HETATM    4  C4  UNL     1     -34.331  15.228  -3.283  1.00 20.00     0.017 C 
HETATM    5  C2  UNL     1     -35.032  16.010  -2.177  1.00 20.00     0.006 C 
ENDBRANCH   2   4
BRANCH   2   6
HETATM    6  C5  UNL     1     -35.932  13.535  -4.238  1.00 20.00     0.186 C 
BRANCH   6   7
HETATM    7  O8  UNL     1     -37.301  13.613  -4.621  1.00 20.00    -0.395 OA
HETATM    8  C3  UNL     1     -37.875  14.856  -4.243  1.00 20.00     0.201 C 
ENDBRANCH   6   7
ENDBRANCH   2   6
TORSDOF 3
ENDMDL
MODEL 5
REMARK VINA RESULT:      -3.6     11.497     12.375
REMARK  3 active torsions:
REMARK  status: ('A' for Active; 'I' for Inactive)
REMARK    1  A    between atoms: C4_4  and  C6_6 
REMARK    2  A    between atoms: C5_5  and  C6_6 
REMARK    3  A    between atoms: C5_5  and  O8_8 
ROOT
HETATM    1  C1  UNL     1     -32.631   7.357   1.948  1.00 20.00     0.066 C 
HETATM    2  C6  UNL     1     -32.833   6.379   3.037  1.00 20.00     0.116 C 
HETATM    3  N7  UNL     1     -32.469   8.127   1.094  1.00 20.00    -0.197 NA
ENDROOT
BRANCH   2   4
HETATM    4  C4  UNL     1     -33.229   5.005   2.470  1.00 20.00     0.017 C 
HETATM    5  C2  UNL     1     -34.060   4.175   3.442  1.00 20.00     0.006 C 
ENDBRANCH   2   4
BRANCH   2   6
HETATM    6  C5  UNL     1     -33.917   6.887   3.996  1.00 20.00     0.186 C 
BRANCH   6   7
HETATM    7  O8  UNL     1     -33.374   7.012   5.306  1.00 20.00    -0.395 OA
HETATM    8  C3  UNL     1     -34.228   6.429   6.280  1.00 20.00     0.201 C 
ENDBRANCH   6   7
ENDBRANCH   2   6
TORSDOF 3
ENDMDL
MODEL 6
REMARK VINA RESULT:      -3.5     11.590     12.354
REMARK  3 active torsions:
REMARK  status: ('A' for Active; 'I' for Inactive)
REMARK    1  A    between atoms: C4_4  and  C6_6 
REMARK    2  A    between atoms: C5_5  and  C6_6 
REMARK    3  A    between atoms: C5_5  and  O8_8 
ROOT
HETATM    1  C1  UNL     1     -33.260   5.123   2.566  1.00 20.00     0.066 C 
HETATM    2  C6  UNL     1     -33.519   6.538   2.906  1.00 20.00     0.116 C 
HETATM    3  N7  UNL     1     -33.060   4.011   2.297  1.00 20.00    -0.197 NA
ENDROOT
BRANCH   2   4
HETATM    4  C4  UNL     1     -32.326   7.422   2.509  1.00 20.00     0.017 C 
HETATM    5  C2  UNL     1     -32.545   8.168   1.197  1.00 20.00     0.006 C 
ENDBRANCH   2   4
BRANCH   2   6
HETATM    6  C5  UNL     1     -33.795   6.667   4.410  1.00 20.00     0.186 C 
BRANCH   6   7
HETATM    7  O8  UNL     1     -34.905   5.850   4.764  1.00 20.00    -0.395 OA
HETATM    8  C3  UNL     1     -34.716   5.240   6.033  1.00 20.00     0.201 C 
ENDBRANCH   6   7
ENDBRANCH   2   6
TORSDOF 3
ENDMDL
MODEL 7
REMARK VINA RESULT:      -3.5     10.422     11.740
REMARK  3 active torsions:
REMARK  status: ('A' for Active; 'I' for Inactive)
REMARK    1  A    between atoms: C4_4  and  C6_6 
REMARK    2  A    between atoms: C5_5  and  C6_6 
REMARK    3  A    between atoms: C5_5  and  O8_8 
ROOT
HETATM    1  C1  UNL     1     -41.766   9.073   0.202  1.00 20.00     0.066 C 
HETATM    2  C6  UNL     1     -42.290   7.712  -0.036  1.00 20.00     0.116 C 
HETATM    3  N7  UNL     1     -41.354  10.143   0.386  1.00 20.00    -0.197 NA
ENDROOT
BRANCH   2   4
HETATM    4  C4  UNL     1     -43.414   7.378   0.960  1.00 20.00     0.017 C 
HETATM    5  C2  UNL     1     -43.314   5.964   1.521  1.00 20.00     0.006 C 
ENDBRANCH   2   4
BRANCH   2   6
HETATM    6  C5  UNL     1     -41.154   6.690   0.089  1.00 20.00     0.186 C 
BRANCH   6   7
HETATM    7  O8  UNL     1     -40.776   6.236  -1.207  1.00 20.00    -0.395 OA
HETATM    8  C3  UNL     1     -41.126   4.873  -1.402  1.00 20.00     0.201 C 
ENDBRANCH   6   7
ENDBRANCH   2   6
TORSDOF 3
ENDMDL
MODEL 8
REMARK VINA RESULT:      -3.4      2.173      3.251
REMARK  3 active torsions:
REMARK  status: ('A' for Active; 'I' for Inactive)
REMARK    1  A    between atoms: C4_4  and  C6_6 
REMARK    2  A    between atoms: C5_5  and  C6_6 
REMARK    3  A    between atoms: C5_5  and  O8_8 
ROOT
HETATM    1  C1  UNL     1     -36.947  14.484  -4.267  1.00 20.00     0.066 C 
HETATM    2  C6  UNL     1     -35.683  15.237  -4.133  1.00 20.00     0.116 C 
HETATM    3  N7  UNL     1     -37.941  13.893  -4.375  1.00 20.00    -0.197 NA
ENDROOT
BRANCH   2   4
HETATM    4  C4  UNL     1     -34.527  14.300  -3.744  1.00 20.00     0.017 C 
HETATM    5  C2  UNL     1     -33.228  14.616  -4.479  1.00 20.00     0.006 C 
ENDBRANCH   2   4
BRANCH   2   6
HETATM    6  C5  UNL     1     -35.845  16.340  -3.079  1.00 20.00     0.186 C 
BRANCH   6   7
HETATM    7  O8  UNL     1     -35.166  15.963  -1.886  1.00 20.00    -0.395 OA
HETATM    8  C3  UNL     1     -34.689  17.100  -1.179  1.00 20.00     0.201 C 
ENDBRANCH   6   7
ENDBRANCH   2   6
TORSDOF 3
ENDMDL
MODEL 9
REMARK VINA RESULT:      -3.4      1.567      2.999
REMARK  3 active torsions:
REMARK  status: ('A' for Active; 'I' for Inactive)
REMARK    1  A    between atoms: C4_4  and  C6_6 
REMARK    2  A    between atoms: C5_5  and  C6_6 
REMARK    3  A    between atoms: C5_5  and  O8_8 
ROOT
HETATM    1  C1  UNL     1     -37.067  14.377  -4.575  1.00 20.00     0.066 C 
HETATM    2  C6  UNL     1     -35.748  14.941  -4.928  1.00 20.00     0.116 C 
HETATM    3  N7  UNL     1     -38.105  13.936  -4.297  1.00 20.00    -0.197 NA
ENDROOT
BRANCH   2   4
HETATM    4  C4  UNL     1     -35.424  14.688  -6.410  1.00 20.00     0.017 C 
HETATM    5  C2  UNL     1     -34.001  15.084  -6.788  1.00 20.00     0.006 C 
ENDBRANCH   2   4
BRANCH   2   6
HETATM    6  C5  UNL     1     -34.664  14.321  -4.038  1.00 20.00     0.186 C 
BRANCH   6   7
HETATM    7  O8  UNL     1     -34.394  15.188  -2.941  1.00 20.00    -0.395 OA
HETATM    8  C3  UNL     1     -33.345  16.097  -3.243  1.00 20.00     0.201 C 
ENDBRANCH   6   7
ENDBRANCH   2   6
TORSDOF 3
ENDMDL
