MODEL 1
REMARK VINA RESULT:      -4.6      0.000      0.000
REMARK  0 active torsions:
REMARK  status: ('A' for Active; 'I' for Inactive)
ROOT
HETATM    1  C1  UNL     1     -22.034  17.503   8.314  1.00 20.00     0.064 C 
HETATM    2  C2  UNL     1     -21.906  18.117  10.712  1.00 20.00     0.020 C 
HETATM    3  C3  UNL     1     -23.864  18.864   9.285  1.00 20.00     0.020 C 
HETATM    4  C4  UNL     1     -22.775  17.013  11.321  1.00 20.00     0.010 C 
HETATM    5  C5  UNL     1     -24.729  17.759   9.899  1.00 20.00     0.010 C 
HETATM    6  C6  UNL     1     -22.366  18.538   9.311  1.00 20.00     0.093 C 
HETATM    7  C7  UNL     1     -24.284  17.344  11.319  1.00 20.00    -0.048 C 
HETATM    8  C8  UNL     1     -24.596  18.463  12.332  1.00 20.00     0.015 C 
HETATM    9  C9  UNL     1     -25.072  16.090  11.743  1.00 20.00     0.015 C 
HETATM   10  N10 UNL     1     -21.774  16.689   7.529  1.00 20.00    -0.197 NA
ENDROOT
TORSDOF 0
ENDMDL
MODEL 2
REMARK VINA RESULT:      -4.4     17.670     18.792
REMARK  0 active torsions:
REMARK  status: ('A' for Active; 'I' for Inactive)
ROOT
HETATM    1  C1  UNL     1     -36.764  14.238  -4.612  1.00 20.00     0.064 C 
HETATM    2  C2  UNL     1     -34.480  14.510  -3.691  1.00 20.00     0.020 C 
HETATM    3  C3  UNL     1     -35.357  16.088  -5.472  1.00 20.00     0.020 C 
HETATM    4  C4  UNL     1     -34.743  15.575  -2.622  1.00 20.00     0.010 C 
HETATM    5  C5  UNL     1     -35.618  17.149  -4.399  1.00 20.00     0.010 C 
HETATM    6  C6  UNL     1     -35.384  14.657  -4.920  1.00 20.00     0.093 C 
HETATM    7  C7  UNL     1     -34.696  17.020  -3.166  1.00 20.00    -0.048 C 
HETATM    8  C8  UNL     1     -33.251  17.416  -3.528  1.00 20.00     0.015 C 
HETATM    9  C9  UNL     1     -35.189  17.984  -2.070  1.00 20.00     0.015 C 
HETATM   10  N10 UNL     1     -37.850  13.908  -4.370  1.00 20.00    -0.197 NA
ENDROOT
TORSDOF 0
ENDMDL
MODEL 3
REMARK VINA RESULT:      -4.3     17.568     18.580
REMARK  0 active torsions:
REMARK  status: ('A' for Active; 'I' for Inactive)
ROOT
HETATM    1  C1  UNL     1     -35.319  14.875  -6.334  1.00 20.00     0.064 C 
HETATM    2  C2  UNL     1     -33.386  14.725  -4.791  1.00 20.00     0.020 C 
HETATM    3  C3  UNL     1     -34.330  16.977  -5.471  1.00 20.00     0.020 C 
HETATM    4  C4  UNL     1     -34.105  14.834  -3.443  1.00 20.00     0.010 C 
HETATM    5  C5  UNL     1     -35.047  17.081  -4.122  1.00 20.00     0.010 C 
HETATM    6  C6  UNL     1     -34.069  15.529  -5.903  1.00 20.00     0.093 C 
HETATM    7  C7  UNL     1     -34.351  16.291  -2.991  1.00 20.00    -0.048 C 
HETATM    8  C8  UNL     1     -33.025  16.967  -2.595  1.00 20.00     0.015 C 
HETATM    9  C9  UNL     1     -35.266  16.282  -1.752  1.00 20.00     0.015 C 
HETATM   10  N10 UNL     1     -36.302  14.360  -6.673  1.00 20.00    -0.197 NA
ENDROOT
TORSDOF 0
ENDMDL
MODEL 4
REMARK VINA RESULT:      -4.3     17.320     18.462
REMARK  0 active torsions:
REMARK  status: ('A' for Active; 'I' for Inactive)
ROOT
HETATM    1  C1  UNL     1     -33.090  17.323  -3.229  1.00 20.00     0.064 C 
HETATM    2  C2  UNL     1     -33.242  15.029  -4.155  1.00 20.00     0.020 C 
HETATM    3  C3  UNL     1     -34.928  15.853  -2.450  1.00 20.00     0.020 C 
HETATM    4  C4  UNL     1     -34.266  15.254  -5.272  1.00 20.00     0.010 C 
HETATM    5  C5  UNL     1     -35.948  16.076  -3.571  1.00 20.00     0.010 C 
HETATM    6  C6  UNL     1     -33.476  15.929  -2.936  1.00 20.00     0.093 C 
HETATM    7  C7  UNL     1     -35.732  15.157  -4.793  1.00 20.00    -0.048 C 
HETATM    8  C8  UNL     1     -36.093  13.700  -4.445  1.00 20.00     0.015 C 
HETATM    9  C9  UNL     1     -36.661  15.614  -5.933  1.00 20.00     0.015 C 
HETATM   10  N10 UNL     1     -32.788  18.419  -3.460  1.00 20.00    -0.197 NA
ENDROOT
TORSDOF 0
ENDMDL
MODEL 5
REMARK VINA RESULT:      -4.3     17.829     19.031
REMARK  0 active torsions:
REMARK  status: ('A' for Active; 'I' for Inactive)
ROOT
HETATM    1  C1  UNL     1     -37.520  15.015  -4.199  1.00 20.00     0.064 C 
HETATM    2  C2  UNL     1     -35.984  16.721  -5.134  1.00 20.00     0.020 C 
HETATM    3  C3  UNL     1     -35.989  16.202  -2.653  1.00 20.00     0.020 C 
HETATM    4  C4  UNL     1     -34.715  15.880  -5.304  1.00 20.00     0.010 C 
HETATM    5  C5  UNL     1     -34.720  15.363  -2.828  1.00 20.00     0.010 C 
HETATM    6  C6  UNL     1     -36.832  16.292  -3.931  1.00 20.00     0.093 C 
HETATM    7  C7  UNL     1     -33.850  15.804  -4.026  1.00 20.00    -0.048 C 
HETATM    8  C8  UNL     1     -33.184  17.164  -3.740  1.00 20.00     0.015 C 
HETATM    9  C9  UNL     1     -32.732  14.766  -4.241  1.00 20.00     0.015 C 
HETATM   10  N10 UNL     1     -38.061  14.010  -4.410  1.00 20.00    -0.197 NA
ENDROOT
TORSDOF 0
ENDMDL
MODEL 6
REMARK VINA RESULT:      -4.2     17.613     18.788
REMARK  0 active torsions:
REMARK  status: ('A' for Active; 'I' for Inactive)
ROOT
HETATM    1  C1  UNL     1     -36.085  14.058  -4.214  1.00 20.00     0.064 C 
HETATM    2  C2  UNL     1     -34.879  15.519  -2.617  1.00 20.00     0.020 C 
HETATM    3  C3  UNL     1     -33.960  15.104  -4.943  1.00 20.00     0.020 C 
HETATM    4  C4  UNL     1     -35.389  16.892  -3.066  1.00 20.00     0.010 C 
HETATM    5  C5  UNL     1     -34.472  16.478  -5.387  1.00 20.00     0.010 C 
HETATM    6  C6  UNL     1     -34.755  14.517  -3.771  1.00 20.00     0.093 C 
HETATM    7  C7  UNL     1     -34.578  17.499  -4.233  1.00 20.00    -0.048 C 
HETATM    8  C8  UNL     1     -33.176  17.924  -3.756  1.00 20.00     0.015 C 
HETATM    9  C9  UNL     1     -35.305  18.758  -4.744  1.00 20.00     0.015 C 
HETATM   10  N10 UNL     1     -37.131  13.696  -4.563  1.00 20.00    -0.197 NA
ENDROOT
TORSDOF 0
ENDMDL
MODEL 7
REMARK VINA RESULT:      -4.2     23.117     24.345
REMARK  0 active torsions:
REMARK  status: ('A' for Active; 'I' for Inactive)
ROOT
HETATM    1  C1  UNL     1     -42.119   9.351   0.264  1.00 20.00     0.064 C 
HETATM    2  C2  UNL     1     -43.121   7.232   1.068  1.00 20.00     0.020 C 
HETATM    3  C3  UNL     1     -43.383   7.955  -1.348  1.00 20.00     0.020 C 
HETATM    4  C4  UNL     1     -42.031   6.241   0.650  1.00 20.00     0.010 C 
HETATM    5  C5  UNL     1     -42.293   6.961  -1.760  1.00 20.00     0.010 C 
HETATM    6  C6  UNL     1     -43.253   8.420   0.108  1.00 20.00     0.093 C 
HETATM    7  C7  UNL     1     -42.170   5.751  -0.809  1.00 20.00    -0.048 C 
HETATM    8  C8  UNL     1     -43.389   4.821  -0.955  1.00 20.00     0.015 C 
HETATM    9  C9  UNL     1     -40.913   4.944  -1.186  1.00 20.00     0.015 C 
HETATM   10  N10 UNL     1     -41.228  10.084   0.386  1.00 20.00    -0.197 NA
ENDROOT
TORSDOF 0
ENDMDL
MODEL 8
REMARK VINA RESULT:      -4.2     17.076     18.173
REMARK  0 active torsions:
REMARK  status: ('A' for Active; 'I' for Inactive)
ROOT
HETATM    1  C1  UNL     1     -33.799  14.755  -5.644  1.00 20.00     0.064 C 
HETATM    2  C2  UNL     1     -35.082  14.323  -3.568  1.00 20.00     0.020 C 
HETATM    3  C3  UNL     1     -33.014  15.789  -3.533  1.00 20.00     0.020 C 
HETATM    4  C4  UNL     1     -35.965  15.573  -3.530  1.00 20.00     0.010 C 
HETATM    5  C5  UNL     1     -33.902  17.036  -3.494  1.00 20.00     0.010 C 
HETATM    6  C6  UNL     1     -33.701  14.582  -4.183  1.00 20.00     0.093 C 
HETATM    7  C7  UNL     1     -35.287  16.787  -2.856  1.00 20.00    -0.048 C 
HETATM    8  C8  UNL     1     -35.151  16.559  -1.338  1.00 20.00     0.015 C 
HETATM    9  C9  UNL     1     -36.167  18.033  -3.070  1.00 20.00     0.015 C 
HETATM   10  N10 UNL     1     -33.876  14.891  -6.794  1.00 20.00    -0.197 NA
ENDROOT
TORSDOF 0
ENDMDL
MODEL 9
REMARK VINA RESULT:      -4.2      1.653      2.008
REMARK  0 active torsions:
REMARK  status: ('A' for Active; 'I' for Inactive)
ROOT
HETATM    1  C1  UNL     1     -24.576  18.843   7.726  1.00 20.00     0.064 C 
HETATM    2  C2  UNL     1     -22.595  18.365   9.137  1.00 20.00     0.020 C 
HETATM    3  C3  UNL     1     -24.732  19.263  10.164  1.00 20.00     0.020 C 
HETATM    4  C4  UNL     1     -22.949  16.961   9.635  1.00 20.00     0.010 C 
HETATM    5  C5  UNL     1     -25.081  17.857  10.661  1.00 20.00     0.010 C 
HETATM    6  C6  UNL     1     -23.826  19.255   8.927  1.00 20.00     0.093 C 
HETATM    7  C7  UNL     1     -23.844  16.961  10.895  1.00 20.00    -0.048 C 
HETATM    8  C8  UNL     1     -23.051  17.444  12.124  1.00 20.00     0.015 C 
HETATM    9  C9  UNL     1     -24.316  15.521  11.173  1.00 20.00     0.015 C 
HETATM   10  N10 UNL     1     -25.167  18.518   6.782  1.00 20.00    -0.197 NA
ENDROOT
TORSDOF 0
ENDMDL
