MODEL 1
REMARK VINA RESULT:      -4.3      0.000      0.000
REMARK  5 active torsions:
REMARK  status: ('A' for Active; 'I' for Inactive)
REMARK    1  A    between atoms: C4_4  and  C5_5 
REMARK    2  A    between atoms: C5_5  and  C7_7 
REMARK    3  A    between atoms: C6_6  and  C7_7 
REMARK    4  A    between atoms: C6_6  and  O10_10 
REMARK    5  A    between atoms: C7_7  and  N8_8 
ROOT
HETATM    1  C1  UNL     1     -36.365  13.581  -4.445  1.00 20.00     0.332 C 
HETATM    2  N8  UNL     1     -35.223  13.334  -4.359  1.00 20.00    -0.240 NA
HETATM    3  O9  UNL     1     -37.514  13.820  -4.531  1.00 20.00    -0.260 OA
ENDROOT
BRANCH   2   4
HETATM    4  C7  UNL     1     -34.364  14.518  -4.220  1.00 20.00     0.136 C 
BRANCH   4   5
HETATM    5  C5  UNL     1     -34.816  15.324  -2.995  1.00 20.00     0.029 C 
BRANCH   5   6
HETATM    6  C4  UNL     1     -33.745  16.313  -2.524  1.00 20.00    -0.002 C 
HETATM    7  C2  UNL     1     -34.270  17.216  -1.419  1.00 20.00     0.005 C 
ENDBRANCH   5   6
ENDBRANCH   4   5
BRANCH   4   8
HETATM    8  C6  UNL     1     -34.449  15.324  -5.516  1.00 20.00     0.194 C 
BRANCH   8   9
HETATM    9  O10 UNL     1     -33.754  14.665  -6.566  1.00 20.00    -0.394 OA
HETATM   10  C3  UNL     1     -33.965  15.311  -7.815  1.00 20.00     0.201 C 
ENDBRANCH   8   9
ENDBRANCH   4   8
ENDBRANCH   2   4
TORSDOF 5
ENDMDL
MODEL 2
REMARK VINA RESULT:      -4.1      1.354      3.226
REMARK  5 active torsions:
REMARK  status: ('A' for Active; 'I' for Inactive)
REMARK    1  A    between atoms: C4_4  and  C5_5 
REMARK    2  A    between atoms: C5_5  and  C7_7 
REMARK    3  A    between atoms: C6_6  and  C7_7 
REMARK    4  A    between atoms: C6_6  and  O10_10 
REMARK    5  A    between atoms: C7_7  and  N8_8 
ROOT
HETATM    1  C1  UNL     1     -34.463  15.237  -5.996  1.00 20.00     0.332 C 
HETATM    2  N8  UNL     1     -35.320  15.821  -5.452  1.00 20.00    -0.240 NA
HETATM    3  O9  UNL     1     -33.601  14.657  -6.549  1.00 20.00    -0.260 OA
ENDROOT
BRANCH   2   4
HETATM    4  C7  UNL     1     -35.859  15.131  -4.271  1.00 20.00     0.136 C 
BRANCH   4   5
HETATM    5  C5  UNL     1     -34.737  14.950  -3.241  1.00 20.00     0.029 C 
BRANCH   5   6
HETATM    6  C4  UNL     1     -34.603  16.160  -2.311  1.00 20.00    -0.002 C 
HETATM    7  C2  UNL     1     -33.259  16.849  -2.484  1.00 20.00     0.005 C 
ENDBRANCH   5   6
ENDBRANCH   4   5
BRANCH   4   8
HETATM    8  C6  UNL     1     -36.455  13.800  -4.729  1.00 20.00     0.194 C 
BRANCH   8   9
HETATM    9  O10 UNL     1     -37.832  13.720  -4.386  1.00 20.00    -0.394 OA
HETATM   10  C3  UNL     1     -38.406  15.011  -4.230  1.00 20.00     0.201 C 
ENDBRANCH   8   9
ENDBRANCH   4   8
ENDBRANCH   2   4
TORSDOF 5
ENDMDL
MODEL 3
REMARK VINA RESULT:      -4.1      1.570      2.932
REMARK  5 active torsions:
REMARK  status: ('A' for Active; 'I' for Inactive)
REMARK    1  A    between atoms: C4_4  and  C5_5 
REMARK    2  A    between atoms: C5_5  and  C7_7 
REMARK    3  A    between atoms: C6_6  and  C7_7 
REMARK    4  A    between atoms: C6_6  and  O10_10 
REMARK    5  A    between atoms: C7_7  and  N8_8 
ROOT
HETATM    1  C1  UNL     1     -35.546  14.723  -6.931  1.00 20.00     0.332 C 
HETATM    2  N8  UNL     1     -34.753  14.583  -6.080  1.00 20.00    -0.240 NA
HETATM    3  O9  UNL     1     -36.336  14.862  -7.792  1.00 20.00    -0.260 OA
ENDROOT
BRANCH   2   4
HETATM    4  C7  UNL     1     -35.315  14.635  -4.723  1.00 20.00     0.136 C 
BRANCH   4   5
HETATM    5  C5  UNL     1     -34.168  14.716  -3.709  1.00 20.00     0.029 C 
BRANCH   5   6
HETATM    6  C4  UNL     1     -34.069  16.098  -3.054  1.00 20.00    -0.002 C 
HETATM    7  C2  UNL     1     -35.012  16.219  -1.867  1.00 20.00     0.005 C 
ENDBRANCH   5   6
ENDBRANCH   4   5
BRANCH   4   8
HETATM    8  C6  UNL     1     -36.188  13.396  -4.522  1.00 20.00     0.194 C 
BRANCH   8   9
HETATM    9  O10 UNL     1     -37.566  13.747  -4.508  1.00 20.00    -0.394 OA
HETATM   10  C3  UNL     1     -37.754  15.105  -4.133  1.00 20.00     0.201 C 
ENDBRANCH   8   9
ENDBRANCH   4   8
ENDBRANCH   2   4
TORSDOF 5
ENDMDL
MODEL 4
REMARK VINA RESULT:      -4.1      1.114      1.154
REMARK  5 active torsions:
REMARK  status: ('A' for Active; 'I' for Inactive)
REMARK    1  A    between atoms: C4_4  and  C5_5 
REMARK    2  A    between atoms: C5_5  and  C7_7 
REMARK    3  A    between atoms: C6_6  and  C7_7 
REMARK    4  A    between atoms: C6_6  and  O10_10 
REMARK    5  A    between atoms: C7_7  and  N8_8 
ROOT
HETATM    1  C1  UNL     1     -37.396  14.446  -4.126  1.00 20.00     0.332 C 
HETATM    2  N8  UNL     1     -36.393  14.967  -3.817  1.00 20.00    -0.240 NA
HETATM    3  O9  UNL     1     -38.408  13.929  -4.431  1.00 20.00    -0.260 OA
ENDROOT
BRANCH   2   4
HETATM    4  C7  UNL     1     -35.197  14.378  -4.435  1.00 20.00     0.136 C 
BRANCH   4   5
HETATM    5  C5  UNL     1     -33.947  15.000  -3.799  1.00 20.00     0.029 C 
BRANCH   5   6
HETATM    6  C4  UNL     1     -34.290  15.903  -2.610  1.00 20.00    -0.002 C 
HETATM    7  C2  UNL     1     -33.227  16.969  -2.396  1.00 20.00     0.005 C 
ENDBRANCH   5   6
ENDBRANCH   4   5
BRANCH   4   8
HETATM    8  C6  UNL     1     -35.270  14.623  -5.942  1.00 20.00     0.194 C 
BRANCH   8   9
HETATM    9  O10 UNL     1     -33.968  14.665  -6.510  1.00 20.00    -0.394 OA
HETATM   10  C3  UNL     1     -33.949  15.423  -7.713  1.00 20.00     0.201 C 
ENDBRANCH   8   9
ENDBRANCH   4   8
ENDBRANCH   2   4
TORSDOF 5
ENDMDL
MODEL 5
REMARK VINA RESULT:      -4.0     11.168     11.736
REMARK  5 active torsions:
REMARK  status: ('A' for Active; 'I' for Inactive)
REMARK    1  A    between atoms: C4_4  and  C5_5 
REMARK    2  A    between atoms: C5_5  and  C7_7 
REMARK    3  A    between atoms: C6_6  and  C7_7 
REMARK    4  A    between atoms: C6_6  and  O10_10 
REMARK    5  A    between atoms: C7_7  and  N8_8 
ROOT
HETATM    1  C1  UNL     1     -33.726   4.540   3.023  1.00 20.00     0.332 C 
HETATM    2  N8  UNL     1     -33.276   5.455   2.446  1.00 20.00    -0.240 NA
HETATM    3  O9  UNL     1     -34.179   3.617   3.595  1.00 20.00    -0.260 OA
ENDROOT
BRANCH   2   4
HETATM    4  C7  UNL     1     -32.803   6.539   3.317  1.00 20.00     0.136 C 
BRANCH   4   5
HETATM    5  C5  UNL     1     -33.978   7.054   4.159  1.00 20.00     0.029 C 
BRANCH   5   6
HETATM    6  C4  UNL     1     -33.755   6.839   5.659  1.00 20.00    -0.002 C 
HETATM    7  C2  UNL     1     -34.655   5.742   6.204  1.00 20.00     0.005 C 
ENDBRANCH   5   6
ENDBRANCH   4   5
BRANCH   4   8
HETATM    8  C6  UNL     1     -32.194   7.628   2.435  1.00 20.00     0.194 C 
BRANCH   8   9
HETATM    9  O10 UNL     1     -32.880   7.713   1.192  1.00 20.00    -0.394 OA
HETATM   10  C3  UNL     1     -32.892   9.044   0.693  1.00 20.00     0.201 C 
ENDBRANCH   8   9
ENDBRANCH   4   8
ENDBRANCH   2   4
TORSDOF 5
ENDMDL
MODEL 6
REMARK VINA RESULT:      -3.9      1.053      1.142
REMARK  5 active torsions:
REMARK  status: ('A' for Active; 'I' for Inactive)
REMARK    1  A    between atoms: C4_4  and  C5_5 
REMARK    2  A    between atoms: C5_5  and  C7_7 
REMARK    3  A    between atoms: C6_6  and  C7_7 
REMARK    4  A    between atoms: C6_6  and  O10_10 
REMARK    5  A    between atoms: C7_7  and  N8_8 
ROOT
HETATM    1  C1  UNL     1     -36.221  13.503  -4.430  1.00 20.00     0.332 C 
HETATM    2  N8  UNL     1     -35.074  13.320  -4.280  1.00 20.00    -0.240 NA
HETATM    3  O9  UNL     1     -37.375  13.678  -4.580  1.00 20.00    -0.260 OA
ENDROOT
BRANCH   2   4
HETATM    4  C7  UNL     1     -34.266  14.547  -4.282  1.00 20.00     0.136 C 
BRANCH   4   5
HETATM    5  C5  UNL     1     -34.773  15.482  -3.177  1.00 20.00     0.029 C 
BRANCH   5   6
HETATM    6  C4  UNL     1     -33.642  16.295  -2.540  1.00 20.00    -0.002 C 
HETATM    7  C2  UNL     1     -34.177  17.291  -1.523  1.00 20.00     0.005 C 
ENDBRANCH   5   6
ENDBRANCH   4   5
BRANCH   4   8
HETATM    8  C6  UNL     1     -34.360  15.177  -5.671  1.00 20.00     0.194 C 
BRANCH   8   9
HETATM    9  O10 UNL     1     -35.020  16.435  -5.611  1.00 20.00    -0.394 OA
HETATM   10  C3  UNL     1     -36.009  16.553  -6.625  1.00 20.00     0.201 C 
ENDBRANCH   8   9
ENDBRANCH   4   8
ENDBRANCH   2   4
TORSDOF 5
ENDMDL
MODEL 7
REMARK VINA RESULT:      -3.8     16.665     18.467
REMARK  5 active torsions:
REMARK  status: ('A' for Active; 'I' for Inactive)
REMARK    1  A    between atoms: C4_4  and  C5_5 
REMARK    2  A    between atoms: C5_5  and  C7_7 
REMARK    3  A    between atoms: C6_6  and  C7_7 
REMARK    4  A    between atoms: C6_6  and  O10_10 
REMARK    5  A    between atoms: C7_7  and  N8_8 
ROOT
HETATM    1  C1  UNL     1     -22.089  16.924   8.236  1.00 20.00     0.332 C 
HETATM    2  N8  UNL     1     -22.603  16.887   9.288  1.00 20.00    -0.240 NA
HETATM    3  O9  UNL     1     -21.575  16.952   7.178  1.00 20.00    -0.260 OA
ENDROOT
BRANCH   2   4
HETATM    4  C7  UNL     1     -22.704  18.194   9.952  1.00 20.00     0.136 C 
BRANCH   4   5
HETATM    5  C5  UNL     1     -23.396  18.014  11.309  1.00 20.00     0.029 C 
BRANCH   5   6
HETATM    6  C4  UNL     1     -23.617  16.538  11.656  1.00 20.00    -0.002 C 
HETATM    7  C2  UNL     1     -25.092  16.229  11.855  1.00 20.00     0.005 C 
ENDBRANCH   5   6
ENDBRANCH   4   5
BRANCH   4   8
HETATM    8  C6  UNL     1     -23.468  19.140   9.026  1.00 20.00     0.194 C 
BRANCH   8   9
HETATM    9  O10 UNL     1     -24.865  18.884   9.084  1.00 20.00    -0.394 OA
HETATM   10  C3  UNL     1     -25.462  18.960   7.796  1.00 20.00     0.201 C 
ENDBRANCH   8   9
ENDBRANCH   4   8
ENDBRANCH   2   4
TORSDOF 5
ENDMDL
MODEL 8
REMARK VINA RESULT:      -3.7      2.288      3.400
REMARK  5 active torsions:
REMARK  status: ('A' for Active; 'I' for Inactive)
REMARK    1  A    between atoms: C4_4  and  C5_5 
REMARK    2  A    between atoms: C5_5  and  C7_7 
REMARK    3  A    between atoms: C6_6  and  C7_7 
REMARK    4  A    between atoms: C6_6  and  O10_10 
REMARK    5  A    between atoms: C7_7  and  N8_8 
ROOT
HETATM    1  C1  UNL     1     -36.298  13.713  -4.354  1.00 20.00     0.332 C 
HETATM    2  N8  UNL     1     -36.764  14.763  -4.128  1.00 20.00    -0.240 NA
HETATM    3  O9  UNL     1     -35.838  12.654  -4.582  1.00 20.00    -0.260 OA
ENDROOT
BRANCH   2   4
HETATM    4  C7  UNL     1     -35.776  15.844  -4.003  1.00 20.00     0.136 C 
BRANCH   4   5
HETATM    5  C5  UNL     1     -34.807  15.506  -2.863  1.00 20.00     0.029 C 
BRANCH   5   6
HETATM    6  C4  UNL     1     -33.385  16.002  -3.144  1.00 20.00    -0.002 C 
HETATM    7  C2  UNL     1     -33.037  17.210  -2.288  1.00 20.00     0.005 C 
ENDBRANCH   5   6
ENDBRANCH   4   5
BRANCH   4   8
HETATM    8  C6  UNL     1     -36.528  17.153  -3.764  1.00 20.00     0.194 C 
BRANCH   8   9
HETATM    9  O10 UNL     1     -36.684  17.398  -2.373  1.00 20.00    -0.394 OA
HETATM   10  C3  UNL     1     -37.908  18.064  -2.095  1.00 20.00     0.201 C 
ENDBRANCH   8   9
ENDBRANCH   4   8
ENDBRANCH   2   4
TORSDOF 5
ENDMDL
MODEL 9
REMARK VINA RESULT:      -3.6     10.901     11.906
REMARK  5 active torsions:
REMARK  status: ('A' for Active; 'I' for Inactive)
REMARK    1  A    between atoms: C4_4  and  C5_5 
REMARK    2  A    between atoms: C5_5  and  C7_7 
REMARK    3  A    between atoms: C6_6  and  C7_7 
REMARK    4  A    between atoms: C6_6  and  O10_10 
REMARK    5  A    between atoms: C7_7  and  N8_8 
ROOT
HETATM    1  C1  UNL     1     -33.755   4.537   3.148  1.00 20.00     0.332 C 
HETATM    2  N8  UNL     1     -33.103   5.206   2.441  1.00 20.00    -0.240 NA
HETATM    3  O9  UNL     1     -34.405   3.858   3.855  1.00 20.00    -0.260 OA
ENDROOT
BRANCH   2   4
HETATM    4  C7  UNL     1     -33.243   6.649   2.684  1.00 20.00     0.136 C 
BRANCH   4   5
HETATM    5  C5  UNL     1     -32.306   7.409   1.738  1.00 20.00     0.029 C 
BRANCH   5   6
HETATM    6  C4  UNL     1     -32.910   8.734   1.262  1.00 20.00    -0.002 C 
HETATM    7  C2  UNL     1     -33.266   8.684  -0.215  1.00 20.00     0.005 C 
ENDBRANCH   5   6
ENDBRANCH   4   5
BRANCH   4   8
HETATM    8  C6  UNL     1     -32.933   6.916   4.156  1.00 20.00     0.194 C 
BRANCH   8   9
HETATM    9  O10 UNL     1     -34.124   7.192   4.881  1.00 20.00    -0.394 OA
HETATM   10  C3  UNL     1     -34.138   6.523   6.135  1.00 20.00     0.201 C 
ENDBRANCH   8   9
ENDBRANCH   4   8
ENDBRANCH   2   4
TORSDOF 5
ENDMDL
