MODEL 1
REMARK VINA RESULT:      -4.2      0.000      0.000
REMARK  0 active torsions:
REMARK  status: ('A' for Active; 'I' for Inactive)
ROOT
HETATM    1  C1  UNL     1     -36.045  15.197  -3.512  1.00 20.00     0.035 C 
HETATM    2  C2  UNL     1     -35.133  15.886  -2.496  1.00 20.00     0.011 C 
HETATM    3  C3  UNL     1     -33.024  15.475  -3.833  1.00 20.00     0.043 C 
HETATM    4  C4  UNL     1     -35.304  14.369  -4.507  1.00 20.00     0.151 A 
HETATM    5  C5  UNL     1     -33.820  14.541  -4.692  1.00 20.00     0.151 A 
HETATM    6  C6  UNL     1     -33.889  16.550  -3.134  1.00 20.00    -0.045 C 
HETATM    7  C7  UNL     1     -33.055  17.213  -2.021  1.00 20.00     0.015 C 
HETATM    8  C8  UNL     1     -34.298  17.642  -4.140  1.00 20.00     0.015 C 
HETATM    9  O9  UNL     1     -34.376  13.430  -3.961  1.00 20.00    -0.375 OA
ENDROOT
TORSDOF 0
ENDMDL
MODEL 2
REMARK VINA RESULT:      -4.1     17.412     18.347
REMARK  0 active torsions:
REMARK  status: ('A' for Active; 'I' for Inactive)
ROOT
HETATM    1  C1  UNL     1     -22.973  18.040  12.223  1.00 20.00     0.035 C 
HETATM    2  C2  UNL     1     -21.902  17.735  11.174  1.00 20.00     0.011 C 
HETATM    3  C3  UNL     1     -23.479  16.454   9.665  1.00 20.00     0.043 C 
HETATM    4  C4  UNL     1     -24.204  17.211  12.069  1.00 20.00     0.151 A 
HETATM    5  C5  UNL     1     -24.470  16.465  10.789  1.00 20.00     0.151 A 
HETATM    6  C6  UNL     1     -22.461  17.616   9.736  1.00 20.00    -0.045 C 
HETATM    7  C7  UNL     1     -21.296  17.317   8.774  1.00 20.00     0.015 C 
HETATM    8  C8  UNL     1     -23.124  18.934   9.289  1.00 20.00     0.015 C 
HETATM    9  O9  UNL     1     -23.993  15.802  11.976  1.00 20.00    -0.375 OA
ENDROOT
TORSDOF 0
ENDMDL
MODEL 3
REMARK VINA RESULT:      -4.1      1.894      3.229
REMARK  0 active torsions:
REMARK  status: ('A' for Active; 'I' for Inactive)
ROOT
HETATM    1  C1  UNL     1     -34.190  14.585  -3.855  1.00 20.00     0.035 C 
HETATM    2  C2  UNL     1     -33.599  14.684  -5.263  1.00 20.00     0.011 C 
HETATM    3  C3  UNL     1     -35.834  14.431  -6.421  1.00 20.00     0.043 C 
HETATM    4  C4  UNL     1     -35.587  14.063  -3.836  1.00 20.00     0.151 A 
HETATM    5  C5  UNL     1     -36.409  14.030  -5.097  1.00 20.00     0.151 A 
HETATM    6  C6  UNL     1     -34.566  15.308  -6.296  1.00 20.00    -0.045 C 
HETATM    7  C7  UNL     1     -33.863  15.362  -7.666  1.00 20.00     0.015 C 
HETATM    8  C8  UNL     1     -34.950  16.746  -5.899  1.00 20.00     0.015 C 
HETATM    9  O9  UNL     1     -35.802  12.843  -4.548  1.00 20.00    -0.375 OA
ENDROOT
TORSDOF 0
ENDMDL
MODEL 4
REMARK VINA RESULT:      -4.1      1.804      2.661
REMARK  0 active torsions:
REMARK  status: ('A' for Active; 'I' for Inactive)
ROOT
HETATM    1  C1  UNL     1     -34.770  15.975  -6.411  1.00 20.00     0.035 C 
HETATM    2  C2  UNL     1     -34.557  16.467  -4.978  1.00 20.00     0.011 C 
HETATM    3  C3  UNL     1     -35.519  14.379  -3.920  1.00 20.00     0.043 C 
HETATM    4  C4  UNL     1     -35.685  14.801  -6.503  1.00 20.00     0.151 A 
HETATM    5  C5  UNL     1     -36.017  13.991  -5.278  1.00 20.00     0.151 A 
HETATM    6  C6  UNL     1     -34.298  15.327  -3.965  1.00 20.00    -0.045 C 
HETATM    7  C7  UNL     1     -34.093  15.941  -2.567  1.00 20.00     0.015 C 
HETATM    8  C8  UNL     1     -33.025  14.539  -4.332  1.00 20.00     0.015 C 
HETATM    9  O9  UNL     1     -36.942  14.943  -5.840  1.00 20.00    -0.375 OA
ENDROOT
TORSDOF 0
ENDMDL
MODEL 5
REMARK VINA RESULT:      -4.0     10.550     11.868
REMARK  0 active torsions:
REMARK  status: ('A' for Active; 'I' for Inactive)
ROOT
HETATM    1  C1  UNL     1     -42.112   5.804   0.882  1.00 20.00     0.035 C 
HETATM    2  C2  UNL     1     -41.465   7.176   1.082  1.00 20.00     0.011 C 
HETATM    3  C3  UNL     1     -41.474   7.746  -1.384  1.00 20.00     0.043 C 
HETATM    4  C4  UNL     1     -42.095   5.343  -0.536  1.00 20.00     0.151 A 
HETATM    5  C5  UNL     1     -41.822   6.314  -1.654  1.00 20.00     0.151 A 
HETATM    6  C6  UNL     1     -41.896   8.221   0.026  1.00 20.00    -0.045 C 
HETATM    7  C7  UNL     1     -41.191   9.556   0.333  1.00 20.00     0.015 C 
HETATM    8  C8  UNL     1     -43.417   8.463   0.074  1.00 20.00     0.015 C 
HETATM    9  O9  UNL     1     -40.823   5.387  -1.185  1.00 20.00    -0.375 OA
ENDROOT
TORSDOF 0
ENDMDL
MODEL 6
REMARK VINA RESULT:      -3.9     16.593     17.411
REMARK  0 active torsions:
REMARK  status: ('A' for Active; 'I' for Inactive)
ROOT
HETATM    1  C1  UNL     1     -24.677  19.259   9.411  1.00 20.00     0.035 C 
HETATM    2  C2  UNL     1     -25.064  17.905  10.009  1.00 20.00     0.011 C 
HETATM    3  C3  UNL     1     -22.774  16.886   9.660  1.00 20.00     0.043 C 
HETATM    4  C4  UNL     1     -23.397  19.222   8.645  1.00 20.00     0.151 A 
HETATM    5  C5  UNL     1     -22.442  18.070   8.805  1.00 20.00     0.151 A 
HETATM    6  C6  UNL     1     -23.887  17.173  10.695  1.00 20.00    -0.045 C 
HETATM    7  C7  UNL     1     -24.397  15.835  11.262  1.00 20.00     0.015 C 
HETATM    8  C8  UNL     1     -23.325  18.004  11.866  1.00 20.00     0.015 C 
HETATM    9  O9  UNL     1     -23.299  18.200   7.653  1.00 20.00    -0.375 OA
ENDROOT
TORSDOF 0
ENDMDL
MODEL 7
REMARK VINA RESULT:      -3.9      1.490      2.192
REMARK  0 active torsions:
REMARK  status: ('A' for Active; 'I' for Inactive)
ROOT
HETATM    1  C1  UNL     1     -35.397  13.480  -4.170  1.00 20.00     0.035 C 
HETATM    2  C2  UNL     1     -34.105  14.246  -3.879  1.00 20.00     0.011 C 
HETATM    3  C3  UNL     1     -34.999  16.450  -4.743  1.00 20.00     0.043 C 
HETATM    4  C4  UNL     1     -36.330  14.215  -5.071  1.00 20.00     0.151 A 
HETATM    5  C5  UNL     1     -36.155  15.690  -5.317  1.00 20.00     0.151 A 
HETATM    6  C6  UNL     1     -34.336  15.738  -3.541  1.00 20.00    -0.045 C 
HETATM    7  C7  UNL     1     -32.973  16.400  -3.262  1.00 20.00     0.015 C 
HETATM    8  C8  UNL     1     -35.209  15.893  -2.281  1.00 20.00     0.015 C 
HETATM    9  O9  UNL     1     -35.761  14.700  -6.288  1.00 20.00    -0.375 OA
ENDROOT
TORSDOF 0
ENDMDL
MODEL 8
REMARK VINA RESULT:      -3.9     11.922     12.570
REMARK  0 active torsions:
REMARK  status: ('A' for Active; 'I' for Inactive)
ROOT
HETATM    1  C1  UNL     1     -33.352   4.919   2.429  1.00 20.00     0.035 C 
HETATM    2  C2  UNL     1     -33.644   4.477   3.864  1.00 20.00     0.011 C 
HETATM    3  C3  UNL     1     -33.808   6.839   4.756  1.00 20.00     0.043 C 
HETATM    4  C4  UNL     1     -32.967   6.356   2.320  1.00 20.00     0.151 A 
HETATM    5  C5  UNL     1     -33.234   7.309   3.454  1.00 20.00     0.151 A 
HETATM    6  C6  UNL     1     -34.527   5.474   4.650  1.00 20.00    -0.045 C 
HETATM    7  C7  UNL     1     -34.758   4.922   6.069  1.00 20.00     0.015 C 
HETATM    8  C8  UNL     1     -35.902   5.647   3.976  1.00 20.00     0.015 C 
HETATM    9  O9  UNL     1     -31.918   6.784   3.189  1.00 20.00    -0.375 OA
ENDROOT
TORSDOF 0
ENDMDL
MODEL 9
REMARK VINA RESULT:      -3.9      1.502      2.306
REMARK  0 active torsions:
REMARK  status: ('A' for Active; 'I' for Inactive)
ROOT
HETATM    1  C1  UNL     1     -34.023  14.600  -4.477  1.00 20.00     0.035 C 
HETATM    2  C2  UNL     1     -33.125  15.497  -3.622  1.00 20.00     0.011 C 
HETATM    3  C3  UNL     1     -34.530  17.569  -3.989  1.00 20.00     0.043 C 
HETATM    4  C4  UNL     1     -34.976  15.363  -5.334  1.00 20.00     0.151 A 
HETATM    5  C5  UNL     1     -35.255  16.817  -5.062  1.00 20.00     0.151 A 
HETATM    6  C6  UNL     1     -33.886  16.648  -2.926  1.00 20.00    -0.045 C 
HETATM    7  C7  UNL     1     -32.886  17.473  -2.093  1.00 20.00     0.015 C 
HETATM    8  C8  UNL     1     -34.966  16.102  -1.970  1.00 20.00     0.015 C 
HETATM    9  O9  UNL     1     -34.397  16.391  -6.139  1.00 20.00    -0.375 OA
ENDROOT
TORSDOF 0
ENDMDL
