MODEL 1
REMARK VINA RESULT:      -5.4      0.000      0.000
REMARK  3 active torsions:
REMARK  status: ('A' for Active; 'I' for Inactive)
REMARK    1  A    between atoms: C2_2  and  C9_9 
REMARK    2  A    between atoms: C6_6  and  C9_9 
REMARK    3  A    between atoms: C7_7  and  O10_10 
ROOT
HETATM    1  C1  UNL     1     -32.675   7.991   1.369  1.00 20.00    -0.111 C 
HETATM    2  C2  UNL     1     -32.702   7.419   2.426  1.00 20.00    -0.107 C 
HETATM    3  C8  UNL     1     -32.641   8.686   0.085  1.00 20.00     0.112 C 
ENDROOT
BRANCH   2   4
HETATM    4  C9  UNL     1     -32.738   6.724   3.718  1.00 20.00     0.098 C 
BRANCH   4   5
HETATM    5  C6  UNL     1     -34.076   6.936   4.424  1.00 20.00    -0.001 C 
HETATM    6  C3  UNL     1     -33.996   6.645   5.921  1.00 20.00     0.008 C 
HETATM    7  C4  UNL     1     -34.134   5.131   6.028  1.00 20.00     0.032 C 
HETATM    8  C7  UNL     1     -34.974   4.707   4.823  1.00 20.00     0.118 C 
HETATM    9  C5  UNL     1     -35.148   5.953   3.950  1.00 20.00     0.037 C 
BRANCH   8  10
HETATM   10  O10 UNL     1     -34.288   3.689   4.106  1.00 20.00    -0.396 OA
HETATM   11  H24 UNL     1     -34.185   2.942   4.717  1.00 20.00     0.210 HD
ENDBRANCH   8  10
ENDBRANCH   4   5
ENDBRANCH   2   4
TORSDOF 3
ENDMDL
MODEL 2
REMARK VINA RESULT:      -4.6     10.951     12.182
REMARK  3 active torsions:
REMARK  status: ('A' for Active; 'I' for Inactive)
REMARK    1  A    between atoms: C2_2  and  C9_9 
REMARK    2  A    between atoms: C6_6  and  C9_9 
REMARK    3  A    between atoms: C7_7  and  O10_10 
ROOT
HETATM    1  C1  UNL     1     -33.110  17.438  -1.960  1.00 20.00    -0.111 C 
HETATM    2  C2  UNL     1     -33.903  16.595  -2.282  1.00 20.00    -0.107 C 
HETATM    3  C8  UNL     1     -32.145  18.463  -1.569  1.00 20.00     0.112 C 
ENDROOT
BRANCH   2   4
HETATM    4  C9  UNL     1     -34.872  15.563  -2.672  1.00 20.00     0.098 C 
BRANCH   4   5
HETATM    5  C6  UNL     1     -34.358  14.738  -3.850  1.00 20.00    -0.001 C 
HETATM    6  C3  UNL     1     -34.551  15.450  -5.187  1.00 20.00     0.008 C 
HETATM    7  C4  UNL     1     -35.999  15.169  -5.569  1.00 20.00     0.032 C 
HETATM    8  C7  UNL     1     -36.340  13.821  -4.930  1.00 20.00     0.118 C 
HETATM    9  C5  UNL     1     -35.150  13.443  -4.045  1.00 20.00     0.037 C 
BRANCH   8  10
HETATM   10  O10 UNL     1     -37.519  13.957  -4.148  1.00 20.00    -0.396 OA
HETATM   11  H24 UNL     1     -37.566  14.888  -3.877  1.00 20.00     0.210 HD
ENDBRANCH   8  10
ENDBRANCH   4   5
ENDBRANCH   2   4
TORSDOF 3
ENDMDL
MODEL 3
REMARK VINA RESULT:      -4.5     11.366     12.100
REMARK  3 active torsions:
REMARK  status: ('A' for Active; 'I' for Inactive)
REMARK    1  A    between atoms: C2_2  and  C9_9 
REMARK    2  A    between atoms: C6_6  and  C9_9 
REMARK    3  A    between atoms: C7_7  and  O10_10 
ROOT
HETATM    1  C1  UNL     1     -35.205  16.851  -0.943  1.00 20.00    -0.111 C 
HETATM    2  C2  UNL     1     -34.860  16.194  -1.887  1.00 20.00    -0.107 C 
HETATM    3  C8  UNL     1     -35.627  17.649   0.206  1.00 20.00     0.112 C 
ENDROOT
BRANCH   2   4
HETATM    4  C9  UNL     1     -34.435  15.395  -3.043  1.00 20.00     0.098 C 
BRANCH   4   5
HETATM    5  C6  UNL     1     -35.168  15.825  -4.312  1.00 20.00    -0.001 C 
HETATM    6  C3  UNL     1     -36.673  15.968  -4.094  1.00 20.00     0.008 C 
HETATM    7  C4  UNL     1     -37.217  14.549  -4.212  1.00 20.00     0.032 C 
HETATM    8  C7  UNL     1     -36.262  13.818  -5.157  1.00 20.00     0.118 C 
HETATM    9  C5  UNL     1     -35.091  14.769  -5.418  1.00 20.00     0.037 C 
BRANCH   8  10
HETATM   10  O10 UNL     1     -35.805  12.625  -4.532  1.00 20.00    -0.396 OA
HETATM   11  H24 UNL     1     -36.562  12.019  -4.506  1.00 20.00     0.210 HD
ENDBRANCH   8  10
ENDBRANCH   4   5
ENDBRANCH   2   4
TORSDOF 3
ENDMDL
MODEL 4
REMARK VINA RESULT:      -4.5     11.326     12.119
REMARK  3 active torsions:
REMARK  status: ('A' for Active; 'I' for Inactive)
REMARK    1  A    between atoms: C2_2  and  C9_9 
REMARK    2  A    between atoms: C6_6  and  C9_9 
REMARK    3  A    between atoms: C7_7  and  O10_10 
ROOT
HETATM    1  C1  UNL     1     -33.091  17.365  -1.960  1.00 20.00    -0.111 C 
HETATM    2  C2  UNL     1     -33.862  16.521  -2.329  1.00 20.00    -0.107 C 
HETATM    3  C8  UNL     1     -32.152  18.391  -1.513  1.00 20.00     0.112 C 
ENDROOT
BRANCH   2   4
HETATM    4  C9  UNL     1     -34.804  15.486  -2.775  1.00 20.00     0.098 C 
BRANCH   4   5
HETATM    5  C6  UNL     1     -35.342  15.793  -4.171  1.00 20.00    -0.001 C 
HETATM    6  C3  UNL     1     -36.864  15.917  -4.194  1.00 20.00     0.008 C 
HETATM    7  C4  UNL     1     -37.367  14.481  -4.272  1.00 20.00     0.032 C 
HETATM    8  C7  UNL     1     -36.272  13.698  -4.997  1.00 20.00     0.118 C 
HETATM    9  C5  UNL     1     -35.086  14.653  -5.159  1.00 20.00     0.037 C 
BRANCH   8  10
HETATM   10  O10 UNL     1     -35.901  12.572  -4.212  1.00 20.00    -0.396 OA
HETATM   11  H24 UNL     1     -35.717  11.850  -4.834  1.00 20.00     0.210 HD
ENDBRANCH   8  10
ENDBRANCH   4   5
ENDBRANCH   2   4
TORSDOF 3
ENDMDL
MODEL 5
REMARK VINA RESULT:      -4.4     15.892     16.484
REMARK  3 active torsions:
REMARK  status: ('A' for Active; 'I' for Inactive)
REMARK    1  A    between atoms: C2_2  and  C9_9 
REMARK    2  A    between atoms: C6_6  and  C9_9 
REMARK    3  A    between atoms: C7_7  and  O10_10 
ROOT
HETATM    1  C1  UNL     1     -24.934  19.191   6.808  1.00 20.00    -0.111 C 
HETATM    2  C2  UNL     1     -24.557  19.132   7.947  1.00 20.00    -0.107 C 
HETATM    3  C8  UNL     1     -25.392  19.263   5.422  1.00 20.00     0.112 C 
ENDROOT
BRANCH   2   4
HETATM    4  C9  UNL     1     -24.101  19.060   9.341  1.00 20.00     0.098 C 
BRANCH   4   5
HETATM    5  C6  UNL     1     -24.806  17.935  10.096  1.00 20.00    -0.001 C 
HETATM    6  C3  UNL     1     -25.187  18.338  11.519  1.00 20.00     0.008 C 
HETATM    7  C4  UNL     1     -23.912  18.139  12.331  1.00 20.00     0.032 C 
HETATM    8  C7  UNL     1     -23.143  17.021  11.625  1.00 20.00     0.118 C 
HETATM    9  C5  UNL     1     -23.895  16.726  10.324  1.00 20.00     0.037 C 
BRANCH   8  10
HETATM   10  O10 UNL     1     -21.821  17.464  11.346  1.00 20.00    -0.396 OA
HETATM   11  H24 UNL     1     -21.362  16.720  10.926  1.00 20.00     0.210 HD
ENDBRANCH   8  10
ENDBRANCH   4   5
ENDBRANCH   2   4
TORSDOF 3
ENDMDL
MODEL 6
REMARK VINA RESULT:      -4.3     11.588     13.006
REMARK  3 active torsions:
REMARK  status: ('A' for Active; 'I' for Inactive)
REMARK    1  A    between atoms: C2_2  and  C9_9 
REMARK    2  A    between atoms: C6_6  and  C9_9 
REMARK    3  A    between atoms: C7_7  and  O10_10 
ROOT
HETATM    1  C1  UNL     1     -35.112  16.421  -1.466  1.00 20.00    -0.111 C 
HETATM    2  C2  UNL     1     -34.869  15.746  -2.430  1.00 20.00    -0.107 C 
HETATM    3  C8  UNL     1     -35.408  17.241  -0.294  1.00 20.00     0.112 C 
ENDROOT
BRANCH   2   4
HETATM    4  C9  UNL     1     -34.576  14.921  -3.608  1.00 20.00     0.098 C 
BRANCH   4   5
HETATM    5  C6  UNL     1     -34.057  15.772  -4.765  1.00 20.00    -0.001 C 
HETATM    6  C3  UNL     1     -35.049  16.856  -5.181  1.00 20.00     0.008 C 
HETATM    7  C4  UNL     1     -36.038  16.144  -6.096  1.00 20.00     0.032 C 
HETATM    8  C7  UNL     1     -35.252  15.001  -6.743  1.00 20.00     0.118 C 
HETATM    9  C5  UNL     1     -33.886  14.965  -6.053  1.00 20.00     0.037 C 
BRANCH   8  10
HETATM   10  O10 UNL     1     -35.947  13.778  -6.537  1.00 20.00    -0.396 OA
HETATM   11  H24 UNL     1     -36.882  14.007  -6.420  1.00 20.00     0.210 HD
ENDBRANCH   8  10
ENDBRANCH   4   5
ENDBRANCH   2   4
TORSDOF 3
ENDMDL
MODEL 7
REMARK VINA RESULT:      -4.2     16.106     16.744
REMARK  3 active torsions:
REMARK  status: ('A' for Active; 'I' for Inactive)
REMARK    1  A    between atoms: C2_2  and  C9_9 
REMARK    2  A    between atoms: C6_6  and  C9_9 
REMARK    3  A    between atoms: C7_7  and  O10_10 
ROOT
HETATM    1  C1  UNL     1     -25.630  19.038   7.726  1.00 20.00    -0.111 C 
HETATM    2  C2  UNL     1     -25.281  18.852   8.860  1.00 20.00    -0.107 C 
HETATM    3  C8  UNL     1     -26.055  19.263   6.346  1.00 20.00     0.112 C 
ENDROOT
BRANCH   2   4
HETATM    4  C9  UNL     1     -24.851  18.626  10.245  1.00 20.00     0.098 C 
BRANCH   4   5
HETATM    5  C6  UNL     1     -24.113  17.296  10.386  1.00 20.00    -0.001 C 
HETATM    6  C3  UNL     1     -23.219  17.254  11.623  1.00 20.00     0.008 C 
HETATM    7  C4  UNL     1     -21.939  17.964  11.199  1.00 20.00     0.032 C 
HETATM    8  C7  UNL     1     -21.819  17.733   9.691  1.00 20.00     0.118 C 
HETATM    9  C5  UNL     1     -23.119  17.056   9.248  1.00 20.00     0.037 C 
BRANCH   8  10
HETATM   10  O10 UNL     1     -21.661  18.984   9.035  1.00 20.00    -0.396 OA
HETATM   11  H24 UNL     1     -20.710  19.097   8.879  1.00 20.00     0.210 HD
ENDBRANCH   8  10
ENDBRANCH   4   5
ENDBRANCH   2   4
TORSDOF 3
ENDMDL
MODEL 8
REMARK VINA RESULT:      -4.2      9.106     10.344
REMARK  3 active torsions:
REMARK  status: ('A' for Active; 'I' for Inactive)
REMARK    1  A    between atoms: C2_2  and  C9_9 
REMARK    2  A    between atoms: C6_6  and  C9_9 
REMARK    3  A    between atoms: C7_7  and  O10_10 
ROOT
HETATM    1  C1  UNL     1     -42.448   3.513  -2.796  1.00 20.00    -0.111 C 
HETATM    2  C2  UNL     1     -42.882   4.337  -2.037  1.00 20.00    -0.107 C 
HETATM    3  C8  UNL     1     -41.918   2.512  -3.719  1.00 20.00     0.112 C 
ENDROOT
BRANCH   2   4
HETATM    4  C9  UNL     1     -43.417   5.344  -1.112  1.00 20.00     0.098 C 
BRANCH   4   5
HETATM    5  C6  UNL     1     -42.547   5.465   0.137  1.00 20.00    -0.001 C 
HETATM    6  C3  UNL     1     -43.035   6.562   1.082  1.00 20.00     0.008 C 
HETATM    7  C4  UNL     1     -42.459   7.851   0.506  1.00 20.00     0.032 C 
HETATM    8  C7  UNL     1     -41.168   7.445  -0.206  1.00 20.00     0.118 C 
HETATM    9  C5  UNL     1     -41.120   5.914  -0.186  1.00 20.00     0.037 C 
BRANCH   8  10
HETATM   10  O10 UNL     1     -41.199   7.924  -1.544  1.00 20.00    -0.396 OA
HETATM   11  H24 UNL     1     -41.661   7.251  -2.069  1.00 20.00     0.210 HD
ENDBRANCH   8  10
ENDBRANCH   4   5
ENDBRANCH   2   4
TORSDOF 3
ENDMDL
MODEL 9
REMARK VINA RESULT:      -4.2     11.478     12.608
REMARK  3 active torsions:
REMARK  status: ('A' for Active; 'I' for Inactive)
REMARK    1  A    between atoms: C2_2  and  C9_9 
REMARK    2  A    between atoms: C6_6  and  C9_9 
REMARK    3  A    between atoms: C7_7  and  O10_10 
ROOT
HETATM    1  C1  UNL     1     -32.373  18.229  -1.245  1.00 20.00    -0.111 C 
HETATM    2  C2  UNL     1     -32.607  17.384  -2.067  1.00 20.00    -0.107 C 
HETATM    3  C8  UNL     1     -32.089  19.256  -0.246  1.00 20.00     0.112 C 
ENDROOT
BRANCH   2   4
HETATM    4  C9  UNL     1     -32.896  16.351  -3.069  1.00 20.00     0.098 C 
BRANCH   4   5
HETATM    5  C6  UNL     1     -34.363  16.385  -3.491  1.00 20.00    -0.001 C 
HETATM    6  C3  UNL     1     -35.122  15.131  -3.061  1.00 20.00     0.008 C 
HETATM    7  C4  UNL     1     -34.797  14.097  -4.132  1.00 20.00     0.032 C 
HETATM    8  C7  UNL     1     -34.535  14.894  -5.411  1.00 20.00     0.118 C 
HETATM    9  C5  UNL     1     -34.534  16.373  -5.012  1.00 20.00     0.037 C 
BRANCH   8  10
HETATM   10  O10 UNL     1     -33.272  14.522  -5.947  1.00 20.00    -0.396 OA
HETATM   11  H24 UNL     1     -33.321  14.677  -6.903  1.00 20.00     0.210 HD
ENDBRANCH   8  10
ENDBRANCH   4   5
ENDBRANCH   2   4
TORSDOF 3
ENDMDL
