MODEL 1
REMARK VINA RESULT:      -4.3      0.000      0.000
REMARK  1 active torsions:
REMARK  status: ('A' for Active; 'I' for Inactive)
REMARK    1  A    between atoms: C4_4  and  C8_8 
ROOT
HETATM    1  C1  UNL     1     -33.076  15.714  -3.765  1.00 20.00     0.006 C 
HETATM    2  C2  UNL     1     -33.820  14.791  -4.735  1.00 20.00     0.020 C 
HETATM    3  C3  UNL     1     -35.365  15.390  -3.020  1.00 20.00     0.025 C 
HETATM    4  C4  UNL     1     -33.999  15.891  -2.549  1.00 20.00    -0.010 C 
HETATM    5  C5  UNL     1     -34.985  14.232  -3.930  1.00 20.00     0.082 C 
HETATM    6 CL9  UNL     1     -36.329  13.713  -4.957  1.00 20.00    -0.125 Cl
ENDROOT
BRANCH   4   7
HETATM    7  C8  UNL     1     -34.038  17.318  -2.028  1.00 20.00    -0.019 C 
HETATM    8  C6  UNL     1     -34.839  17.398  -0.728  1.00 20.00     0.010 C 
HETATM    9  C7  UNL     1     -32.623  17.856  -1.815  1.00 20.00     0.010 C 
ENDBRANCH   4   7
TORSDOF 1
ENDMDL
MODEL 2
REMARK VINA RESULT:      -4.3     11.699     12.329
REMARK  1 active torsions:
REMARK  status: ('A' for Active; 'I' for Inactive)
REMARK    1  A    between atoms: C4_4  and  C8_8 
ROOT
HETATM    1  C1  UNL     1     -34.031   4.638   3.540  1.00 20.00     0.006 C 
HETATM    2  C2  UNL     1     -33.055   5.051   2.434  1.00 20.00     0.020 C 
HETATM    3  C3  UNL     1     -33.719   7.046   3.559  1.00 20.00     0.025 C 
HETATM    4  C4  UNL     1     -34.633   5.941   4.089  1.00 20.00    -0.010 C 
HETATM    5  C5  UNL     1     -33.349   6.522   2.179  1.00 20.00     0.082 C 
HETATM    6 CL9  UNL     1     -31.967   7.378   1.481  1.00 20.00    -0.125 Cl
ENDROOT
BRANCH   4   7
HETATM    7  C8  UNL     1     -34.759   5.951   5.603  1.00 20.00    -0.019 C 
HETATM    8  C6  UNL     1     -34.500   4.558   6.177  1.00 20.00     0.010 C 
HETATM    9  C7  UNL     1     -33.799   6.968   6.220  1.00 20.00     0.010 C 
ENDBRANCH   4   7
TORSDOF 1
ENDMDL
MODEL 3
REMARK VINA RESULT:      -4.3      2.493      3.977
REMARK  1 active torsions:
REMARK  status: ('A' for Active; 'I' for Inactive)
REMARK    1  A    between atoms: C4_4  and  C8_8 
ROOT
HETATM    1  C1  UNL     1     -33.078  16.739  -3.019  1.00 20.00     0.006 C 
HETATM    2  C2  UNL     1     -33.059  17.540  -1.713  1.00 20.00     0.020 C 
HETATM    3  C3  UNL     1     -35.036  16.205  -1.685  1.00 20.00     0.025 C 
HETATM    4  C4  UNL     1     -34.464  16.079  -3.097  1.00 20.00    -0.010 C 
HETATM    5  C5  UNL     1     -34.508  17.562  -1.245  1.00 20.00     0.082 C 
HETATM    6 CL9  UNL     1     -34.651  17.807   0.501  1.00 20.00    -0.125 Cl
ENDROOT
BRANCH   4   7
HETATM    7  C8  UNL     1     -34.416  14.643  -3.592  1.00 20.00    -0.019 C 
HETATM    8  C6  UNL     1     -35.727  14.265  -4.283  1.00 20.00     0.010 C 
HETATM    9  C7  UNL     1     -33.236  14.435  -4.541  1.00 20.00     0.010 C 
ENDBRANCH   4   7
TORSDOF 1
ENDMDL
MODEL 4
REMARK VINA RESULT:      -4.1      0.673      1.122
REMARK  1 active torsions:
REMARK  status: ('A' for Active; 'I' for Inactive)
REMARK    1  A    between atoms: C4_4  and  C8_8 
ROOT
HETATM    1  C1  UNL     1     -32.992  15.636  -3.708  1.00 20.00     0.006 C 
HETATM    2  C2  UNL     1     -33.799  14.628  -4.533  1.00 20.00     0.020 C 
HETATM    3  C3  UNL     1     -35.301  15.598  -2.955  1.00 20.00     0.025 C 
HETATM    4  C4  UNL     1     -33.904  16.067  -2.548  1.00 20.00    -0.010 C 
HETATM    5  C5  UNL     1     -35.004  14.288  -3.668  1.00 20.00     0.082 C 
HETATM    6 CL9  UNL     1     -36.380  13.713  -4.622  1.00 20.00    -0.125 Cl
ENDROOT
BRANCH   4   7
HETATM    7  C8  UNL     1     -33.839  17.557  -2.257  1.00 20.00    -0.019 C 
HETATM    8  C6  UNL     1     -32.574  17.900  -1.469  1.00 20.00     0.010 C 
HETATM    9  C7  UNL     1     -33.895  18.365  -3.553  1.00 20.00     0.010 C 
ENDBRANCH   4   7
TORSDOF 1
ENDMDL
MODEL 5
REMARK VINA RESULT:      -4.1      2.539      4.385
REMARK  1 active torsions:
REMARK  status: ('A' for Active; 'I' for Inactive)
REMARK    1  A    between atoms: C4_4  and  C8_8 
ROOT
HETATM    1  C1  UNL     1     -35.064  16.034  -2.060  1.00 20.00     0.006 C 
HETATM    2  C2  UNL     1     -34.381  17.270  -1.466  1.00 20.00     0.020 C 
HETATM    3  C3  UNL     1     -33.159  16.671  -3.425  1.00 20.00     0.025 C 
HETATM    4  C4  UNL     1     -34.131  15.519  -3.168  1.00 20.00    -0.010 C 
HETATM    5  C5  UNL     1     -32.967  17.246  -2.030  1.00 20.00     0.082 C 
HETATM    6 CL9  UNL     1     -32.224  18.851  -2.059  1.00 20.00    -0.125 Cl
ENDROOT
BRANCH   4   7
HETATM    7  C8  UNL     1     -34.873  15.077  -4.419  1.00 20.00    -0.019 C 
HETATM    8  C6  UNL     1     -33.911  14.947  -5.600  1.00 20.00     0.010 C 
HETATM    9  C7  UNL     1     -35.602  13.756  -4.178  1.00 20.00     0.010 C 
ENDBRANCH   4   7
TORSDOF 1
ENDMDL
MODEL 6
REMARK VINA RESULT:      -4.1      2.482      4.118
REMARK  1 active torsions:
REMARK  status: ('A' for Active; 'I' for Inactive)
REMARK    1  A    between atoms: C4_4  and  C8_8 
ROOT
HETATM    1  C1  UNL     1     -35.149  15.884  -2.264  1.00 20.00     0.006 C 
HETATM    2  C2  UNL     1     -34.528  17.194  -1.771  1.00 20.00     0.020 C 
HETATM    3  C3  UNL     1     -33.126  16.371  -3.516  1.00 20.00     0.025 C 
HETATM    4  C4  UNL     1     -34.116  15.247  -3.207  1.00 20.00    -0.010 C 
HETATM    5  C5  UNL     1     -33.068  17.120  -2.193  1.00 20.00     0.082 C 
HETATM    6 CL9  UNL     1     -32.329  18.719  -2.356  1.00 20.00    -0.125 Cl
ENDROOT
BRANCH   4   7
HETATM    7  C8  UNL     1     -34.735  14.642  -4.455  1.00 20.00    -0.019 C 
HETATM    8  C6  UNL     1     -36.191  14.249  -4.201  1.00 20.00     0.010 C 
HETATM    9  C7  UNL     1     -34.645  15.614  -5.631  1.00 20.00     0.010 C 
ENDBRANCH   4   7
TORSDOF 1
ENDMDL
MODEL 7
REMARK VINA RESULT:      -4.0      1.725      2.639
REMARK  1 active torsions:
REMARK  status: ('A' for Active; 'I' for Inactive)
REMARK    1  A    between atoms: C4_4  and  C8_8 
ROOT
HETATM    1  C1  UNL     1     -34.941  17.065  -1.353  1.00 20.00     0.006 C 
HETATM    2  C2  UNL     1     -34.864  15.838  -2.267  1.00 20.00     0.020 C 
HETATM    3  C3  UNL     1     -32.892  17.122  -2.655  1.00 20.00     0.025 C 
HETATM    4  C4  UNL     1     -33.799  17.996  -1.788  1.00 20.00    -0.010 C 
HETATM    5  C5  UNL     1     -33.896  16.233  -3.373  1.00 20.00     0.082 C 
HETATM    6 CL9  UNL     1     -33.130  14.831  -4.134  1.00 20.00    -0.125 Cl
ENDROOT
BRANCH   4   7
HETATM    7  C8  UNL     1     -33.067  18.634  -0.618  1.00 20.00    -0.019 C 
HETATM    8  C6  UNL     1     -33.687  18.200   0.710  1.00 20.00     0.010 C 
HETATM    9  C7  UNL     1     -31.580  18.280  -0.652  1.00 20.00     0.010 C 
ENDBRANCH   4   7
TORSDOF 1
ENDMDL
MODEL 8
REMARK VINA RESULT:      -4.0     16.769     17.711
REMARK  1 active torsions:
REMARK  status: ('A' for Active; 'I' for Inactive)
REMARK    1  A    between atoms: C4_4  and  C8_8 
ROOT
HETATM    1  C1  UNL     1     -22.517  17.668  11.791  1.00 20.00     0.006 C 
HETATM    2  C2  UNL     1     -21.730  17.845  10.488  1.00 20.00     0.020 C 
HETATM    3  C3  UNL     1     -23.962  17.259   9.882  1.00 20.00     0.025 C 
HETATM    4  C4  UNL     1     -23.871  17.058  11.395  1.00 20.00    -0.010 C 
HETATM    5  C5  UNL     1     -22.518  17.064   9.445  1.00 20.00     0.082 C 
HETATM    6 CL9  UNL     1     -22.226  17.648   7.801  1.00 20.00    -0.125 Cl
ENDROOT
BRANCH   4   7
HETATM    7  C8  UNL     1     -25.044  17.664  12.146  1.00 20.00    -0.019 C 
HETATM    8  C6  UNL     1     -25.576  18.897  11.415  1.00 20.00     0.010 C 
HETATM    9  C7  UNL     1     -26.159  16.634  12.332  1.00 20.00     0.010 C 
ENDBRANCH   4   7
TORSDOF 1
ENDMDL
MODEL 9
REMARK VINA RESULT:      -3.9      1.612      2.183
REMARK  1 active torsions:
REMARK  status: ('A' for Active; 'I' for Inactive)
REMARK    1  A    between atoms: C4_4  and  C8_8 
ROOT
HETATM    1  C1  UNL     1     -33.437  14.704  -4.719  1.00 20.00     0.006 C 
HETATM    2  C2  UNL     1     -34.043  14.862  -6.117  1.00 20.00     0.020 C 
HETATM    3  C3  UNL     1     -35.652  15.687  -4.562  1.00 20.00     0.025 C 
HETATM    4  C4  UNL     1     -34.569  15.006  -3.724  1.00 20.00    -0.010 C 
HETATM    5  C5  UNL     1     -35.545  14.947  -5.887  1.00 20.00     0.082 C 
HETATM    6 CL9  UNL     1     -36.383  15.788  -7.198  1.00 20.00    -0.125 Cl
ENDROOT
BRANCH   4   7
HETATM    7  C8  UNL     1     -34.118  15.847  -2.541  1.00 20.00    -0.019 C 
HETATM    8  C6  UNL     1     -33.117  16.913  -2.985  1.00 20.00     0.010 C 
HETATM    9  C7  UNL     1     -35.317  16.497  -1.850  1.00 20.00     0.010 C 
ENDBRANCH   4   7
TORSDOF 1
ENDMDL
