MODEL 1
REMARK VINA RESULT:      -4.7      0.000      0.000
REMARK  6 active torsions:
REMARK  status: ('A' for Active; 'I' for Inactive)
REMARK    1  A    between atoms: C3_3  and  C10_10 
REMARK    2  A    between atoms: C6_6  and  C11_11 
REMARK    3  A    between atoms: C7_7  and  C8_8 
REMARK    4  A    between atoms: C7_7  and  C9_9 
REMARK    5  A    between atoms: C8_8  and  C10_10 
REMARK    6  A    between atoms: C9_9  and  C11_11 
ROOT
HETATM    1  C7  UNL     1     -33.776   4.989   2.448  1.00 20.00     0.002 C 
ENDROOT
BRANCH   1   2
HETATM    2  C8  UNL     1     -32.532   5.808   2.076  1.00 20.00     0.020 C 
BRANCH   2   3
HETATM    3  C10 UNL     1     -32.663   7.328   2.253  1.00 20.00     0.086 C 
HETATM    4 CL12 UNL     1     -31.687   7.915   3.629  1.00 20.00    -0.125 Cl
BRANCH   3   5
HETATM    5  C3  UNL     1     -32.300   8.108   1.024  1.00 20.00     0.004 A 
HETATM    6  C1  UNL     1     -33.320   8.338  -0.057  1.00 20.00     0.006 A 
HETATM    7  C2  UNL     1     -32.866   9.483   0.805  1.00 20.00     0.006 A 
ENDBRANCH   3   5
ENDBRANCH   2   3
ENDBRANCH   1   2
BRANCH   1   8
HETATM    8  C9  UNL     1     -34.611   5.713   3.510  1.00 20.00     0.004 C 
BRANCH   8   9
HETATM    9  C11 UNL     1     -34.846   4.877   4.784  1.00 20.00    -0.019 C 
HETATM   10  C5  UNL     1     -33.914   3.660   4.782  1.00 20.00     0.010 C 
BRANCH   9  11
HETATM   11  C6  UNL     1     -34.723   5.673   6.099  1.00 20.00    -0.000 C 
HETATM   12  C4  UNL     1     -33.871   6.933   6.019  1.00 20.00     0.005 C 
ENDBRANCH   9  11
ENDBRANCH   8   9
ENDBRANCH   1   8
TORSDOF 6
ENDMDL
MODEL 2
REMARK VINA RESULT:      -4.3     10.913     12.252
REMARK  6 active torsions:
REMARK  status: ('A' for Active; 'I' for Inactive)
REMARK    1  A    between atoms: C3_3  and  C10_10 
REMARK    2  A    between atoms: C6_6  and  C11_11 
REMARK    3  A    between atoms: C7_7  and  C8_8 
REMARK    4  A    between atoms: C7_7  and  C9_9 
REMARK    5  A    between atoms: C8_8  and  C10_10 
REMARK    6  A    between atoms: C9_9  and  C11_11 
ROOT
HETATM    1  C7  UNL     1     -33.323  17.678  -3.453  1.00 20.00     0.002 C 
ENDROOT
BRANCH   1   2
HETATM    2  C8  UNL     1     -32.575  18.570  -2.451  1.00 20.00     0.020 C 
BRANCH   2   3
HETATM    3  C10 UNL     1     -32.535  18.052  -1.006  1.00 20.00     0.086 C 
HETATM    4 CL12 UNL     1     -30.951  18.363  -0.240  1.00 20.00    -0.125 Cl
BRANCH   3   5
HETATM    5  C3  UNL     1     -33.621  18.615  -0.138  1.00 20.00     0.004 A 
HETATM    6  C1  UNL     1     -34.727  17.727   0.364  1.00 20.00     0.006 A 
HETATM    7  C2  UNL     1     -33.690  18.250   1.319  1.00 20.00     0.006 A 
ENDBRANCH   3   5
ENDBRANCH   2   3
ENDBRANCH   1   2
BRANCH   1   8
HETATM    8  C9  UNL     1     -33.151  16.196  -3.103  1.00 20.00     0.004 C 
BRANCH   8   9
HETATM    9  C11 UNL     1     -34.486  15.447  -2.918  1.00 20.00    -0.019 C 
HETATM   10  C5  UNL     1     -35.648  16.446  -2.968  1.00 20.00     0.010 C 
BRANCH   9  11
HETATM   11  C6  UNL     1     -34.705  14.285  -3.906  1.00 20.00    -0.000 C 
HETATM   12  C4  UNL     1     -36.153  14.035  -4.308  1.00 20.00     0.005 C 
ENDBRANCH   9  11
ENDBRANCH   8   9
ENDBRANCH   1   8
TORSDOF 6
ENDMDL
MODEL 3
REMARK VINA RESULT:      -4.2     11.077     12.422
REMARK  6 active torsions:
REMARK  status: ('A' for Active; 'I' for Inactive)
REMARK    1  A    between atoms: C3_3  and  C10_10 
REMARK    2  A    between atoms: C6_6  and  C11_11 
REMARK    3  A    between atoms: C7_7  and  C8_8 
REMARK    4  A    between atoms: C7_7  and  C9_9 
REMARK    5  A    between atoms: C8_8  and  C10_10 
REMARK    6  A    between atoms: C9_9  and  C11_11 
ROOT
HETATM    1  C7  UNL     1     -34.823  17.211  -0.597  1.00 20.00     0.002 C 
ENDROOT
BRANCH   1   2
HETATM    2  C8  UNL     1     -35.853  17.453  -1.708  1.00 20.00     0.020 C 
BRANCH   2   3
HETATM    3  C10 UNL     1     -35.682  16.593  -2.969  1.00 20.00     0.086 C 
HETATM    4 CL12 UNL     1     -35.277  17.591  -4.395  1.00 20.00    -0.125 Cl
BRANCH   3   5
HETATM    5  C3  UNL     1     -34.656  15.509  -2.820  1.00 20.00     0.004 A 
HETATM    6  C1  UNL     1     -34.615  14.365  -3.795  1.00 20.00     0.006 A 
HETATM    7  C2  UNL     1     -33.523  15.398  -3.801  1.00 20.00     0.006 A 
ENDBRANCH   3   5
ENDBRANCH   2   3
ENDBRANCH   1   2
BRANCH   1   8
HETATM    8  C9  UNL     1     -33.808  18.357  -0.530  1.00 20.00     0.004 C 
BRANCH   8   9
HETATM    9  C11 UNL     1     -32.486  18.054  -1.264  1.00 20.00    -0.019 C 
HETATM   10  C5  UNL     1     -32.450  18.814  -2.595  1.00 20.00     0.010 C 
BRANCH   9  11
HETATM   11  C6  UNL     1     -31.219  18.327  -0.429  1.00 20.00    -0.000 C 
HETATM   12  C4  UNL     1     -31.421  18.326   1.081  1.00 20.00     0.005 C 
ENDBRANCH   9  11
ENDBRANCH   8   9
ENDBRANCH   1   8
TORSDOF 6
ENDMDL
MODEL 4
REMARK VINA RESULT:      -4.1     11.099     12.348
REMARK  6 active torsions:
REMARK  status: ('A' for Active; 'I' for Inactive)
REMARK    1  A    between atoms: C3_3  and  C10_10 
REMARK    2  A    between atoms: C6_6  and  C11_11 
REMARK    3  A    between atoms: C7_7  and  C8_8 
REMARK    4  A    between atoms: C7_7  and  C9_9 
REMARK    5  A    between atoms: C8_8  and  C10_10 
REMARK    6  A    between atoms: C9_9  and  C11_11 
ROOT
HETATM    1  C7  UNL     1     -33.243  15.696  -3.535  1.00 20.00     0.002 C 
ENDROOT
BRANCH   1   2
HETATM    2  C8  UNL     1     -34.470  16.051  -2.684  1.00 20.00     0.020 C 
BRANCH   2   3
HETATM    3  C10 UNL     1     -34.320  17.292  -1.792  1.00 20.00     0.086 C 
HETATM    4 CL12 UNL     1     -35.172  17.088  -0.234  1.00 20.00    -0.125 Cl
BRANCH   3   5
HETATM    5  C3  UNL     1     -32.894  17.670  -1.527  1.00 20.00     0.004 A 
HETATM    6  C1  UNL     1     -32.432  19.085  -1.743  1.00 20.00     0.006 A 
HETATM    7  C2  UNL     1     -32.546  18.537  -0.348  1.00 20.00     0.006 A 
ENDBRANCH   3   5
ENDBRANCH   2   3
ENDBRANCH   1   2
BRANCH   1   8
HETATM    8  C9  UNL     1     -33.594  14.641  -4.590  1.00 20.00     0.004 C 
BRANCH   8   9
HETATM    9  C11 UNL     1     -34.507  15.171  -5.714  1.00 20.00    -0.019 C 
HETATM   10  C5  UNL     1     -33.764  15.108  -7.053  1.00 20.00     0.010 C 
BRANCH   9  11
HETATM   11  C6  UNL     1     -35.878  14.473  -5.801  1.00 20.00    -0.000 C 
HETATM   12  C4  UNL     1     -36.251  13.618  -4.596  1.00 20.00     0.005 C 
ENDBRANCH   9  11
ENDBRANCH   8   9
ENDBRANCH   1   8
TORSDOF 6
ENDMDL
MODEL 5
REMARK VINA RESULT:      -4.1     11.383     12.153
REMARK  6 active torsions:
REMARK  status: ('A' for Active; 'I' for Inactive)
REMARK    1  A    between atoms: C3_3  and  C10_10 
REMARK    2  A    between atoms: C6_6  and  C11_11 
REMARK    3  A    between atoms: C7_7  and  C8_8 
REMARK    4  A    between atoms: C7_7  and  C9_9 
REMARK    5  A    between atoms: C8_8  and  C10_10 
REMARK    6  A    between atoms: C9_9  and  C11_11 
ROOT
HETATM    1  C7  UNL     1     -33.790  16.191  -2.719  1.00 20.00     0.002 C 
ENDROOT
BRANCH   1   2
HETATM    2  C8  UNL     1     -33.024  15.425  -3.807  1.00 20.00     0.020 C 
BRANCH   2   3
HETATM    3  C10 UNL     1     -33.894  14.658  -4.814  1.00 20.00     0.086 C 
HETATM    4 CL12 UNL     1     -35.267  13.845  -4.009  1.00 20.00    -0.125 Cl
BRANCH   3   5
HETATM    5  C3  UNL     1     -34.415  15.514  -5.930  1.00 20.00     0.004 A 
HETATM    6  C1  UNL     1     -34.003  15.241  -7.350  1.00 20.00     0.006 A 
HETATM    7  C2  UNL     1     -35.412  14.958  -6.908  1.00 20.00     0.006 A 
ENDBRANCH   3   5
ENDBRANCH   2   3
ENDBRANCH   1   2
BRANCH   1   8
HETATM    8  C9  UNL     1     -32.959  17.362  -2.185  1.00 20.00     0.004 C 
BRANCH   8   9
HETATM    9  C11 UNL     1     -33.628  18.109  -1.012  1.00 20.00    -0.019 C 
HETATM   10  C5  UNL     1     -34.841  17.313  -0.520  1.00 20.00     0.010 C 
BRANCH   9  11
HETATM   11  C6  UNL     1     -32.674  18.451   0.150  1.00 20.00    -0.000 C 
HETATM   12  C4  UNL     1     -31.190  18.398  -0.189  1.00 20.00     0.005 C 
ENDBRANCH   9  11
ENDBRANCH   8   9
ENDBRANCH   1   8
TORSDOF 6
ENDMDL
MODEL 6
REMARK VINA RESULT:      -4.1     11.186     12.200
REMARK  6 active torsions:
REMARK  status: ('A' for Active; 'I' for Inactive)
REMARK    1  A    between atoms: C3_3  and  C10_10 
REMARK    2  A    between atoms: C6_6  and  C11_11 
REMARK    3  A    between atoms: C7_7  and  C8_8 
REMARK    4  A    between atoms: C7_7  and  C9_9 
REMARK    5  A    between atoms: C8_8  and  C10_10 
REMARK    6  A    between atoms: C9_9  and  C11_11 
ROOT
HETATM    1  C7  UNL     1     -33.540  16.750  -2.285  1.00 20.00     0.002 C 
ENDROOT
BRANCH   1   2
HETATM    2  C8  UNL     1     -33.205  15.889  -3.512  1.00 20.00     0.020 C 
BRANCH   2   3
HETATM    3  C10 UNL     1     -34.393  15.542  -4.421  1.00 20.00     0.086 C 
HETATM    4 CL12 UNL     1     -33.849  14.867  -5.983  1.00 20.00    -0.125 Cl
BRANCH   3   5
HETATM    5  C3  UNL     1     -35.373  14.597  -3.791  1.00 20.00     0.004 A 
HETATM    6  C1  UNL     1     -36.849  14.772  -4.020  1.00 20.00     0.006 A 
HETATM    7  C2  UNL     1     -36.125  13.609  -4.639  1.00 20.00     0.006 A 
ENDBRANCH   3   5
ENDBRANCH   2   3
ENDBRANCH   1   2
BRANCH   1   8
HETATM    8  C9  UNL     1     -32.800  18.091  -2.337  1.00 20.00     0.004 C 
BRANCH   8   9
HETATM    9  C11 UNL     1     -32.441  18.652  -0.946  1.00 20.00    -0.019 C 
HETATM   10  C5  UNL     1     -33.563  18.325   0.046  1.00 20.00     0.010 C 
BRANCH   9  11
HETATM   11  C6  UNL     1     -31.070  18.194  -0.411  1.00 20.00    -0.000 C 
HETATM   12  C4  UNL     1     -30.912  18.245   1.104  1.00 20.00     0.005 C 
ENDBRANCH   9  11
ENDBRANCH   8   9
ENDBRANCH   1   8
TORSDOF 6
ENDMDL
MODEL 7
REMARK VINA RESULT:      -4.0     11.373     12.369
REMARK  6 active torsions:
REMARK  status: ('A' for Active; 'I' for Inactive)
REMARK    1  A    between atoms: C3_3  and  C10_10 
REMARK    2  A    between atoms: C6_6  and  C11_11 
REMARK    3  A    between atoms: C7_7  and  C8_8 
REMARK    4  A    between atoms: C7_7  and  C9_9 
REMARK    5  A    between atoms: C8_8  and  C10_10 
REMARK    6  A    between atoms: C9_9  and  C11_11 
ROOT
HETATM    1  C7  UNL     1     -31.694  18.317  -0.840  1.00 20.00     0.002 C 
ENDROOT
BRANCH   1   2
HETATM    2  C8  UNL     1     -32.476  19.027  -1.954  1.00 20.00     0.020 C 
BRANCH   2   3
HETATM    3  C10 UNL     1     -33.546  18.177  -2.656  1.00 20.00     0.086 C 
HETATM    4 CL12 UNL     1     -33.519  18.418  -4.426  1.00 20.00    -0.125 Cl
BRANCH   3   5
HETATM    5  C3  UNL     1     -33.437  16.711  -2.358  1.00 20.00     0.004 A 
HETATM    6  C1  UNL     1     -34.656  15.832  -2.422  1.00 20.00     0.006 A 
HETATM    7  C2  UNL     1     -33.578  15.701  -3.462  1.00 20.00     0.006 A 
ENDBRANCH   3   5
ENDBRANCH   2   3
ENDBRANCH   1   2
BRANCH   1   8
HETATM    8  C9  UNL     1     -32.016  18.927   0.529  1.00 20.00     0.004 C 
BRANCH   8   9
HETATM    9  C11 UNL     1     -33.016  18.094   1.355  1.00 20.00    -0.019 C 
HETATM   10  C5  UNL     1     -32.600  18.102   2.830  1.00 20.00     0.010 C 
BRANCH   9  11
HETATM   11  C6  UNL     1     -34.489  18.519   1.188  1.00 20.00    -0.000 C 
HETATM   12  C4  UNL     1     -35.442  17.412   0.758  1.00 20.00     0.005 C 
ENDBRANCH   9  11
ENDBRANCH   8   9
ENDBRANCH   1   8
TORSDOF 6
ENDMDL
MODEL 8
REMARK VINA RESULT:      -4.0     11.098     12.821
REMARK  6 active torsions:
REMARK  status: ('A' for Active; 'I' for Inactive)
REMARK    1  A    between atoms: C3_3  and  C10_10 
REMARK    2  A    between atoms: C6_6  and  C11_11 
REMARK    3  A    between atoms: C7_7  and  C8_8 
REMARK    4  A    between atoms: C7_7  and  C9_9 
REMARK    5  A    between atoms: C8_8  and  C10_10 
REMARK    6  A    between atoms: C9_9  and  C11_11 
ROOT
HETATM    1  C7  UNL     1     -34.645  14.295  -4.149  1.00 20.00     0.002 C 
ENDROOT
BRANCH   1   2
HETATM    2  C8  UNL     1     -33.402  15.145  -3.848  1.00 20.00     0.020 C 
BRANCH   2   3
HETATM    3  C10 UNL     1     -33.576  16.206  -2.751  1.00 20.00     0.086 C 
HETATM    4 CL12 UNL     1     -33.081  17.826  -3.321  1.00 20.00    -0.125 Cl
BRANCH   3   5
HETATM    5  C3  UNL     1     -34.971  16.281  -2.207  1.00 20.00     0.004 A 
HETATM    6  C1  UNL     1     -35.221  16.847  -0.836  1.00 20.00     0.006 A 
HETATM    7  C2  UNL     1     -35.654  17.612  -2.055  1.00 20.00     0.006 A 
ENDBRANCH   3   5
ENDBRANCH   2   3
ENDBRANCH   1   2
BRANCH   1   8
HETATM    8  C9  UNL     1     -35.213  14.625  -5.533  1.00 20.00     0.004 C 
BRANCH   8   9
HETATM    9  C11 UNL     1     -34.485  15.788  -6.238  1.00 20.00    -0.019 C 
HETATM   10  C5  UNL     1     -33.974  15.323  -7.606  1.00 20.00     0.010 C 
BRANCH   9  11
HETATM   11  C6  UNL     1     -35.319  17.078  -6.362  1.00 20.00    -0.000 C 
HETATM   12  C4  UNL     1     -36.619  17.091  -5.568  1.00 20.00     0.005 C 
ENDBRANCH   9  11
ENDBRANCH   8   9
ENDBRANCH   1   8
TORSDOF 6
ENDMDL
MODEL 9
REMARK VINA RESULT:      -4.0     10.947     12.247
REMARK  6 active torsions:
REMARK  status: ('A' for Active; 'I' for Inactive)
REMARK    1  A    between atoms: C3_3  and  C10_10 
REMARK    2  A    between atoms: C6_6  and  C11_11 
REMARK    3  A    between atoms: C7_7  and  C8_8 
REMARK    4  A    between atoms: C7_7  and  C9_9 
REMARK    5  A    between atoms: C8_8  and  C10_10 
REMARK    6  A    between atoms: C9_9  and  C11_11 
ROOT
HETATM    1  C7  UNL     1     -33.323  16.026  -3.377  1.00 20.00     0.002 C 
ENDROOT
BRANCH   1   2
HETATM    2  C8  UNL     1     -34.243  14.798  -3.437  1.00 20.00     0.020 C 
BRANCH   2   3
HETATM    3  C10 UNL     1     -34.750  14.419  -4.836  1.00 20.00     0.086 C 
HETATM    4 CL12 UNL     1     -36.427  13.806  -4.783  1.00 20.00    -0.125 Cl
BRANCH   3   5
HETATM    5  C3  UNL     1     -34.666  15.540  -5.828  1.00 20.00     0.004 A 
HETATM    6  C1  UNL     1     -34.098  15.299  -7.199  1.00 20.00     0.006 A 
HETATM    7  C2  UNL     1     -35.569  15.557  -7.030  1.00 20.00     0.006 A 
ENDBRANCH   3   5
ENDBRANCH   2   3
ENDBRANCH   1   2
BRANCH   1   8
HETATM    8  C9  UNL     1     -33.698  16.935  -2.202  1.00 20.00     0.004 C 
BRANCH   8   9
HETATM    9  C11 UNL     1     -35.187  16.852  -1.808  1.00 20.00    -0.019 C 
HETATM   10  C5  UNL     1     -35.330  17.039  -0.293  1.00 20.00     0.010 C 
BRANCH   9  11
HETATM   11  C6  UNL     1     -36.104  17.821  -2.580  1.00 20.00    -0.000 C 
HETATM   12  C4  UNL     1     -37.131  17.159  -3.490  1.00 20.00     0.005 C 
ENDBRANCH   9  11
ENDBRANCH   8   9
ENDBRANCH   1   8
TORSDOF 6
ENDMDL
