MODEL 1
REMARK VINA RESULT:      -5.6      0.000      0.000
REMARK  4 active torsions:
REMARK  status: ('A' for Active; 'I' for Inactive)
REMARK    1  A    between atoms: C1_1  and  C6_6 
REMARK    2  A    between atoms: C1_1  and  C8_8 
REMARK    3  A    between atoms: C7_7  and  C9_9 
REMARK    4  A    between atoms: C8_8  and  C9_9 
ROOT
HETATM    1  C1  UNL     1     -33.596   5.937   3.488  1.00 20.00     0.131 C 
HETATM    2  O10 UNL     1     -33.632   4.922   2.795  1.00 20.00    -0.298 OA
ENDROOT
BRANCH   1   3
HETATM    3  C6  UNL     1     -34.620   6.177   4.568  1.00 20.00     0.055 A 
HETATM    4  C2  UNL     1     -34.739   5.171   5.655  1.00 20.00     0.013 A 
HETATM    5  C3  UNL     1     -34.132   6.515   5.930  1.00 20.00     0.013 A 
ENDBRANCH   1   3
BRANCH   1   6
HETATM    6  C8  UNL     1     -32.540   7.015   3.319  1.00 20.00     0.079 C 
BRANCH   6   7
HETATM    7  C9  UNL     1     -32.218   7.294   1.854  1.00 20.00     0.012 C 
BRANCH   7   8
HETATM    8  C7  UNL     1     -33.242   8.225   1.227  1.00 20.00    -0.014 A 
HETATM    9  C4  UNL     1     -32.822   9.571   0.706  1.00 20.00     0.005 A 
HETATM   10  C5  UNL     1     -33.220   8.486  -0.255  1.00 20.00     0.005 A 
ENDBRANCH   7   8
ENDBRANCH   6   7
ENDBRANCH   1   6
TORSDOF 4
ENDMDL
MODEL 2
REMARK VINA RESULT:      -5.3      1.185      4.836
REMARK  4 active torsions:
REMARK  status: ('A' for Active; 'I' for Inactive)
REMARK    1  A    between atoms: C1_1  and  C6_6 
REMARK    2  A    between atoms: C1_1  and  C8_8 
REMARK    3  A    between atoms: C7_7  and  C9_9 
REMARK    4  A    between atoms: C8_8  and  C9_9 
ROOT
HETATM    1  C1  UNL     1     -32.454   7.277   2.270  1.00 20.00     0.131 C 
HETATM    2  O10 UNL     1     -31.787   7.466   3.285  1.00 20.00    -0.298 OA
ENDROOT
BRANCH   1   3
HETATM    3  C6  UNL     1     -32.201   8.074   1.016  1.00 20.00     0.055 A 
HETATM    4  C2  UNL     1     -33.290   8.159   0.009  1.00 20.00     0.013 A 
HETATM    5  C3  UNL     1     -32.934   9.354   0.843  1.00 20.00     0.013 A 
ENDBRANCH   1   3
BRANCH   1   6
HETATM    6  C8  UNL     1     -33.568   6.248   2.193  1.00 20.00     0.079 C 
BRANCH   6   7
HETATM    7  C9  UNL     1     -33.626   5.356   3.430  1.00 20.00     0.012 C 
BRANCH   7   8
HETATM    8  C7  UNL     1     -34.625   5.879   4.448  1.00 20.00    -0.014 A 
HETATM    9  C4  UNL     1     -34.842   5.146   5.742  1.00 20.00     0.005 A 
HETATM   10  C5  UNL     1     -34.145   6.478   5.742  1.00 20.00     0.005 A 
ENDBRANCH   7   8
ENDBRANCH   6   7
ENDBRANCH   1   6
TORSDOF 4
ENDMDL
MODEL 3
REMARK VINA RESULT:      -5.3      1.224      1.284
REMARK  4 active torsions:
REMARK  status: ('A' for Active; 'I' for Inactive)
REMARK    1  A    between atoms: C1_1  and  C6_6 
REMARK    2  A    between atoms: C1_1  and  C8_8 
REMARK    3  A    between atoms: C7_7  and  C9_9 
REMARK    4  A    between atoms: C8_8  and  C9_9 
ROOT
HETATM    1  C1  UNL     1     -33.416   6.631   4.108  1.00 20.00     0.131 C 
HETATM    2  O10 UNL     1     -32.781   7.396   4.832  1.00 20.00    -0.298 OA
ENDROOT
BRANCH   1   3
HETATM    3  C6  UNL     1     -34.724   6.038   4.564  1.00 20.00     0.055 A 
HETATM    4  C2  UNL     1     -34.856   4.558   4.572  1.00 20.00     0.013 A 
HETATM    5  C3  UNL     1     -34.747   5.315   5.862  1.00 20.00     0.013 A 
ENDBRANCH   1   3
BRANCH   1   6
HETATM    6  C8  UNL     1     -32.946   6.226   2.722  1.00 20.00     0.079 C 
BRANCH   6   7
HETATM    7  C9  UNL     1     -32.257   7.368   1.980  1.00 20.00     0.012 C 
BRANCH   7   8
HETATM    8  C7  UNL     1     -33.260   8.235   1.238  1.00 20.00    -0.014 A 
HETATM    9  C4  UNL     1     -32.858   9.592   0.730  1.00 20.00     0.005 A 
HETATM   10  C5  UNL     1     -33.110   8.471  -0.240  1.00 20.00     0.005 A 
ENDBRANCH   7   8
ENDBRANCH   6   7
ENDBRANCH   1   6
TORSDOF 4
ENDMDL
MODEL 4
REMARK VINA RESULT:      -4.9      1.535      2.342
REMARK  4 active torsions:
REMARK  status: ('A' for Active; 'I' for Inactive)
REMARK    1  A    between atoms: C1_1  and  C6_6 
REMARK    2  A    between atoms: C1_1  and  C8_8 
REMARK    3  A    between atoms: C7_7  and  C9_9 
REMARK    4  A    between atoms: C8_8  and  C9_9 
ROOT
HETATM    1  C1  UNL     1     -35.144   5.172   4.314  1.00 20.00     0.131 C 
HETATM    2  O10 UNL     1     -36.130   5.574   3.699  1.00 20.00    -0.298 OA
ENDROOT
BRANCH   1   3
HETATM    3  C6  UNL     1     -34.963   5.485   5.777  1.00 20.00     0.055 A 
HETATM    4  C2  UNL     1     -33.613   5.299   6.370  1.00 20.00     0.013 A 
HETATM    5  C3  UNL     1     -34.156   6.679   6.141  1.00 20.00     0.013 A 
ENDBRANCH   1   3
BRANCH   1   6
HETATM    6  C8  UNL     1     -34.046   4.346   3.667  1.00 20.00     0.079 C 
BRANCH   6   7
HETATM    7  C9  UNL     1     -33.344   5.090   2.535  1.00 20.00     0.012 C 
BRANCH   7   8
HETATM    8  C7  UNL     1     -33.255   6.580   2.819  1.00 20.00    -0.014 A 
HETATM    9  C4  UNL     1     -31.938   7.203   3.191  1.00 20.00     0.005 A 
HETATM   10  C5  UNL     1     -32.555   7.495   1.852  1.00 20.00     0.005 A 
ENDBRANCH   7   8
ENDBRANCH   6   7
ENDBRANCH   1   6
TORSDOF 4
ENDMDL
MODEL 5
REMARK VINA RESULT:      -4.8      1.384      4.525
REMARK  4 active torsions:
REMARK  status: ('A' for Active; 'I' for Inactive)
REMARK    1  A    between atoms: C1_1  and  C6_6 
REMARK    2  A    between atoms: C1_1  and  C8_8 
REMARK    3  A    between atoms: C7_7  and  C9_9 
REMARK    4  A    between atoms: C8_8  and  C9_9 
ROOT
HETATM    1  C1  UNL     1     -33.397   5.071   2.703  1.00 20.00     0.131 C 
HETATM    2  O10 UNL     1     -32.737   4.465   1.861  1.00 20.00    -0.298 OA
ENDROOT
BRANCH   1   3
HETATM    3  C6  UNL     1     -33.347   6.574   2.794  1.00 20.00     0.055 A 
HETATM    4  C2  UNL     1     -32.079   7.207   3.239  1.00 20.00     0.013 A 
HETATM    5  C3  UNL     1     -32.512   7.305   1.806  1.00 20.00     0.013 A 
ENDBRANCH   1   3
BRANCH   1   6
HETATM    6  C8  UNL     1     -34.298   4.371   3.705  1.00 20.00     0.079 C 
BRANCH   6   7
HETATM    7  C9  UNL     1     -35.325   5.314   4.327  1.00 20.00     0.012 C 
BRANCH   7   8
HETATM    8  C7  UNL     1     -35.054   5.535   5.806  1.00 20.00    -0.014 A 
HETATM    9  C4  UNL     1     -33.684   5.278   6.371  1.00 20.00     0.005 A 
HETATM   10  C5  UNL     1     -34.197   6.687   6.254  1.00 20.00     0.005 A 
ENDBRANCH   7   8
ENDBRANCH   6   7
ENDBRANCH   1   6
TORSDOF 4
ENDMDL
MODEL 6
REMARK VINA RESULT:      -4.5     10.345     11.841
REMARK  4 active torsions:
REMARK  status: ('A' for Active; 'I' for Inactive)
REMARK    1  A    between atoms: C1_1  and  C6_6 
REMARK    2  A    between atoms: C1_1  and  C8_8 
REMARK    3  A    between atoms: C7_7  and  C9_9 
REMARK    4  A    between atoms: C8_8  and  C9_9 
ROOT
HETATM    1  C1  UNL     1     -36.101  14.018  -4.865  1.00 20.00     0.131 C 
HETATM    2  O10 UNL     1     -37.228  13.658  -4.528  1.00 20.00    -0.298 OA
ENDROOT
BRANCH   1   3
HETATM    3  C6  UNL     1     -35.825  14.489  -6.270  1.00 20.00     0.055 A 
HETATM    4  C2  UNL     1     -35.642  15.946  -6.496  1.00 20.00     0.013 A 
HETATM    5  C3  UNL     1     -34.469  15.014  -6.575  1.00 20.00     0.013 A 
ENDBRANCH   1   3
BRANCH   1   6
HETATM    6  C8  UNL     1     -34.916  14.019  -3.915  1.00 20.00     0.079 C 
BRANCH   6   7
HETATM    7  C9  UNL     1     -34.912  15.230  -2.986  1.00 20.00     0.012 C 
BRANCH   7   8
HETATM    8  C7  UNL     1     -33.572  15.945  -3.009  1.00 20.00    -0.014 A 
HETATM    9  C4  UNL     1     -33.444  17.295  -3.658  1.00 20.00     0.005 A 
HETATM   10  C5  UNL     1     -33.352  17.169  -2.163  1.00 20.00     0.005 A 
ENDBRANCH   7   8
ENDBRANCH   6   7
ENDBRANCH   1   6
TORSDOF 4
ENDMDL
MODEL 7
REMARK VINA RESULT:      -4.2     15.495     16.464
REMARK  4 active torsions:
REMARK  status: ('A' for Active; 'I' for Inactive)
REMARK    1  A    between atoms: C1_1  and  C6_6 
REMARK    2  A    between atoms: C1_1  and  C8_8 
REMARK    3  A    between atoms: C7_7  and  C9_9 
REMARK    4  A    between atoms: C8_8  and  C9_9 
ROOT
HETATM    1  C1  UNL     1     -22.999  17.467   9.130  1.00 20.00     0.131 C 
HETATM    2  O10 UNL     1     -22.548  16.697   8.284  1.00 20.00    -0.298 OA
ENDROOT
BRANCH   1   3
HETATM    3  C6  UNL     1     -23.507  18.832   8.746  1.00 20.00     0.055 A 
HETATM    4  C2  UNL     1     -24.249  18.968   7.466  1.00 20.00     0.013 A 
HETATM    5  C3  UNL     1     -24.974  19.065   8.775  1.00 20.00     0.013 A 
ENDBRANCH   1   3
BRANCH   1   6
HETATM    6  C8  UNL     1     -23.081  17.115  10.605  1.00 20.00     0.079 C 
BRANCH   6   7
HETATM    7  C9  UNL     1     -24.353  16.347  10.954  1.00 20.00     0.012 C 
BRANCH   7   8
HETATM    8  C7  UNL     1     -25.045  16.939  12.170  1.00 20.00    -0.014 A 
HETATM    9  C4  UNL     1     -25.147  18.430  12.332  1.00 20.00     0.005 A 
HETATM   10  C5  UNL     1     -26.377  17.622  12.024  1.00 20.00     0.005 A 
ENDBRANCH   7   8
ENDBRANCH   6   7
ENDBRANCH   1   6
TORSDOF 4
ENDMDL
MODEL 8
REMARK VINA RESULT:      -4.1     10.972     11.870
REMARK  4 active torsions:
REMARK  status: ('A' for Active; 'I' for Inactive)
REMARK    1  A    between atoms: C1_1  and  C6_6 
REMARK    2  A    between atoms: C1_1  and  C8_8 
REMARK    3  A    between atoms: C7_7  and  C9_9 
REMARK    4  A    between atoms: C8_8  and  C9_9 
ROOT
HETATM    1  C1  UNL     1     -31.590  18.608  -0.525  1.00 20.00     0.131 C 
HETATM    2  O10 UNL     1     -30.420  18.231  -0.485  1.00 20.00    -0.298 OA
ENDROOT
BRANCH   1   3
HETATM    3  C6  UNL     1     -32.285  19.115   0.712  1.00 20.00     0.055 A 
HETATM    4  C2  UNL     1     -33.470  18.367   1.205  1.00 20.00     0.013 A 
HETATM    5  C3  UNL     1     -32.173  18.308   1.955  1.00 20.00     0.013 A 
ENDBRANCH   1   3
BRANCH   1   6
HETATM    6  C8  UNL     1     -32.418  18.594  -1.798  1.00 20.00     0.079 C 
BRANCH   6   7
HETATM    7  C9  UNL     1     -32.738  17.180  -2.272  1.00 20.00     0.012 C 
BRANCH   7   8
HETATM    8  C7  UNL     1     -34.224  17.006  -2.541  1.00 20.00    -0.014 A 
HETATM    9  C4  UNL     1     -34.806  15.631  -2.714  1.00 20.00     0.005 A 
HETATM   10  C5  UNL     1     -35.122  16.431  -1.481  1.00 20.00     0.005 A 
ENDBRANCH   7   8
ENDBRANCH   6   7
ENDBRANCH   1   6
TORSDOF 4
ENDMDL
MODEL 9
REMARK VINA RESULT:      -4.1     10.677     11.339
REMARK  4 active torsions:
REMARK  status: ('A' for Active; 'I' for Inactive)
REMARK    1  A    between atoms: C1_1  and  C6_6 
REMARK    2  A    between atoms: C1_1  and  C8_8 
REMARK    3  A    between atoms: C7_7  and  C9_9 
REMARK    4  A    between atoms: C8_8  and  C9_9 
ROOT
HETATM    1  C1  UNL     1     -35.893  14.018  -4.884  1.00 20.00     0.131 C 
HETATM    2  O10 UNL     1     -36.005  12.846  -4.529  1.00 20.00    -0.298 OA
ENDROOT
BRANCH   1   3
HETATM    3  C6  UNL     1     -37.107  14.884  -5.097  1.00 20.00     0.055 A 
HETATM    4  C2  UNL     1     -38.304  14.631  -4.253  1.00 20.00     0.013 A 
HETATM    5  C3  UNL     1     -37.467  15.855  -4.031  1.00 20.00     0.013 A 
ENDBRANCH   1   3
BRANCH   1   6
HETATM    6  C8  UNL     1     -34.549  14.679  -5.135  1.00 20.00     0.079 C 
BRANCH   6   7
HETATM    7  C9  UNL     1     -33.775  14.938  -3.845  1.00 20.00     0.012 C 
BRANCH   7   8
HETATM    8  C7  UNL     1     -34.001  16.351  -3.334  1.00 20.00    -0.014 A 
HETATM    9  C4  UNL     1     -34.454  16.580  -1.919  1.00 20.00     0.005 A 
HETATM   10  C5  UNL     1     -33.057  16.952  -2.329  1.00 20.00     0.005 A 
ENDBRANCH   7   8
ENDBRANCH   6   7
ENDBRANCH   1   6
TORSDOF 4
ENDMDL
