MODEL 1
REMARK VINA RESULT:      -4.8      0.000      0.000
REMARK  2 active torsions:
REMARK  status: ('A' for Active; 'I' for Inactive)
REMARK    1  A    between atoms: C7_7  and  C10_10 
REMARK    2  A    between atoms: C9_9  and  C10_10 
ROOT
HETATM    1  C1  UNL     1     -33.275   9.138  -0.060  1.00 20.00     0.012 C 
HETATM    2  C2  UNL     1     -32.772   8.474   0.804  1.00 20.00    -0.117 C 
HETATM    3  C9  UNL     1     -32.156   7.665   1.864  1.00 20.00     0.093 C 
ENDROOT
BRANCH   3   4
HETATM    4  C10 UNL     1     -32.687   6.245   1.813  1.00 20.00     0.017 C 
BRANCH   4   5
HETATM    5  C7  UNL     1     -33.668   5.993   2.956  1.00 20.00    -0.012 C 
HETATM    6  C4  UNL     1     -33.668   4.521   3.375  1.00 20.00     0.005 C 
HETATM    7  C3  UNL     1     -34.731   4.235   4.439  1.00 20.00     0.002 C 
HETATM    8  C5  UNL     1     -35.005   5.419   5.372  1.00 20.00     0.020 C 
HETATM    9  C8  UNL     1     -33.780   6.318   5.501  1.00 20.00     0.082 C 
HETATM   10  C6  UNL     1     -33.368   6.919   4.151  1.00 20.00     0.024 C 
HETATM   11 CL11 UNL     1     -34.082   7.618   6.688  1.00 20.00    -0.125 Cl
ENDBRANCH   4   5
ENDBRANCH   3   4
TORSDOF 2
ENDMDL
MODEL 2
REMARK VINA RESULT:      -4.6     11.399     12.218
REMARK  2 active torsions:
REMARK  status: ('A' for Active; 'I' for Inactive)
REMARK    1  A    between atoms: C7_7  and  C10_10 
REMARK    2  A    between atoms: C9_9  and  C10_10 
ROOT
HETATM    1  C1  UNL     1     -31.131  18.476  -0.061  1.00 20.00     0.012 C 
HETATM    2  C2  UNL     1     -31.796  18.276  -1.040  1.00 20.00    -0.117 C 
HETATM    3  C9  UNL     1     -32.606  18.032  -2.241  1.00 20.00     0.093 C 
ENDROOT
BRANCH   3   4
HETATM    4  C10 UNL     1     -33.654  16.972  -1.957  1.00 20.00     0.017 C 
BRANCH   4   5
HETATM    5  C7  UNL     1     -34.163  16.353  -3.258  1.00 20.00    -0.012 C 
HETATM    6  C4  UNL     1     -33.159  15.349  -3.826  1.00 20.00     0.005 C 
HETATM    7  C3  UNL     1     -33.606  14.810  -5.188  1.00 20.00     0.002 C 
HETATM    8  C5  UNL     1     -35.126  14.726  -5.349  1.00 20.00     0.020 C 
HETATM    9  C8  UNL     1     -35.818  14.536  -4.004  1.00 20.00     0.082 C 
HETATM   10  C6  UNL     1     -35.550  15.711  -3.053  1.00 20.00     0.024 C 
HETATM   11 CL11 UNL     1     -37.575  14.316  -4.229  1.00 20.00    -0.125 Cl
ENDBRANCH   4   5
ENDBRANCH   3   4
TORSDOF 2
ENDMDL
MODEL 3
REMARK VINA RESULT:      -4.6     11.303     12.427
REMARK  2 active torsions:
REMARK  status: ('A' for Active; 'I' for Inactive)
REMARK    1  A    between atoms: C7_7  and  C10_10 
REMARK    2  A    between atoms: C9_9  and  C10_10 
ROOT
HETATM    1  C1  UNL     1     -32.202  18.173   2.227  1.00 20.00     0.012 C 
HETATM    2  C2  UNL     1     -31.667  18.301   1.160  1.00 20.00    -0.117 C 
HETATM    3  C9  UNL     1     -31.010  18.455  -0.145  1.00 20.00     0.093 C 
ENDROOT
BRANCH   3   4
HETATM    4  C10 UNL     1     -32.034  18.811  -1.207  1.00 20.00     0.017 C 
BRANCH   4   5
HETATM    5  C7  UNL     1     -33.065  17.694  -1.360  1.00 20.00    -0.012 C 
HETATM    6  C4  UNL     1     -34.491  18.249  -1.354  1.00 20.00     0.005 C 
HETATM    7  C3  UNL     1     -35.535  17.129  -1.389  1.00 20.00     0.002 C 
HETATM    8  C5  UNL     1     -35.076  15.882  -2.149  1.00 20.00     0.020 C 
HETATM    9  C8  UNL     1     -34.054  16.232  -3.225  1.00 20.00     0.082 C 
HETATM   10  C6  UNL     1     -32.789  16.863  -2.628  1.00 20.00     0.024 C 
HETATM   11 CL11 UNL     1     -33.629  14.784  -4.179  1.00 20.00    -0.125 Cl
ENDBRANCH   4   5
ENDBRANCH   3   4
TORSDOF 2
ENDMDL
MODEL 4
REMARK VINA RESULT:      -4.5     10.938     11.919
REMARK  2 active torsions:
REMARK  status: ('A' for Active; 'I' for Inactive)
REMARK    1  A    between atoms: C7_7  and  C10_10 
REMARK    2  A    between atoms: C9_9  and  C10_10 
ROOT
HETATM    1  C1  UNL     1     -36.273  13.680  -4.525  1.00 20.00     0.012 C 
HETATM    2  C2  UNL     1     -35.158  14.058  -4.288  1.00 20.00    -0.117 C 
HETATM    3  C9  UNL     1     -33.793  14.517  -3.999  1.00 20.00     0.093 C 
ENDROOT
BRANCH   3   4
HETATM    4  C10 UNL     1     -33.728  16.031  -4.058  1.00 20.00     0.017 C 
BRANCH   4   5
HETATM    5  C7  UNL     1     -33.380  16.611  -2.688  1.00 20.00    -0.012 C 
HETATM    6  C4  UNL     1     -32.803  18.023  -2.812  1.00 20.00     0.005 C 
HETATM    7  C3  UNL     1     -32.342  18.567  -1.457  1.00 20.00     0.002 C 
HETATM    8  C5  UNL     1     -33.165  18.051  -0.273  1.00 20.00     0.020 C 
HETATM    9  C8  UNL     1     -34.586  17.697  -0.698  1.00 20.00     0.082 C 
HETATM   10  C6  UNL     1     -34.607  16.584  -1.754  1.00 20.00     0.024 C 
HETATM   11 CL11 UNL     1     -35.561  17.218   0.720  1.00 20.00    -0.125 Cl
ENDBRANCH   4   5
ENDBRANCH   3   4
TORSDOF 2
ENDMDL
MODEL 5
REMARK VINA RESULT:      -4.5     11.222     12.007
REMARK  2 active torsions:
REMARK  status: ('A' for Active; 'I' for Inactive)
REMARK    1  A    between atoms: C7_7  and  C10_10 
REMARK    2  A    between atoms: C9_9  and  C10_10 
ROOT
HETATM    1  C1  UNL     1     -34.111  15.101  -6.924  1.00 20.00     0.012 C 
HETATM    2  C2  UNL     1     -33.878  14.874  -5.769  1.00 20.00    -0.117 C 
HETATM    3  C9  UNL     1     -33.588  14.596  -4.356  1.00 20.00     0.093 C 
ENDROOT
BRANCH   3   4
HETATM    4  C10 UNL     1     -34.675  15.181  -3.474  1.00 20.00     0.017 C 
BRANCH   4   5
HETATM    5  C7  UNL     1     -34.070  16.052  -2.375  1.00 20.00    -0.012 C 
HETATM    6  C4  UNL     1     -33.211  17.173  -2.963  1.00 20.00     0.005 C 
HETATM    7  C3  UNL     1     -32.506  17.980  -1.868  1.00 20.00     0.002 C 
HETATM    8  C5  UNL     1     -33.297  18.066  -0.560  1.00 20.00     0.020 C 
HETATM    9  C8  UNL     1     -34.797  17.953  -0.809  1.00 20.00     0.082 C 
HETATM   10  C6  UNL     1     -35.170  16.609  -1.449  1.00 20.00     0.024 C 
HETATM   11 CL11 UNL     1     -35.702  18.182   0.713  1.00 20.00    -0.125 Cl
ENDBRANCH   4   5
ENDBRANCH   3   4
TORSDOF 2
ENDMDL
MODEL 6
REMARK VINA RESULT:      -4.5     11.501     12.867
REMARK  2 active torsions:
REMARK  status: ('A' for Active; 'I' for Inactive)
REMARK    1  A    between atoms: C7_7  and  C10_10 
REMARK    2  A    between atoms: C9_9  and  C10_10 
ROOT
HETATM    1  C1  UNL     1     -30.811  18.392   0.473  1.00 20.00     0.012 C 
HETATM    2  C2  UNL     1     -31.437  18.399  -0.551  1.00 20.00    -0.117 C 
HETATM    3  C9  UNL     1     -32.200  18.408  -1.806  1.00 20.00     0.093 C 
ENDROOT
BRANCH   3   4
HETATM    4  C10 UNL     1     -33.443  17.549  -1.669  1.00 20.00     0.017 C 
BRANCH   4   5
HETATM    5  C7  UNL     1     -33.583  16.606  -2.862  1.00 20.00    -0.012 C 
HETATM    6  C4  UNL     1     -34.665  15.552  -2.613  1.00 20.00     0.005 C 
HETATM    7  C3  UNL     1     -34.732  14.531  -3.753  1.00 20.00     0.002 C 
HETATM    8  C5  UNL     1     -34.359  15.107  -5.121  1.00 20.00     0.020 C 
HETATM    9  C8  UNL     1     -34.657  16.601  -5.194  1.00 20.00     0.082 C 
HETATM   10  C6  UNL     1     -33.852  17.396  -4.158  1.00 20.00     0.024 C 
HETATM   11 CL11 UNL     1     -34.332  17.224  -6.836  1.00 20.00    -0.125 Cl
ENDBRANCH   4   5
ENDBRANCH   3   4
TORSDOF 2
ENDMDL
MODEL 7
REMARK VINA RESULT:      -4.5     11.744     12.478
REMARK  2 active torsions:
REMARK  status: ('A' for Active; 'I' for Inactive)
REMARK    1  A    between atoms: C7_7  and  C10_10 
REMARK    2  A    between atoms: C9_9  and  C10_10 
ROOT
HETATM    1  C1  UNL     1     -31.736  18.311  -0.697  1.00 20.00     0.012 C 
HETATM    2  C2  UNL     1     -32.334  17.816  -1.612  1.00 20.00    -0.117 C 
HETATM    3  C9  UNL     1     -33.063  17.209  -2.733  1.00 20.00     0.093 C 
ENDROOT
BRANCH   3   4
HETATM    4  C10 UNL     1     -34.199  16.348  -2.214  1.00 20.00     0.017 C 
BRANCH   4   5
HETATM    5  C7  UNL     1     -34.696  15.396  -3.300  1.00 20.00    -0.012 C 
HETATM    6  C4  UNL     1     -36.218  15.460  -3.441  1.00 20.00     0.005 C 
HETATM    7  C3  UNL     1     -36.738  14.426  -4.444  1.00 20.00     0.002 C 
HETATM    8  C5  UNL     1     -35.758  14.122  -5.580  1.00 20.00     0.020 C 
HETATM    9  C8  UNL     1     -34.848  15.312  -5.862  1.00 20.00     0.082 C 
HETATM   10  C6  UNL     1     -33.992  15.679  -4.642  1.00 20.00     0.024 C 
HETATM   11 CL11 UNL     1     -33.801  14.980  -7.270  1.00 20.00    -0.125 Cl
ENDBRANCH   4   5
ENDBRANCH   3   4
TORSDOF 2
ENDMDL
MODEL 8
REMARK VINA RESULT:      -4.4     11.250     12.087
REMARK  2 active torsions:
REMARK  status: ('A' for Active; 'I' for Inactive)
REMARK    1  A    between atoms: C7_7  and  C10_10 
REMARK    2  A    between atoms: C9_9  and  C10_10 
ROOT
HETATM    1  C1  UNL     1     -33.368  15.193  -3.844  1.00 20.00     0.012 C 
HETATM    2  C2  UNL     1     -34.126  15.653  -3.035  1.00 20.00    -0.117 C 
HETATM    3  C9  UNL     1     -35.054  16.213  -2.044  1.00 20.00     0.093 C 
ENDROOT
BRANCH   3   4
HETATM    4  C10 UNL     1     -34.659  17.638  -1.704  1.00 20.00     0.017 C 
BRANCH   4   5
HETATM    5  C7  UNL     1     -33.501  17.655  -0.708  1.00 20.00    -0.012 C 
HETATM    6  C4  UNL     1     -32.343  18.515  -1.218  1.00 20.00     0.005 C 
HETATM    7  C3  UNL     1     -31.132  18.445  -0.282  1.00 20.00     0.002 C 
HETATM    8  C5  UNL     1     -31.501  18.243   1.190  1.00 20.00     0.020 C 
HETATM    9  C8  UNL     1     -32.881  18.811   1.500  1.00 20.00     0.082 C 
HETATM   10  C6  UNL     1     -33.980  18.120   0.681  1.00 20.00     0.024 C 
HETATM   11 CL11 UNL     1     -33.236  18.676   3.244  1.00 20.00    -0.125 Cl
ENDBRANCH   4   5
ENDBRANCH   3   4
TORSDOF 2
ENDMDL
MODEL 9
REMARK VINA RESULT:      -4.4     11.317     12.236
REMARK  2 active torsions:
REMARK  status: ('A' for Active; 'I' for Inactive)
REMARK    1  A    between atoms: C7_7  and  C10_10 
REMARK    2  A    between atoms: C9_9  and  C10_10 
ROOT
HETATM    1  C1  UNL     1     -33.459  14.548  -4.235  1.00 20.00     0.012 C 
HETATM    2  C2  UNL     1     -33.695  15.411  -3.436  1.00 20.00    -0.117 C 
HETATM    3  C9  UNL     1     -33.987  16.466  -2.455  1.00 20.00     0.093 C 
ENDROOT
BRANCH   3   4
HETATM    4  C10 UNL     1     -32.897  17.521  -2.483  1.00 20.00     0.017 C 
BRANCH   4   5
HETATM    5  C7  UNL     1     -32.874  18.310  -1.175  1.00 20.00    -0.012 C 
HETATM    6  C4  UNL     1     -33.976  17.840  -0.224  1.00 20.00     0.005 C 
HETATM    7  C3  UNL     1     -34.037  18.702   1.041  1.00 20.00     0.002 C 
HETATM    8  C5  UNL     1     -32.678  19.263   1.471  1.00 20.00     0.020 C 
HETATM    9  C8  UNL     1     -31.536  18.361   1.016  1.00 20.00     0.082 C 
HETATM   10  C6  UNL     1     -31.485  18.231  -0.512  1.00 20.00     0.024 C 
HETATM   11 CL11 UNL     1     -29.976  18.968   1.635  1.00 20.00    -0.125 Cl
ENDBRANCH   4   5
ENDBRANCH   3   4
TORSDOF 2
ENDMDL
