MODEL 1
REMARK VINA RESULT:      -4.9      0.000      0.000
REMARK  1 active torsions:
REMARK  status: ('A' for Active; 'I' for Inactive)
REMARK    1  A    between atoms: C7_7  and  C9_9 
ROOT
HETATM    1  C1  UNL     1     -33.268   8.444  -0.046  1.00 20.00     0.012 C 
HETATM    2  C2  UNL     1     -32.778   8.327   1.044  1.00 20.00    -0.117 C 
HETATM    3  C9  UNL     1     -32.175   8.195   2.373  1.00 20.00     0.097 C 
ENDROOT
BRANCH   3   4
HETATM    4  C7  UNL     1     -32.509   6.840   2.994  1.00 20.00    -0.002 C 
HETATM    5  C4  UNL     1     -33.132   5.904   1.950  1.00 20.00     0.005 C 
HETATM    6  C3  UNL     1     -33.522   4.559   2.559  1.00 20.00     0.002 C 
HETATM    7  C5  UNL     1     -34.444   4.732   3.763  1.00 20.00     0.020 C 
HETATM    8  C8  UNL     1     -33.821   5.659   4.807  1.00 20.00     0.082 C 
HETATM    9  C6  UNL     1     -33.442   7.012   4.202  1.00 20.00     0.025 C 
HETATM   10 CL10 UNL     1     -34.960   5.897   6.162  1.00 20.00    -0.125 Cl
ENDBRANCH   3   4
TORSDOF 1
ENDMDL
MODEL 2
REMARK VINA RESULT:      -4.8     10.910     11.647
REMARK  1 active torsions:
REMARK  status: ('A' for Active; 'I' for Inactive)
REMARK    1  A    between atoms: C7_7  and  C9_9 
ROOT
HETATM    1  C1  UNL     1     -31.668  18.353  -0.781  1.00 20.00     0.012 C 
HETATM    2  C2  UNL     1     -32.768  18.017  -1.124  1.00 20.00    -0.117 C 
HETATM    3  C9  UNL     1     -34.115  17.616  -1.538  1.00 20.00     0.097 C 
ENDROOT
BRANCH   3   4
HETATM    4  C7  UNL     1     -34.088  16.272  -2.265  1.00 20.00    -0.002 C 
HETATM    5  C4  UNL     1     -33.037  16.282  -3.382  1.00 20.00     0.005 C 
HETATM    6  C3  UNL     1     -33.026  14.966  -4.158  1.00 20.00     0.002 C 
HETATM    7  C5  UNL     1     -34.408  14.624  -4.707  1.00 20.00     0.020 C 
HETATM    8  C8  UNL     1     -35.455  14.608  -3.594  1.00 20.00     0.082 C 
HETATM    9  C6  UNL     1     -35.478  15.930  -2.824  1.00 20.00     0.025 C 
HETATM   10 CL10 UNL     1     -37.070  14.281  -4.285  1.00 20.00    -0.125 Cl
ENDBRANCH   3   4
TORSDOF 1
ENDMDL
MODEL 3
REMARK VINA RESULT:      -4.8     10.919     11.487
REMARK  1 active torsions:
REMARK  status: ('A' for Active; 'I' for Inactive)
REMARK    1  A    between atoms: C7_7  and  C9_9 
ROOT
HETATM    1  C1  UNL     1     -35.559  17.270   0.695  1.00 20.00     0.012 C 
HETATM    2  C2  UNL     1     -34.917  17.342  -0.317  1.00 20.00    -0.117 C 
HETATM    3  C9  UNL     1     -34.131  17.440  -1.550  1.00 20.00     0.097 C 
ENDROOT
BRANCH   3   4
HETATM    4  C7  UNL     1     -34.141  16.117  -2.314  1.00 20.00    -0.002 C 
HETATM    5  C4  UNL     1     -33.097  16.132  -3.438  1.00 20.00     0.005 C 
HETATM    6  C3  UNL     1     -33.123  14.838  -4.250  1.00 20.00     0.002 C 
HETATM    7  C5  UNL     1     -34.517  14.544  -4.797  1.00 20.00     0.020 C 
HETATM    8  C8  UNL     1     -35.556  14.522  -3.677  1.00 20.00     0.082 C 
HETATM    9  C6  UNL     1     -35.542  15.823  -2.871  1.00 20.00     0.025 C 
HETATM   10 CL10 UNL     1     -37.183  14.252  -4.364  1.00 20.00    -0.125 Cl
ENDBRANCH   3   4
TORSDOF 1
ENDMDL
MODEL 4
REMARK VINA RESULT:      -4.7     10.793     11.587
REMARK  1 active torsions:
REMARK  status: ('A' for Active; 'I' for Inactive)
REMARK    1  A    between atoms: C7_7  and  C9_9 
ROOT
HETATM    1  C1  UNL     1     -36.804  14.008  -4.522  1.00 20.00     0.012 C 
HETATM    2  C2  UNL     1     -35.692  14.320  -4.194  1.00 20.00    -0.117 C 
HETATM    3  C9  UNL     1     -34.331  14.690  -3.796  1.00 20.00     0.097 C 
ENDROOT
BRANCH   3   4
HETATM    4  C7  UNL     1     -34.307  16.073  -3.148  1.00 20.00    -0.002 C 
HETATM    5  C4  UNL     1     -32.864  16.571  -2.988  1.00 20.00     0.005 C 
HETATM    6  C3  UNL     1     -32.810  17.931  -2.294  1.00 20.00     0.002 C 
HETATM    7  C5  UNL     1     -33.536  17.908  -0.952  1.00 20.00     0.020 C 
HETATM    8  C8  UNL     1     -34.975  17.418  -1.111  1.00 20.00     0.082 C 
HETATM    9  C6  UNL     1     -35.031  16.049  -1.793  1.00 20.00     0.025 C 
HETATM   10 CL10 UNL     1     -35.766  17.331   0.489  1.00 20.00    -0.125 Cl
ENDBRANCH   3   4
TORSDOF 1
ENDMDL
MODEL 5
REMARK VINA RESULT:      -4.6     15.804     16.243
REMARK  1 active torsions:
REMARK  status: ('A' for Active; 'I' for Inactive)
REMARK    1  A    between atoms: C7_7  and  C9_9 
ROOT
HETATM    1  C1  UNL     1     -21.337  17.061   7.706  1.00 20.00     0.012 C 
HETATM    2  C2  UNL     1     -22.268  17.706   8.103  1.00 20.00    -0.117 C 
HETATM    3  C9  UNL     1     -23.405  18.500   8.578  1.00 20.00     0.097 C 
ENDROOT
BRANCH   3   4
HETATM    4  C7  UNL     1     -23.791  18.107  10.003  1.00 20.00    -0.002 C 
HETATM    5  C4  UNL     1     -23.737  16.583  10.178  1.00 20.00     0.005 C 
HETATM    6  C3  UNL     1     -24.169  16.160  11.581  1.00 20.00     0.002 C 
HETATM    7  C5  UNL     1     -25.550  16.706  11.933  1.00 20.00     0.020 C 
HETATM    8  C8  UNL     1     -25.603  18.224  11.765  1.00 20.00     0.082 C 
HETATM    9  C6  UNL     1     -25.184  18.650  10.357  1.00 20.00     0.025 C 
HETATM   10 CL10 UNL     1     -27.253  18.815  12.112  1.00 20.00    -0.125 Cl
ENDBRANCH   3   4
TORSDOF 1
ENDMDL
MODEL 6
REMARK VINA RESULT:      -4.4     11.385     12.165
REMARK  1 active torsions:
REMARK  status: ('A' for Active; 'I' for Inactive)
REMARK    1  A    between atoms: C7_7  and  C9_9 
ROOT
HETATM    1  C1  UNL     1     -35.065  16.100  -6.523  1.00 20.00     0.012 C 
HETATM    2  C2  UNL     1     -34.414  15.496  -5.715  1.00 20.00    -0.117 C 
HETATM    3  C9  UNL     1     -33.616  14.751  -4.737  1.00 20.00     0.097 C 
ENDROOT
BRANCH   3   4
HETATM    4  C7  UNL     1     -33.663  15.423  -3.366  1.00 20.00    -0.002 C 
HETATM    5  C4  UNL     1     -35.113  15.582  -2.890  1.00 20.00     0.005 C 
HETATM    6  C3  UNL     1     -35.190  16.299  -1.543  1.00 20.00     0.002 C 
HETATM    7  C5  UNL     1     -34.471  17.644  -1.579  1.00 20.00     0.020 C 
HETATM    8  C8  UNL     1     -33.025  17.486  -2.047  1.00 20.00     0.082 C 
HETATM    9  C6  UNL     1     -32.946  16.781  -3.403  1.00 20.00     0.025 C 
HETATM   10 CL10 UNL     1     -32.242  19.088  -2.150  1.00 20.00    -0.125 Cl
ENDBRANCH   3   4
TORSDOF 1
ENDMDL
MODEL 7
REMARK VINA RESULT:      -4.4     10.988     11.766
REMARK  1 active torsions:
REMARK  status: ('A' for Active; 'I' for Inactive)
REMARK    1  A    between atoms: C7_7  and  C9_9 
ROOT
HETATM    1  C1  UNL     1     -33.546  14.542  -4.385  1.00 20.00     0.012 C 
HETATM    2  C2  UNL     1     -34.272  15.059  -3.581  1.00 20.00    -0.117 C 
HETATM    3  C9  UNL     1     -35.166  15.682  -2.601  1.00 20.00     0.097 C 
ENDROOT
BRANCH   3   4
HETATM    4  C7  UNL     1     -34.552  16.960  -2.033  1.00 20.00    -0.002 C 
HETATM    5  C4  UNL     1     -33.034  16.977  -2.257  1.00 20.00     0.005 C 
HETATM    6  C3  UNL     1     -32.388  18.222  -1.651  1.00 20.00     0.002 C 
HETATM    7  C5  UNL     1     -32.728  18.369  -0.171  1.00 20.00     0.020 C 
HETATM    8  C8  UNL     1     -34.240  18.358   0.053  1.00 20.00     0.082 C 
HETATM    9  C6  UNL     1     -34.887  17.105  -0.541  1.00 20.00     0.025 C 
HETATM   10 CL10 UNL     1     -34.594  18.454   1.801  1.00 20.00    -0.125 Cl
ENDBRANCH   3   4
TORSDOF 1
ENDMDL
MODEL 8
REMARK VINA RESULT:      -4.4     11.029     12.196
REMARK  1 active torsions:
REMARK  status: ('A' for Active; 'I' for Inactive)
REMARK    1  A    between atoms: C7_7  and  C9_9 
ROOT
HETATM    1  C1  UNL     1     -31.066  18.133   0.850  1.00 20.00     0.012 C 
HETATM    2  C2  UNL     1     -31.434  18.498  -0.233  1.00 20.00    -0.117 C 
HETATM    3  C9  UNL     1     -31.874  18.952  -1.555  1.00 20.00     0.097 C 
ENDROOT
BRANCH   3   4
HETATM    4  C7  UNL     1     -33.165  18.250  -1.974  1.00 20.00    -0.002 C 
HETATM    5  C4  UNL     1     -34.024  17.917  -0.746  1.00 20.00     0.005 C 
HETATM    6  C3  UNL     1     -35.297  17.168  -1.134  1.00 20.00     0.002 C 
HETATM    7  C5  UNL     1     -34.987  15.913  -1.945  1.00 20.00     0.020 C 
HETATM    8  C8  UNL     1     -34.138  16.244  -3.172  1.00 20.00     0.082 C 
HETATM    9  C6  UNL     1     -32.854  16.983  -2.785  1.00 20.00     0.025 C 
HETATM   10 CL10 UNL     1     -33.732  14.743  -4.051  1.00 20.00    -0.125 Cl
ENDBRANCH   3   4
TORSDOF 1
ENDMDL
MODEL 9
REMARK VINA RESULT:      -4.4     11.265     12.029
REMARK  1 active torsions:
REMARK  status: ('A' for Active; 'I' for Inactive)
REMARK    1  A    between atoms: C7_7  and  C9_9 
ROOT
HETATM    1  C1  UNL     1     -30.625  18.644   1.153  1.00 20.00     0.012 C 
HETATM    2  C2  UNL     1     -31.154  18.598   0.076  1.00 20.00    -0.117 C 
HETATM    3  C9  UNL     1     -31.792  18.550  -1.242  1.00 20.00     0.097 C 
ENDROOT
BRANCH   3   4
HETATM    4  C7  UNL     1     -32.891  17.489  -1.280  1.00 20.00    -0.002 C 
HETATM    5  C4  UNL     1     -33.040  16.914  -2.695  1.00 20.00     0.005 C 
HETATM    6  C3  UNL     1     -34.168  15.887  -2.771  1.00 20.00     0.002 C 
HETATM    7  C5  UNL     1     -35.489  16.463  -2.269  1.00 20.00     0.020 C 
HETATM    8  C8  UNL     1     -35.343  17.030  -0.857  1.00 20.00     0.082 C 
HETATM    9  C6  UNL     1     -34.223  18.069  -0.781  1.00 20.00     0.025 C 
HETATM   10 CL10 UNL     1     -36.887  17.763  -0.336  1.00 20.00    -0.125 Cl
ENDBRANCH   3   4
TORSDOF 1
ENDMDL
