MODEL 1
REMARK VINA RESULT:      -4.1      0.000      0.000
REMARK  1 active torsions:
REMARK  status: ('A' for Active; 'I' for Inactive)
REMARK    1  A    between atoms: C6_6  and  C7_7 
ROOT
HETATM    1  C1  UNL     1     -36.132  13.752  -4.537  1.00 20.00     0.002 C 
HETATM    2  C2  UNL     1     -34.730  13.734  -3.919  1.00 20.00     0.006 C 
HETATM    3  C5  UNL     1     -36.060  14.678  -5.752  1.00 20.00     0.020 C 
HETATM    4  C7  UNL     1     -33.995  14.937  -4.525  1.00 20.00     0.008 C 
HETATM    5  C8  UNL     1     -34.573  14.954  -5.944  1.00 20.00     0.086 C 
HETATM    6 CL9  UNL     1     -34.272  16.436  -6.865  1.00 20.00    -0.125 Cl
ENDROOT
BRANCH   4   7
HETATM    7  C6  UNL     1     -34.236  16.187  -3.715  1.00 20.00    -0.009 A 
HETATM    8  C3  UNL     1     -34.511  16.092  -2.240  1.00 20.00     0.005 A 
HETATM    9  C4  UNL     1     -33.206  16.658  -2.728  1.00 20.00     0.005 A 
ENDBRANCH   4   7
TORSDOF 1
ENDMDL
MODEL 2
REMARK VINA RESULT:      -4.1     17.493     18.478
REMARK  1 active torsions:
REMARK  status: ('A' for Active; 'I' for Inactive)
REMARK    1  A    between atoms: C6_6  and  C7_7 
ROOT
HETATM    1  C1  UNL     1     -21.771  17.371   9.092  1.00 20.00     0.002 C 
HETATM    2  C2  UNL     1     -22.138  17.723  10.537  1.00 20.00     0.006 C 
HETATM    3  C5  UNL     1     -22.883  17.940   8.209  1.00 20.00     0.020 C 
HETATM    4  C7  UNL     1     -23.620  18.118  10.504  1.00 20.00     0.008 C 
HETATM    5  C8  UNL     1     -23.711  18.817   9.143  1.00 20.00     0.086 C 
HETATM    6 CL9  UNL     1     -25.353  19.088   8.540  1.00 20.00    -0.125 Cl
ENDROOT
BRANCH   4   7
HETATM    7  C6  UNL     1     -24.509  16.911  10.669  1.00 20.00    -0.009 A 
HETATM    8  C3  UNL     1     -24.213  15.893  11.736  1.00 20.00     0.005 A 
HETATM    9  C4  UNL     1     -25.410  16.794  11.867  1.00 20.00     0.005 A 
ENDBRANCH   4   7
TORSDOF 1
ENDMDL
MODEL 3
REMARK VINA RESULT:      -3.8      1.752      3.559
REMARK  1 active torsions:
REMARK  status: ('A' for Active; 'I' for Inactive)
REMARK    1  A    between atoms: C6_6  and  C7_7 
ROOT
HETATM    1  C1  UNL     1     -33.550  16.058  -2.988  1.00 20.00     0.002 C 
HETATM    2  C2  UNL     1     -33.035  15.096  -4.063  1.00 20.00     0.006 C 
HETATM    3  C5  UNL     1     -35.048  15.787  -2.843  1.00 20.00     0.020 C 
HETATM    4  C7  UNL     1     -34.284  14.587  -4.796  1.00 20.00     0.008 C 
HETATM    5  C8  UNL     1     -35.293  14.513  -3.645  1.00 20.00     0.086 C 
HETATM    6 CL9  UNL     1     -36.985  14.334  -4.135  1.00 20.00    -0.125 Cl
ENDROOT
BRANCH   4   7
HETATM    7  C6  UNL     1     -34.663  15.506  -5.929  1.00 20.00    -0.009 A 
HETATM    8  C3  UNL     1     -34.024  15.346  -7.281  1.00 20.00     0.005 A 
HETATM    9  C4  UNL     1     -35.471  14.988  -7.085  1.00 20.00     0.005 A 
ENDBRANCH   4   7
TORSDOF 1
ENDMDL
MODEL 4
REMARK VINA RESULT:      -3.8     11.915     13.046
REMARK  1 active torsions:
REMARK  status: ('A' for Active; 'I' for Inactive)
REMARK    1  A    between atoms: C6_6  and  C7_7 
ROOT
HETATM    1  C1  UNL     1     -34.939   4.462   4.928  1.00 20.00     0.002 C 
HETATM    2  C2  UNL     1     -35.222   5.493   3.831  1.00 20.00     0.006 C 
HETATM    3  C5  UNL     1     -34.214   5.208   6.049  1.00 20.00     0.020 C 
HETATM    4  C7  UNL     1     -34.317   6.692   4.145  1.00 20.00     0.008 C 
HETATM    5  C8  UNL     1     -34.333   6.682   5.677  1.00 20.00     0.086 C 
HETATM    6 CL9  UNL     1     -33.092   7.680   6.452  1.00 20.00    -0.125 Cl
ENDROOT
BRANCH   4   7
HETATM    7  C6  UNL     1     -32.957   6.528   3.513  1.00 20.00    -0.009 A 
HETATM    8  C3  UNL     1     -32.800   5.724   2.252  1.00 20.00     0.005 A 
HETATM    9  C4  UNL     1     -32.638   7.218   2.217  1.00 20.00     0.005 A 
ENDBRANCH   4   7
TORSDOF 1
ENDMDL
MODEL 5
REMARK VINA RESULT:      -3.7      1.896      2.506
REMARK  1 active torsions:
REMARK  status: ('A' for Active; 'I' for Inactive)
REMARK    1  A    between atoms: C6_6  and  C7_7 
ROOT
HETATM    1  C1  UNL     1     -34.466  15.285  -6.720  1.00 20.00     0.002 C 
HETATM    2  C2  UNL     1     -34.482  16.524  -5.818  1.00 20.00     0.006 C 
HETATM    3  C5  UNL     1     -35.686  14.448  -6.332  1.00 20.00     0.020 C 
HETATM    4  C7  UNL     1     -35.450  16.190  -4.675  1.00 20.00     0.008 C 
HETATM    5  C8  UNL     1     -36.500  15.349  -5.409  1.00 20.00     0.086 C 
HETATM    6 CL9  UNL     1     -37.600  14.435  -4.366  1.00 20.00    -0.125 Cl
ENDROOT
BRANCH   4   7
HETATM    7  C6  UNL     1     -34.737  15.490  -3.545  1.00 20.00    -0.009 A 
HETATM    8  C3  UNL     1     -33.513  16.105  -2.925  1.00 20.00     0.005 A 
HETATM    9  C4  UNL     1     -34.801  16.045  -2.150  1.00 20.00     0.005 A 
ENDBRANCH   4   7
TORSDOF 1
ENDMDL
MODEL 6
REMARK VINA RESULT:      -3.7      2.842      4.738
REMARK  1 active torsions:
REMARK  status: ('A' for Active; 'I' for Inactive)
REMARK    1  A    between atoms: C6_6  and  C7_7 
ROOT
HETATM    1  C1  UNL     1     -35.638  17.416   0.181  1.00 20.00     0.002 C 
HETATM    2  C2  UNL     1     -35.961  17.478  -1.315  1.00 20.00     0.006 C 
HETATM    3  C5  UNL     1     -34.162  17.788   0.324  1.00 20.00     0.020 C 
HETATM    4  C7  UNL     1     -34.604  17.482  -2.031  1.00 20.00     0.008 C 
HETATM    5  C8  UNL     1     -33.754  18.300  -1.053  1.00 20.00     0.086 C 
HETATM    6 CL9  UNL     1     -32.005  18.215  -1.318  1.00 20.00    -0.125 Cl
ENDROOT
BRANCH   4   7
HETATM    7  C6  UNL     1     -34.120  16.076  -2.288  1.00 20.00    -0.009 A 
HETATM    8  C3  UNL     1     -34.819  15.207  -3.296  1.00 20.00     0.005 A 
HETATM    9  C4  UNL     1     -33.441  15.735  -3.584  1.00 20.00     0.005 A 
ENDBRANCH   4   7
TORSDOF 1
ENDMDL
MODEL 7
REMARK VINA RESULT:      -3.7      2.250      3.688
REMARK  1 active torsions:
REMARK  status: ('A' for Active; 'I' for Inactive)
REMARK    1  A    between atoms: C6_6  and  C7_7 
ROOT
HETATM    1  C1  UNL     1     -33.221  15.106  -4.047  1.00 20.00     0.002 C 
HETATM    2  C2  UNL     1     -34.501  14.266  -3.995  1.00 20.00     0.006 C 
HETATM    3  C5  UNL     1     -33.405  16.242  -3.040  1.00 20.00     0.020 C 
HETATM    4  C7  UNL     1     -35.541  15.140  -3.283  1.00 20.00     0.008 C 
HETATM    5  C8  UNL     1     -34.664  15.874  -2.262  1.00 20.00     0.086 C 
HETATM    6 CL9  UNL     1     -35.418  17.276  -1.488  1.00 20.00    -0.125 Cl
ENDROOT
BRANCH   4   7
HETATM    7  C6  UNL     1     -36.271  16.025  -4.262  1.00 20.00    -0.009 A 
HETATM    8  C3  UNL     1     -36.588  15.526  -5.644  1.00 20.00     0.005 A 
HETATM    9  C4  UNL     1     -37.692  15.721  -4.643  1.00 20.00     0.005 A 
ENDBRANCH   4   7
TORSDOF 1
ENDMDL
MODEL 8
REMARK VINA RESULT:      -3.5      1.467      1.813
REMARK  1 active torsions:
REMARK  status: ('A' for Active; 'I' for Inactive)
REMARK    1  A    between atoms: C6_6  and  C7_7 
ROOT
HETATM    1  C1  UNL     1     -36.231  14.837  -5.536  1.00 20.00     0.002 C 
HETATM    2  C2  UNL     1     -36.455  14.571  -4.044  1.00 20.00     0.006 C 
HETATM    3  C5  UNL     1     -34.718  14.819  -5.759  1.00 20.00     0.020 C 
HETATM    4  C7  UNL     1     -35.096  14.808  -3.373  1.00 20.00     0.008 C 
HETATM    5  C8  UNL     1     -34.138  14.292  -4.451  1.00 20.00     0.086 C 
HETATM    6 CL9  UNL     1     -32.439  14.742  -4.233  1.00 20.00    -0.125 Cl
ENDROOT
BRANCH   4   7
HETATM    7  C6  UNL     1     -34.920  16.258  -2.995  1.00 20.00    -0.009 A 
HETATM    8  C3  UNL     1     -35.290  16.732  -1.616  1.00 20.00     0.005 A 
HETATM    9  C4  UNL     1     -33.845  16.662  -2.026  1.00 20.00     0.005 A 
ENDBRANCH   4   7
TORSDOF 1
ENDMDL
MODEL 9
REMARK VINA RESULT:      -3.5      1.730      2.454
REMARK  1 active torsions:
REMARK  status: ('A' for Active; 'I' for Inactive)
REMARK    1  A    between atoms: C6_6  and  C7_7 
ROOT
HETATM    1  C1  UNL     1     -36.114  16.392  -3.954  1.00 20.00     0.002 C 
HETATM    2  C2  UNL     1     -35.587  16.406  -2.515  1.00 20.00     0.006 C 
HETATM    3  C5  UNL     1     -35.143  15.532  -4.764  1.00 20.00     0.020 C 
HETATM    4  C7  UNL     1     -34.137  15.911  -2.600  1.00 20.00     0.008 C 
HETATM    5  C8  UNL     1     -34.242  14.875  -3.724  1.00 20.00     0.086 C 
HETATM    6 CL9  UNL     1     -32.699  14.338  -4.404  1.00 20.00    -0.125 Cl
ENDROOT
BRANCH   4   7
HETATM    7  C6  UNL     1     -33.187  17.053  -2.862  1.00 20.00    -0.009 A 
HETATM    8  C3  UNL     1     -33.581  18.462  -2.514  1.00 20.00     0.005 A 
HETATM    9  C4  UNL     1     -32.518  17.758  -1.716  1.00 20.00     0.005 A 
ENDBRANCH   4   7
TORSDOF 1
ENDMDL
