MODEL 1
REMARK VINA RESULT:      -5.0      0.000      0.000
REMARK  3 active torsions:
REMARK  status: ('A' for Active; 'I' for Inactive)
REMARK    1  A    between atoms: C4_4  and  C5_5 
REMARK    2  A    between atoms: C5_5  and  C6_6 
REMARK    3  A    between atoms: C6_6  and  C7_7 
ROOT
HETATM    1  C1  UNL     1     -33.947   6.372   5.450  1.00 20.00     0.033 C 
HETATM    2  C2  UNL     1     -34.996   5.299   5.656  1.00 20.00     0.168 C 
HETATM    3  C3  UNL     1     -34.078   5.027   3.532  1.00 20.00     0.172 C 
HETATM    4  C4  UNL     1     -33.913   6.480   3.941  1.00 20.00     0.011 C 
HETATM    5  O8  UNL     1     -34.916   4.418   4.526  1.00 20.00    -0.391 OA
ENDROOT
BRANCH   4   6
HETATM    6  C5  UNL     1     -32.658   7.131   3.393  1.00 20.00     0.008 C 
BRANCH   6   7
HETATM    7  C6  UNL     1     -32.623   7.092   1.863  1.00 20.00     0.015 C 
BRANCH   7   8
HETATM    8  C7  UNL     1     -32.580   8.497   1.277  1.00 20.00     0.114 C 
HETATM    9 CL9  UNL     1     -33.421   8.541  -0.290  1.00 20.00    -0.130 Cl
ENDBRANCH   7   8
ENDBRANCH   6   7
ENDBRANCH   4   6
TORSDOF 3
ENDMDL
MODEL 2
REMARK VINA RESULT:      -4.1     16.086     16.847
REMARK  3 active torsions:
REMARK  status: ('A' for Active; 'I' for Inactive)
REMARK    1  A    between atoms: C4_4  and  C5_5 
REMARK    2  A    between atoms: C5_5  and  C6_6 
REMARK    3  A    between atoms: C6_6  and  C7_7 
ROOT
HETATM    1  C1  UNL     1     -24.603  18.840   8.850  1.00 20.00     0.033 C 
HETATM    2  C2  UNL     1     -24.302  19.062   7.382  1.00 20.00     0.168 C 
HETATM    3  C3  UNL     1     -22.580  17.789   8.298  1.00 20.00     0.172 C 
HETATM    4  C4  UNL     1     -23.219  18.599   9.412  1.00 20.00     0.011 C 
HETATM    5  O8  UNL     1     -23.150  18.267   7.070  1.00 20.00    -0.391 OA
ENDROOT
BRANCH   4   6
HETATM    6  C5  UNL     1     -23.209  17.901  10.759  1.00 20.00     0.008 C 
BRANCH   6   7
HETATM    7  C6  UNL     1     -23.949  16.563  10.707  1.00 20.00     0.015 C 
BRANCH   7   8
HETATM    8  C7  UNL     1     -25.083  16.521  11.722  1.00 20.00     0.114 C 
HETATM    9 CL9  UNL     1     -25.434  18.156  12.328  1.00 20.00    -0.130 Cl
ENDBRANCH   7   8
ENDBRANCH   6   7
ENDBRANCH   4   6
TORSDOF 3
ENDMDL
MODEL 3
REMARK VINA RESULT:      -4.0     11.226     11.941
REMARK  3 active torsions:
REMARK  status: ('A' for Active; 'I' for Inactive)
REMARK    1  A    between atoms: C4_4  and  C5_5 
REMARK    2  A    between atoms: C5_5  and  C6_6 
REMARK    3  A    between atoms: C6_6  and  C7_7 
ROOT
HETATM    1  C1  UNL     1     -36.778  15.888  -4.968  1.00 20.00     0.033 C 
HETATM    2  C2  UNL     1     -38.048  15.129  -4.643  1.00 20.00     0.168 C 
HETATM    3  C3  UNL     1     -36.283  13.610  -4.704  1.00 20.00     0.172 C 
HETATM    4  C4  UNL     1     -35.919  14.799  -5.574  1.00 20.00     0.011 C 
HETATM    5  O8  UNL     1     -37.660  13.783  -4.334  1.00 20.00    -0.391 OA
ENDROOT
BRANCH   4   6
HETATM    6  C5  UNL     1     -34.436  15.115  -5.591  1.00 20.00     0.008 C 
BRANCH   6   7
HETATM    7  C6  UNL     1     -33.740  14.622  -4.320  1.00 20.00     0.015 C 
BRANCH   7   8
HETATM    8  C7  UNL     1     -33.337  15.787  -3.425  1.00 20.00     0.114 C 
HETATM    9 CL9  UNL     1     -34.545  16.031  -2.142  1.00 20.00    -0.130 Cl
ENDBRANCH   7   8
ENDBRANCH   6   7
ENDBRANCH   4   6
TORSDOF 3
ENDMDL
MODEL 4
REMARK VINA RESULT:      -4.0     10.595     11.367
REMARK  3 active torsions:
REMARK  status: ('A' for Active; 'I' for Inactive)
REMARK    1  A    between atoms: C4_4  and  C5_5 
REMARK    2  A    between atoms: C5_5  and  C6_6 
REMARK    3  A    between atoms: C6_6  and  C7_7 
ROOT
HETATM    1  C1  UNL     1     -36.371  15.093  -3.806  1.00 20.00     0.033 C 
HETATM    2  C2  UNL     1     -36.910  13.933  -4.616  1.00 20.00     0.168 C 
HETATM    3  C3  UNL     1     -34.731  13.423  -3.968  1.00 20.00     0.172 C 
HETATM    4  C4  UNL     1     -34.879  14.934  -4.000  1.00 20.00     0.011 C 
HETATM    5  O8  UNL     1     -35.932  12.886  -4.543  1.00 20.00    -0.391 OA
ENDROOT
BRANCH   4   6
HETATM    6  C5  UNL     1     -34.037  15.653  -2.963  1.00 20.00     0.008 C 
BRANCH   6   7
HETATM    7  C6  UNL     1     -34.898  16.231  -1.839  1.00 20.00     0.015 C 
BRANCH   7   8
HETATM    8  C7  UNL     1     -34.286  17.506  -1.275  1.00 20.00     0.114 C 
HETATM    9 CL9  UNL     1     -32.587  17.654  -1.781  1.00 20.00    -0.130 Cl
ENDBRANCH   7   8
ENDBRANCH   6   7
ENDBRANCH   4   6
TORSDOF 3
ENDMDL
MODEL 5
REMARK VINA RESULT:      -3.9     16.355     17.131
REMARK  3 active torsions:
REMARK  status: ('A' for Active; 'I' for Inactive)
REMARK    1  A    between atoms: C4_4  and  C5_5 
REMARK    2  A    between atoms: C5_5  and  C6_6 
REMARK    3  A    between atoms: C6_6  and  C7_7 
ROOT
HETATM    1  C1  UNL     1     -21.358  17.319   8.985  1.00 20.00     0.033 C 
HETATM    2  C2  UNL     1     -21.582  17.335   7.487  1.00 20.00     0.168 C 
HETATM    3  C3  UNL     1     -23.454  18.264   8.517  1.00 20.00     0.172 C 
HETATM    4  C4  UNL     1     -22.778  17.331   9.506  1.00 20.00     0.011 C 
HETATM    5  O8  UNL     1     -22.796  18.065   7.257  1.00 20.00    -0.391 OA
ENDROOT
BRANCH   4   6
HETATM    6  C5  UNL     1     -22.906  17.775  10.951  1.00 20.00     0.008 C 
BRANCH   6   7
HETATM    7  C6  UNL     1     -23.576  16.703  11.814  1.00 20.00     0.015 C 
BRANCH   7   8
HETATM    8  C7  UNL     1     -25.087  16.888  11.847  1.00 20.00     0.114 C 
HETATM    9 CL9  UNL     1     -25.497  18.588  12.171  1.00 20.00    -0.130 Cl
ENDBRANCH   7   8
ENDBRANCH   6   7
ENDBRANCH   4   6
TORSDOF 3
ENDMDL
MODEL 6
REMARK VINA RESULT:      -3.9     11.200     11.785
REMARK  3 active torsions:
REMARK  status: ('A' for Active; 'I' for Inactive)
REMARK    1  A    between atoms: C4_4  and  C5_5 
REMARK    2  A    between atoms: C5_5  and  C6_6 
REMARK    3  A    between atoms: C6_6  and  C7_7 
ROOT
HETATM    1  C1  UNL     1     -34.909  15.238  -3.024  1.00 20.00     0.033 C 
HETATM    2  C2  UNL     1     -35.091  14.141  -4.052  1.00 20.00     0.168 C 
HETATM    3  C3  UNL     1     -32.888  14.888  -4.161  1.00 20.00     0.172 C 
HETATM    4  C4  UNL     1     -33.745  16.011  -3.605  1.00 20.00     0.011 C 
HETATM    5  O8  UNL     1     -33.793  13.862  -4.596  1.00 20.00    -0.391 OA
ENDROOT
BRANCH   4   6
HETATM    6  C5  UNL     1     -33.023  16.893  -2.604  1.00 20.00     0.008 C 
BRANCH   6   7
HETATM    7  C6  UNL     1     -33.964  17.381  -1.500  1.00 20.00     0.015 C 
BRANCH   7   8
HETATM    8  C7  UNL     1     -33.222  18.235  -0.481  1.00 20.00     0.114 C 
HETATM    9 CL9  UNL     1     -31.478  18.244  -0.832  1.00 20.00    -0.130 Cl
ENDBRANCH   7   8
ENDBRANCH   6   7
ENDBRANCH   4   6
TORSDOF 3
ENDMDL
MODEL 7
REMARK VINA RESULT:      -3.9     11.278     12.053
REMARK  3 active torsions:
REMARK  status: ('A' for Active; 'I' for Inactive)
REMARK    1  A    between atoms: C4_4  and  C5_5 
REMARK    2  A    between atoms: C5_5  and  C6_6 
REMARK    3  A    between atoms: C6_6  and  C7_7 
ROOT
HETATM    1  C1  UNL     1     -34.809  15.653  -5.467  1.00 20.00     0.033 C 
HETATM    2  C2  UNL     1     -35.311  14.779  -6.597  1.00 20.00     0.168 C 
HETATM    3  C3  UNL     1     -35.967  13.815  -4.580  1.00 20.00     0.172 C 
HETATM    4  C4  UNL     1     -34.732  14.661  -4.326  1.00 20.00     0.011 C 
HETATM    5  O8  UNL     1     -36.143  13.771  -6.005  1.00 20.00    -0.391 OA
ENDROOT
BRANCH   4   6
HETATM    6  C5  UNL     1     -34.701  15.299  -2.950  1.00 20.00     0.008 C 
BRANCH   6   7
HETATM    7  C6  UNL     1     -33.539  16.286  -2.812  1.00 20.00     0.015 C 
BRANCH   7   8
HETATM    8  C7  UNL     1     -33.806  17.299  -1.707  1.00 20.00     0.114 C 
HETATM    9 CL9  UNL     1     -35.267  16.853  -0.796  1.00 20.00    -0.130 Cl
ENDBRANCH   7   8
ENDBRANCH   6   7
ENDBRANCH   4   6
TORSDOF 3
ENDMDL
MODEL 8
REMARK VINA RESULT:      -3.7     11.262     11.755
REMARK  3 active torsions:
REMARK  status: ('A' for Active; 'I' for Inactive)
REMARK    1  A    between atoms: C4_4  and  C5_5 
REMARK    2  A    between atoms: C5_5  and  C6_6 
REMARK    3  A    between atoms: C6_6  and  C7_7 
ROOT
HETATM    1  C1  UNL     1     -33.307  15.865  -3.613  1.00 20.00     0.033 C 
HETATM    2  C2  UNL     1     -33.007  14.578  -4.353  1.00 20.00     0.168 C 
HETATM    3  C3  UNL     1     -35.273  14.601  -3.812  1.00 20.00     0.172 C 
HETATM    4  C4  UNL     1     -34.536  15.481  -2.819  1.00 20.00     0.011 C 
HETATM    5  O8  UNL     1     -34.266  13.930  -4.586  1.00 20.00    -0.391 OA
ENDROOT
BRANCH   4   6
HETATM    6  C5  UNL     1     -35.350  16.661  -2.325  1.00 20.00     0.008 C 
BRANCH   6   7
HETATM    7  C6  UNL     1     -35.209  16.852  -0.813  1.00 20.00     0.015 C 
BRANCH   7   8
HETATM    8  C7  UNL     1     -34.548  18.184  -0.485  1.00 20.00     0.114 C 
HETATM    9 CL9  UNL     1     -32.798  18.101  -0.792  1.00 20.00    -0.130 Cl
ENDBRANCH   7   8
ENDBRANCH   6   7
ENDBRANCH   4   6
TORSDOF 3
ENDMDL
MODEL 9
REMARK VINA RESULT:      -3.7     15.370     15.923
REMARK  3 active torsions:
REMARK  status: ('A' for Active; 'I' for Inactive)
REMARK    1  A    between atoms: C4_4  and  C5_5 
REMARK    2  A    between atoms: C5_5  and  C6_6 
REMARK    3  A    between atoms: C6_6  and  C7_7 
ROOT
HETATM    1  C1  UNL     1     -23.997  16.495  10.270  1.00 20.00     0.033 C 
HETATM    2  C2  UNL     1     -24.650  16.017  11.550  1.00 20.00     0.168 C 
HETATM    3  C3  UNL     1     -25.145  18.277  11.276  1.00 20.00     0.172 C 
HETATM    4  C4  UNL     1     -23.854  17.978  10.535  1.00 20.00     0.011 C 
HETATM    5  O8  UNL     1     -25.464  17.097  12.030  1.00 20.00    -0.391 OA
ENDROOT
BRANCH   4   6
HETATM    6  C5  UNL     1     -23.656  18.816   9.287  1.00 20.00     0.008 C 
BRANCH   6   7
HETATM    7  C6  UNL     1     -24.992  19.213   8.656  1.00 20.00     0.015 C 
BRANCH   7   8
HETATM    8  C7  UNL     1     -24.957  19.048   7.142  1.00 20.00     0.114 C 
HETATM    9 CL9  UNL     1     -26.564  18.594   6.530  1.00 20.00    -0.130 Cl
ENDBRANCH   7   8
ENDBRANCH   6   7
ENDBRANCH   4   6
TORSDOF 3
ENDMDL
