MODEL 1
REMARK VINA RESULT:      -5.6      0.000      0.000
REMARK  2 active torsions:
REMARK  status: ('A' for Active; 'I' for Inactive)
REMARK    1  A    between atoms: C2_2  and  C9_9 
REMARK    2  A    between atoms: C7_7  and  C9_9 
ROOT
HETATM    1  C1  UNL     1     -32.806   8.403   0.744  1.00 20.00    -0.111 C 
HETATM    2  C2  UNL     1     -32.601   7.813   1.770  1.00 20.00    -0.107 C 
HETATM    3  C8  UNL     1     -33.055   9.120  -0.505  1.00 20.00     0.112 C 
ENDROOT
BRANCH   2   4
HETATM    4  C9  UNL     1     -32.355   7.093   3.024  1.00 20.00     0.099 C 
BRANCH   4   5
HETATM    5  C7  UNL     1     -33.646   6.546   3.609  1.00 20.00     0.004 C 
HETATM    6  C5  UNL     1     -33.699   6.649   5.135  1.00 20.00     0.083 C 
HETATM    7  C3  UNL     1     -34.653   5.537   5.485  1.00 20.00     0.127 C 
HETATM    8  C4  UNL     1     -34.922   4.626   4.315  1.00 20.00     0.079 C 
HETATM    9  O10 UNL     1     -35.155   5.392   6.593  1.00 20.00    -0.298 OA
HETATM   10  C6  UNL     1     -33.840   5.054   3.333  1.00 20.00     0.013 C 
ENDBRANCH   4   5
ENDBRANCH   2   4
TORSDOF 2
ENDMDL
MODEL 2
REMARK VINA RESULT:      -4.8     10.798     11.738
REMARK  2 active torsions:
REMARK  status: ('A' for Active; 'I' for Inactive)
REMARK    1  A    between atoms: C2_2  and  C9_9 
REMARK    2  A    between atoms: C7_7  and  C9_9 
ROOT
HETATM    1  C1  UNL     1     -33.233  18.032  -0.982  1.00 20.00    -0.111 C 
HETATM    2  C2  UNL     1     -33.253  17.318  -1.947  1.00 20.00    -0.107 C 
HETATM    3  C8  UNL     1     -33.207  18.902   0.192  1.00 20.00     0.112 C 
ENDROOT
BRANCH   2   4
HETATM    4  C9  UNL     1     -33.283  16.445  -3.127  1.00 20.00     0.099 C 
BRANCH   4   5
HETATM    5  C7  UNL     1     -34.447  15.470  -3.064  1.00 20.00     0.004 C 
HETATM    6  C5  UNL     1     -34.217  14.214  -3.906  1.00 20.00     0.083 C 
HETATM    7  C3  UNL     1     -35.630  13.783  -4.205  1.00 20.00     0.127 C 
HETATM    8  C4  UNL     1     -36.638  14.845  -3.851  1.00 20.00     0.079 C 
HETATM    9  O10 UNL     1     -35.924  12.692  -4.679  1.00 20.00    -0.298 OA
HETATM   10  C6  UNL     1     -35.745  16.057  -3.621  1.00 20.00     0.013 C 
ENDBRANCH   4   5
ENDBRANCH   2   4
TORSDOF 2
ENDMDL
MODEL 3
REMARK VINA RESULT:      -4.6     11.137     12.117
REMARK  2 active torsions:
REMARK  status: ('A' for Active; 'I' for Inactive)
REMARK    1  A    between atoms: C2_2  and  C9_9 
REMARK    2  A    between atoms: C7_7  and  C9_9 
ROOT
HETATM    1  C1  UNL     1     -31.359  18.364  -0.285  1.00 20.00    -0.111 C 
HETATM    2  C2  UNL     1     -31.990  18.179  -1.291  1.00 20.00    -0.107 C 
HETATM    3  C8  UNL     1     -30.591  18.589   0.938  1.00 20.00     0.112 C 
ENDROOT
BRANCH   2   4
HETATM    4  C9  UNL     1     -32.757  17.950  -2.520  1.00 20.00     0.099 C 
BRANCH   4   5
HETATM    5  C7  UNL     1     -33.493  16.622  -2.472  1.00 20.00     0.004 C 
HETATM    6  C5  UNL     1     -33.076  15.669  -3.594  1.00 20.00     0.083 C 
HETATM    7  C3  UNL     1     -34.301  14.803  -3.734  1.00 20.00     0.127 C 
HETATM    8  C4  UNL     1     -35.485  15.365  -2.990  1.00 20.00     0.079 C 
HETATM    9  O10 UNL     1     -34.330  13.760  -4.376  1.00 20.00    -0.298 OA
HETATM   10  C6  UNL     1     -35.004  16.772  -2.659  1.00 20.00     0.013 C 
ENDBRANCH   4   5
ENDBRANCH   2   4
TORSDOF 2
ENDMDL
MODEL 4
REMARK VINA RESULT:      -4.5     11.215     12.001
REMARK  2 active torsions:
REMARK  status: ('A' for Active; 'I' for Inactive)
REMARK    1  A    between atoms: C2_2  and  C9_9 
REMARK    2  A    between atoms: C7_7  and  C9_9 
ROOT
HETATM    1  C1  UNL     1     -33.716  17.447  -1.353  1.00 20.00    -0.111 C 
HETATM    2  C2  UNL     1     -33.526  16.756  -2.317  1.00 20.00    -0.107 C 
HETATM    3  C8  UNL     1     -33.947  18.288  -0.181  1.00 20.00     0.112 C 
ENDROOT
BRANCH   2   4
HETATM    4  C9  UNL     1     -33.298  15.909  -3.494  1.00 20.00     0.099 C 
BRANCH   4   5
HETATM    5  C7  UNL     1     -34.584  15.686  -4.271  1.00 20.00     0.004 C 
HETATM    6  C5  UNL     1     -35.596  14.825  -3.512  1.00 20.00     0.083 C 
HETATM    7  C3  UNL     1     -36.402  14.233  -4.640  1.00 20.00     0.127 C 
HETATM    8  C4  UNL     1     -35.755  14.454  -5.982  1.00 20.00     0.079 C 
HETATM    9  O10 UNL     1     -37.464  13.642  -4.483  1.00 20.00    -0.298 OA
HETATM   10  C6  UNL     1     -34.364  14.928  -5.581  1.00 20.00     0.013 C 
ENDBRANCH   4   5
ENDBRANCH   2   4
TORSDOF 2
ENDMDL
MODEL 5
REMARK VINA RESULT:      -4.5     11.338     12.125
REMARK  2 active torsions:
REMARK  status: ('A' for Active; 'I' for Inactive)
REMARK    1  A    between atoms: C2_2  and  C9_9 
REMARK    2  A    between atoms: C7_7  and  C9_9 
ROOT
HETATM    1  C1  UNL     1     -34.727  16.725  -1.459  1.00 20.00    -0.111 C 
HETATM    2  C2  UNL     1     -34.071  16.278  -2.360  1.00 20.00    -0.107 C 
HETATM    3  C8  UNL     1     -35.526  17.269  -0.362  1.00 20.00     0.112 C 
ENDROOT
BRANCH   2   4
HETATM    4  C9  UNL     1     -33.273  15.729  -3.462  1.00 20.00     0.099 C 
BRANCH   4   5
HETATM    5  C7  UNL     1     -34.076  14.734  -4.283  1.00 20.00     0.004 C 
HETATM    6  C5  UNL     1     -34.423  15.258  -5.678  1.00 20.00     0.083 C 
HETATM    7  C3  UNL     1     -35.669  14.473  -6.000  1.00 20.00     0.127 C 
HETATM    8  C4  UNL     1     -36.223  13.761  -4.793  1.00 20.00     0.079 C 
HETATM    9  O10 UNL     1     -36.171  14.417  -7.116  1.00 20.00    -0.298 OA
HETATM   10  C6  UNL     1     -35.436  14.410  -3.662  1.00 20.00     0.013 C 
ENDBRANCH   4   5
ENDBRANCH   2   4
TORSDOF 2
ENDMDL
MODEL 6
REMARK VINA RESULT:      -4.5     11.175     11.938
REMARK  2 active torsions:
REMARK  status: ('A' for Active; 'I' for Inactive)
REMARK    1  A    between atoms: C2_2  and  C9_9 
REMARK    2  A    between atoms: C7_7  and  C9_9 
ROOT
HETATM    1  C1  UNL     1     -32.447  18.181  -0.839  1.00 20.00    -0.111 C 
HETATM    2  C2  UNL     1     -33.493  17.763  -1.255  1.00 20.00    -0.107 C 
HETATM    3  C8  UNL     1     -31.174  18.690  -0.333  1.00 20.00     0.112 C 
ENDROOT
BRANCH   2   4
HETATM    4  C9  UNL     1     -34.774  17.254  -1.759  1.00 20.00     0.099 C 
BRANCH   4   5
HETATM    5  C7  UNL     1     -34.616  15.871  -2.370  1.00 20.00     0.004 C 
HETATM    6  C5  UNL     1     -33.470  15.795  -3.381  1.00 20.00     0.083 C 
HETATM    7  C3  UNL     1     -33.911  14.653  -4.260  1.00 20.00     0.127 C 
HETATM    8  C4  UNL     1     -35.346  14.263  -4.012  1.00 20.00     0.079 C 
HETATM    9  O10 UNL     1     -33.186  14.103  -5.080  1.00 20.00    -0.298 OA
HETATM   10  C6  UNL     1     -35.843  15.430  -3.169  1.00 20.00     0.013 C 
ENDBRANCH   4   5
ENDBRANCH   2   4
TORSDOF 2
ENDMDL
MODEL 7
REMARK VINA RESULT:      -4.4     11.536     12.216
REMARK  2 active torsions:
REMARK  status: ('A' for Active; 'I' for Inactive)
REMARK    1  A    between atoms: C2_2  and  C9_9 
REMARK    2  A    between atoms: C7_7  and  C9_9 
ROOT
HETATM    1  C1  UNL     1     -33.859  15.370  -3.423  1.00 20.00    -0.111 C 
HETATM    2  C2  UNL     1     -34.350  16.063  -2.574  1.00 20.00    -0.107 C 
HETATM    3  C8  UNL     1     -33.262  14.526  -4.456  1.00 20.00     0.112 C 
ENDROOT
BRANCH   2   4
HETATM    4  C9  UNL     1     -34.948  16.908  -1.533  1.00 20.00     0.099 C 
BRANCH   4   5
HETATM    5  C7  UNL     1     -33.961  17.951  -1.035  1.00 20.00     0.004 C 
HETATM    6  C5  UNL     1     -32.527  17.681  -1.495  1.00 20.00     0.083 C 
HETATM    7  C3  UNL     1     -31.725  18.371  -0.422  1.00 20.00     0.127 C 
HETATM    8  C4  UNL     1     -32.572  18.761   0.762  1.00 20.00     0.079 C 
HETATM    9  O10 UNL     1     -30.523  18.593  -0.505  1.00 20.00    -0.298 OA
HETATM   10  C6  UNL     1     -33.858  17.991   0.491  1.00 20.00     0.013 C 
ENDBRANCH   4   5
ENDBRANCH   2   4
TORSDOF 2
ENDMDL
MODEL 8
REMARK VINA RESULT:      -4.4      9.374     10.143
REMARK  2 active torsions:
REMARK  status: ('A' for Active; 'I' for Inactive)
REMARK    1  A    between atoms: C2_2  and  C9_9 
REMARK    2  A    between atoms: C7_7  and  C9_9 
ROOT
HETATM    1  C1  UNL     1     -42.323   3.741  -2.430  1.00 20.00    -0.111 C 
HETATM    2  C2  UNL     1     -41.733   4.562  -1.781  1.00 20.00    -0.107 C 
HETATM    3  C8  UNL     1     -43.040   2.741  -3.219  1.00 20.00     0.112 C 
ENDROOT
BRANCH   2   4
HETATM    4  C9  UNL     1     -41.010   5.563  -0.989  1.00 20.00     0.099 C 
BRANCH   4   5
HETATM    5  C7  UNL     1     -41.819   6.841  -0.842  1.00 20.00     0.004 C 
HETATM    6  C5  UNL     1     -40.944   8.080  -0.645  1.00 20.00     0.083 C 
HETATM    7  C3  UNL     1     -41.880   9.003   0.091  1.00 20.00     0.127 C 
HETATM    8  C4  UNL     1     -43.114   8.291   0.584  1.00 20.00     0.079 C 
HETATM    9  O10 UNL     1     -41.665  10.197   0.266  1.00 20.00    -0.298 OA
HETATM   10  C6  UNL     1     -42.728   6.831   0.388  1.00 20.00     0.013 C 
ENDBRANCH   4   5
ENDBRANCH   2   4
TORSDOF 2
ENDMDL
MODEL 9
REMARK VINA RESULT:      -4.4     11.493     12.117
REMARK  2 active torsions:
REMARK  status: ('A' for Active; 'I' for Inactive)
REMARK    1  A    between atoms: C2_2  and  C9_9 
REMARK    2  A    between atoms: C7_7  and  C9_9 
ROOT
HETATM    1  C1  UNL     1     -32.896  17.856  -1.245  1.00 20.00    -0.111 C 
HETATM    2  C2  UNL     1     -33.819  17.148  -1.542  1.00 20.00    -0.107 C 
HETATM    3  C8  UNL     1     -31.771  18.717  -0.883  1.00 20.00     0.112 C 
ENDROOT
BRANCH   2   4
HETATM    4  C9  UNL     1     -34.948  16.282  -1.901  1.00 20.00     0.099 C 
BRANCH   4   5
HETATM    5  C7  UNL     1     -34.976  16.003  -3.394  1.00 20.00     0.004 C 
HETATM    6  C5  UNL     1     -36.006  14.940  -3.781  1.00 20.00     0.083 C 
HETATM    7  C3  UNL     1     -35.422  14.398  -5.060  1.00 20.00     0.127 C 
HETATM    8  C4  UNL     1     -34.005  14.858  -5.281  1.00 20.00     0.079 C 
HETATM    9  O10 UNL     1     -36.032  13.669  -5.834  1.00 20.00    -0.298 OA
HETATM   10  C6  UNL     1     -33.653  15.443  -3.919  1.00 20.00     0.013 C 
ENDBRANCH   4   5
ENDBRANCH   2   4
TORSDOF 2
ENDMDL
