MODEL 1
REMARK VINA RESULT:      -5.3      0.000      0.000
REMARK  2 active torsions:
REMARK  status: ('A' for Active; 'I' for Inactive)
REMARK    1  A    between atoms: C8_8  and  C10_10 
REMARK    2  A    between atoms: C9_9  and  O11_11 
ROOT
HETATM    1  C1  UNL     1     -33.264   9.140   0.407  1.00 20.00     0.012 C 
HETATM    2  C2  UNL     1     -32.761   8.299   1.099  1.00 20.00    -0.117 C 
HETATM    3  C10 UNL     1     -32.131   7.274   1.933  1.00 20.00     0.097 C 
ENDROOT
BRANCH   3   4
HETATM    4  C8  UNL     1     -33.074   6.836   3.062  1.00 20.00    -0.001 C 
HETATM    5  C5  UNL     1     -32.705   7.598   4.343  1.00 20.00     0.005 C 
HETATM    6  C3  UNL     1     -33.261   7.068   5.662  1.00 20.00     0.000 C 
HETATM    7  C4  UNL     1     -34.671   6.494   5.593  1.00 20.00     0.002 C 
HETATM    8  C6  UNL     1     -34.683   5.021   5.194  1.00 20.00     0.032 C 
HETATM    9  C9  UNL     1     -34.366   4.733   3.729  1.00 20.00     0.118 C 
HETATM   10  C7  UNL     1     -33.045   5.310   3.214  1.00 20.00     0.037 C 
BRANCH   9  11
HETATM   11  O11 UNL     1     -34.307   3.314   3.561  1.00 20.00    -0.396 OA
HETATM   12  H27 UNL     1     -33.625   2.998   4.171  1.00 20.00     0.210 HD
ENDBRANCH   9  11
ENDBRANCH   3   4
TORSDOF 2
ENDMDL
MODEL 2
REMARK VINA RESULT:      -4.9     11.236     12.248
REMARK  2 active torsions:
REMARK  status: ('A' for Active; 'I' for Inactive)
REMARK    1  A    between atoms: C8_8  and  C10_10 
REMARK    2  A    between atoms: C9_9  and  O11_11 
ROOT
HETATM    1  C1  UNL     1     -31.047  18.240  -0.024  1.00 20.00     0.012 C 
HETATM    2  C2  UNL     1     -31.650  18.513  -1.026  1.00 20.00    -0.117 C 
HETATM    3  C10 UNL     1     -32.375  18.862  -2.249  1.00 20.00     0.097 C 
ENDROOT
BRANCH   3   4
HETATM    4  C8  UNL     1     -33.359  17.750  -2.634  1.00 20.00    -0.001 C 
HETATM    5  C5  UNL     1     -34.363  17.555  -1.489  1.00 20.00     0.005 C 
HETATM    6  C3  UNL     1     -35.197  16.276  -1.494  1.00 20.00     0.000 C 
HETATM    7  C4  UNL     1     -35.628  15.783  -2.870  1.00 20.00     0.002 C 
HETATM    8  C6  UNL     1     -34.576  14.895  -3.527  1.00 20.00     0.032 C 
HETATM    9  C9  UNL     1     -33.334  15.618  -4.045  1.00 20.00     0.118 C 
HETATM   10  C7  UNL     1     -32.594  16.475  -3.015  1.00 20.00     0.037 C 
BRANCH   9  11
HETATM   11  O11 UNL     1     -32.415  14.630  -4.519  1.00 20.00    -0.396 OA
HETATM   12  H27 UNL     1     -32.400  13.932  -3.848  1.00 20.00     0.210 HD
ENDBRANCH   9  11
ENDBRANCH   3   4
TORSDOF 2
ENDMDL
MODEL 3
REMARK VINA RESULT:      -4.9     11.634     12.473
REMARK  2 active torsions:
REMARK  status: ('A' for Active; 'I' for Inactive)
REMARK    1  A    between atoms: C8_8  and  C10_10 
REMARK    2  A    between atoms: C9_9  and  O11_11 
ROOT
HETATM    1  C1  UNL     1     -34.208  18.045  -0.826  1.00 20.00     0.012 C 
HETATM    2  C2  UNL     1     -33.711  17.327  -1.651  1.00 20.00    -0.117 C 
HETATM    3  C10 UNL     1     -33.090  16.454  -2.648  1.00 20.00     0.097 C 
ENDROOT
BRANCH   3   4
HETATM    4  C8  UNL     1     -34.113  16.025  -3.708  1.00 20.00    -0.001 C 
HETATM    5  C5  UNL     1     -35.331  15.409  -3.004  1.00 20.00     0.005 C 
HETATM    6  C3  UNL     1     -36.300  14.594  -3.857  1.00 20.00     0.000 C 
HETATM    7  C4  UNL     1     -36.521  15.115  -5.272  1.00 20.00     0.002 C 
HETATM    8  C6  UNL     1     -35.481  14.590  -6.257  1.00 20.00     0.032 C 
HETATM    9  C9  UNL     1     -34.085  15.195  -6.126  1.00 20.00     0.118 C 
HETATM   10  C7  UNL     1     -33.453  15.096  -4.735  1.00 20.00     0.037 C 
BRANCH   9  11
HETATM   11  O11 UNL     1     -33.221  14.511  -7.038  1.00 20.00    -0.396 OA
HETATM   12  H27 UNL     1     -32.367  14.965  -6.992  1.00 20.00     0.210 HD
ENDBRANCH   9  11
ENDBRANCH   3   4
TORSDOF 2
ENDMDL
MODEL 4
REMARK VINA RESULT:      -4.8     15.208     16.596
REMARK  2 active torsions:
REMARK  status: ('A' for Active; 'I' for Inactive)
REMARK    1  A    between atoms: C8_8  and  C10_10 
REMARK    2  A    between atoms: C9_9  and  O11_11 
ROOT
HETATM    1  C1  UNL     1     -28.188  17.128  12.316  1.00 20.00     0.012 C 
HETATM    2  C2  UNL     1     -27.484  18.085  12.143  1.00 20.00    -0.117 C 
HETATM    3  C10 UNL     1     -26.638  19.263  11.942  1.00 20.00     0.097 C 
ENDROOT
BRANCH   3   4
HETATM    4  C8  UNL     1     -25.344  18.884  11.210  1.00 20.00    -0.001 C 
HETATM    5  C5  UNL     1     -25.522  19.158   9.710  1.00 20.00     0.005 C 
HETATM    6  C3  UNL     1     -24.512  18.527   8.754  1.00 20.00     0.000 C 
HETATM    7  C4  UNL     1     -23.079  18.459   9.270  1.00 20.00     0.002 C 
HETATM    8  C6  UNL     1     -22.817  17.206  10.101  1.00 20.00     0.032 C 
HETATM    9  C9  UNL     1     -23.444  17.197  11.494  1.00 20.00     0.118 C 
HETATM   10  C7  UNL     1     -24.955  17.437  11.537  1.00 20.00     0.037 C 
BRANCH   9  11
HETATM   11  O11 UNL     1     -23.197  15.916  12.080  1.00 20.00    -0.396 OA
HETATM   12  H27 UNL     1     -23.764  15.290  11.607  1.00 20.00     0.210 HD
ENDBRANCH   9  11
ENDBRANCH   3   4
TORSDOF 2
ENDMDL
MODEL 5
REMARK VINA RESULT:      -4.8     11.419     12.427
REMARK  2 active torsions:
REMARK  status: ('A' for Active; 'I' for Inactive)
REMARK    1  A    between atoms: C8_8  and  C10_10 
REMARK    2  A    between atoms: C9_9  and  O11_11 
ROOT
HETATM    1  C1  UNL     1     -32.540  18.000  -1.805  1.00 20.00     0.012 C 
HETATM    2  C2  UNL     1     -33.461  17.231  -1.864  1.00 20.00    -0.117 C 
HETATM    3  C10 UNL     1     -34.588  16.299  -1.919  1.00 20.00     0.097 C 
ENDROOT
BRANCH   3   4
HETATM    4  C8  UNL     1     -34.714  15.679  -3.317  1.00 20.00    -0.001 C 
HETATM    5  C5  UNL     1     -34.145  16.662  -4.350  1.00 20.00     0.005 C 
HETATM    6  C3  UNL     1     -34.490  16.420  -5.817  1.00 20.00     0.000 C 
HETATM    7  C4  UNL     1     -34.565  14.957  -6.238  1.00 20.00     0.002 C 
HETATM    8  C6  UNL     1     -35.943  14.348  -5.990  1.00 20.00     0.032 C 
HETATM    9  C9  UNL     1     -36.287  14.069  -4.529  1.00 20.00     0.118 C 
HETATM   10  C7  UNL     1     -36.167  15.267  -3.584  1.00 20.00     0.037 C 
BRANCH   9  11
HETATM   11  O11 UNL     1     -37.642  13.615  -4.475  1.00 20.00    -0.396 OA
HETATM   12  H27 UNL     1     -37.768  13.246  -3.589  1.00 20.00     0.210 HD
ENDBRANCH   9  11
ENDBRANCH   3   4
TORSDOF 2
ENDMDL
MODEL 6
REMARK VINA RESULT:      -4.7     11.379     12.272
REMARK  2 active torsions:
REMARK  status: ('A' for Active; 'I' for Inactive)
REMARK    1  A    between atoms: C8_8  and  C10_10 
REMARK    2  A    between atoms: C9_9  and  O11_11 
ROOT
HETATM    1  C1  UNL     1     -35.470  13.643  -4.147  1.00 20.00     0.012 C 
HETATM    2  C2  UNL     1     -34.605  14.463  -4.003  1.00 20.00    -0.117 C 
HETATM    3  C10 UNL     1     -33.542  15.457  -3.845  1.00 20.00     0.097 C 
ENDROOT
BRANCH   3   4
HETATM    4  C8  UNL     1     -33.707  16.223  -2.525  1.00 20.00    -0.001 C 
HETATM    5  C5  UNL     1     -35.205  16.383  -2.226  1.00 20.00     0.005 C 
HETATM    6  C3  UNL     1     -35.606  17.411  -1.171  1.00 20.00     0.000 C 
HETATM    7  C4  UNL     1     -34.656  17.536   0.015  1.00 20.00     0.002 C 
HETATM    8  C6  UNL     1     -33.513  18.510  -0.253  1.00 20.00     0.032 C 
HETATM    9  C9  UNL     1     -32.436  18.013  -1.214  1.00 20.00     0.118 C 
HETATM   10  C7  UNL     1     -32.939  17.550  -2.584  1.00 20.00     0.037 C 
BRANCH   9  11
HETATM   11  O11 UNL     1     -31.515  19.085  -1.437  1.00 20.00    -0.396 OA
HETATM   12  H27 UNL     1     -31.976  19.724  -2.000  1.00 20.00     0.210 HD
ENDBRANCH   9  11
ENDBRANCH   3   4
TORSDOF 2
ENDMDL
MODEL 7
REMARK VINA RESULT:      -4.7      1.625      2.473
REMARK  2 active torsions:
REMARK  status: ('A' for Active; 'I' for Inactive)
REMARK    1  A    between atoms: C8_8  and  C10_10 
REMARK    2  A    between atoms: C9_9  and  O11_11 
ROOT
HETATM    1  C1  UNL     1     -33.144   8.431   0.414  1.00 20.00     0.012 C 
HETATM    2  C2  UNL     1     -32.542   8.057   1.383  1.00 20.00    -0.117 C 
HETATM    3  C10 UNL     1     -31.794   7.612   2.560  1.00 20.00     0.097 C 
ENDROOT
BRANCH   3   4
HETATM    4  C8  UNL     1     -32.568   6.525   3.317  1.00 20.00    -0.001 C 
HETATM    5  C5  UNL     1     -33.226   5.582   2.300  1.00 20.00     0.005 C 
HETATM    6  C3  UNL     1     -34.327   4.655   2.810  1.00 20.00     0.000 C 
HETATM    7  C4  UNL     1     -34.119   4.104   4.215  1.00 20.00     0.002 C 
HETATM    8  C6  UNL     1     -34.647   5.044   5.295  1.00 20.00     0.032 C 
HETATM    9  C9  UNL     1     -33.816   6.302   5.538  1.00 20.00     0.118 C 
HETATM   10  C7  UNL     1     -33.555   7.167   4.301  1.00 20.00     0.037 C 
BRANCH   9  11
HETATM   11  O11 UNL     1     -34.512   7.114   6.488  1.00 20.00    -0.396 OA
HETATM   12  H27 UNL     1     -34.702   7.951   6.040  1.00 20.00     0.210 HD
ENDBRANCH   9  11
ENDBRANCH   3   4
TORSDOF 2
ENDMDL
MODEL 8
REMARK VINA RESULT:      -4.6     15.574     16.658
REMARK  2 active torsions:
REMARK  status: ('A' for Active; 'I' for Inactive)
REMARK    1  A    between atoms: C8_8  and  C10_10 
REMARK    2  A    between atoms: C9_9  and  O11_11 
ROOT
HETATM    1  C1  UNL     1     -27.320  17.434  12.311  1.00 20.00     0.012 C 
HETATM    2  C2  UNL     1     -26.151  17.708  12.312  1.00 20.00    -0.117 C 
HETATM    3  C10 UNL     1     -24.726  18.040  12.331  1.00 20.00     0.097 C 
ENDROOT
BRANCH   3   4
HETATM    4  C8  UNL     1     -24.219  18.344  10.915  1.00 20.00    -0.001 C 
HETATM    5  C5  UNL     1     -25.376  18.920  10.085  1.00 20.00     0.005 C 
HETATM    6  C3  UNL     1     -25.205  18.956   8.568  1.00 20.00     0.000 C 
HETATM    7  C4  UNL     1     -23.795  19.262   8.077  1.00 20.00     0.002 C 
HETATM    8  C6  UNL     1     -22.928  18.011   7.974  1.00 20.00     0.032 C 
HETATM    9  C9  UNL     1     -22.464  17.419   9.302  1.00 20.00     0.118 C 
HETATM   10  C7  UNL     1     -23.576  17.093  10.303  1.00 20.00     0.037 C 
BRANCH   9  11
HETATM   11  O11 UNL     1     -21.769  16.201   9.024  1.00 20.00    -0.396 OA
HETATM   12  H27 UNL     1     -22.204  15.515   9.551  1.00 20.00     0.210 HD
ENDBRANCH   9  11
ENDBRANCH   3   4
TORSDOF 2
ENDMDL
MODEL 9
REMARK VINA RESULT:      -4.6     11.240     12.489
REMARK  2 active torsions:
REMARK  status: ('A' for Active; 'I' for Inactive)
REMARK    1  A    between atoms: C8_8  and  C10_10 
REMARK    2  A    between atoms: C9_9  and  O11_11 
ROOT
HETATM    1  C1  UNL     1     -35.241  17.043  -0.837  1.00 20.00     0.012 C 
HETATM    2  C2  UNL     1     -34.413  16.755  -1.658  1.00 20.00    -0.117 C 
HETATM    3  C10 UNL     1     -33.391  16.408  -2.646  1.00 20.00     0.097 C 
ENDROOT
BRANCH   3   4
HETATM    4  C8  UNL     1     -34.038  15.976  -3.969  1.00 20.00    -0.001 C 
HETATM    5  C5  UNL     1     -34.651  17.209  -4.649  1.00 20.00     0.005 C 
HETATM    6  C3  UNL     1     -35.647  16.967  -5.780  1.00 20.00     0.000 C 
HETATM    7  C4  UNL     1     -35.338  15.776  -6.679  1.00 20.00     0.002 C 
HETATM    8  C6  UNL     1     -35.903  14.468  -6.132  1.00 20.00     0.032 C 
HETATM    9  C9  UNL     1     -35.175  13.893  -4.919  1.00 20.00     0.118 C 
HETATM   10  C7  UNL     1     -35.037  14.839  -3.723  1.00 20.00     0.037 C 
BRANCH   9  11
HETATM   11  O11 UNL     1     -35.901  12.743  -4.474  1.00 20.00    -0.396 OA
HETATM   12  H27 UNL     1     -36.830  12.914  -4.682  1.00 20.00     0.210 HD
ENDBRANCH   9  11
ENDBRANCH   3   4
TORSDOF 2
ENDMDL
