MODEL 1
REMARK VINA RESULT:      -4.5      0.000      0.000
REMARK  6 active torsions:
REMARK  status: ('A' for Active; 'I' for Inactive)
REMARK    1  A    between atoms: C1_1  and  C4_4 
REMARK    2  A    between atoms: C1_1  and  C8_8 
REMARK    3  A    between atoms: C8_8  and  C9_9 
REMARK    4  A    between atoms: C9_9  and  C10_10 
REMARK    5  A    between atoms: C10_10  and  C11_11 
REMARK    6  A    between atoms: C11_11  and  C12_12 
ROOT
HETATM    1  C9  UNL     1     -33.586  14.592  -4.337  1.00 20.00     0.007 C 
ENDROOT
BRANCH   1   2
HETATM    2  C8  UNL     1     -34.876  14.775  -5.135  1.00 20.00     0.079 C 
BRANCH   2   3
HETATM    3  C1  UNL     1     -36.010  13.891  -4.658  1.00 20.00     0.131 C 
HETATM    4  O13 UNL     1     -35.935  12.677  -4.519  1.00 20.00    -0.298 OA
BRANCH   3   5
HETATM    5  C4  UNL     1     -37.296  14.595  -4.384  1.00 20.00     0.055 A 
HETATM    6  C2  UNL     1     -37.249  15.999  -3.880  1.00 20.00     0.013 A 
HETATM    7  C3  UNL     1     -37.698  15.718  -5.282  1.00 20.00     0.013 A 
ENDBRANCH   3   5
ENDBRANCH   2   3
ENDBRANCH   1   2
BRANCH   1   8
HETATM    8  C10 UNL     1     -33.181  15.863  -3.579  1.00 20.00     0.001 C 
BRANCH   8   9
HETATM    9  C11 UNL     1     -34.084  16.083  -2.358  1.00 20.00     0.008 C 
BRANCH   9  10
HETATM   10  C12 UNL     1     -34.024  17.497  -1.721  1.00 20.00    -0.051 C 
HETATM   11  C5  UNL     1     -34.681  18.491  -2.698  1.00 20.00     0.014 C 
HETATM   12  C6  UNL     1     -32.571  17.939  -1.481  1.00 20.00     0.014 C 
HETATM   13  C7  UNL     1     -34.793  17.542  -0.390  1.00 20.00     0.014 C 
ENDBRANCH   9  10
ENDBRANCH   8   9
ENDBRANCH   1   8
TORSDOF 6
ENDMDL
MODEL 2
REMARK VINA RESULT:      -4.4      2.934      6.063
REMARK  6 active torsions:
REMARK  status: ('A' for Active; 'I' for Inactive)
REMARK    1  A    between atoms: C1_1  and  C4_4 
REMARK    2  A    between atoms: C1_1  and  C8_8 
REMARK    3  A    between atoms: C8_8  and  C9_9 
REMARK    4  A    between atoms: C9_9  and  C10_10 
REMARK    5  A    between atoms: C10_10  and  C11_11 
REMARK    6  A    between atoms: C11_11  and  C12_12 
ROOT
HETATM    1  C9  UNL     1     -32.797  17.241  -2.231  1.00 20.00     0.007 C 
ENDROOT
BRANCH   1   2
HETATM    2  C8  UNL     1     -32.437  18.643  -1.742  1.00 20.00     0.079 C 
BRANCH   2   3
HETATM    3  C1  UNL     1     -31.564  18.643  -0.503  1.00 20.00     0.131 C 
HETATM    4  O13 UNL     1     -30.393  18.287  -0.478  1.00 20.00    -0.298 OA
BRANCH   3   5
HETATM    5  C4  UNL     1     -32.237  19.085   0.752  1.00 20.00     0.055 A 
HETATM    6  C2  UNL     1     -33.373  18.272   1.278  1.00 20.00     0.013 A 
HETATM    7  C3  UNL     1     -32.051  18.264   1.985  1.00 20.00     0.013 A 
ENDBRANCH   3   5
ENDBRANCH   2   3
ENDBRANCH   1   2
BRANCH   1   8
HETATM    8  C10 UNL     1     -34.310  17.052  -2.403  1.00 20.00     0.001 C 
BRANCH   8   9
HETATM    9  C11 UNL     1     -34.657  15.571  -2.610  1.00 20.00     0.008 C 
BRANCH   9  10
HETATM   10  C12 UNL     1     -34.575  15.057  -4.072  1.00 20.00    -0.051 C 
HETATM   11  C5  UNL     1     -35.614  13.932  -4.243  1.00 20.00     0.014 C 
HETATM   12  C6  UNL     1     -33.182  14.484  -4.384  1.00 20.00     0.014 C 
HETATM   13  C7  UNL     1     -34.898  16.176  -5.075  1.00 20.00     0.014 C 
ENDBRANCH   9  10
ENDBRANCH   8   9
ENDBRANCH   1   8
TORSDOF 6
ENDMDL
MODEL 3
REMARK VINA RESULT:      -4.2      1.630      2.308
REMARK  6 active torsions:
REMARK  status: ('A' for Active; 'I' for Inactive)
REMARK    1  A    between atoms: C1_1  and  C4_4 
REMARK    2  A    between atoms: C1_1  and  C8_8 
REMARK    3  A    between atoms: C8_8  and  C9_9 
REMARK    4  A    between atoms: C9_9  and  C10_10 
REMARK    5  A    between atoms: C10_10  and  C11_11 
REMARK    6  A    between atoms: C11_11  and  C12_12 
ROOT
HETATM    1  C9  UNL     1     -34.497  14.352  -3.790  1.00 20.00     0.007 C 
ENDROOT
BRANCH   1   2
HETATM    2  C8  UNL     1     -34.082  14.850  -5.173  1.00 20.00     0.079 C 
BRANCH   2   3
HETATM    3  C1  UNL     1     -35.238  14.960  -6.146  1.00 20.00     0.131 C 
HETATM    4  O13 UNL     1     -35.916  14.015  -6.531  1.00 20.00    -0.298 OA
BRANCH   3   5
HETATM    5  C4  UNL     1     -35.507  16.331  -6.668  1.00 20.00     0.055 A 
HETATM    6  C2  UNL     1     -35.918  17.394  -5.703  1.00 20.00     0.013 A 
HETATM    7  C3  UNL     1     -34.552  17.424  -6.319  1.00 20.00     0.013 A 
ENDBRANCH   3   5
ENDBRANCH   2   3
ENDBRANCH   1   2
BRANCH   1   8
HETATM    8  C10 UNL     1     -34.653  15.495  -2.779  1.00 20.00     0.001 C 
BRANCH   8   9
HETATM    9  C11 UNL     1     -33.433  16.425  -2.811  1.00 20.00     0.008 C 
BRANCH   9  10
HETATM   10  C12 UNL     1     -33.555  17.727  -1.975  1.00 20.00    -0.051 C 
HETATM   11  C5  UNL     1     -32.169  18.050  -1.385  1.00 20.00     0.014 C 
HETATM   12  C6  UNL     1     -34.549  17.553  -0.815  1.00 20.00     0.014 C 
HETATM   13  C7  UNL     1     -34.000  18.911  -2.850  1.00 20.00     0.014 C 
ENDBRANCH   9  10
ENDBRANCH   8   9
ENDBRANCH   1   8
TORSDOF 6
ENDMDL
MODEL 4
REMARK VINA RESULT:      -4.2      3.051      6.293
REMARK  6 active torsions:
REMARK  status: ('A' for Active; 'I' for Inactive)
REMARK    1  A    between atoms: C1_1  and  C4_4 
REMARK    2  A    between atoms: C1_1  and  C8_8 
REMARK    3  A    between atoms: C8_8  and  C9_9 
REMARK    4  A    between atoms: C9_9  and  C10_10 
REMARK    5  A    between atoms: C10_10  and  C11_11 
REMARK    6  A    between atoms: C11_11  and  C12_12 
ROOT
HETATM    1  C9  UNL     1     -35.031  17.399   0.029  1.00 20.00     0.007 C 
ENDROOT
BRANCH   1   2
HETATM    2  C8  UNL     1     -34.458  18.634   0.722  1.00 20.00     0.079 C 
BRANCH   2   3
HETATM    3  C1  UNL     1     -33.186  18.354   1.497  1.00 20.00     0.131 C 
HETATM    4  O13 UNL     1     -33.129  17.691   2.524  1.00 20.00    -0.298 OA
BRANCH   3   5
HETATM    5  C4  UNL     1     -31.951  18.982   0.945  1.00 20.00     0.055 A 
HETATM    6  C2  UNL     1     -30.674  18.212   0.999  1.00 20.00     0.013 A 
HETATM    7  C3  UNL     1     -31.371  18.423  -0.312  1.00 20.00     0.013 A 
ENDBRANCH   3   5
ENDBRANCH   2   3
ENDBRANCH   1   2
BRANCH   1   8
HETATM    8  C10 UNL     1     -34.539  17.259  -1.418  1.00 20.00     0.001 C 
BRANCH   8   9
HETATM    9  C11 UNL     1     -35.083  15.977  -2.060  1.00 20.00     0.008 C 
BRANCH   9  10
HETATM   10  C12 UNL     1     -34.537  15.646  -3.475  1.00 20.00    -0.051 C 
HETATM   11  C5  UNL     1     -33.021  15.925  -3.480  1.00 20.00     0.014 C 
HETATM   12  C6  UNL     1     -35.197  16.528  -4.547  1.00 20.00     0.014 C 
HETATM   13  C7  UNL     1     -34.761  14.166  -3.827  1.00 20.00     0.014 C 
ENDBRANCH   9  10
ENDBRANCH   8   9
ENDBRANCH   1   8
TORSDOF 6
ENDMDL
MODEL 5
REMARK VINA RESULT:      -4.1      1.287      1.913
REMARK  6 active torsions:
REMARK  status: ('A' for Active; 'I' for Inactive)
REMARK    1  A    between atoms: C1_1  and  C4_4 
REMARK    2  A    between atoms: C1_1  and  C8_8 
REMARK    3  A    between atoms: C8_8  and  C9_9 
REMARK    4  A    between atoms: C9_9  and  C10_10 
REMARK    5  A    between atoms: C10_10  and  C11_11 
REMARK    6  A    between atoms: C11_11  and  C12_12 
ROOT
HETATM    1  C9  UNL     1     -35.239  14.134  -4.210  1.00 20.00     0.007 C 
ENDROOT
BRANCH   1   2
HETATM    2  C8  UNL     1     -36.185  15.077  -4.950  1.00 20.00     0.079 C 
BRANCH   2   3
HETATM    3  C1  UNL     1     -37.638  14.907  -4.554  1.00 20.00     0.131 C 
HETATM    4  O13 UNL     1     -38.172  13.832  -4.312  1.00 20.00    -0.298 OA
BRANCH   3   5
HETATM    5  C4  UNL     1     -38.437  16.165  -4.500  1.00 20.00     0.055 A 
HETATM    6  C2  UNL     1     -38.167  17.137  -3.400  1.00 20.00     0.013 A 
HETATM    7  C3  UNL     1     -37.752  17.456  -4.805  1.00 20.00     0.013 A 
ENDBRANCH   3   5
ENDBRANCH   2   3
ENDBRANCH   1   2
BRANCH   1   8
HETATM    8  C10 UNL     1     -34.174  14.888  -3.403  1.00 20.00     0.001 C 
BRANCH   8   9
HETATM    9  C11 UNL     1     -34.232  16.394  -3.692  1.00 20.00     0.008 C 
BRANCH   9  10
HETATM   10  C12 UNL     1     -34.227  17.320  -2.447  1.00 20.00    -0.051 C 
HETATM   11  C5  UNL     1     -35.095  16.663  -1.356  1.00 20.00     0.014 C 
HETATM   12  C6  UNL     1     -34.822  18.699  -2.776  1.00 20.00     0.014 C 
HETATM   13  C7  UNL     1     -32.805  17.503  -1.892  1.00 20.00     0.014 C 
ENDBRANCH   9  10
ENDBRANCH   8   9
ENDBRANCH   1   8
TORSDOF 6
ENDMDL
MODEL 6
REMARK VINA RESULT:      -4.1      1.417      2.183
REMARK  6 active torsions:
REMARK  status: ('A' for Active; 'I' for Inactive)
REMARK    1  A    between atoms: C1_1  and  C4_4 
REMARK    2  A    between atoms: C1_1  and  C8_8 
REMARK    3  A    between atoms: C8_8  and  C9_9 
REMARK    4  A    between atoms: C9_9  and  C10_10 
REMARK    5  A    between atoms: C10_10  and  C11_11 
REMARK    6  A    between atoms: C11_11  and  C12_12 
ROOT
HETATM    1  C9  UNL     1     -33.665  15.428  -3.570  1.00 20.00     0.007 C 
ENDROOT
BRANCH   1   2
HETATM    2  C8  UNL     1     -34.938  14.597  -3.414  1.00 20.00     0.079 C 
BRANCH   2   3
HETATM    3  C1  UNL     1     -35.449  14.026  -4.721  1.00 20.00     0.131 C 
HETATM    4  O13 UNL     1     -36.052  12.966  -4.828  1.00 20.00    -0.298 OA
BRANCH   3   5
HETATM    5  C4  UNL     1     -35.140  14.834  -5.936  1.00 20.00     0.055 A 
HETATM    6  C2  UNL     1     -35.981  14.643  -7.154  1.00 20.00     0.013 A 
HETATM    7  C3  UNL     1     -36.103  15.899  -6.345  1.00 20.00     0.013 A 
ENDBRANCH   3   5
ENDBRANCH   2   3
ENDBRANCH   1   2
BRANCH   1   8
HETATM    8  C10 UNL     1     -33.575  16.560  -2.539  1.00 20.00     0.001 C 
BRANCH   8   9
HETATM    9  C11 UNL     1     -34.828  16.597  -1.654  1.00 20.00     0.008 C 
BRANCH   9  10
HETATM   10  C12 UNL     1     -34.900  17.765  -0.635  1.00 20.00    -0.051 C 
HETATM   11  C5  UNL     1     -35.547  17.233   0.659  1.00 20.00     0.014 C 
HETATM   12  C6  UNL     1     -35.762  18.920  -1.171  1.00 20.00     0.014 C 
HETATM   13  C7  UNL     1     -33.497  18.295  -0.295  1.00 20.00     0.014 C 
ENDBRANCH   9  10
ENDBRANCH   8   9
ENDBRANCH   1   8
TORSDOF 6
ENDMDL
MODEL 7
REMARK VINA RESULT:      -4.0      1.660      2.605
REMARK  6 active torsions:
REMARK  status: ('A' for Active; 'I' for Inactive)
REMARK    1  A    between atoms: C1_1  and  C4_4 
REMARK    2  A    between atoms: C1_1  and  C8_8 
REMARK    3  A    between atoms: C8_8  and  C9_9 
REMARK    4  A    between atoms: C9_9  and  C10_10 
REMARK    5  A    between atoms: C10_10  and  C11_11 
REMARK    6  A    between atoms: C11_11  and  C12_12 
ROOT
HETATM    1  C9  UNL     1     -34.991  17.509  -5.904  1.00 20.00     0.007 C 
ENDROOT
BRANCH   1   2
HETATM    2  C8  UNL     1     -35.705  16.327  -6.556  1.00 20.00     0.079 C 
BRANCH   2   3
HETATM    3  C1  UNL     1     -35.068  14.989  -6.239  1.00 20.00     0.131 C 
HETATM    4  O13 UNL     1     -33.909  14.692  -6.495  1.00 20.00    -0.298 OA
BRANCH   3   5
HETATM    5  C4  UNL     1     -35.971  13.987  -5.601  1.00 20.00     0.055 A 
HETATM    6  C2  UNL     1     -35.709  13.589  -4.187  1.00 20.00     0.013 A 
HETATM    7  C3  UNL     1     -36.892  14.447  -4.520  1.00 20.00     0.013 A 
ENDBRANCH   3   5
ENDBRANCH   2   3
ENDBRANCH   1   2
BRANCH   1   8
HETATM    8  C10 UNL     1     -35.470  17.764  -4.470  1.00 20.00     0.001 C 
BRANCH   8   9
HETATM    9  C11 UNL     1     -34.299  18.163  -3.563  1.00 20.00     0.008 C 
BRANCH   9  10
HETATM   10  C12 UNL     1     -33.841  17.090  -2.540  1.00 20.00    -0.051 C 
HETATM   11  C5  UNL     1     -33.047  16.010  -3.300  1.00 20.00     0.014 C 
HETATM   12  C6  UNL     1     -35.046  16.419  -1.859  1.00 20.00     0.014 C 
HETATM   13  C7  UNL     1     -32.926  17.699  -1.464  1.00 20.00     0.014 C 
ENDBRANCH   9  10
ENDBRANCH   8   9
ENDBRANCH   1   8
TORSDOF 6
ENDMDL
MODEL 8
REMARK VINA RESULT:      -3.9      2.552      5.682
REMARK  6 active torsions:
REMARK  status: ('A' for Active; 'I' for Inactive)
REMARK    1  A    between atoms: C1_1  and  C4_4 
REMARK    2  A    between atoms: C1_1  and  C8_8 
REMARK    3  A    between atoms: C8_8  and  C9_9 
REMARK    4  A    between atoms: C9_9  and  C10_10 
REMARK    5  A    between atoms: C10_10  and  C11_11 
REMARK    6  A    between atoms: C11_11  and  C12_12 
ROOT
HETATM    1  C9  UNL     1     -34.405  16.524  -2.370  1.00 20.00     0.007 C 
ENDROOT
BRANCH   1   2
HETATM    2  C8  UNL     1     -32.923  16.898  -2.379  1.00 20.00     0.079 C 
BRANCH   2   3
HETATM    3  C1  UNL     1     -32.679  18.389  -2.486  1.00 20.00     0.131 C 
HETATM    4  O13 UNL     1     -32.902  19.061  -3.484  1.00 20.00    -0.298 OA
BRANCH   3   5
HETATM    5  C4  UNL     1     -32.093  19.029  -1.273  1.00 20.00     0.055 A 
HETATM    6  C2  UNL     1     -32.509  18.527   0.070  1.00 20.00     0.013 A 
HETATM    7  C3  UNL     1     -31.131  18.240  -0.447  1.00 20.00     0.013 A 
ENDBRANCH   3   5
ENDBRANCH   2   3
ENDBRANCH   1   2
BRANCH   1   8
HETATM    8  C10 UNL     1     -34.691  15.244  -3.165  1.00 20.00     0.001 C 
BRANCH   8   9
HETATM    9  C11 UNL     1     -33.828  15.182  -4.433  1.00 20.00     0.008 C 
BRANCH   9  10
HETATM   10  C12 UNL     1     -34.586  15.367  -5.774  1.00 20.00    -0.051 C 
HETATM   11  C5  UNL     1     -34.991  16.849  -5.896  1.00 20.00     0.014 C 
HETATM   12  C6  UNL     1     -35.861  14.509  -5.817  1.00 20.00     0.014 C 
HETATM   13  C7  UNL     1     -33.693  15.006  -6.973  1.00 20.00     0.014 C 
ENDBRANCH   9  10
ENDBRANCH   8   9
ENDBRANCH   1   8
TORSDOF 6
ENDMDL
MODEL 9
REMARK VINA RESULT:      -3.9      1.631      4.420
REMARK  6 active torsions:
REMARK  status: ('A' for Active; 'I' for Inactive)
REMARK    1  A    between atoms: C1_1  and  C4_4 
REMARK    2  A    between atoms: C1_1  and  C8_8 
REMARK    3  A    between atoms: C8_8  and  C9_9 
REMARK    4  A    between atoms: C9_9  and  C10_10 
REMARK    5  A    between atoms: C10_10  and  C11_11 
REMARK    6  A    between atoms: C11_11  and  C12_12 
ROOT
HETATM    1  C9  UNL     1     -35.023  13.792  -4.012  1.00 20.00     0.007 C 
ENDROOT
BRANCH   1   2
HETATM    2  C8  UNL     1     -33.897  14.692  -4.518  1.00 20.00     0.079 C 
BRANCH   2   3
HETATM    3  C1  UNL     1     -33.939  16.092  -3.939  1.00 20.00     0.131 C 
HETATM    4  O13 UNL     1     -34.051  17.115  -4.602  1.00 20.00    -0.298 OA
BRANCH   3   5
HETATM    5  C4  UNL     1     -33.798  16.175  -2.457  1.00 20.00     0.055 A 
HETATM    6  C2  UNL     1     -33.955  17.506  -1.798  1.00 20.00     0.013 A 
HETATM    7  C3  UNL     1     -35.016  16.458  -1.641  1.00 20.00     0.013 A 
ENDBRANCH   3   5
ENDBRANCH   2   3
ENDBRANCH   1   2
BRANCH   1   8
HETATM    8  C10 UNL     1     -36.281  13.881  -4.886  1.00 20.00     0.001 C 
BRANCH   8   9
HETATM    9  C11 UNL     1     -37.381  14.687  -4.183  1.00 20.00     0.008 C 
BRANCH   9  10
HETATM   10  C12 UNL     1     -37.826  15.989  -4.900  1.00 20.00    -0.051 C 
HETATM   11  C5  UNL     1     -37.026  16.112  -6.212  1.00 20.00     0.014 C 
HETATM   12  C6  UNL     1     -37.536  17.228  -4.037  1.00 20.00     0.014 C 
HETATM   13  C7  UNL     1     -39.324  15.952  -5.246  1.00 20.00     0.014 C 
ENDBRANCH   9  10
ENDBRANCH   8   9
ENDBRANCH   1   8
TORSDOF 6
ENDMDL
