MODEL 1
REMARK VINA RESULT:      -5.1      0.000      0.000
REMARK  4 active torsions:
REMARK  status: ('A' for Active; 'I' for Inactive)
REMARK    1  A    between atoms: C5_5  and  C6_6 
REMARK    2  A    between atoms: C6_6  and  C7_7 
REMARK    3  A    between atoms: C7_7  and  C9_9 
REMARK    4  A    between atoms: C8_8  and  C9_9 
ROOT
HETATM    1  C1  UNL     1     -33.641   9.230  -0.216  1.00 20.00     0.012 C 
HETATM    2  C2  UNL     1     -32.875   8.527   0.384  1.00 20.00    -0.117 C 
HETATM    3  C5  UNL     1     -31.936   7.665   1.116  1.00 20.00     0.093 C 
ENDROOT
BRANCH   3   4
HETATM    4  C6  UNL     1     -32.269   7.580   2.608  1.00 20.00     0.014 C 
BRANCH   4   5
HETATM    5  C7  UNL     1     -33.061   6.315   2.968  1.00 20.00     0.021 C 
BRANCH   5   6
HETATM    6  C9  UNL     1     -34.075   6.530   4.107  1.00 20.00     0.085 C 
HETATM    7 CL10 UNL     1     -33.216   7.340   5.466  1.00 20.00    -0.125 Cl
BRANCH   6   8
HETATM    8  C8  UNL     1     -34.814   5.256   4.588  1.00 20.00    -0.004 C 
HETATM    9  C3  UNL     1     -34.272   3.990   3.912  1.00 20.00     0.011 C 
HETATM   10  C4  UNL     1     -34.811   5.072   6.108  1.00 20.00     0.011 C 
ENDBRANCH   6   8
ENDBRANCH   5   6
ENDBRANCH   4   5
ENDBRANCH   3   4
TORSDOF 4
ENDMDL
MODEL 2
REMARK VINA RESULT:      -4.7      1.791      4.787
REMARK  4 active torsions:
REMARK  status: ('A' for Active; 'I' for Inactive)
REMARK    1  A    between atoms: C5_5  and  C6_6 
REMARK    2  A    between atoms: C6_6  and  C7_7 
REMARK    3  A    between atoms: C7_7  and  C9_9 
REMARK    4  A    between atoms: C8_8  and  C9_9 
ROOT
HETATM    1  C1  UNL     1     -33.727   7.372   6.459  1.00 20.00     0.012 C 
HETATM    2  C2  UNL     1     -34.218   6.327   6.129  1.00 20.00    -0.117 C 
HETATM    3  C5  UNL     1     -34.818   5.047   5.729  1.00 20.00     0.093 C 
ENDROOT
BRANCH   3   4
HETATM    4  C6  UNL     1     -34.803   4.849   4.211  1.00 20.00     0.014 C 
BRANCH   4   5
HETATM    5  C7  UNL     1     -34.477   6.139   3.447  1.00 20.00     0.021 C 
BRANCH   5   6
HETATM    6  C9  UNL     1     -33.519   5.924   2.261  1.00 20.00     0.085 C 
HETATM    7 CL10 UNL     1     -32.889   4.240   2.357  1.00 20.00    -0.125 Cl
BRANCH   6   8
HETATM    8  C8  UNL     1     -32.364   6.950   2.145  1.00 20.00    -0.004 C 
HETATM    9  C3  UNL     1     -32.715   8.101   1.194  1.00 20.00     0.011 C 
HETATM   10  C4  UNL     1     -31.894   7.513   3.489  1.00 20.00     0.011 C 
ENDBRANCH   6   8
ENDBRANCH   5   6
ENDBRANCH   4   5
ENDBRANCH   3   4
TORSDOF 4
ENDMDL
MODEL 3
REMARK VINA RESULT:      -4.5      1.607      1.872
REMARK  4 active torsions:
REMARK  status: ('A' for Active; 'I' for Inactive)
REMARK    1  A    between atoms: C5_5  and  C6_6 
REMARK    2  A    between atoms: C6_6  and  C7_7 
REMARK    3  A    between atoms: C7_7  and  C9_9 
REMARK    4  A    between atoms: C8_8  and  C9_9 
ROOT
HETATM    1  C1  UNL     1     -33.339   8.736  -0.458  1.00 20.00     0.012 C 
HETATM    2  C2  UNL     1     -32.927   8.591   0.660  1.00 20.00    -0.117 C 
HETATM    3  C5  UNL     1     -32.421   8.416   2.029  1.00 20.00     0.093 C 
ENDROOT
BRANCH   3   4
HETATM    4  C6  UNL     1     -32.148   6.947   2.364  1.00 20.00     0.014 C 
BRANCH   4   5
HETATM    5  C7  UNL     1     -33.435   6.129   2.538  1.00 20.00     0.021 C 
BRANCH   5   6
HETATM    6  C9  UNL     1     -33.522   5.406   3.895  1.00 20.00     0.085 C 
HETATM    7 CL10 UNL     1     -34.140   3.742   3.597  1.00 20.00    -0.125 Cl
BRANCH   6   8
HETATM    8  C8  UNL     1     -34.358   6.130   4.981  1.00 20.00    -0.004 C 
HETATM    9  C3  UNL     1     -35.028   5.140   5.942  1.00 20.00     0.011 C 
HETATM   10  C4  UNL     1     -33.571   7.174   5.779  1.00 20.00     0.011 C 
ENDBRANCH   6   8
ENDBRANCH   5   6
ENDBRANCH   4   5
ENDBRANCH   3   4
TORSDOF 4
ENDMDL
MODEL 4
REMARK VINA RESULT:      -4.5      1.243      4.846
REMARK  4 active torsions:
REMARK  status: ('A' for Active; 'I' for Inactive)
REMARK    1  A    between atoms: C5_5  and  C6_6 
REMARK    2  A    between atoms: C6_6  and  C7_7 
REMARK    3  A    between atoms: C7_7  and  C9_9 
REMARK    4  A    between atoms: C8_8  and  C9_9 
ROOT
HETATM    1  C1  UNL     1     -34.448   6.168   5.996  1.00 20.00     0.012 C 
HETATM    2  C2  UNL     1     -34.475   5.467   5.021  1.00 20.00    -0.117 C 
HETATM    3  C5  UNL     1     -34.511   4.607   3.830  1.00 20.00     0.093 C 
ENDROOT
BRANCH   3   4
HETATM    4  C6  UNL     1     -33.432   4.982   2.811  1.00 20.00     0.014 C 
BRANCH   4   5
HETATM    5  C7  UNL     1     -33.665   6.361   2.180  1.00 20.00     0.021 C 
BRANCH   5   6
HETATM    6  C9  UNL     1     -32.369   7.166   1.970  1.00 20.00     0.085 C 
HETATM    7 CL10 UNL     1     -31.789   7.712   3.584  1.00 20.00    -0.125 Cl
BRANCH   6   8
HETATM    8  C8  UNL     1     -32.477   8.353   0.981  1.00 20.00    -0.004 C 
HETATM    9  C3  UNL     1     -33.167   7.948  -0.328  1.00 20.00     0.011 C 
HETATM   10  C4  UNL     1     -33.163   9.591   1.566  1.00 20.00     0.011 C 
ENDBRANCH   6   8
ENDBRANCH   5   6
ENDBRANCH   4   5
ENDBRANCH   3   4
TORSDOF 4
ENDMDL
MODEL 5
REMARK VINA RESULT:      -4.2     11.136     12.211
REMARK  4 active torsions:
REMARK  status: ('A' for Active; 'I' for Inactive)
REMARK    1  A    between atoms: C5_5  and  C6_6 
REMARK    2  A    between atoms: C6_6  and  C7_7 
REMARK    3  A    between atoms: C7_7  and  C9_9 
REMARK    4  A    between atoms: C8_8  and  C9_9 
ROOT
HETATM    1  C1  UNL     1     -35.098  16.383  -1.544  1.00 20.00     0.012 C 
HETATM    2  C2  UNL     1     -34.253  16.235  -2.384  1.00 20.00    -0.117 C 
HETATM    3  C5  UNL     1     -33.218  16.056  -3.411  1.00 20.00     0.093 C 
ENDROOT
BRANCH   3   4
HETATM    4  C6  UNL     1     -33.343  14.712  -4.133  1.00 20.00     0.014 C 
BRANCH   4   5
HETATM    5  C7  UNL     1     -34.790  14.201  -4.189  1.00 20.00     0.021 C 
BRANCH   5   6
HETATM    6  C9  UNL     1     -35.487  14.482  -5.533  1.00 20.00     0.085 C 
HETATM    7 CL10 UNL     1     -34.226  14.974  -6.719  1.00 20.00    -0.125 Cl
BRANCH   6   8
HETATM    8  C8  UNL     1     -36.641  15.514  -5.480  1.00 20.00    -0.004 C 
HETATM    9  C3  UNL     1     -37.531  15.314  -4.245  1.00 20.00     0.011 C 
HETATM   10  C4  UNL     1     -36.177  16.971  -5.553  1.00 20.00     0.011 C 
ENDBRANCH   6   8
ENDBRANCH   5   6
ENDBRANCH   4   5
ENDBRANCH   3   4
TORSDOF 4
ENDMDL
MODEL 6
REMARK VINA RESULT:      -4.2     10.656     11.753
REMARK  4 active torsions:
REMARK  status: ('A' for Active; 'I' for Inactive)
REMARK    1  A    between atoms: C5_5  and  C6_6 
REMARK    2  A    between atoms: C6_6  and  C7_7 
REMARK    3  A    between atoms: C7_7  and  C9_9 
REMARK    4  A    between atoms: C8_8  and  C9_9 
ROOT
HETATM    1  C1  UNL     1     -31.535  18.488  -0.854  1.00 20.00     0.012 C 
HETATM    2  C2  UNL     1     -32.586  18.000  -1.167  1.00 20.00    -0.117 C 
HETATM    3  C5  UNL     1     -33.873  17.403  -1.549  1.00 20.00     0.093 C 
ENDROOT
BRANCH   3   4
HETATM    4  C6  UNL     1     -33.723  16.354  -2.653  1.00 20.00     0.014 C 
BRANCH   4   5
HETATM    5  C7  UNL     1     -34.977  15.486  -2.822  1.00 20.00     0.021 C 
BRANCH   5   6
HETATM    6  C9  UNL     1     -34.757  14.261  -3.728  1.00 20.00     0.085 C 
HETATM    7 CL10 UNL     1     -33.139  14.426  -4.499  1.00 20.00    -0.125 Cl
BRANCH   6   8
HETATM    8  C8  UNL     1     -35.861  14.010  -4.786  1.00 20.00    -0.004 C 
HETATM    9  C3  UNL     1     -37.242  14.462  -4.291  1.00 20.00     0.011 C 
HETATM   10  C4  UNL     1     -35.569  14.639  -6.151  1.00 20.00     0.011 C 
ENDBRANCH   6   8
ENDBRANCH   5   6
ENDBRANCH   4   5
ENDBRANCH   3   4
TORSDOF 4
ENDMDL
MODEL 7
REMARK VINA RESULT:      -4.0     15.293     16.633
REMARK  4 active torsions:
REMARK  status: ('A' for Active; 'I' for Inactive)
REMARK    1  A    between atoms: C5_5  and  C6_6 
REMARK    2  A    between atoms: C6_6  and  C7_7 
REMARK    3  A    between atoms: C7_7  and  C9_9 
REMARK    4  A    between atoms: C8_8  and  C9_9 
ROOT
HETATM    1  C1  UNL     1     -28.875  17.154  12.277  1.00 20.00     0.012 C 
HETATM    2  C2  UNL     1     -28.120  18.052  12.020  1.00 20.00    -0.117 C 
HETATM    3  C5  UNL     1     -27.198  19.152  11.705  1.00 20.00     0.093 C 
ENDROOT
BRANCH   3   4
HETATM    4  C6  UNL     1     -25.731  18.725  11.801  1.00 20.00     0.014 C 
BRANCH   4   5
HETATM    5  C7  UNL     1     -25.096  18.471  10.427  1.00 20.00     0.021 C 
BRANCH   5   6
HETATM    6  C9  UNL     1     -24.274  17.171  10.363  1.00 20.00     0.085 C 
HETATM    7 CL10 UNL     1     -24.952  16.027  11.576  1.00 20.00    -0.125 Cl
BRANCH   6   8
HETATM    8  C8  UNL     1     -22.745  17.343  10.547  1.00 20.00    -0.004 C 
HETATM    9  C3  UNL     1     -22.152  18.320   9.524  1.00 20.00     0.011 C 
HETATM   10  C4  UNL     1     -22.330  17.758  11.961  1.00 20.00     0.011 C 
ENDBRANCH   6   8
ENDBRANCH   5   6
ENDBRANCH   4   5
ENDBRANCH   3   4
TORSDOF 4
ENDMDL
MODEL 8
REMARK VINA RESULT:      -4.0     10.993     12.094
REMARK  4 active torsions:
REMARK  status: ('A' for Active; 'I' for Inactive)
REMARK    1  A    between atoms: C5_5  and  C6_6 
REMARK    2  A    between atoms: C6_6  and  C7_7 
REMARK    3  A    between atoms: C7_7  and  C9_9 
REMARK    4  A    between atoms: C8_8  and  C9_9 
ROOT
HETATM    1  C1  UNL     1     -36.386  13.569  -4.556  1.00 20.00     0.012 C 
HETATM    2  C2  UNL     1     -36.029  14.263  -5.468  1.00 20.00    -0.117 C 
HETATM    3  C5  UNL     1     -35.594  15.112  -6.586  1.00 20.00     0.093 C 
ENDROOT
BRANCH   3   4
HETATM    4  C6  UNL     1     -34.329  15.907  -6.254  1.00 20.00     0.014 C 
BRANCH   4   5
HETATM    5  C7  UNL     1     -34.422  16.633  -4.905  1.00 20.00     0.021 C 
BRANCH   5   6
HETATM    6  C9  UNL     1     -33.317  16.227  -3.913  1.00 20.00     0.085 C 
HETATM    7 CL10 UNL     1     -32.754  14.576  -4.357  1.00 20.00    -0.125 Cl
BRANCH   6   8
HETATM    8  C8  UNL     1     -33.709  16.303  -2.416  1.00 20.00    -0.004 C 
HETATM    9  C3  UNL     1     -33.197  17.590  -1.755  1.00 20.00     0.011 C 
HETATM   10  C4  UNL     1     -35.210  16.149  -2.156  1.00 20.00     0.011 C 
ENDBRANCH   6   8
ENDBRANCH   5   6
ENDBRANCH   4   5
ENDBRANCH   3   4
TORSDOF 4
ENDMDL
MODEL 9
REMARK VINA RESULT:      -4.0     10.866     11.862
REMARK  4 active torsions:
REMARK  status: ('A' for Active; 'I' for Inactive)
REMARK    1  A    between atoms: C5_5  and  C6_6 
REMARK    2  A    between atoms: C6_6  and  C7_7 
REMARK    3  A    between atoms: C7_7  and  C9_9 
REMARK    4  A    between atoms: C8_8  and  C9_9 
ROOT
HETATM    1  C1  UNL     1     -32.146  18.206   1.788  1.00 20.00     0.012 C 
HETATM    2  C2  UNL     1     -31.897  18.340   0.622  1.00 20.00    -0.117 C 
HETATM    3  C5  UNL     1     -31.589  18.505  -0.806  1.00 20.00     0.093 C 
ENDROOT
BRANCH   3   4
HETATM    4  C6  UNL     1     -32.839  18.408  -1.685  1.00 20.00     0.014 C 
BRANCH   4   5
HETATM    5  C7  UNL     1     -32.949  17.062  -2.412  1.00 20.00     0.021 C 
BRANCH   5   6
HETATM    6  C9  UNL     1     -34.400  16.573  -2.579  1.00 20.00     0.085 C 
HETATM    7 CL10 UNL     1     -35.217  16.708  -0.981  1.00 20.00    -0.125 Cl
BRANCH   6   8
HETATM    8  C8  UNL     1     -34.557  15.150  -3.172  1.00 20.00    -0.004 C 
HETATM    9  C3  UNL     1     -35.962  14.920  -3.744  1.00 20.00     0.011 C 
HETATM   10  C4  UNL     1     -33.504  14.795  -4.226  1.00 20.00     0.011 C 
ENDBRANCH   6   8
ENDBRANCH   5   6
ENDBRANCH   4   5
ENDBRANCH   3   4
TORSDOF 4
ENDMDL
