MODEL 1
REMARK VINA RESULT:      -6.1      0.000      0.000
REMARK  1 active torsions:
REMARK  status: ('A' for Active; 'I' for Inactive)
REMARK    1  A    between atoms: C8_8  and  C9_9 
ROOT
HETATM    1  C1  UNL     1     -32.957   8.713   0.571  1.00 20.00     0.012 C 
HETATM    2  C2  UNL     1     -32.621   7.986   1.466  1.00 20.00    -0.117 C 
HETATM    3  C9  UNL     1     -32.201   7.097   2.553  1.00 20.00     0.098 C 
ENDROOT
BRANCH   3   4
HETATM    4  C8  UNL     1     -33.343   6.859   3.538  1.00 20.00     0.004 C 
HETATM    5  C5  UNL     1     -33.809   5.402   3.477  1.00 20.00     0.083 C 
HETATM    6  C3  UNL     1     -34.866   5.135   4.527  1.00 20.00     0.127 C 
HETATM    7  C4  UNL     1     -34.539   5.567   5.938  1.00 20.00     0.078 C 
HETATM    8  O10 UNL     1     -35.890   4.507   4.266  1.00 20.00    -0.298 OA
HETATM    9  C6  UNL     1     -34.057   7.011   5.956  1.00 20.00     0.008 C 
HETATM   10  C7  UNL     1     -32.917   7.241   4.964  1.00 20.00     0.006 C 
ENDBRANCH   3   4
TORSDOF 1
ENDMDL
MODEL 2
REMARK VINA RESULT:      -5.5      1.192      2.041
REMARK  1 active torsions:
REMARK  status: ('A' for Active; 'I' for Inactive)
REMARK    1  A    between atoms: C8_8  and  C9_9 
ROOT
HETATM    1  C1  UNL     1     -33.171   8.363   0.487  1.00 20.00     0.012 C 
HETATM    2  C2  UNL     1     -32.573   8.030   1.474  1.00 20.00    -0.117 C 
HETATM    3  C9  UNL     1     -31.834   7.629   2.674  1.00 20.00     0.098 C 
ENDROOT
BRANCH   3   4
HETATM    4  C8  UNL     1     -32.576   6.532   3.434  1.00 20.00     0.004 C 
HETATM    5  C5  UNL     1     -33.603   7.143   4.391  1.00 20.00     0.083 C 
HETATM    6  C3  UNL     1     -34.415   6.058   5.066  1.00 20.00     0.127 C 
HETATM    7  C4  UNL     1     -35.031   5.016   4.162  1.00 20.00     0.078 C 
HETATM    8  O10 UNL     1     -34.648   6.083   6.273  1.00 20.00    -0.298 OA
HETATM    9  C6  UNL     1     -33.987   4.449   3.211  1.00 20.00     0.008 C 
HETATM   10  C7  UNL     1     -33.246   5.554   2.457  1.00 20.00     0.006 C 
ENDBRANCH   3   4
TORSDOF 1
ENDMDL
MODEL 3
REMARK VINA RESULT:      -5.0     11.028     12.162
REMARK  1 active torsions:
REMARK  status: ('A' for Active; 'I' for Inactive)
REMARK    1  A    between atoms: C8_8  and  C9_9 
ROOT
HETATM    1  C1  UNL     1     -35.155  16.961  -1.125  1.00 20.00     0.012 C 
HETATM    2  C2  UNL     1     -34.304  16.672  -1.921  1.00 20.00    -0.117 C 
HETATM    3  C9  UNL     1     -33.257  16.327  -2.887  1.00 20.00     0.098 C 
ENDROOT
BRANCH   3   4
HETATM    4  C8  UNL     1     -33.813  15.451  -4.008  1.00 20.00     0.004 C 
HETATM    5  C5  UNL     1     -34.956  14.576  -3.488  1.00 20.00     0.083 C 
HETATM    6  C3  UNL     1     -35.581  13.786  -4.618  1.00 20.00     0.127 C 
HETATM    7  C4  UNL     1     -35.980  14.569  -5.847  1.00 20.00     0.078 C 
HETATM    8  O10 UNL     1     -35.845  12.591  -4.501  1.00 20.00    -0.298 OA
HETATM    9  C6  UNL     1     -34.828  15.444  -6.321  1.00 20.00     0.008 C 
HETATM   10  C7  UNL     1     -34.275  16.314  -5.192  1.00 20.00     0.006 C 
ENDBRANCH   3   4
TORSDOF 1
ENDMDL
MODEL 4
REMARK VINA RESULT:      -4.9     11.139     11.785
REMARK  1 active torsions:
REMARK  status: ('A' for Active; 'I' for Inactive)
REMARK    1  A    between atoms: C8_8  and  C9_9 
ROOT
HETATM    1  C1  UNL     1     -33.282  18.177  -0.567  1.00 20.00     0.012 C 
HETATM    2  C2  UNL     1     -34.174  17.540  -1.057  1.00 20.00    -0.117 C 
HETATM    3  C9  UNL     1     -35.270  16.768  -1.650  1.00 20.00     0.098 C 
ENDROOT
BRANCH   3   4
HETATM    4  C8  UNL     1     -34.734  15.619  -2.501  1.00 20.00     0.004 C 
HETATM    5  C5  UNL     1     -35.840  15.050  -3.392  1.00 20.00     0.083 C 
HETATM    6  C3  UNL     1     -35.288  13.984  -4.314  1.00 20.00     0.127 C 
HETATM    7  C4  UNL     1     -34.054  14.350  -5.106  1.00 20.00     0.078 C 
HETATM    8  O10 UNL     1     -35.872  12.916  -4.488  1.00 20.00    -0.298 OA
HETATM    9  C6  UNL     1     -32.986  14.934  -4.191  1.00 20.00     0.008 C 
HETATM   10  C7  UNL     1     -33.532  16.080  -3.341  1.00 20.00     0.006 C 
ENDBRANCH   3   4
TORSDOF 1
ENDMDL
MODEL 5
REMARK VINA RESULT:      -4.8     11.079     12.169
REMARK  1 active torsions:
REMARK  status: ('A' for Active; 'I' for Inactive)
REMARK    1  A    between atoms: C8_8  and  C9_9 
ROOT
HETATM    1  C1  UNL     1     -32.299  18.115  -1.876  1.00 20.00     0.012 C 
HETATM    2  C2  UNL     1     -33.260  17.398  -1.933  1.00 20.00    -0.117 C 
HETATM    3  C9  UNL     1     -34.437  16.526  -1.992  1.00 20.00     0.098 C 
ENDROOT
BRANCH   3   4
HETATM    4  C8  UNL     1     -34.392  15.628  -3.226  1.00 20.00     0.004 C 
HETATM    5  C5  UNL     1     -35.608  14.699  -3.258  1.00 20.00     0.083 C 
HETATM    6  C3  UNL     1     -35.624  13.884  -4.533  1.00 20.00     0.127 C 
HETATM    7  C4  UNL     1     -35.461  14.650  -5.825  1.00 20.00     0.078 C 
HETATM    8  O10 UNL     1     -35.862  12.678  -4.525  1.00 20.00    -0.298 OA
HETATM    9  C6  UNL     1     -34.258  15.579  -5.747  1.00 20.00     0.008 C 
HETATM   10  C7  UNL     1     -34.309  16.471  -4.508  1.00 20.00     0.006 C 
ENDBRANCH   3   4
TORSDOF 1
ENDMDL
MODEL 6
REMARK VINA RESULT:      -4.6     15.489     16.794
REMARK  1 active torsions:
REMARK  status: ('A' for Active; 'I' for Inactive)
REMARK    1  A    between atoms: C8_8  and  C9_9 
ROOT
HETATM    1  C1  UNL     1     -24.793  15.514  12.019  1.00 20.00     0.012 C 
HETATM    2  C2  UNL     1     -23.906  16.315  11.899  1.00 20.00    -0.117 C 
HETATM    3  C9  UNL     1     -22.820  17.290  11.765  1.00 20.00     0.098 C 
ENDROOT
BRANCH   3   4
HETATM    4  C8  UNL     1     -22.900  18.018  10.424  1.00 20.00     0.004 C 
HETATM    5  C5  UNL     1     -22.433  17.104   9.289  1.00 20.00     0.083 C 
HETATM    6  C3  UNL     1     -22.612  17.783   7.949  1.00 20.00     0.127 C 
HETATM    7  C4  UNL     1     -23.972  18.381   7.672  1.00 20.00     0.078 C 
HETATM    8  O10 UNL     1     -21.732  17.759   7.090  1.00 20.00    -0.298 OA
HETATM    9  C6  UNL     1     -24.414  19.263   8.832  1.00 20.00     0.008 C 
HETATM   10  C7  UNL     1     -24.327  18.528  10.169  1.00 20.00     0.006 C 
ENDBRANCH   3   4
TORSDOF 1
ENDMDL
MODEL 7
REMARK VINA RESULT:      -4.6     11.435     12.151
REMARK  1 active torsions:
REMARK  status: ('A' for Active; 'I' for Inactive)
REMARK    1  A    between atoms: C8_8  and  C9_9 
ROOT
HETATM    1  C1  UNL     1     -34.011  18.683  -0.222  1.00 20.00     0.012 C 
HETATM    2  C2  UNL     1     -33.432  18.021  -1.040  1.00 20.00    -0.117 C 
HETATM    3  C9  UNL     1     -32.715  17.217  -2.034  1.00 20.00     0.098 C 
ENDROOT
BRANCH   3   4
HETATM    4  C8  UNL     1     -33.687  16.555  -3.008  1.00 20.00     0.004 C 
HETATM    5  C5  UNL     1     -32.970  15.489  -3.839  1.00 20.00     0.083 C 
HETATM    6  C3  UNL     1     -33.951  14.756  -4.729  1.00 20.00     0.127 C 
HETATM    7  C4  UNL     1     -35.193  14.214  -4.060  1.00 20.00     0.078 C 
HETATM    8  O10 UNL     1     -33.702  14.524  -5.910  1.00 20.00    -0.298 OA
HETATM    9  C6  UNL     1     -35.865  15.295  -3.224  1.00 20.00     0.008 C 
HETATM   10  C7  UNL     1     -34.884  15.954  -2.255  1.00 20.00     0.006 C 
ENDBRANCH   3   4
TORSDOF 1
ENDMDL
MODEL 8
REMARK VINA RESULT:      -4.6     11.488     12.097
REMARK  1 active torsions:
REMARK  status: ('A' for Active; 'I' for Inactive)
REMARK    1  A    between atoms: C8_8  and  C9_9 
ROOT
HETATM    1  C1  UNL     1     -35.992  13.582  -4.400  1.00 20.00     0.012 C 
HETATM    2  C2  UNL     1     -35.053  14.324  -4.294  1.00 20.00    -0.117 C 
HETATM    3  C9  UNL     1     -33.904  15.226  -4.177  1.00 20.00     0.098 C 
ENDROOT
BRANCH   3   4
HETATM    4  C8  UNL     1     -33.842  15.855  -2.786  1.00 20.00     0.004 C 
HETATM    5  C5  UNL     1     -32.915  17.073  -2.790  1.00 20.00     0.083 C 
HETATM    6  C3  UNL     1     -32.935  17.763  -1.443  1.00 20.00     0.127 C 
HETATM    7  C4  UNL     1     -34.295  18.087  -0.871  1.00 20.00     0.078 C 
HETATM    8  O10 UNL     1     -31.899  18.134  -0.893  1.00 20.00    -0.298 OA
HETATM    9  C6  UNL     1     -35.195  16.860  -0.906  1.00 20.00     0.008 C 
HETATM   10  C7  UNL     1     -35.249  16.235  -2.299  1.00 20.00     0.006 C 
ENDBRANCH   3   4
TORSDOF 1
ENDMDL
MODEL 9
REMARK VINA RESULT:      -4.6     11.278     11.977
REMARK  1 active torsions:
REMARK  status: ('A' for Active; 'I' for Inactive)
REMARK    1  A    between atoms: C8_8  and  C9_9 
ROOT
HETATM    1  C1  UNL     1     -32.556  18.172  -2.111  1.00 20.00     0.012 C 
HETATM    2  C2  UNL     1     -33.533  17.505  -1.906  1.00 20.00    -0.117 C 
HETATM    3  C9  UNL     1     -34.729  16.698  -1.648  1.00 20.00     0.098 C 
ENDROOT
BRANCH   3   4
HETATM    4  C8  UNL     1     -34.828  15.535  -2.632  1.00 20.00     0.004 C 
HETATM    5  C5  UNL     1     -36.202  15.518  -3.307  1.00 20.00     0.083 C 
HETATM    6  C3  UNL     1     -36.267  14.434  -4.360  1.00 20.00     0.127 C 
HETATM    7  C4  UNL     1     -35.140  14.403  -5.367  1.00 20.00     0.078 C 
HETATM    8  O10 UNL     1     -37.236  13.684  -4.455  1.00 20.00    -0.298 OA
HETATM    9  C6  UNL     1     -33.792  14.445  -4.661  1.00 20.00     0.008 C 
HETATM   10  C7  UNL     1     -33.703  15.609  -3.675  1.00 20.00     0.006 C 
ENDBRANCH   3   4
TORSDOF 1
ENDMDL
