MODEL 1
REMARK VINA RESULT:      -4.6      0.000      0.000
REMARK  1 active torsions:
REMARK  status: ('A' for Active; 'I' for Inactive)
REMARK    1  A    between atoms: C8_8  and  C10_10 
ROOT
HETATM    1  C1  UNL     1     -31.799  18.237  -0.825  1.00 20.00     0.012 C 
HETATM    2  C2  UNL     1     -32.926  17.887  -1.041  1.00 20.00    -0.117 C 
HETATM    3  C10 UNL     1     -34.306  17.473  -1.295  1.00 20.00     0.097 C 
ENDROOT
BRANCH   3   4
HETATM    4  C8  UNL     1     -34.348  16.289  -2.270  1.00 20.00    -0.002 C 
HETATM    5  C5  UNL     1     -33.297  16.471  -3.374  1.00 20.00     0.005 C 
HETATM    6  C3  UNL     1     -32.770  15.141  -3.914  1.00 20.00     0.000 C 
HETATM    7  C4  UNL     1     -33.731  14.363  -4.803  1.00 20.00     0.001 C 
HETATM    8  C6  UNL     1     -35.096  14.054  -4.186  1.00 20.00     0.016 C 
HETATM    9  C9  UNL     1     -35.966  15.301  -4.068  1.00 20.00     0.058 C 
HETATM   10  C7  UNL     1     -35.785  16.120  -2.791  1.00 20.00     0.021 C 
HETATM   11 BR11 UNL     1     -37.863  14.762  -4.168  1.00 20.00    -0.091 Br
ENDBRANCH   3   4
TORSDOF 1
ENDMDL
MODEL 2
REMARK VINA RESULT:      -4.6      1.953      2.822
REMARK  1 active torsions:
REMARK  status: ('A' for Active; 'I' for Inactive)
REMARK    1  A    between atoms: C8_8  and  C10_10 
ROOT
HETATM    1  C1  UNL     1     -30.642  18.309   1.090  1.00 20.00     0.012 C 
HETATM    2  C2  UNL     1     -31.141  18.497   0.015  1.00 20.00    -0.117 C 
HETATM    3  C10 UNL     1     -31.740  18.739  -1.297  1.00 20.00     0.097 C 
ENDROOT
BRANCH   3   4
HETATM    4  C8  UNL     1     -32.845  17.716  -1.589  1.00 20.00    -0.002 C 
HETATM    5  C5  UNL     1     -32.824  17.320  -3.073  1.00 20.00     0.005 C 
HETATM    6  C3  UNL     1     -33.321  15.894  -3.311  1.00 20.00     0.000 C 
HETATM    7  C4  UNL     1     -34.822  15.685  -3.162  1.00 20.00     0.001 C 
HETATM    8  C6  UNL     1     -35.417  16.117  -1.821  1.00 20.00     0.016 C 
HETATM    9  C9  UNL     1     -35.455  17.635  -1.675  1.00 20.00     0.058 C 
HETATM   10  C7  UNL     1     -34.191  18.281  -1.108  1.00 20.00     0.021 C 
HETATM   11 BR11 UNL     1     -36.958  18.121  -0.490  1.00 20.00    -0.091 Br
ENDBRANCH   3   4
TORSDOF 1
ENDMDL
MODEL 3
REMARK VINA RESULT:      -4.5      1.667      2.205
REMARK  1 active torsions:
REMARK  status: ('A' for Active; 'I' for Inactive)
REMARK    1  A    between atoms: C8_8  and  C10_10 
ROOT
HETATM    1  C1  UNL     1     -35.612  17.354   0.663  1.00 20.00     0.012 C 
HETATM    2  C2  UNL     1     -35.074  17.125  -0.384  1.00 20.00    -0.117 C 
HETATM    3  C10 UNL     1     -34.406  16.855  -1.657  1.00 20.00     0.097 C 
ENDROOT
BRANCH   3   4
HETATM    4  C8  UNL     1     -35.242  15.902  -2.521  1.00 20.00    -0.002 C 
HETATM    5  C5  UNL     1     -34.343  15.171  -3.528  1.00 20.00     0.005 C 
HETATM    6  C3  UNL     1     -34.871  13.783  -3.893  1.00 20.00     0.000 C 
HETATM    7  C4  UNL     1     -36.096  13.759  -4.798  1.00 20.00     0.001 C 
HETATM    8  C6  UNL     1     -37.305  14.548  -4.292  1.00 20.00     0.016 C 
HETATM    9  C9  UNL     1     -37.079  16.054  -4.373  1.00 20.00     0.058 C 
HETATM   10  C7  UNL     1     -36.396  16.690  -3.162  1.00 20.00     0.021 C 
HETATM   11 BR11 UNL     1     -38.825  16.945  -4.609  1.00 20.00    -0.091 Br
ENDBRANCH   3   4
TORSDOF 1
ENDMDL
MODEL 4
REMARK VINA RESULT:      -4.5      0.880      1.511
REMARK  1 active torsions:
REMARK  status: ('A' for Active; 'I' for Inactive)
REMARK    1  A    between atoms: C8_8  and  C10_10 
ROOT
HETATM    1  C1  UNL     1     -35.789  17.259   0.760  1.00 20.00     0.012 C 
HETATM    2  C2  UNL     1     -35.040  17.377  -0.171  1.00 20.00    -0.117 C 
HETATM    3  C10 UNL     1     -34.121  17.534  -1.298  1.00 20.00     0.097 C 
ENDROOT
BRANCH   3   4
HETATM    4  C8  UNL     1     -34.245  16.355  -2.270  1.00 20.00    -0.002 C 
HETATM    5  C5  UNL     1     -33.186  16.465  -3.377  1.00 20.00     0.005 C 
HETATM    6  C3  UNL     1     -32.750  15.102  -3.916  1.00 20.00     0.000 C 
HETATM    7  C4  UNL     1     -33.763  14.388  -4.802  1.00 20.00     0.001 C 
HETATM    8  C6  UNL     1     -35.144  14.171  -4.182  1.00 20.00     0.016 C 
HETATM    9  C9  UNL     1     -35.928  15.474  -4.064  1.00 20.00     0.058 C 
HETATM   10  C7  UNL     1     -35.690  16.281  -2.788  1.00 20.00     0.021 C 
HETATM   11 BR11 UNL     1     -37.857  15.063  -4.160  1.00 20.00    -0.091 Br
ENDBRANCH   3   4
TORSDOF 1
ENDMDL
MODEL 5
REMARK VINA RESULT:      -4.5     14.348     17.258
REMARK  1 active torsions:
REMARK  status: ('A' for Active; 'I' for Inactive)
REMARK    1  A    between atoms: C8_8  and  C10_10 
ROOT
HETATM    1  C1  UNL     1     -26.276  19.189   7.362  1.00 20.00     0.012 C 
HETATM    2  C2  UNL     1     -25.135  18.882   7.571  1.00 20.00    -0.117 C 
HETATM    3  C10 UNL     1     -23.741  18.507   7.808  1.00 20.00     0.097 C 
ENDROOT
BRANCH   3   4
HETATM    4  C8  UNL     1     -23.445  18.435   9.312  1.00 20.00    -0.002 C 
HETATM    5  C5  UNL     1     -22.145  17.657   9.561  1.00 20.00     0.005 C 
HETATM    6  C3  UNL     1     -21.412  18.119  10.821  1.00 20.00     0.000 C 
HETATM    7  C4  UNL     1     -22.045  17.702  12.142  1.00 20.00     0.001 C 
HETATM    8  C6  UNL     1     -23.506  18.115  12.332  1.00 20.00     0.016 C 
HETATM    9  C9  UNL     1     -24.448  17.307  11.445  1.00 20.00     0.058 C 
HETATM   10  C7  UNL     1     -24.672  17.858  10.037  1.00 20.00     0.021 C 
HETATM   11 BR11 UNL     1     -26.209  17.193  12.329  1.00 20.00    -0.091 Br
ENDBRANCH   3   4
TORSDOF 1
ENDMDL
MODEL 6
REMARK VINA RESULT:      -4.4      2.713      5.095
REMARK  1 active torsions:
REMARK  status: ('A' for Active; 'I' for Inactive)
REMARK    1  A    between atoms: C8_8  and  C10_10 
ROOT
HETATM    1  C1  UNL     1     -36.006  13.633  -4.450  1.00 20.00     0.012 C 
HETATM    2  C2  UNL     1     -35.072  14.333  -4.171  1.00 20.00    -0.117 C 
HETATM    3  C10 UNL     1     -33.924  15.178  -3.844  1.00 20.00     0.097 C 
ENDROOT
BRANCH   3   4
HETATM    4  C8  UNL     1     -34.242  16.093  -2.655  1.00 20.00    -0.002 C 
HETATM    5  C5  UNL     1     -35.448  16.987  -2.980  1.00 20.00     0.005 C 
HETATM    6  C3  UNL     1     -36.258  17.363  -1.739  1.00 20.00     0.000 C 
HETATM    7  C4  UNL     1     -35.610  18.384  -0.812  1.00 20.00     0.001 C 
HETATM    8  C6  UNL     1     -34.212  18.021  -0.307  1.00 20.00     0.016 C 
HETATM    9  C9  UNL     1     -33.163  18.121  -1.409  1.00 20.00     0.058 C 
HETATM   10  C7  UNL     1     -32.973  16.867  -2.263  1.00 20.00     0.021 C 
HETATM   11 BR11 UNL     1     -31.420  18.553  -0.588  1.00 20.00    -0.091 Br
ENDBRANCH   3   4
TORSDOF 1
ENDMDL
MODEL 7
REMARK VINA RESULT:      -4.4      2.175      4.505
REMARK  1 active torsions:
REMARK  status: ('A' for Active; 'I' for Inactive)
REMARK    1  A    between atoms: C8_8  and  C10_10 
ROOT
HETATM    1  C1  UNL     1     -37.055  14.331  -4.534  1.00 20.00     0.012 C 
HETATM    2  C2  UNL     1     -35.960  14.508  -4.077  1.00 20.00    -0.117 C 
HETATM    3  C10 UNL     1     -34.621  14.707  -3.523  1.00 20.00     0.097 C 
ENDROOT
BRANCH   3   4
HETATM    4  C8  UNL     1     -34.454  16.140  -3.003  1.00 20.00    -0.002 C 
HETATM    5  C5  UNL     1     -32.985  16.575  -3.106  1.00 20.00     0.005 C 
HETATM    6  C3  UNL     1     -32.829  18.082  -3.313  1.00 20.00     0.000 C 
HETATM    7  C4  UNL     1     -33.116  18.950  -2.094  1.00 20.00     0.001 C 
HETATM    8  C6  UNL     1     -34.493  18.755  -1.458  1.00 20.00     0.016 C 
HETATM    9  C9  UNL     1     -34.603  17.420  -0.730  1.00 20.00     0.058 C 
HETATM   10  C7  UNL     1     -35.039  16.230  -1.584  1.00 20.00     0.021 C 
HETATM   11 BR11 UNL     1     -35.904  17.607   0.743  1.00 20.00    -0.091 Br
ENDBRANCH   3   4
TORSDOF 1
ENDMDL
MODEL 8
REMARK VINA RESULT:      -4.3      2.469      4.587
REMARK  1 active torsions:
REMARK  status: ('A' for Active; 'I' for Inactive)
REMARK    1  A    between atoms: C8_8  and  C10_10 
ROOT
HETATM    1  C1  UNL     1     -33.237  14.516  -4.467  1.00 20.00     0.012 C 
HETATM    2  C2  UNL     1     -34.059  14.958  -3.712  1.00 20.00    -0.117 C 
HETATM    3  C10 UNL     1     -35.070  15.482  -2.794  1.00 20.00     0.097 C 
ENDROOT
BRANCH   3   4
HETATM    4  C8  UNL     1     -34.607  16.806  -2.174  1.00 20.00    -0.002 C 
HETATM    5  C5  UNL     1     -33.079  16.928  -2.258  1.00 20.00     0.005 C 
HETATM    6  C3  UNL     1     -32.606  18.379  -2.358  1.00 20.00     0.000 C 
HETATM    7  C4  UNL     1     -32.712  19.197  -1.077  1.00 20.00     0.001 C 
HETATM    8  C6  UNL     1     -34.103  19.252  -0.443  1.00 20.00     0.016 C 
HETATM    9  C9  UNL     1     -34.497  17.920   0.187  1.00 20.00     0.058 C 
HETATM   10  C7  UNL     1     -35.169  16.915  -0.747  1.00 20.00     0.021 C 
HETATM   11 BR11 UNL     1     -35.739  18.270   1.682  1.00 20.00    -0.091 Br
ENDBRANCH   3   4
TORSDOF 1
ENDMDL
MODEL 9
REMARK VINA RESULT:      -4.2      3.480      5.782
REMARK  1 active torsions:
REMARK  status: ('A' for Active; 'I' for Inactive)
REMARK    1  A    between atoms: C8_8  and  C10_10 
ROOT
HETATM    1  C1  UNL     1     -34.426  14.802  -3.436  1.00 20.00     0.012 C 
HETATM    2  C2  UNL     1     -34.040  15.885  -3.093  1.00 20.00    -0.117 C 
HETATM    3  C10 UNL     1     -33.567  17.210  -2.691  1.00 20.00     0.097 C 
ENDROOT
BRANCH   3   4
HETATM    4  C8  UNL     1     -33.643  17.377  -1.169  1.00 20.00    -0.002 C 
HETATM    5  C5  UNL     1     -34.995  17.986  -0.768  1.00 20.00     0.005 C 
HETATM    6  C3  UNL     1     -35.452  17.544   0.623  1.00 20.00     0.000 C 
HETATM    7  C4  UNL     1     -34.700  18.163   1.793  1.00 20.00     0.001 C 
HETATM    8  C6  UNL     1     -33.182  17.977   1.773  1.00 20.00     0.016 C 
HETATM    9  C9  UNL     1     -32.517  18.824   0.693  1.00 20.00     0.058 C 
HETATM   10  C7  UNL     1     -32.424  18.183  -0.691  1.00 20.00     0.021 C 
HETATM   11 BR11 UNL     1     -30.681  19.262   1.273  1.00 20.00    -0.091 Br
ENDBRANCH   3   4
TORSDOF 1
ENDMDL
