MODEL 1
REMARK VINA RESULT:      -4.9      0.000      0.000
REMARK  2 active torsions:
REMARK  status: ('A' for Active; 'I' for Inactive)
REMARK    1  A    between atoms: C6_6  and  C9_9 
REMARK    2  A    between atoms: C8_8  and  C9_9 
ROOT
HETATM    1  C1  UNL     1     -33.310   8.765  -0.410  1.00 20.00     0.012 C 
HETATM    2  C2  UNL     1     -32.886   8.555   0.693  1.00 20.00    -0.117 C 
HETATM    3  C8  UNL     1     -32.367   8.303   2.044  1.00 20.00     0.093 C 
ENDROOT
BRANCH   3   4
HETATM    4  C9  UNL     1     -32.222   6.810   2.285  1.00 20.00     0.017 C 
BRANCH   4   5
HETATM    5  C6  UNL     1     -33.528   6.208   2.782  1.00 20.00    -0.012 C 
HETATM    6  C3  UNL     1     -33.502   4.674   2.784  1.00 20.00     0.006 C 
HETATM    7  C4  UNL     1     -34.392   4.290   3.958  1.00 20.00     0.020 C 
HETATM    8  C7  UNL     1     -33.993   5.317   5.006  1.00 20.00     0.082 C 
HETATM    9  C5  UNL     1     -33.873   6.624   4.224  1.00 20.00     0.024 C 
HETATM   10 CL10 UNL     1     -35.164   5.421   6.328  1.00 20.00    -0.125 Cl
ENDBRANCH   4   5
ENDBRANCH   3   4
TORSDOF 2
ENDMDL
MODEL 2
REMARK VINA RESULT:      -4.5     10.696     11.824
REMARK  2 active torsions:
REMARK  status: ('A' for Active; 'I' for Inactive)
REMARK    1  A    between atoms: C6_6  and  C9_9 
REMARK    2  A    between atoms: C8_8  and  C9_9 
ROOT
HETATM    1  C1  UNL     1     -31.032  18.365   0.148  1.00 20.00     0.012 C 
HETATM    2  C2  UNL     1     -31.716  18.288  -0.834  1.00 20.00    -0.117 C 
HETATM    3  C8  UNL     1     -32.553  18.197  -2.039  1.00 20.00     0.093 C 
ENDROOT
BRANCH   3   4
HETATM    4  C9  UNL     1     -33.588  17.096  -1.882  1.00 20.00     0.017 C 
BRANCH   4   5
HETATM    5  C6  UNL     1     -33.966  16.507  -3.233  1.00 20.00    -0.012 C 
HETATM    6  C3  UNL     1     -32.913  15.523  -3.759  1.00 20.00     0.006 C 
HETATM    7  C4  UNL     1     -33.719  14.505  -4.552  1.00 20.00     0.020 C 
HETATM    8  C7  UNL     1     -34.941  14.313  -3.667  1.00 20.00     0.082 C 
HETATM    9  C5  UNL     1     -35.292  15.724  -3.199  1.00 20.00     0.024 C 
HETATM   10 CL10 UNL     1     -36.277  13.530  -4.525  1.00 20.00    -0.125 Cl
ENDBRANCH   4   5
ENDBRANCH   3   4
TORSDOF 2
ENDMDL
MODEL 3
REMARK VINA RESULT:      -4.4     11.305     12.287
REMARK  2 active torsions:
REMARK  status: ('A' for Active; 'I' for Inactive)
REMARK    1  A    between atoms: C6_6  and  C9_9 
REMARK    2  A    between atoms: C8_8  and  C9_9 
ROOT
HETATM    1  C1  UNL     1     -30.796  18.260   0.605  1.00 20.00     0.012 C 
HETATM    2  C2  UNL     1     -31.389  18.402  -0.428  1.00 20.00    -0.117 C 
HETATM    3  C8  UNL     1     -32.111  18.577  -1.696  1.00 20.00     0.093 C 
ENDROOT
BRANCH   3   4
HETATM    4  C9  UNL     1     -33.538  18.071  -1.566  1.00 20.00     0.017 C 
BRANCH   4   5
HETATM    5  C6  UNL     1     -33.656  16.638  -2.062  1.00 20.00    -0.012 C 
HETATM    6  C3  UNL     1     -35.107  16.140  -2.073  1.00 20.00     0.006 C 
HETATM    7  C4  UNL     1     -35.157  15.171  -3.246  1.00 20.00     0.020 C 
HETATM    8  C7  UNL     1     -34.320  15.895  -4.289  1.00 20.00     0.082 C 
HETATM    9  C5  UNL     1     -33.137  16.453  -3.499  1.00 20.00     0.024 C 
HETATM   10 CL10 UNL     1     -33.815  14.826  -5.606  1.00 20.00    -0.125 Cl
ENDBRANCH   4   5
ENDBRANCH   3   4
TORSDOF 2
ENDMDL
MODEL 4
REMARK VINA RESULT:      -4.4     11.071     12.218
REMARK  2 active torsions:
REMARK  status: ('A' for Active; 'I' for Inactive)
REMARK    1  A    between atoms: C6_6  and  C9_9 
REMARK    2  A    between atoms: C8_8  and  C9_9 
ROOT
HETATM    1  C1  UNL     1     -34.702  14.471  -3.789  1.00 20.00     0.012 C 
HETATM    2  C2  UNL     1     -34.556  15.373  -3.010  1.00 20.00    -0.117 C 
HETATM    3  C8  UNL     1     -34.383  16.476  -2.056  1.00 20.00     0.093 C 
ENDROOT
BRANCH   3   4
HETATM    4  C9  UNL     1     -33.030  17.138  -2.252  1.00 20.00     0.017 C 
BRANCH   4   5
HETATM    5  C6  UNL     1     -32.829  18.274  -1.260  1.00 20.00    -0.012 C 
HETATM    6  C3  UNL     1     -33.683  18.106   0.003  1.00 20.00     0.006 C 
HETATM    7  C4  UNL     1     -32.843  18.736   1.105  1.00 20.00     0.020 C 
HETATM    8  C7  UNL     1     -31.445  18.254   0.749  1.00 20.00     0.082 C 
HETATM    9  C5  UNL     1     -31.375  18.397  -0.771  1.00 20.00     0.024 C 
HETATM   10 CL10 UNL     1     -30.184  19.179   1.577  1.00 20.00    -0.125 Cl
ENDBRANCH   4   5
ENDBRANCH   3   4
TORSDOF 2
ENDMDL
MODEL 5
REMARK VINA RESULT:      -4.4      9.605     10.252
REMARK  2 active torsions:
REMARK  status: ('A' for Active; 'I' for Inactive)
REMARK    1  A    between atoms: C6_6  and  C9_9 
REMARK    2  A    between atoms: C8_8  and  C9_9 
ROOT
HETATM    1  C1  UNL     1     -41.565   2.342  -4.258  1.00 20.00     0.012 C 
HETATM    2  C2  UNL     1     -42.098   2.988  -3.398  1.00 20.00    -0.117 C 
HETATM    3  C8  UNL     1     -42.753   3.778  -2.346  1.00 20.00     0.093 C 
ENDROOT
BRANCH   3   4
HETATM    4  C9  UNL     1     -41.752   4.704  -1.678  1.00 20.00     0.017 C 
BRANCH   4   5
HETATM    5  C6  UNL     1     -42.446   5.923  -1.088  1.00 20.00    -0.012 C 
HETATM    6  C3  UNL     1     -42.762   5.752   0.403  1.00 20.00     0.006 C 
HETATM    7  C4  UNL     1     -42.656   7.160   0.969  1.00 20.00     0.020 C 
HETATM    8  C7  UNL     1     -41.433   7.700   0.242  1.00 20.00     0.082 C 
HETATM    9  C5  UNL     1     -41.602   7.207  -1.194  1.00 20.00     0.024 C 
HETATM   10 CL10 UNL     1     -41.313   9.463   0.346  1.00 20.00    -0.125 Cl
ENDBRANCH   4   5
ENDBRANCH   3   4
TORSDOF 2
ENDMDL
MODEL 6
REMARK VINA RESULT:      -4.3     14.604     15.940
REMARK  2 active torsions:
REMARK  status: ('A' for Active; 'I' for Inactive)
REMARK    1  A    between atoms: C6_6  and  C9_9 
REMARK    2  A    between atoms: C8_8  and  C9_9 
ROOT
HETATM    1  C1  UNL     1     -26.454  18.637   4.558  1.00 20.00     0.012 C 
HETATM    2  C2  UNL     1     -26.227  18.917   5.703  1.00 20.00    -0.117 C 
HETATM    3  C8  UNL     1     -25.954  19.263   7.105  1.00 20.00     0.093 C 
ENDROOT
BRANCH   3   4
HETATM    4  C9  UNL     1     -24.491  19.019   7.435  1.00 20.00     0.017 C 
BRANCH   4   5
HETATM    5  C6  UNL     1     -24.246  19.118   8.933  1.00 20.00    -0.012 C 
HETATM    6  C3  UNL     1     -25.552  19.175   9.737  1.00 20.00     0.006 C 
HETATM    7  C4  UNL     1     -25.211  18.478  11.047  1.00 20.00     0.020 C 
HETATM    8  C7  UNL     1     -24.357  17.313  10.570  1.00 20.00     0.082 C 
HETATM    9  C5  UNL     1     -23.458  17.921   9.495  1.00 20.00     0.024 C 
HETATM   10 CL10 UNL     1     -23.436  16.571  11.887  1.00 20.00    -0.125 Cl
ENDBRANCH   4   5
ENDBRANCH   3   4
TORSDOF 2
ENDMDL
MODEL 7
REMARK VINA RESULT:      -4.2     10.675     11.650
REMARK  2 active torsions:
REMARK  status: ('A' for Active; 'I' for Inactive)
REMARK    1  A    between atoms: C6_6  and  C9_9 
REMARK    2  A    between atoms: C8_8  and  C9_9 
ROOT
HETATM    1  C1  UNL     1     -34.728  18.077   1.676  1.00 20.00     0.012 C 
HETATM    2  C2  UNL     1     -34.915  17.573   0.603  1.00 20.00    -0.117 C 
HETATM    3  C8  UNL     1     -35.149  16.953  -0.708  1.00 20.00     0.093 C 
ENDROOT
BRANCH   3   4
HETATM    4  C9  UNL     1     -33.957  17.183  -1.622  1.00 20.00     0.017 C 
BRANCH   4   5
HETATM    5  C6  UNL     1     -34.217  16.619  -3.011  1.00 20.00    -0.012 C 
HETATM    6  C3  UNL     1     -33.048  15.770  -3.526  1.00 20.00     0.006 C 
HETATM    7  C4  UNL     1     -33.713  14.712  -4.396  1.00 20.00     0.020 C 
HETATM    8  C7  UNL     1     -34.945  14.360  -3.576  1.00 20.00     0.082 C 
HETATM    9  C5  UNL     1     -35.456  15.708  -3.068  1.00 20.00     0.024 C 
HETATM   10 CL10 UNL     1     -36.158  13.487  -4.524  1.00 20.00    -0.125 Cl
ENDBRANCH   4   5
ENDBRANCH   3   4
TORSDOF 2
ENDMDL
MODEL 8
REMARK VINA RESULT:      -4.2     11.040     12.043
REMARK  2 active torsions:
REMARK  status: ('A' for Active; 'I' for Inactive)
REMARK    1  A    between atoms: C6_6  and  C9_9 
REMARK    2  A    between atoms: C8_8  and  C9_9 
ROOT
HETATM    1  C1  UNL     1     -35.830  14.999  -6.871  1.00 20.00     0.012 C 
HETATM    2  C2  UNL     1     -35.773  14.510  -5.777  1.00 20.00    -0.117 C 
HETATM    3  C8  UNL     1     -35.708  13.909  -4.437  1.00 20.00     0.093 C 
ENDROOT
BRANCH   3   4
HETATM    4  C9  UNL     1     -34.469  14.391  -3.701  1.00 20.00     0.017 C 
BRANCH   4   5
HETATM    5  C6  UNL     1     -34.582  15.867  -3.351  1.00 20.00    -0.012 C 
HETATM    6  C3  UNL     1     -35.107  16.093  -1.928  1.00 20.00     0.006 C 
HETATM    7  C4  UNL     1     -34.425  17.378  -1.480  1.00 20.00     0.020 C 
HETATM    8  C7  UNL     1     -33.019  17.196  -2.031  1.00 20.00     0.082 C 
HETATM    9  C5  UNL     1     -33.234  16.608  -3.425  1.00 20.00     0.024 C 
HETATM   10 CL10 UNL     1     -32.109  18.714  -2.067  1.00 20.00    -0.125 Cl
ENDBRANCH   4   5
ENDBRANCH   3   4
TORSDOF 2
ENDMDL
MODEL 9
REMARK VINA RESULT:      -4.2     11.341     12.218
REMARK  2 active torsions:
REMARK  status: ('A' for Active; 'I' for Inactive)
REMARK    1  A    between atoms: C6_6  and  C9_9 
REMARK    2  A    between atoms: C8_8  and  C9_9 
ROOT
HETATM    1  C1  UNL     1     -33.692  18.303  -0.064  1.00 20.00     0.012 C 
HETATM    2  C2  UNL     1     -33.712  17.641  -1.065  1.00 20.00    -0.117 C 
HETATM    3  C8  UNL     1     -33.733  16.832  -2.292  1.00 20.00     0.093 C 
ENDROOT
BRANCH   3   4
HETATM    4  C9  UNL     1     -34.913  15.876  -2.275  1.00 20.00     0.017 C 
BRANCH   4   5
HETATM    5  C6  UNL     1     -34.820  14.875  -3.417  1.00 20.00    -0.012 C 
HETATM    6  C3  UNL     1     -36.163  14.673  -4.130  1.00 20.00     0.006 C 
HETATM    7  C4  UNL     1     -35.777  14.381  -5.573  1.00 20.00     0.020 C 
HETATM    8  C7  UNL     1     -34.641  15.365  -5.801  1.00 20.00     0.082 C 
HETATM    9  C5  UNL     1     -33.824  15.300  -4.511  1.00 20.00     0.024 C 
HETATM   10 CL10 UNL     1     -33.682  14.966  -7.234  1.00 20.00    -0.125 Cl
ENDBRANCH   4   5
ENDBRANCH   3   4
TORSDOF 2
ENDMDL
