MODEL 1
REMARK VINA RESULT:      -5.0      0.000      0.000
REMARK  2 active torsions:
REMARK  status: ('A' for Active; 'I' for Inactive)
REMARK    1  A    between atoms: C6_6  and  C7_7 
REMARK    2  A    between atoms: C8_8  and  O9_9 
ROOT
HETATM    1  C1  UNL     1     -34.391   6.534   6.288  1.00 20.00     0.003 C 
HETATM    2  C2  UNL     1     -33.559   7.128   5.151  1.00 20.00     0.007 C 
HETATM    3  C5  UNL     1     -34.792   5.129   5.837  1.00 20.00     0.032 C 
HETATM    4  C7  UNL     1     -33.883   6.262   3.938  1.00 20.00     0.018 C 
HETATM    5  C8  UNL     1     -34.007   4.872   4.556  1.00 20.00     0.122 C 
ENDROOT
BRANCH   4   6
HETATM    6  C6  UNL     1     -32.828   6.342   2.845  1.00 20.00    -0.008 A 
HETATM    7  C3  UNL     1     -32.832   7.489   1.871  1.00 20.00     0.005 A 
HETATM    8  C4  UNL     1     -31.750   7.388   2.910  1.00 20.00     0.005 A 
ENDBRANCH   4   6
BRANCH   5   9
HETATM    9  O9  UNL     1     -34.697   3.987   3.693  1.00 20.00    -0.395 OA
HETATM   10  H23 UNL     1     -34.298   3.109   3.808  1.00 20.00     0.210 HD
ENDBRANCH   5   9
TORSDOF 2
ENDMDL
MODEL 2
REMARK VINA RESULT:      -4.4      1.672      2.196
REMARK  2 active torsions:
REMARK  status: ('A' for Active; 'I' for Inactive)
REMARK    1  A    between atoms: C6_6  and  C7_7 
REMARK    2  A    between atoms: C8_8  and  O9_9 
ROOT
HETATM    1  C1  UNL     1     -35.155   4.638   4.724  1.00 20.00     0.003 C 
HETATM    2  C2  UNL     1     -34.526   5.362   3.534  1.00 20.00     0.007 C 
HETATM    3  C5  UNL     1     -34.757   5.431   5.969  1.00 20.00     0.032 C 
HETATM    4  C7  UNL     1     -33.443   6.247   4.146  1.00 20.00     0.018 C 
HETATM    5  C8  UNL     1     -34.095   6.701   5.449  1.00 20.00     0.122 C 
ENDROOT
BRANCH   4   6
HETATM    6  C6  UNL     1     -33.032   7.400   3.243  1.00 20.00    -0.008 A 
HETATM    7  C3  UNL     1     -31.581   7.626   2.916  1.00 20.00     0.005 A 
HETATM    8  C4  UNL     1     -32.523   7.130   1.854  1.00 20.00     0.005 A 
ENDBRANCH   4   6
BRANCH   5   9
HETATM    9  O9  UNL     1     -33.129   7.195   6.358  1.00 20.00    -0.395 OA
HETATM   10  H23 UNL     1     -33.590   7.804   6.959  1.00 20.00     0.210 HD
ENDBRANCH   5   9
TORSDOF 2
ENDMDL
MODEL 3
REMARK VINA RESULT:      -4.4     11.815     12.345
REMARK  2 active torsions:
REMARK  status: ('A' for Active; 'I' for Inactive)
REMARK    1  A    between atoms: C6_6  and  C7_7 
REMARK    2  A    between atoms: C8_8  and  O9_9 
ROOT
HETATM    1  C1  UNL     1     -33.376  14.755  -4.272  1.00 20.00     0.003 C 
HETATM    2  C2  UNL     1     -33.374  15.865  -3.220  1.00 20.00     0.007 C 
HETATM    3  C5  UNL     1     -34.838  14.349  -4.465  1.00 20.00     0.032 C 
HETATM    4  C7  UNL     1     -34.729  15.747  -2.528  1.00 20.00     0.018 C 
HETATM    5  C8  UNL     1     -35.652  15.374  -3.685  1.00 20.00     0.122 C 
ENDROOT
BRANCH   4   6
HETATM    6  C6  UNL     1     -35.147  17.021  -1.809  1.00 20.00    -0.008 A 
HETATM    7  C3  UNL     1     -35.349  17.019  -0.319  1.00 20.00     0.005 A 
HETATM    8  C4  UNL     1     -34.174  17.741  -0.918  1.00 20.00     0.005 A 
ENDBRANCH   4   6
BRANCH   5   9
HETATM    9  O9  UNL     1     -36.867  14.823  -3.213  1.00 20.00    -0.395 OA
HETATM   10  H23 UNL     1     -36.672  13.919  -2.914  1.00 20.00     0.210 HD
ENDBRANCH   5   9
TORSDOF 2
ENDMDL
MODEL 4
REMARK VINA RESULT:      -4.3     11.921     12.470
REMARK  2 active torsions:
REMARK  status: ('A' for Active; 'I' for Inactive)
REMARK    1  A    between atoms: C6_6  and  C7_7 
REMARK    2  A    between atoms: C8_8  and  O9_9 
ROOT
HETATM    1  C1  UNL     1     -34.251  17.034  -1.630  1.00 20.00     0.003 C 
HETATM    2  C2  UNL     1     -35.398  16.322  -2.348  1.00 20.00     0.007 C 
HETATM    3  C5  UNL     1     -32.996  16.775  -2.465  1.00 20.00     0.032 C 
HETATM    4  C7  UNL     1     -34.716  15.328  -3.282  1.00 20.00     0.018 C 
HETATM    5  C8  UNL     1     -33.488  16.108  -3.744  1.00 20.00     0.122 C 
ENDROOT
BRANCH   4   6
HETATM    6  C6  UNL     1     -35.607  14.872  -4.427  1.00 20.00    -0.008 A 
HETATM    7  C3  UNL     1     -36.052  13.438  -4.517  1.00 20.00     0.005 A 
HETATM    8  C4  UNL     1     -37.045  14.513  -4.170  1.00 20.00     0.005 A 
ENDBRANCH   4   6
BRANCH   5   9
HETATM    9  O9  UNL     1     -32.509  15.244  -4.290  1.00 20.00    -0.395 OA
HETATM   10  H23 UNL     1     -31.789  15.184  -3.641  1.00 20.00     0.210 HD
ENDBRANCH   5   9
TORSDOF 2
ENDMDL
MODEL 5
REMARK VINA RESULT:      -4.2     12.202     13.377
REMARK  2 active torsions:
REMARK  status: ('A' for Active; 'I' for Inactive)
REMARK    1  A    between atoms: C6_6  and  C7_7 
REMARK    2  A    between atoms: C8_8  and  O9_9 
ROOT
HETATM    1  C1  UNL     1     -36.603  15.824  -6.115  1.00 20.00     0.003 C 
HETATM    2  C2  UNL     1     -36.134  16.065  -4.680  1.00 20.00     0.007 C 
HETATM    3  C5  UNL     1     -35.475  15.065  -6.814  1.00 20.00     0.032 C 
HETATM    4  C7  UNL     1     -34.623  15.856  -4.725  1.00 20.00     0.018 C 
HETATM    5  C8  UNL     1     -34.485  14.702  -5.714  1.00 20.00     0.122 C 
ENDROOT
BRANCH   4   6
HETATM    6  C6  UNL     1     -34.019  15.557  -3.361  1.00 20.00    -0.008 A 
HETATM    7  C3  UNL     1     -33.221  16.608  -2.639  1.00 20.00     0.005 A 
HETATM    8  C4  UNL     1     -34.577  16.209  -2.127  1.00 20.00     0.005 A 
ENDBRANCH   4   6
BRANCH   5   9
HETATM    9  O9  UNL     1     -33.163  14.611  -6.213  1.00 20.00    -0.395 OA
HETATM   10  H23 UNL     1     -32.571  14.574  -5.443  1.00 20.00     0.210 HD
ENDBRANCH   5   9
TORSDOF 2
ENDMDL
MODEL 6
REMARK VINA RESULT:      -4.1     12.069     12.691
REMARK  2 active torsions:
REMARK  status: ('A' for Active; 'I' for Inactive)
REMARK    1  A    between atoms: C6_6  and  C7_7 
REMARK    2  A    between atoms: C8_8  and  O9_9 
ROOT
HETATM    1  C1  UNL     1     -33.978  14.810  -3.930  1.00 20.00     0.003 C 
HETATM    2  C2  UNL     1     -33.085  15.908  -3.353  1.00 20.00     0.007 C 
HETATM    3  C5  UNL     1     -35.400  15.122  -3.460  1.00 20.00     0.032 C 
HETATM    4  C7  UNL     1     -33.910  16.530  -2.230  1.00 20.00     0.018 C 
HETATM    5  C8  UNL     1     -35.321  16.498  -2.809  1.00 20.00     0.122 C 
ENDROOT
BRANCH   4   6
HETATM    6  C6  UNL     1     -33.446  17.928  -1.851  1.00 20.00    -0.008 A 
HETATM    7  C3  UNL     1     -33.232  18.290  -0.406  1.00 20.00     0.005 A 
HETATM    8  C4  UNL     1     -32.053  18.148  -1.329  1.00 20.00     0.005 A 
ENDBRANCH   4   6
BRANCH   5   9
HETATM    9  O9  UNL     1     -36.295  16.649  -1.793  1.00 20.00    -0.395 OA
HETATM   10  H23 UNL     1     -37.104  16.212  -2.107  1.00 20.00     0.210 HD
ENDBRANCH   5   9
TORSDOF 2
ENDMDL
MODEL 7
REMARK VINA RESULT:      -4.1     16.395     17.038
REMARK  2 active torsions:
REMARK  status: ('A' for Active; 'I' for Inactive)
REMARK    1  A    between atoms: C6_6  and  C7_7 
REMARK    2  A    between atoms: C8_8  and  O9_9 
ROOT
HETATM    1  C1  UNL     1     -25.352  19.263   8.593  1.00 20.00     0.003 C 
HETATM    2  C2  UNL     1     -24.972  18.655   9.943  1.00 20.00     0.007 C 
HETATM    3  C5  UNL     1     -24.207  18.930   7.635  1.00 20.00     0.032 C 
HETATM    4  C7  UNL     1     -23.470  18.403   9.847  1.00 20.00     0.018 C 
HETATM    5  C8  UNL     1     -23.307  17.963   8.395  1.00 20.00     0.122 C 
ENDROOT
BRANCH   4   6
HETATM    6  C6  UNL     1     -22.971  17.372  10.848  1.00 20.00    -0.008 A 
HETATM    7  C3  UNL     1     -22.180  17.806  12.052  1.00 20.00     0.005 A 
HETATM    8  C4  UNL     1     -23.582  17.291  12.220  1.00 20.00     0.005 A 
ENDBRANCH   4   6
BRANCH   5   9
HETATM    9  O9  UNL     1     -21.960  18.069   7.977  1.00 20.00    -0.395 OA
HETATM   10  H23 UNL     1     -21.644  17.167   7.803  1.00 20.00     0.210 HD
ENDBRANCH   5   9
TORSDOF 2
ENDMDL
MODEL 8
REMARK VINA RESULT:      -4.0     11.941     12.721
REMARK  2 active torsions:
REMARK  status: ('A' for Active; 'I' for Inactive)
REMARK    1  A    between atoms: C6_6  and  C7_7 
REMARK    2  A    between atoms: C8_8  and  O9_9 
ROOT
HETATM    1  C1  UNL     1     -33.597  16.651  -2.302  1.00 20.00     0.003 C 
HETATM    2  C2  UNL     1     -33.274  16.069  -3.678  1.00 20.00     0.007 C 
HETATM    3  C5  UNL     1     -35.030  16.224  -1.981  1.00 20.00     0.032 C 
HETATM    4  C7  UNL     1     -34.632  15.732  -4.286  1.00 20.00     0.018 C 
HETATM    5  C8  UNL     1     -35.415  15.235  -3.074  1.00 20.00     0.122 C 
ENDROOT
BRANCH   4   6
HETATM    6  C6  UNL     1     -34.548  14.710  -5.410  1.00 20.00    -0.008 A 
HETATM    7  C3  UNL     1     -35.456  14.821  -6.604  1.00 20.00     0.005 A 
HETATM    8  C4  UNL     1     -33.985  15.101  -6.748  1.00 20.00     0.005 A 
ENDBRANCH   4   6
BRANCH   5   9
HETATM    9  O9  UNL     1     -36.808  15.252  -3.323  1.00 20.00    -0.395 OA
HETATM   10  H23 UNL     1     -37.252  15.265  -2.459  1.00 20.00     0.210 HD
ENDBRANCH   5   9
TORSDOF 2
ENDMDL
MODEL 9
REMARK VINA RESULT:      -4.0     11.784     12.467
REMARK  2 active torsions:
REMARK  status: ('A' for Active; 'I' for Inactive)
REMARK    1  A    between atoms: C6_6  and  C7_7 
REMARK    2  A    between atoms: C8_8  and  O9_9 
ROOT
HETATM    1  C1  UNL     1     -32.790  17.512  -2.163  1.00 20.00     0.003 C 
HETATM    2  C2  UNL     1     -33.238  16.279  -2.948  1.00 20.00     0.007 C 
HETATM    3  C5  UNL     1     -33.948  17.872  -1.231  1.00 20.00     0.032 C 
HETATM    4  C7  UNL     1     -34.754  16.245  -2.788  1.00 20.00     0.018 C 
HETATM    5  C8  UNL     1     -34.939  16.719  -1.348  1.00 20.00     0.122 C 
ENDROOT
BRANCH   4   6
HETATM    6  C6  UNL     1     -35.354  14.873  -3.052  1.00 20.00    -0.008 A 
HETATM    7  C3  UNL     1     -36.337  14.678  -4.174  1.00 20.00     0.005 A 
HETATM    8  C4  UNL     1     -34.954  14.094  -4.274  1.00 20.00     0.005 A 
ENDBRANCH   4   6
BRANCH   5   9
HETATM    9  O9  UNL     1     -36.267  17.149  -1.118  1.00 20.00    -0.395 OA
HETATM   10  H23 UNL     1     -36.512  17.727  -1.859  1.00 20.00     0.210 HD
ENDBRANCH   5   9
TORSDOF 2
ENDMDL
