MODEL 1
REMARK VINA RESULT:      -5.1      0.000      0.000
REMARK  1 active torsions:
REMARK  status: ('A' for Active; 'I' for Inactive)
REMARK    1  A    between atoms: C8_8  and  C10_10 
ROOT
HETATM    1  C1  UNL     1     -32.175  18.135  -1.517  1.00 20.00     0.012 C 
HETATM    2  C2  UNL     1     -33.257  17.614  -1.517  1.00 20.00    -0.117 C 
HETATM    3  C10 UNL     1     -34.581  16.992  -1.504  1.00 20.00     0.097 C 
ENDROOT
BRANCH   3   4
HETATM    4  C8  UNL     1     -34.641  15.821  -2.492  1.00 20.00    -0.002 C 
HETATM    5  C5  UNL     1     -33.354  15.805  -3.328  1.00 20.00     0.005 C 
HETATM    6  C3  UNL     1     -33.269  14.707  -4.386  1.00 20.00     0.000 C 
HETATM    7  C4  UNL     1     -34.147  14.993  -5.598  1.00 20.00     0.001 C 
HETATM    8  C6  UNL     1     -35.600  14.543  -5.478  1.00 20.00     0.020 C 
HETATM    9  C9  UNL     1     -36.238  14.620  -4.090  1.00 20.00     0.082 C 
HETATM   10  C7  UNL     1     -35.941  15.907  -3.314  1.00 20.00     0.025 C 
HETATM   11 CL11 UNL     1     -38.019  14.440  -4.291  1.00 20.00    -0.125 Cl
ENDBRANCH   3   4
TORSDOF 1
ENDMDL
MODEL 2
REMARK VINA RESULT:      -5.0      0.799      1.413
REMARK  1 active torsions:
REMARK  status: ('A' for Active; 'I' for Inactive)
REMARK    1  A    between atoms: C8_8  and  C10_10 
ROOT
HETATM    1  C1  UNL     1     -35.635  17.118   0.487  1.00 20.00     0.012 C 
HETATM    2  C2  UNL     1     -34.988  17.171  -0.523  1.00 20.00    -0.117 C 
HETATM    3  C10 UNL     1     -34.193  17.253  -1.749  1.00 20.00     0.097 C 
ENDROOT
BRANCH   3   4
HETATM    4  C8  UNL     1     -34.387  15.997  -2.607  1.00 20.00    -0.002 C 
HETATM    5  C5  UNL     1     -33.141  15.789  -3.479  1.00 20.00     0.005 C 
HETATM    6  C3  UNL     1     -33.188  14.585  -4.419  1.00 20.00     0.000 C 
HETATM    7  C4  UNL     1     -34.089  14.820  -5.625  1.00 20.00     0.001 C 
HETATM    8  C6  UNL     1     -35.567  14.507  -5.410  1.00 20.00     0.020 C 
HETATM    9  C9  UNL     1     -36.139  14.778  -4.018  1.00 20.00     0.082 C 
HETATM   10  C7  UNL     1     -35.709  16.107  -3.391  1.00 20.00     0.025 C 
HETATM   11 CL11 UNL     1     -37.935  14.728  -4.140  1.00 20.00    -0.125 Cl
ENDBRANCH   3   4
TORSDOF 1
ENDMDL
MODEL 3
REMARK VINA RESULT:      -4.8      2.027      4.501
REMARK  1 active torsions:
REMARK  status: ('A' for Active; 'I' for Inactive)
REMARK    1  A    between atoms: C8_8  and  C10_10 
ROOT
HETATM    1  C1  UNL     1     -37.035  14.226  -4.469  1.00 20.00     0.012 C 
HETATM    2  C2  UNL     1     -35.931  14.448  -4.053  1.00 20.00    -0.117 C 
HETATM    3  C10 UNL     1     -34.580  14.701  -3.550  1.00 20.00     0.097 C 
ENDROOT
BRANCH   3   4
HETATM    4  C8  UNL     1     -34.457  16.136  -3.021  1.00 20.00    -0.002 C 
HETATM    5  C5  UNL     1     -32.983  16.562  -3.067  1.00 20.00     0.005 C 
HETATM    6  C3  UNL     1     -32.686  17.966  -2.545  1.00 20.00     0.000 C 
HETATM    7  C4  UNL     1     -32.745  18.049  -1.024  1.00 20.00     0.001 C 
HETATM    8  C6  UNL     1     -34.131  18.295  -0.433  1.00 20.00     0.020 C 
HETATM    9  C9  UNL     1     -35.319  17.675  -1.169  1.00 20.00     0.082 C 
HETATM   10  C7  UNL     1     -35.110  16.230  -1.629  1.00 20.00     0.025 C 
HETATM   11 CL11 UNL     1     -36.747  17.754  -0.074  1.00 20.00    -0.125 Cl
ENDBRANCH   3   4
TORSDOF 1
ENDMDL
MODEL 4
REMARK VINA RESULT:      -4.7      2.803      5.103
REMARK  1 active torsions:
REMARK  status: ('A' for Active; 'I' for Inactive)
REMARK    1  A    between atoms: C8_8  and  C10_10 
ROOT
HETATM    1  C1  UNL     1     -36.038  13.630  -4.435  1.00 20.00     0.012 C 
HETATM    2  C2  UNL     1     -35.063  14.260  -4.130  1.00 20.00    -0.117 C 
HETATM    3  C10 UNL     1     -33.864  15.020  -3.772  1.00 20.00     0.097 C 
ENDROOT
BRANCH   3   4
HETATM    4  C8  UNL     1     -34.142  15.940  -2.576  1.00 20.00    -0.002 C 
HETATM    5  C5  UNL     1     -35.574  16.481  -2.683  1.00 20.00     0.005 C 
HETATM    6  C3  UNL     1     -36.001  17.441  -1.574  1.00 20.00     0.000 C 
HETATM    7  C4  UNL     1     -35.382  18.825  -1.730  1.00 20.00     0.001 C 
HETATM    8  C6  UNL     1     -33.992  18.995  -1.124  1.00 20.00     0.020 C 
HETATM    9  C9  UNL     1     -33.063  17.781  -1.165  1.00 20.00     0.082 C 
HETATM   10  C7  UNL     1     -33.050  17.024  -2.496  1.00 20.00     0.025 C 
HETATM   11 CL11 UNL     1     -31.398  18.348  -0.782  1.00 20.00    -0.125 Cl
ENDBRANCH   3   4
TORSDOF 1
ENDMDL
MODEL 5
REMARK VINA RESULT:      -4.6      1.857      2.627
REMARK  1 active torsions:
REMARK  status: ('A' for Active; 'I' for Inactive)
REMARK    1  A    between atoms: C8_8  and  C10_10 
ROOT
HETATM    1  C1  UNL     1     -33.484  18.215  -1.088  1.00 20.00     0.012 C 
HETATM    2  C2  UNL     1     -33.254  17.394  -1.934  1.00 20.00    -0.117 C 
HETATM    3  C10 UNL     1     -32.956  16.392  -2.958  1.00 20.00     0.097 C 
ENDROOT
BRANCH   3   4
HETATM    4  C8  UNL     1     -34.184  16.136  -3.840  1.00 20.00    -0.002 C 
HETATM    5  C5  UNL     1     -35.255  15.415  -3.011  1.00 20.00     0.005 C 
HETATM    6  C3  UNL     1     -36.540  15.061  -3.757  1.00 20.00     0.000 C 
HETATM    7  C4  UNL     1     -36.360  13.878  -4.701  1.00 20.00     0.001 C 
HETATM    8  C6  UNL     1     -35.835  14.220  -6.092  1.00 20.00     0.020 C 
HETATM    9  C9  UNL     1     -34.845  15.381  -6.194  1.00 20.00     0.082 C 
HETATM   10  C7  UNL     1     -33.753  15.393  -5.119  1.00 20.00     0.025 C 
HETATM   11 CL11 UNL     1     -34.080  15.312  -7.822  1.00 20.00    -0.125 Cl
ENDBRANCH   3   4
TORSDOF 1
ENDMDL
MODEL 6
REMARK VINA RESULT:      -4.6      2.659      5.044
REMARK  1 active torsions:
REMARK  status: ('A' for Active; 'I' for Inactive)
REMARK    1  A    between atoms: C8_8  and  C10_10 
ROOT
HETATM    1  C1  UNL     1     -33.456  14.745  -4.247  1.00 20.00     0.012 C 
HETATM    2  C2  UNL     1     -34.157  15.236  -3.404  1.00 20.00    -0.117 C 
HETATM    3  C10 UNL     1     -35.025  15.819  -2.380  1.00 20.00     0.097 C 
ENDROOT
BRANCH   3   4
HETATM    4  C8  UNL     1     -34.445  17.142  -1.866  1.00 20.00    -0.002 C 
HETATM    5  C5  UNL     1     -32.936  17.170  -2.147  1.00 20.00     0.005 C 
HETATM    6  C3  UNL     1     -32.199  18.419  -1.668  1.00 20.00     0.000 C 
HETATM    7  C4  UNL     1     -31.999  18.438  -0.157  1.00 20.00     0.001 C 
HETATM    8  C6  UNL     1     -33.161  19.007   0.652  1.00 20.00     0.020 C 
HETATM    9  C9  UNL     1     -34.571  18.758   0.113  1.00 20.00     0.082 C 
HETATM   10  C7  UNL     1     -34.827  17.334  -0.387  1.00 20.00     0.025 C 
HETATM   11 CL11 UNL     1     -35.740  19.152   1.425  1.00 20.00    -0.125 Cl
ENDBRANCH   3   4
TORSDOF 1
ENDMDL
MODEL 7
REMARK VINA RESULT:      -4.6     11.214     11.877
REMARK  1 active torsions:
REMARK  status: ('A' for Active; 'I' for Inactive)
REMARK    1  A    between atoms: C8_8  and  C10_10 
ROOT
HETATM    1  C1  UNL     1     -33.368   8.397   0.028  1.00 20.00     0.012 C 
HETATM    2  C2  UNL     1     -32.706   8.252   1.019  1.00 20.00    -0.117 C 
HETATM    3  C10 UNL     1     -31.888   8.092   2.222  1.00 20.00     0.097 C 
ENDROOT
BRANCH   3   4
HETATM    4  C8  UNL     1     -32.371   6.895   3.051  1.00 20.00    -0.002 C 
HETATM    5  C5  UNL     1     -32.829   5.780   2.101  1.00 20.00     0.005 C 
HETATM    6  C3  UNL     1     -33.368   4.520   2.776  1.00 20.00     0.000 C 
HETATM    7  C4  UNL     1     -34.767   4.716   3.347  1.00 20.00     0.001 C 
HETATM    8  C6  UNL     1     -34.825   5.302   4.755  1.00 20.00     0.020 C 
HETATM    9  C9  UNL     1     -33.743   6.315   5.131  1.00 20.00     0.082 C 
HETATM   10  C7  UNL     1     -33.441   7.363   4.056  1.00 20.00     0.025 C 
HETATM   11 CL11 UNL     1     -34.264   7.142   6.643  1.00 20.00    -0.125 Cl
ENDBRANCH   3   4
TORSDOF 1
ENDMDL
MODEL 8
REMARK VINA RESULT:      -4.5      2.316      3.785
REMARK  1 active torsions:
REMARK  status: ('A' for Active; 'I' for Inactive)
REMARK    1  A    between atoms: C8_8  and  C10_10 
ROOT
HETATM    1  C1  UNL     1     -35.719  18.510   2.716  1.00 20.00     0.012 C 
HETATM    2  C2  UNL     1     -35.940  18.102   1.608  1.00 20.00    -0.117 C 
HETATM    3  C10 UNL     1     -36.229  17.607   0.262  1.00 20.00     0.097 C 
ENDROOT
BRANCH   3   4
HETATM    4  C8  UNL     1     -34.939  17.177  -0.447  1.00 20.00    -0.002 C 
HETATM    5  C5  UNL     1     -33.940  18.342  -0.419  1.00 20.00     0.005 C 
HETATM    6  C3  UNL     1     -32.604  18.082  -1.112  1.00 20.00     0.000 C 
HETATM    7  C4  UNL     1     -32.719  18.112  -2.632  1.00 20.00     0.001 C 
HETATM    8  C6  UNL     1     -33.132  16.797  -3.286  1.00 20.00     0.020 C 
HETATM    9  C9  UNL     1     -34.104  15.910  -2.507  1.00 20.00     0.082 C 
HETATM   10  C7  UNL     1     -35.275  16.652  -1.856  1.00 20.00     0.025 C 
HETATM   11 CL11 UNL     1     -34.741  14.663  -3.639  1.00 20.00    -0.125 Cl
ENDBRANCH   3   4
TORSDOF 1
ENDMDL
MODEL 9
REMARK VINA RESULT:      -4.4      1.464      1.916
REMARK  1 active torsions:
REMARK  status: ('A' for Active; 'I' for Inactive)
REMARK    1  A    between atoms: C8_8  and  C10_10 
ROOT
HETATM    1  C1  UNL     1     -32.923  18.135  -0.988  1.00 20.00     0.012 C 
HETATM    2  C2  UNL     1     -32.942  17.359  -1.903  1.00 20.00    -0.117 C 
HETATM    3  C10 UNL     1     -32.947  16.417  -3.023  1.00 20.00     0.097 C 
ENDROOT
BRANCH   3   4
HETATM    4  C8  UNL     1     -34.315  15.737  -3.155  1.00 20.00    -0.002 C 
HETATM    5  C5  UNL     1     -34.148  14.421  -3.927  1.00 20.00     0.005 C 
HETATM    6  C3  UNL     1     -35.433  13.631  -4.169  1.00 20.00     0.000 C 
HETATM    7  C4  UNL     1     -36.305  14.250  -5.255  1.00 20.00     0.001 C 
HETATM    8  C6  UNL     1     -37.257  15.347  -4.788  1.00 20.00     0.020 C 
HETATM    9  C9  UNL     1     -36.773  16.247  -3.650  1.00 20.00     0.082 C 
HETATM   10  C7  UNL     1     -35.323  16.723  -3.776  1.00 20.00     0.025 C 
HETATM   11 CL11 UNL     1     -37.867  17.676  -3.574  1.00 20.00    -0.125 Cl
ENDBRANCH   3   4
TORSDOF 1
ENDMDL
