MODEL 1
REMARK VINA RESULT:      -4.5      0.000      0.000
REMARK  4 active torsions:
REMARK  status: ('A' for Active; 'I' for Inactive)
REMARK    1  A    between atoms: C2_2  and  C5_5 
REMARK    2  A    between atoms: C5_5  and  C6_6 
REMARK    3  A    between atoms: C6_6  and  C7_7 
REMARK    4  A    between atoms: C7_7  and  C8_8 
ROOT
HETATM    1  C1  UNL     1     -32.856   8.219   0.966  1.00 20.00    -0.111 C 
HETATM    2  C2  UNL     1     -32.492   7.729   2.000  1.00 20.00    -0.107 C 
HETATM    3  C3  UNL     1     -33.296   8.816  -0.295  1.00 20.00     0.112 C 
ENDROOT
BRANCH   2   4
HETATM    4  C5  UNL     1     -32.048   7.128   3.266  1.00 20.00     0.094 C 
BRANCH   4   5
HETATM    5  C6  UNL     1     -33.173   7.064   4.301  1.00 20.00     0.014 C 
BRANCH   5   6
HETATM    6  C7  UNL     1     -34.474   6.479   3.730  1.00 20.00     0.020 C 
BRANCH   6   7
HETATM    7  C8  UNL     1     -34.932   5.202   4.450  1.00 20.00     0.078 C 
HETATM    8  C4  UNL     1     -34.183   3.980   3.931  1.00 20.00     0.026 C 
HETATM    9 CL9  UNL     1     -34.671   5.333   6.215  1.00 20.00    -0.125 Cl
ENDBRANCH   6   7
ENDBRANCH   5   6
ENDBRANCH   4   5
ENDBRANCH   2   4
TORSDOF 4
ENDMDL
MODEL 2
REMARK VINA RESULT:      -4.5      1.325      1.538
REMARK  4 active torsions:
REMARK  status: ('A' for Active; 'I' for Inactive)
REMARK    1  A    between atoms: C2_2  and  C5_5 
REMARK    2  A    between atoms: C5_5  and  C6_6 
REMARK    3  A    between atoms: C6_6  and  C7_7 
REMARK    4  A    between atoms: C7_7  and  C8_8 
ROOT
HETATM    1  C1  UNL     1     -32.792   7.916   1.456  1.00 20.00    -0.111 C 
HETATM    2  C2  UNL     1     -32.702   6.898   2.087  1.00 20.00    -0.107 C 
HETATM    3  C3  UNL     1     -32.902   9.159   0.692  1.00 20.00     0.112 C 
ENDROOT
BRANCH   2   4
HETATM    4  C5  UNL     1     -32.590   5.651   2.856  1.00 20.00     0.094 C 
BRANCH   4   5
HETATM    5  C6  UNL     1     -33.955   5.009   3.119  1.00 20.00     0.014 C 
BRANCH   5   6
HETATM    6  C7  UNL     1     -34.939   5.969   3.804  1.00 20.00     0.020 C 
BRANCH   6   7
HETATM    7  C8  UNL     1     -34.852   5.933   5.337  1.00 20.00     0.078 C 
HETATM    8  C4  UNL     1     -34.508   4.534   5.835  1.00 20.00     0.026 C 
HETATM    9 CL9  UNL     1     -33.616   7.080   5.936  1.00 20.00    -0.125 Cl
ENDBRANCH   6   7
ENDBRANCH   5   6
ENDBRANCH   4   5
ENDBRANCH   2   4
TORSDOF 4
ENDMDL
MODEL 3
REMARK VINA RESULT:      -3.9      9.486     10.356
REMARK  4 active torsions:
REMARK  status: ('A' for Active; 'I' for Inactive)
REMARK    1  A    between atoms: C2_2  and  C5_5 
REMARK    2  A    between atoms: C5_5  and  C6_6 
REMARK    3  A    between atoms: C6_6  and  C7_7 
REMARK    4  A    between atoms: C7_7  and  C8_8 
ROOT
HETATM    1  C1  UNL     1     -42.106   2.873  -3.266  1.00 20.00    -0.111 C 
HETATM    2  C2  UNL     1     -42.308   3.754  -2.476  1.00 20.00    -0.107 C 
HETATM    3  C3  UNL     1     -41.858   1.802  -4.231  1.00 20.00     0.112 C 
ENDROOT
BRANCH   2   4
HETATM    4  C5  UNL     1     -42.555   4.831  -1.506  1.00 20.00     0.094 C 
BRANCH   4   5
HETATM    5  C6  UNL     1     -41.258   5.477  -1.016  1.00 20.00     0.014 C 
BRANCH   5   6
HETATM    6  C7  UNL     1     -41.305   7.012  -1.062  1.00 20.00     0.020 C 
BRANCH   6   7
HETATM    7  C8  UNL     1     -41.474   7.655   0.322  1.00 20.00     0.078 C 
HETATM    8  C4  UNL     1     -41.498   9.176   0.222  1.00 20.00     0.026 C 
HETATM    9 CL9  UNL     1     -42.985   7.103   1.106  1.00 20.00    -0.125 Cl
ENDBRANCH   6   7
ENDBRANCH   5   6
ENDBRANCH   4   5
ENDBRANCH   2   4
TORSDOF 4
ENDMDL
MODEL 4
REMARK VINA RESULT:      -3.9     10.936     11.668
REMARK  4 active torsions:
REMARK  status: ('A' for Active; 'I' for Inactive)
REMARK    1  A    between atoms: C2_2  and  C5_5 
REMARK    2  A    between atoms: C5_5  and  C6_6 
REMARK    3  A    between atoms: C6_6  and  C7_7 
REMARK    4  A    between atoms: C7_7  and  C8_8 
ROOT
HETATM    1  C1  UNL     1     -34.758  16.725  -1.551  1.00 20.00    -0.111 C 
HETATM    2  C2  UNL     1     -34.001  16.323  -2.391  1.00 20.00    -0.107 C 
HETATM    3  C3  UNL     1     -35.679  17.219  -0.528  1.00 20.00     0.112 C 
ENDROOT
BRANCH   2   4
HETATM    4  C5  UNL     1     -33.075  15.829  -3.421  1.00 20.00     0.094 C 
BRANCH   4   5
HETATM    5  C6  UNL     1     -33.791  15.014  -4.500  1.00 20.00     0.014 C 
BRANCH   5   6
HETATM    6  C7  UNL     1     -34.790  14.004  -3.915  1.00 20.00     0.020 C 
BRANCH   6   7
HETATM    7  C8  UNL     1     -36.072  13.867  -4.750  1.00 20.00     0.078 C 
HETATM    8  C4  UNL     1     -37.211  14.677  -4.143  1.00 20.00     0.026 C 
HETATM    9 CL9  UNL     1     -35.804  14.417  -6.432  1.00 20.00    -0.125 Cl
ENDBRANCH   6   7
ENDBRANCH   5   6
ENDBRANCH   4   5
ENDBRANCH   2   4
TORSDOF 4
ENDMDL
MODEL 5
REMARK VINA RESULT:      -3.8     14.951     15.886
REMARK  4 active torsions:
REMARK  status: ('A' for Active; 'I' for Inactive)
REMARK    1  A    between atoms: C2_2  and  C5_5 
REMARK    2  A    between atoms: C5_5  and  C6_6 
REMARK    3  A    between atoms: C6_6  and  C7_7 
REMARK    4  A    between atoms: C7_7  and  C8_8 
ROOT
HETATM    1  C1  UNL     1     -25.771  18.939   6.655  1.00 20.00    -0.111 C 
HETATM    2  C2  UNL     1     -25.147  18.966   7.680  1.00 20.00    -0.107 C 
HETATM    3  C3  UNL     1     -26.529  18.902   5.405  1.00 20.00     0.112 C 
ENDROOT
BRANCH   2   4
HETATM    4  C5  UNL     1     -24.385  19.002   8.937  1.00 20.00     0.094 C 
BRANCH   4   5
HETATM    5  C6  UNL     1     -23.126  18.134   8.874  1.00 20.00     0.014 C 
BRANCH   5   6
HETATM    6  C7  UNL     1     -23.225  16.879   9.755  1.00 20.00     0.020 C 
BRANCH   6   7
HETATM    7  C8  UNL     1     -23.926  17.136  11.097  1.00 20.00     0.078 C 
HETATM    8  C4  UNL     1     -24.566  15.861  11.634  1.00 20.00     0.026 C 
HETATM    9 CL9  UNL     1     -22.772  17.760  12.314  1.00 20.00    -0.125 Cl
ENDBRANCH   6   7
ENDBRANCH   5   6
ENDBRANCH   4   5
ENDBRANCH   2   4
TORSDOF 4
ENDMDL
MODEL 6
REMARK VINA RESULT:      -3.8     11.318     11.905
REMARK  4 active torsions:
REMARK  status: ('A' for Active; 'I' for Inactive)
REMARK    1  A    between atoms: C2_2  and  C5_5 
REMARK    2  A    between atoms: C5_5  and  C6_6 
REMARK    3  A    between atoms: C6_6  and  C7_7 
REMARK    4  A    between atoms: C7_7  and  C8_8 
ROOT
HETATM    1  C1  UNL     1     -34.603  16.520  -1.818  1.00 20.00    -0.111 C 
HETATM    2  C2  UNL     1     -33.855  16.115  -2.665  1.00 20.00    -0.107 C 
HETATM    3  C3  UNL     1     -35.518  17.012  -0.788  1.00 20.00     0.112 C 
ENDROOT
BRANCH   2   4
HETATM    4  C5  UNL     1     -32.937  15.619  -3.700  1.00 20.00     0.094 C 
BRANCH   4   5
HETATM    5  C6  UNL     1     -33.549  14.479  -4.518  1.00 20.00     0.014 C 
BRANCH   5   6
HETATM    6  C7  UNL     1     -34.371  14.981  -5.714  1.00 20.00     0.020 C 
BRANCH   6   7
HETATM    7  C8  UNL     1     -35.884  14.794  -5.531  1.00 20.00     0.078 C 
HETATM    8  C4  UNL     1     -36.182  13.729  -4.482  1.00 20.00     0.026 C 
HETATM    9 CL9  UNL     1     -36.665  16.326  -5.038  1.00 20.00    -0.125 Cl
ENDBRANCH   6   7
ENDBRANCH   5   6
ENDBRANCH   4   5
ENDBRANCH   2   4
TORSDOF 4
ENDMDL
MODEL 7
REMARK VINA RESULT:      -3.7     11.256     12.377
REMARK  4 active torsions:
REMARK  status: ('A' for Active; 'I' for Inactive)
REMARK    1  A    between atoms: C2_2  and  C5_5 
REMARK    2  A    between atoms: C5_5  and  C6_6 
REMARK    3  A    between atoms: C6_6  and  C7_7 
REMARK    4  A    between atoms: C7_7  and  C8_8 
ROOT
HETATM    1  C1  UNL     1     -33.282  17.130  -2.109  1.00 20.00    -0.111 C 
HETATM    2  C2  UNL     1     -34.127  16.352  -2.458  1.00 20.00    -0.107 C 
HETATM    3  C3  UNL     1     -32.250  18.078  -1.687  1.00 20.00     0.112 C 
ENDROOT
BRANCH   2   4
HETATM    4  C5  UNL     1     -35.163  15.400  -2.884  1.00 20.00     0.094 C 
BRANCH   4   5
HETATM    5  C6  UNL     1     -34.603  14.303  -3.792  1.00 20.00     0.014 C 
BRANCH   5   6
HETATM    6  C7  UNL     1     -33.609  14.843  -4.831  1.00 20.00     0.020 C 
BRANCH   6   7
HETATM    7  C8  UNL     1     -34.284  15.306  -6.131  1.00 20.00     0.078 C 
HETATM    8  C4  UNL     1     -35.608  14.582  -6.350  1.00 20.00     0.026 C 
HETATM    9 CL9  UNL     1     -34.587  17.069  -6.104  1.00 20.00    -0.125 Cl
ENDBRANCH   6   7
ENDBRANCH   5   6
ENDBRANCH   4   5
ENDBRANCH   2   4
TORSDOF 4
ENDMDL
MODEL 8
REMARK VINA RESULT:      -3.7     10.835     11.791
REMARK  4 active torsions:
REMARK  status: ('A' for Active; 'I' for Inactive)
REMARK    1  A    between atoms: C2_2  and  C5_5 
REMARK    2  A    between atoms: C5_5  and  C6_6 
REMARK    3  A    between atoms: C6_6  and  C7_7 
REMARK    4  A    between atoms: C7_7  and  C8_8 
ROOT
HETATM    1  C1  UNL     1     -31.766  18.276  -0.737  1.00 20.00    -0.111 C 
HETATM    2  C2  UNL     1     -32.487  17.839  -1.592  1.00 20.00    -0.107 C 
HETATM    3  C3  UNL     1     -30.891  18.811   0.305  1.00 20.00     0.112 C 
ENDROOT
BRANCH   2   4
HETATM    4  C5  UNL     1     -33.369  17.302  -2.639  1.00 20.00     0.094 C 
BRANCH   4   5
HETATM    5  C6  UNL     1     -34.371  16.286  -2.086  1.00 20.00     0.014 C 
BRANCH   5   6
HETATM    6  C7  UNL     1     -35.307  15.728  -3.168  1.00 20.00     0.020 C 
BRANCH   6   7
HETATM    7  C8  UNL     1     -34.874  14.351  -3.692  1.00 20.00     0.078 C 
HETATM    8  C4  UNL     1     -35.986  13.699  -4.506  1.00 20.00     0.026 C 
HETATM    9 CL9  UNL     1     -33.412  14.484  -4.715  1.00 20.00    -0.125 Cl
ENDBRANCH   6   7
ENDBRANCH   5   6
ENDBRANCH   4   5
ENDBRANCH   2   4
TORSDOF 4
ENDMDL
MODEL 9
REMARK VINA RESULT:      -3.6      2.788      5.181
REMARK  4 active torsions:
REMARK  status: ('A' for Active; 'I' for Inactive)
REMARK    1  A    between atoms: C2_2  and  C5_5 
REMARK    2  A    between atoms: C5_5  and  C6_6 
REMARK    3  A    between atoms: C6_6  and  C7_7 
REMARK    4  A    between atoms: C7_7  and  C8_8 
ROOT
HETATM    1  C1  UNL     1     -34.608   5.307   4.952  1.00 20.00    -0.111 C 
HETATM    2  C2  UNL     1     -34.177   5.242   3.833  1.00 20.00    -0.107 C 
HETATM    3  C3  UNL     1     -35.129   5.384   6.316  1.00 20.00     0.112 C 
ENDROOT
BRANCH   2   4
HETATM    4  C5  UNL     1     -33.651   5.165   2.462  1.00 20.00     0.094 C 
BRANCH   4   5
HETATM    5  C6  UNL     1     -32.381   6.000   2.282  1.00 20.00     0.014 C 
BRANCH   5   6
HETATM    6  C7  UNL     1     -32.655   7.511   2.314  1.00 20.00     0.020 C 
BRANCH   6   7
HETATM    7  C8  UNL     1     -32.861   8.119   0.920  1.00 20.00     0.078 C 
HETATM    8  C4  UNL     1     -33.056   9.629   1.002  1.00 20.00     0.026 C 
HETATM    9 CL9  UNL     1     -31.464   7.775  -0.144  1.00 20.00    -0.125 Cl
ENDBRANCH   6   7
ENDBRANCH   5   6
ENDBRANCH   4   5
ENDBRANCH   2   4
TORSDOF 4
ENDMDL
