MODEL 1
REMARK VINA RESULT:      -4.4      0.000      0.000
REMARK  1 active torsions:
REMARK  status: ('A' for Active; 'I' for Inactive)
REMARK    1  A    between atoms: C4_4  and  C9_9 
ROOT
HETATM    1  C1  UNL     1     -34.849  16.271  -1.834  1.00 20.00     0.006 C 
HETATM    2  C2  UNL     1     -34.532  17.512  -0.994  1.00 20.00     0.016 C 
HETATM    3  C3  UNL     1     -33.316  17.578  -3.110  1.00 20.00     0.021 C 
HETATM    4  C4  UNL     1     -33.667  16.125  -2.788  1.00 20.00    -0.006 C 
HETATM    5  C5  UNL     1     -33.477  18.296  -1.775  1.00 20.00     0.058 C 
HETATM    6 BR10 UNL     1     -31.778  18.290  -0.806  1.00 20.00    -0.091 Br
ENDROOT
BRANCH   4   7
HETATM    7  C9  UNL     1     -33.994  15.302  -4.023  1.00 20.00    -0.048 C 
HETATM    8  C6  UNL     1     -34.378  16.233  -5.189  1.00 20.00     0.015 C 
HETATM    9  C7  UNL     1     -35.175  14.357  -3.728  1.00 20.00     0.015 C 
HETATM   10  C8  UNL     1     -32.771  14.462  -4.436  1.00 20.00     0.015 C 
ENDBRANCH   4   7
TORSDOF 1
ENDMDL
MODEL 2
REMARK VINA RESULT:      -4.4      0.064      1.380
REMARK  1 active torsions:
REMARK  status: ('A' for Active; 'I' for Inactive)
REMARK    1  A    between atoms: C4_4  and  C9_9 
ROOT
HETATM    1  C1  UNL     1     -34.878  16.264  -1.890  1.00 20.00     0.006 C 
HETATM    2  C2  UNL     1     -34.571  17.518  -1.066  1.00 20.00     0.016 C 
HETATM    3  C3  UNL     1     -33.312  17.540  -3.158  1.00 20.00     0.021 C 
HETATM    4  C4  UNL     1     -33.677  16.095  -2.817  1.00 20.00    -0.006 C 
HETATM    5  C5  UNL     1     -33.496  18.283  -1.840  1.00 20.00     0.058 C 
HETATM    6 BR10 UNL     1     -31.817  18.285  -0.836  1.00 20.00    -0.091 Br
ENDROOT
BRANCH   4   7
HETATM    7  C9  UNL     1     -33.984  15.251  -4.043  1.00 20.00    -0.048 C 
HETATM    8  C6  UNL     1     -35.145  14.285  -3.741  1.00 20.00     0.015 C 
HETATM    9  C7  UNL     1     -32.742  14.431  -4.443  1.00 20.00     0.015 C 
HETATM   10  C8  UNL     1     -34.384  16.159  -5.222  1.00 20.00     0.015 C 
ENDBRANCH   4   7
TORSDOF 1
ENDMDL
MODEL 3
REMARK VINA RESULT:      -4.2      1.543      1.970
REMARK  1 active torsions:
REMARK  status: ('A' for Active; 'I' for Inactive)
REMARK    1  A    between atoms: C4_4  and  C9_9 
ROOT
HETATM    1  C1  UNL     1     -33.010  16.679  -3.004  1.00 20.00     0.006 C 
HETATM    2  C2  UNL     1     -33.352  17.468  -1.736  1.00 20.00     0.016 C 
HETATM    3  C3  UNL     1     -35.121  15.866  -2.250  1.00 20.00     0.021 C 
HETATM    4  C4  UNL     1     -34.350  16.179  -3.533  1.00 20.00    -0.006 C 
HETATM    5  C5  UNL     1     -34.748  17.009  -1.314  1.00 20.00     0.058 C 
HETATM    6 BR10 UNL     1     -36.026  18.476  -1.511  1.00 20.00    -0.091 Br
ENDROOT
BRANCH   4   7
HETATM    7  C9  UNL     1     -34.218  14.979  -4.457  1.00 20.00    -0.048 C 
HETATM    8  C6  UNL     1     -34.517  15.398  -5.909  1.00 20.00     0.015 C 
HETATM    9  C7  UNL     1     -35.212  13.879  -4.039  1.00 20.00     0.015 C 
HETATM   10  C8  UNL     1     -32.787  14.413  -4.385  1.00 20.00     0.015 C 
ENDBRANCH   4   7
TORSDOF 1
ENDMDL
MODEL 4
REMARK VINA RESULT:      -4.2      1.542      2.386
REMARK  1 active torsions:
REMARK  status: ('A' for Active; 'I' for Inactive)
REMARK    1  A    between atoms: C4_4  and  C9_9 
ROOT
HETATM    1  C1  UNL     1     -33.013  16.683  -3.005  1.00 20.00     0.006 C 
HETATM    2  C2  UNL     1     -33.352  17.470  -1.736  1.00 20.00     0.016 C 
HETATM    3  C3  UNL     1     -35.124  15.871  -2.250  1.00 20.00     0.021 C 
HETATM    4  C4  UNL     1     -34.355  16.185  -3.534  1.00 20.00    -0.006 C 
HETATM    5  C5  UNL     1     -34.748  17.012  -1.312  1.00 20.00     0.058 C 
HETATM    6 BR10 UNL     1     -36.025  18.481  -1.504  1.00 20.00    -0.091 Br
ENDROOT
BRANCH   4   7
HETATM    7  C9  UNL     1     -34.225  14.987  -4.460  1.00 20.00    -0.048 C 
HETATM    8  C6  UNL     1     -35.222  13.889  -4.044  1.00 20.00     0.015 C 
HETATM    9  C7  UNL     1     -32.795  14.418  -4.387  1.00 20.00     0.015 C 
HETATM   10  C8  UNL     1     -34.522  15.408  -5.912  1.00 20.00     0.015 C 
ENDBRANCH   4   7
TORSDOF 1
ENDMDL
MODEL 5
REMARK VINA RESULT:      -4.2      1.533      2.371
REMARK  1 active torsions:
REMARK  status: ('A' for Active; 'I' for Inactive)
REMARK    1  A    between atoms: C4_4  and  C9_9 
ROOT
HETATM    1  C1  UNL     1     -33.015  16.691  -2.992  1.00 20.00     0.006 C 
HETATM    2  C2  UNL     1     -33.346  17.472  -1.717  1.00 20.00     0.016 C 
HETATM    3  C3  UNL     1     -35.128  15.885  -2.235  1.00 20.00     0.021 C 
HETATM    4  C4  UNL     1     -34.361  16.203  -3.519  1.00 20.00    -0.006 C 
HETATM    5  C5  UNL     1     -34.743  17.018  -1.292  1.00 20.00     0.058 C 
HETATM    6 BR10 UNL     1     -36.013  18.495  -1.471  1.00 20.00    -0.091 Br
ENDROOT
BRANCH   4   7
HETATM    7  C9  UNL     1     -34.241  15.010  -4.453  1.00 20.00    -0.048 C 
HETATM    8  C6  UNL     1     -32.815  14.429  -4.384  1.00 20.00     0.015 C 
HETATM    9  C7  UNL     1     -34.534  15.443  -5.903  1.00 20.00     0.015 C 
HETATM   10  C8  UNL     1     -35.246  13.916  -4.045  1.00 20.00     0.015 C 
ENDBRANCH   4   7
TORSDOF 1
ENDMDL
MODEL 6
REMARK VINA RESULT:      -4.1      2.392      3.998
REMARK  1 active torsions:
REMARK  status: ('A' for Active; 'I' for Inactive)
REMARK    1  A    between atoms: C4_4  and  C9_9 
ROOT
HETATM    1  C1  UNL     1     -35.246  15.255  -2.837  1.00 20.00     0.006 C 
HETATM    2  C2  UNL     1     -34.884  14.173  -3.858  1.00 20.00     0.016 C 
HETATM    3  C3  UNL     1     -33.131  15.870  -3.753  1.00 20.00     0.021 C 
HETATM    4  C4  UNL     1     -34.442  16.482  -3.258  1.00 20.00    -0.006 C 
HETATM    5  C5  UNL     1     -33.575  14.623  -4.509  1.00 20.00     0.058 C 
HETATM    6 BR10 UNL     1     -33.875  15.057  -6.393  1.00 20.00    -0.091 Br
ENDROOT
BRANCH   4   7
HETATM    7  C9  UNL     1     -34.245  17.482  -2.131  1.00 20.00    -0.048 C 
HETATM    8  C6  UNL     1     -34.781  18.864  -2.553  1.00 20.00     0.015 C 
HETATM    9  C7  UNL     1     -32.746  17.609  -1.794  1.00 20.00     0.015 C 
HETATM   10  C8  UNL     1     -35.002  17.016  -0.873  1.00 20.00     0.015 C 
ENDBRANCH   4   7
TORSDOF 1
ENDMDL
MODEL 7
REMARK VINA RESULT:      -4.1      2.378      3.993
REMARK  1 active torsions:
REMARK  status: ('A' for Active; 'I' for Inactive)
REMARK    1  A    between atoms: C4_4  and  C9_9 
ROOT
HETATM    1  C1  UNL     1     -35.250  15.339  -2.779  1.00 20.00     0.006 C 
HETATM    2  C2  UNL     1     -34.923  14.239  -3.792  1.00 20.00     0.016 C 
HETATM    3  C3  UNL     1     -33.125  15.888  -3.710  1.00 20.00     0.021 C 
HETATM    4  C4  UNL     1     -34.416  16.540  -3.214  1.00 20.00    -0.006 C 
HETATM    5  C5  UNL     1     -33.607  14.648  -4.454  1.00 20.00     0.058 C 
HETATM    6 BR10 UNL     1     -33.905  15.074  -6.339  1.00 20.00    -0.091 Br
ENDROOT
BRANCH   4   7
HETATM    7  C9  UNL     1     -34.186  17.544  -2.097  1.00 20.00    -0.048 C 
HETATM    8  C6  UNL     1     -34.936  17.099  -0.826  1.00 20.00     0.015 C 
HETATM    9  C7  UNL     1     -34.701  18.933  -2.521  1.00 20.00     0.015 C 
HETATM   10  C8  UNL     1     -32.682  17.645  -1.779  1.00 20.00     0.015 C 
ENDBRANCH   4   7
TORSDOF 1
ENDMDL
MODEL 8
REMARK VINA RESULT:      -4.1      2.583      4.262
REMARK  1 active torsions:
REMARK  status: ('A' for Active; 'I' for Inactive)
REMARK    1  A    between atoms: C4_4  and  C9_9 
ROOT
HETATM    1  C1  UNL     1     -33.259  15.779  -3.300  1.00 20.00     0.006 C 
HETATM    2  C2  UNL     1     -33.611  14.961  -4.546  1.00 20.00     0.016 C 
HETATM    3  C3  UNL     1     -35.481  16.396  -3.907  1.00 20.00     0.021 C 
HETATM    4  C4  UNL     1     -34.602  16.155  -2.680  1.00 20.00    -0.006 C 
HETATM    5  C5  UNL     1     -35.069  15.290  -4.872  1.00 20.00     0.058 C 
HETATM    6 BR10 UNL     1     -36.192  13.713  -4.598  1.00 20.00    -0.091 Br
ENDROOT
BRANCH   4   7
HETATM    7  C9  UNL     1     -34.518  17.363  -1.760  1.00 20.00    -0.048 C 
HETATM    8  C6  UNL     1     -35.203  18.575  -2.419  1.00 20.00     0.015 C 
HETATM    9  C7  UNL     1     -33.042  17.712  -1.483  1.00 20.00     0.015 C 
HETATM   10  C8  UNL     1     -35.219  17.058  -0.423  1.00 20.00     0.015 C 
ENDBRANCH   4   7
TORSDOF 1
ENDMDL
MODEL 9
REMARK VINA RESULT:      -4.1      2.577      4.253
REMARK  1 active torsions:
REMARK  status: ('A' for Active; 'I' for Inactive)
REMARK    1  A    between atoms: C4_4  and  C9_9 
ROOT
HETATM    1  C1  UNL     1     -33.263  15.785  -3.292  1.00 20.00     0.006 C 
HETATM    2  C2  UNL     1     -33.624  14.969  -4.536  1.00 20.00     0.016 C 
HETATM    3  C3  UNL     1     -35.480  16.420  -3.897  1.00 20.00     0.021 C 
HETATM    4  C4  UNL     1     -34.601  16.174  -2.671  1.00 20.00    -0.006 C 
HETATM    5  C5  UNL     1     -35.079  15.310  -4.861  1.00 20.00     0.058 C 
HETATM    6 BR10 UNL     1     -36.215  13.742  -4.584  1.00 20.00    -0.091 Br
ENDROOT
BRANCH   4   7
HETATM    7  C9  UNL     1     -34.506  17.382  -1.753  1.00 20.00    -0.048 C 
HETATM    8  C6  UNL     1     -33.027  17.718  -1.478  1.00 20.00     0.015 C 
HETATM    9  C7  UNL     1     -35.209  17.084  -0.415  1.00 20.00     0.015 C 
HETATM   10  C8  UNL     1     -35.180  18.600  -2.412  1.00 20.00     0.015 C 
ENDBRANCH   4   7
TORSDOF 1
ENDMDL
