MODEL 1
REMARK VINA RESULT:      -4.7      0.000      0.000
REMARK  2 active torsions:
REMARK  status: ('A' for Active; 'I' for Inactive)
REMARK    1  A    between atoms: C6_6  and  C7_7 
REMARK    2  A    between atoms: C8_8  and  O9_9 
ROOT
HETATM    1  C3  UNL     1     -35.386  15.212  -3.267  1.00 20.00     0.007 C 
HETATM    2  C4  UNL     1     -34.789  14.040  -4.041  1.00 20.00     0.032 C 
HETATM    3  C5  UNL     1     -33.110  15.781  -3.643  1.00 20.00     0.036 C 
HETATM    4  C7  UNL     1     -34.183  15.828  -2.559  1.00 20.00    -0.008 C 
HETATM    5  C8  UNL     1     -33.341  14.442  -4.345  1.00 20.00     0.118 C 
ENDROOT
BRANCH   4   6
HETATM    6  C6  UNL     1     -34.448  17.231  -2.040  1.00 20.00    -0.010 A 
HETATM    7  C1  UNL     1     -34.812  17.449  -0.598  1.00 20.00     0.005 A 
HETATM    8  C2  UNL     1     -33.469  17.891  -1.110  1.00 20.00     0.005 A 
ENDBRANCH   4   6
BRANCH   5   9
HETATM    9  O9  UNL     1     -33.134  14.593  -5.740  1.00 20.00    -0.396 OA
HETATM   10  H23 UNL     1     -33.556  15.429  -5.994  1.00 20.00     0.210 HD
ENDBRANCH   5   9
TORSDOF 2
ENDMDL
MODEL 2
REMARK VINA RESULT:      -4.6     11.267     12.007
REMARK  2 active torsions:
REMARK  status: ('A' for Active; 'I' for Inactive)
REMARK    1  A    between atoms: C6_6  and  C7_7 
REMARK    2  A    between atoms: C8_8  and  O9_9 
ROOT
HETATM    1  C3  UNL     1     -33.353   4.962   2.916  1.00 20.00     0.007 C 
HETATM    2  C4  UNL     1     -34.416   4.361   3.830  1.00 20.00     0.032 C 
HETATM    3  C5  UNL     1     -33.976   6.700   4.412  1.00 20.00     0.036 C 
HETATM    4  C7  UNL     1     -33.660   6.457   2.940  1.00 20.00    -0.008 C 
HETATM    5  C8  UNL     1     -34.763   5.461   4.839  1.00 20.00     0.118 C 
ENDROOT
BRANCH   4   6
HETATM    6  C6  UNL     1     -32.516   7.311   2.423  1.00 20.00    -0.010 A 
HETATM    7  C1  UNL     1     -32.223   7.377   0.951  1.00 20.00     0.005 A 
HETATM    8  C2  UNL     1     -32.799   8.573   1.657  1.00 20.00     0.005 A 
ENDBRANCH   4   6
BRANCH   5   9
HETATM    9  O9  UNL     1     -34.386   5.086   6.154  1.00 20.00    -0.396 OA
HETATM   10  H23 UNL     1     -33.516   5.483   6.318  1.00 20.00     0.210 HD
ENDBRANCH   5   9
TORSDOF 2
ENDMDL
MODEL 3
REMARK VINA RESULT:      -4.5     16.412     17.268
REMARK  2 active torsions:
REMARK  status: ('A' for Active; 'I' for Inactive)
REMARK    1  A    between atoms: C6_6  and  C7_7 
REMARK    2  A    between atoms: C8_8  and  O9_9 
ROOT
HETATM    1  C3  UNL     1     -24.536  18.435  10.386  1.00 20.00     0.007 C 
HETATM    2  C4  UNL     1     -25.423  18.409  11.627  1.00 20.00     0.032 C 
HETATM    3  C5  UNL     1     -24.461  16.198  11.186  1.00 20.00     0.036 C 
HETATM    4  C7  UNL     1     -23.557  17.288  10.618  1.00 20.00    -0.008 C 
HETATM    5  C8  UNL     1     -25.431  16.950  12.098  1.00 20.00     0.118 C 
ENDROOT
BRANCH   4   6
HETATM    6  C6  UNL     1     -22.824  16.862   9.358  1.00 20.00    -0.010 A 
HETATM    7  C1  UNL     1     -22.697  17.809   8.198  1.00 20.00     0.005 A 
HETATM    8  C2  UNL     1     -21.488  17.460   9.020  1.00 20.00     0.005 A 
ENDBRANCH   4   6
BRANCH   5   9
HETATM    9  O9  UNL     1     -26.727  16.384  11.987  1.00 20.00    -0.396 OA
HETATM   10  H23 UNL     1     -27.033  16.211  12.891  1.00 20.00     0.210 HD
ENDBRANCH   5   9
TORSDOF 2
ENDMDL
MODEL 4
REMARK VINA RESULT:      -4.4      1.808      2.455
REMARK  2 active torsions:
REMARK  status: ('A' for Active; 'I' for Inactive)
REMARK    1  A    between atoms: C6_6  and  C7_7 
REMARK    2  A    between atoms: C8_8  and  O9_9 
ROOT
HETATM    1  C3  UNL     1     -34.210  15.396  -5.461  1.00 20.00     0.007 C 
HETATM    2  C4  UNL     1     -35.438  14.576  -5.845  1.00 20.00     0.032 C 
HETATM    3  C5  UNL     1     -35.091  14.558  -3.419  1.00 20.00     0.036 C 
HETATM    4  C7  UNL     1     -34.498  15.827  -4.025  1.00 20.00    -0.008 C 
HETATM    5  C8  UNL     1     -35.961  13.978  -4.534  1.00 20.00     0.118 C 
ENDROOT
BRANCH   4   6
HETATM    6  C6  UNL     1     -33.265  16.322  -3.290  1.00 20.00    -0.010 A 
HETATM    7  C1  UNL     1     -32.910  17.782  -3.304  1.00 20.00     0.005 A 
HETATM    8  C2  UNL     1     -33.409  17.142  -2.039  1.00 20.00     0.005 A 
ENDBRANCH   4   6
BRANCH   5   9
HETATM    9  O9  UNL     1     -35.851  12.563  -4.537  1.00 20.00    -0.396 OA
HETATM   10  H23 UNL     1     -36.538  12.233  -5.137  1.00 20.00     0.210 HD
ENDBRANCH   5   9
TORSDOF 2
ENDMDL
MODEL 5
REMARK VINA RESULT:      -4.3     16.016     16.994
REMARK  2 active torsions:
REMARK  status: ('A' for Active; 'I' for Inactive)
REMARK    1  A    between atoms: C6_6  and  C7_7 
REMARK    2  A    between atoms: C8_8  and  O9_9 
ROOT
HETATM    1  C3  UNL     1     -24.817  18.877   9.456  1.00 20.00     0.007 C 
HETATM    2  C4  UNL     1     -23.774  18.579   8.383  1.00 20.00     0.032 C 
HETATM    3  C5  UNL     1     -22.919  18.044  10.617  1.00 20.00     0.036 C 
HETATM    4  C7  UNL     1     -24.441  17.937  10.597  1.00 20.00    -0.008 C 
HETATM    5  C8  UNL     1     -22.526  18.111   9.141  1.00 20.00     0.118 C 
ENDROOT
BRANCH   4   6
HETATM    6  C6  UNL     1     -25.084  18.314  11.920  1.00 20.00    -0.010 A 
HETATM    7  C1  UNL     1     -26.317  19.173  11.946  1.00 20.00     0.005 A 
HETATM    8  C2  UNL     1     -26.406  17.718  12.315  1.00 20.00     0.005 A 
ENDBRANCH   4   6
BRANCH   5   9
HETATM    9  O9  UNL     1     -21.453  19.024   8.973  1.00 20.00    -0.396 OA
HETATM   10  H23 UNL     1     -21.630  19.772   9.565  1.00 20.00     0.210 HD
ENDBRANCH   5   9
TORSDOF 2
ENDMDL
MODEL 6
REMARK VINA RESULT:      -4.3      1.477      2.195
REMARK  2 active torsions:
REMARK  status: ('A' for Active; 'I' for Inactive)
REMARK    1  A    between atoms: C6_6  and  C7_7 
REMARK    2  A    between atoms: C8_8  and  O9_9 
ROOT
HETATM    1  C3  UNL     1     -36.045  16.098  -3.732  1.00 20.00     0.007 C 
HETATM    2  C4  UNL     1     -36.964  15.071  -4.387  1.00 20.00     0.032 C 
HETATM    3  C5  UNL     1     -34.719  14.151  -4.041  1.00 20.00     0.036 C 
HETATM    4  C7  UNL     1     -35.002  15.245  -3.017  1.00 20.00    -0.008 C 
HETATM    5  C8  UNL     1     -36.087  13.842  -4.651  1.00 20.00     0.118 C 
ENDROOT
BRANCH   4   6
HETATM    6  C6  UNL     1     -33.762  16.026  -2.617  1.00 20.00    -0.010 A 
HETATM    7  C1  UNL     1     -33.444  17.336  -3.282  1.00 20.00     0.005 A 
HETATM    8  C2  UNL     1     -33.892  17.310  -1.847  1.00 20.00     0.005 A 
ENDBRANCH   4   6
BRANCH   5   9
HETATM    9  O9  UNL     1     -35.946  13.604  -6.043  1.00 20.00    -0.396 OA
HETATM   10  H23 UNL     1     -35.026  13.812  -6.268  1.00 20.00     0.210 HD
ENDBRANCH   5   9
TORSDOF 2
ENDMDL
MODEL 7
REMARK VINA RESULT:      -4.2     16.470     17.488
REMARK  2 active torsions:
REMARK  status: ('A' for Active; 'I' for Inactive)
REMARK    1  A    between atoms: C6_6  and  C7_7 
REMARK    2  A    between atoms: C8_8  and  O9_9 
ROOT
HETATM    1  C3  UNL     1     -21.647  17.791  10.772  1.00 20.00     0.007 C 
HETATM    2  C4  UNL     1     -21.294  18.220   9.351  1.00 20.00     0.032 C 
HETATM    3  C5  UNL     1     -23.465  17.086   9.414  1.00 20.00     0.036 C 
HETATM    4  C7  UNL     1     -23.172  17.735  10.763  1.00 20.00    -0.008 C 
HETATM    5  C8  UNL     1     -22.433  17.700   8.467  1.00 20.00     0.118 C 
ENDROOT
BRANCH   4   6
HETATM    6  C6  UNL     1     -23.749  16.963  11.937  1.00 20.00    -0.010 A 
HETATM    7  C1  UNL     1     -25.223  17.012  12.225  1.00 20.00     0.005 A 
HETATM    8  C2  UNL     1     -24.603  15.749  11.697  1.00 20.00     0.005 A 
ENDBRANCH   4   6
BRANCH   5   9
HETATM    9  O9  UNL     1     -21.969  16.712   7.562  1.00 20.00    -0.396 OA
HETATM   10  H23 UNL     1     -22.745  16.396   7.074  1.00 20.00     0.210 HD
ENDBRANCH   5   9
TORSDOF 2
ENDMDL
MODEL 8
REMARK VINA RESULT:      -4.2      1.470      1.875
REMARK  2 active torsions:
REMARK  status: ('A' for Active; 'I' for Inactive)
REMARK    1  A    between atoms: C6_6  and  C7_7 
REMARK    2  A    between atoms: C8_8  and  O9_9 
ROOT
HETATM    1  C3  UNL     1     -34.555  16.924  -4.566  1.00 20.00     0.007 C 
HETATM    2  C4  UNL     1     -34.654  16.368  -5.983  1.00 20.00     0.032 C 
HETATM    3  C5  UNL     1     -34.072  14.604  -4.385  1.00 20.00     0.036 C 
HETATM    4  C7  UNL     1     -34.848  15.714  -3.683  1.00 20.00    -0.008 C 
HETATM    5  C8  UNL     1     -34.271  14.888  -5.874  1.00 20.00     0.118 C 
ENDROOT
BRANCH   4   6
HETATM    6  C6  UNL     1     -34.431  15.914  -2.236  1.00 20.00    -0.010 A 
HETATM    7  C1  UNL     1     -33.842  17.223  -1.791  1.00 20.00     0.005 A 
HETATM    8  C2  UNL     1     -35.220  16.827  -1.340  1.00 20.00     0.005 A 
ENDBRANCH   4   6
BRANCH   5   9
HETATM    9  O9  UNL     1     -33.069  14.617  -6.576  1.00 20.00    -0.396 OA
HETATM   10  H23 UNL     1     -32.361  15.084  -6.105  1.00 20.00     0.210 HD
ENDBRANCH   5   9
TORSDOF 2
ENDMDL
MODEL 9
REMARK VINA RESULT:      -4.1     11.333     11.874
REMARK  2 active torsions:
REMARK  status: ('A' for Active; 'I' for Inactive)
REMARK    1  A    between atoms: C6_6  and  C7_7 
REMARK    2  A    between atoms: C8_8  and  O9_9 
ROOT
HETATM    1  C3  UNL     1     -33.908   5.217   2.660  1.00 20.00     0.007 C 
HETATM    2  C4  UNL     1     -32.804   5.661   1.705  1.00 20.00     0.032 C 
HETATM    3  C5  UNL     1     -33.097   7.277   3.524  1.00 20.00     0.036 C 
HETATM    4  C7  UNL     1     -33.536   5.888   3.979  1.00 20.00    -0.008 C 
HETATM    5  C8  UNL     1     -32.333   7.024   2.224  1.00 20.00     0.118 C 
ENDROOT
BRANCH   4   6
HETATM    6  C6  UNL     1     -34.679   5.919   4.978  1.00 20.00    -0.010 A 
HETATM    7  C1  UNL     1     -34.703   4.957   6.132  1.00 20.00     0.005 A 
HETATM    8  C2  UNL     1     -34.448   6.418   6.377  1.00 20.00     0.005 A 
ENDBRANCH   4   6
BRANCH   5   9
HETATM    9  O9  UNL     1     -32.623   8.054   1.292  1.00 20.00    -0.396 OA
HETATM   10  H23 UNL     1     -31.788   8.516   1.120  1.00 20.00     0.210 HD
ENDBRANCH   5   9
TORSDOF 2
ENDMDL
