MODEL 1
REMARK VINA RESULT:      -4.4      0.000      0.000
REMARK  5 active torsions:
REMARK  status: ('A' for Active; 'I' for Inactive)
REMARK    1  A    between atoms: C6_6  and  C7_7 
REMARK    2  A    between atoms: C7_7  and  C8_8 
REMARK    3  A    between atoms: C8_8  and  C9_9 
REMARK    4  A    between atoms: C9_9  and  C10_10 
REMARK    5  A    between atoms: C10_10  and  C11_11 
ROOT
HETATM    1  C1  UNL     1     -31.045  18.491   0.013  1.00 20.00     0.012 C 
HETATM    2  C2  UNL     1     -31.764  18.208  -0.906  1.00 20.00    -0.117 C 
HETATM    3  C6  UNL     1     -32.640  17.862  -2.034  1.00 20.00     0.093 C 
ENDROOT
BRANCH   3   4
HETATM    4  C7  UNL     1     -33.937  17.189  -1.579  1.00 20.00     0.012 C 
BRANCH   4   5
HETATM    5  C8  UNL     1     -34.301  15.965  -2.427  1.00 20.00     0.002 C 
BRANCH   5   6
HETATM    6  C9  UNL     1     -33.356  15.829  -3.633  1.00 20.00     0.021 C 
BRANCH   6   7
HETATM    7  C10 UNL     1     -33.849  14.816  -4.689  1.00 20.00     0.089 C 
HETATM    8 CL12 UNL     1     -34.936  13.618  -3.888  1.00 20.00    -0.124 Cl
BRANCH   7   9
HETATM    9  C11 UNL     1     -34.529  15.459  -5.947  1.00 20.00    -0.035 C 
HETATM   10  C3  UNL     1     -34.494  17.000  -5.844  1.00 20.00     0.016 C 
HETATM   11  C4  UNL     1     -33.760  15.076  -7.232  1.00 20.00     0.016 C 
HETATM   12  C5  UNL     1     -35.998  15.023  -6.109  1.00 20.00     0.016 C 
ENDBRANCH   7   9
ENDBRANCH   6   7
ENDBRANCH   5   6
ENDBRANCH   4   5
ENDBRANCH   3   4
TORSDOF 5
ENDMDL
MODEL 2
REMARK VINA RESULT:      -4.4      0.221      1.294
REMARK  5 active torsions:
REMARK  status: ('A' for Active; 'I' for Inactive)
REMARK    1  A    between atoms: C6_6  and  C7_7 
REMARK    2  A    between atoms: C7_7  and  C8_8 
REMARK    3  A    between atoms: C8_8  and  C9_9 
REMARK    4  A    between atoms: C9_9  and  C10_10 
REMARK    5  A    between atoms: C10_10  and  C11_11 
ROOT
HETATM    1  C1  UNL     1     -31.075  18.352  -0.059  1.00 20.00     0.012 C 
HETATM    2  C2  UNL     1     -31.791  18.233  -1.015  1.00 20.00    -0.117 C 
HETATM    3  C6  UNL     1     -32.665  18.087  -2.187  1.00 20.00     0.093 C 
ENDROOT
BRANCH   3   4
HETATM    4  C7  UNL     1     -34.006  17.439  -1.837  1.00 20.00     0.012 C 
BRANCH   4   5
HETATM    5  C8  UNL     1     -34.142  16.015  -2.392  1.00 20.00     0.002 C 
BRANCH   5   6
HETATM    6  C9  UNL     1     -33.244  15.816  -3.624  1.00 20.00     0.021 C 
BRANCH   6   7
HETATM    7  C10 UNL     1     -33.869  14.902  -4.699  1.00 20.00     0.089 C 
HETATM    8 CL12 UNL     1     -35.007  13.751  -3.899  1.00 20.00    -0.124 Cl
BRANCH   7   9
HETATM    9  C11 UNL     1     -34.560  15.661  -5.885  1.00 20.00    -0.035 C 
HETATM   10  C3  UNL     1     -33.944  15.220  -7.232  1.00 20.00     0.016 C 
HETATM   11  C4  UNL     1     -36.065  15.314  -5.944  1.00 20.00     0.016 C 
HETATM   12  C5  UNL     1     -34.416  17.190  -5.770  1.00 20.00     0.016 C 
ENDBRANCH   7   9
ENDBRANCH   6   7
ENDBRANCH   5   6
ENDBRANCH   4   5
ENDBRANCH   3   4
TORSDOF 5
ENDMDL
MODEL 3
REMARK VINA RESULT:      -4.3      1.929      5.256
REMARK  5 active torsions:
REMARK  status: ('A' for Active; 'I' for Inactive)
REMARK    1  A    between atoms: C6_6  and  C7_7 
REMARK    2  A    between atoms: C7_7  and  C8_8 
REMARK    3  A    between atoms: C8_8  and  C9_9 
REMARK    4  A    between atoms: C9_9  and  C10_10 
REMARK    5  A    between atoms: C10_10  and  C11_11 
ROOT
HETATM    1  C1  UNL     1     -38.546  14.782  -4.142  1.00 20.00     0.012 C 
HETATM    2  C2  UNL     1     -37.480  14.389  -4.529  1.00 20.00    -0.117 C 
HETATM    3  C6  UNL     1     -36.175  13.904  -5.000  1.00 20.00     0.093 C 
ENDROOT
BRANCH   3   4
HETATM    4  C7  UNL     1     -35.708  14.627  -6.265  1.00 20.00     0.012 C 
BRANCH   4   5
HETATM    5  C8  UNL     1     -35.821  16.153  -6.155  1.00 20.00     0.002 C 
BRANCH   5   6
HETATM    6  C9  UNL     1     -34.491  16.772  -5.695  1.00 20.00     0.021 C 
BRANCH   6   7
HETATM    7  C10 UNL     1     -34.554  17.385  -4.280  1.00 20.00     0.089 C 
HETATM    8 CL12 UNL     1     -36.275  17.753  -3.879  1.00 20.00    -0.124 Cl
BRANCH   7   9
HETATM    9  C11 UNL     1     -33.875  16.523  -3.160  1.00 20.00    -0.035 C 
HETATM   10  C3  UNL     1     -32.937  17.404  -2.304  1.00 20.00     0.016 C 
HETATM   11  C4  UNL     1     -34.942  15.942  -2.204  1.00 20.00     0.016 C 
HETATM   12  C5  UNL     1     -33.047  15.358  -3.733  1.00 20.00     0.016 C 
ENDBRANCH   7   9
ENDBRANCH   6   7
ENDBRANCH   5   6
ENDBRANCH   4   5
ENDBRANCH   3   4
TORSDOF 5
ENDMDL
MODEL 4
REMARK VINA RESULT:      -4.3      2.368      3.724
REMARK  5 active torsions:
REMARK  status: ('A' for Active; 'I' for Inactive)
REMARK    1  A    between atoms: C6_6  and  C7_7 
REMARK    2  A    between atoms: C7_7  and  C8_8 
REMARK    3  A    between atoms: C8_8  and  C9_9 
REMARK    4  A    between atoms: C9_9  and  C10_10 
REMARK    5  A    between atoms: C10_10  and  C11_11 
ROOT
HETATM    1  C1  UNL     1     -32.726  17.969   2.722  1.00 20.00     0.012 C 
HETATM    2  C2  UNL     1     -31.805  18.260   2.009  1.00 20.00    -0.117 C 
HETATM    3  C6  UNL     1     -30.676  18.616   1.138  1.00 20.00     0.093 C 
ENDROOT
BRANCH   3   4
HETATM    4  C7  UNL     1     -30.942  18.274  -0.329  1.00 20.00     0.012 C 
BRANCH   4   5
HETATM    5  C8  UNL     1     -31.947  19.227  -0.990  1.00 20.00     0.002 C 
BRANCH   5   6
HETATM    6  C9  UNL     1     -32.622  18.562  -2.201  1.00 20.00     0.021 C 
BRANCH   6   7
HETATM    7  C10 UNL     1     -33.305  17.219  -1.864  1.00 20.00     0.089 C 
HETATM    8 CL12 UNL     1     -34.481  17.482  -0.520  1.00 20.00    -0.124 Cl
BRANCH   7   9
HETATM    9  C11 UNL     1     -33.979  16.501  -3.085  1.00 20.00    -0.035 C 
HETATM   10  C3  UNL     1     -35.261  15.767  -2.630  1.00 20.00     0.016 C 
HETATM   11  C4  UNL     1     -34.408  17.536  -4.150  1.00 20.00     0.016 C 
HETATM   12  C5  UNL     1     -33.048  15.472  -3.751  1.00 20.00     0.016 C 
ENDBRANCH   7   9
ENDBRANCH   6   7
ENDBRANCH   5   6
ENDBRANCH   4   5
ENDBRANCH   3   4
TORSDOF 5
ENDMDL
MODEL 5
REMARK VINA RESULT:      -4.2      1.543      2.257
REMARK  5 active torsions:
REMARK  status: ('A' for Active; 'I' for Inactive)
REMARK    1  A    between atoms: C6_6  and  C7_7 
REMARK    2  A    between atoms: C7_7  and  C8_8 
REMARK    3  A    between atoms: C8_8  and  C9_9 
REMARK    4  A    between atoms: C9_9  and  C10_10 
REMARK    5  A    between atoms: C10_10  and  C11_11 
ROOT
HETATM    1  C1  UNL     1     -30.782  18.186   0.726  1.00 20.00     0.012 C 
HETATM    2  C2  UNL     1     -31.404  18.398  -0.278  1.00 20.00    -0.117 C 
HETATM    3  C6  UNL     1     -32.164  18.661  -1.508  1.00 20.00     0.093 C 
ENDROOT
BRANCH   3   4
HETATM    4  C7  UNL     1     -32.811  17.395  -2.074  1.00 20.00     0.012 C 
BRANCH   4   5
HETATM    5  C8  UNL     1     -34.316  17.316  -1.785  1.00 20.00     0.002 C 
BRANCH   5   6
HETATM    6  C9  UNL     1     -34.880  15.940  -2.176  1.00 20.00     0.021 C 
BRANCH   6   7
HETATM    7  C10 UNL     1     -35.620  15.942  -3.531  1.00 20.00     0.089 C 
HETATM    8 CL12 UNL     1     -35.565  17.608  -4.225  1.00 20.00    -0.124 Cl
BRANCH   7   9
HETATM    9  C11 UNL     1     -35.108  14.874  -4.560  1.00 20.00    -0.035 C 
HETATM   10  C3  UNL     1     -33.693  14.392  -4.168  1.00 20.00     0.016 C 
HETATM   11  C4  UNL     1     -36.027  13.631  -4.549  1.00 20.00     0.016 C 
HETATM   12  C5  UNL     1     -35.047  15.423  -5.998  1.00 20.00     0.016 C 
ENDBRANCH   7   9
ENDBRANCH   6   7
ENDBRANCH   5   6
ENDBRANCH   4   5
ENDBRANCH   3   4
TORSDOF 5
ENDMDL
MODEL 6
REMARK VINA RESULT:      -4.2      1.822      3.073
REMARK  5 active torsions:
REMARK  status: ('A' for Active; 'I' for Inactive)
REMARK    1  A    between atoms: C6_6  and  C7_7 
REMARK    2  A    between atoms: C7_7  and  C8_8 
REMARK    3  A    between atoms: C8_8  and  C9_9 
REMARK    4  A    between atoms: C9_9  and  C10_10 
REMARK    5  A    between atoms: C10_10  and  C11_11 
ROOT
HETATM    1  C1  UNL     1     -32.751  17.835   2.621  1.00 20.00     0.012 C 
HETATM    2  C2  UNL     1     -32.044  18.351   1.799  1.00 20.00    -0.117 C 
HETATM    3  C6  UNL     1     -31.176  18.983   0.797  1.00 20.00     0.093 C 
ENDROOT
BRANCH   3   4
HETATM    4  C7  UNL     1     -31.329  18.350  -0.588  1.00 20.00     0.012 C 
BRANCH   4   5
HETATM    5  C8  UNL     1     -32.791  18.263  -1.044  1.00 20.00     0.002 C 
BRANCH   5   6
HETATM    6  C9  UNL     1     -32.904  17.546  -2.399  1.00 20.00     0.021 C 
BRANCH   6   7
HETATM    7  C10 UNL     1     -33.760  16.262  -2.346  1.00 20.00     0.089 C 
HETATM    8 CL12 UNL     1     -35.185  16.553  -1.277  1.00 20.00    -0.124 Cl
BRANCH   7   9
HETATM    9  C11 UNL     1     -34.196  15.706  -3.746  1.00 20.00    -0.035 C 
HETATM   10  C3  UNL     1     -33.115  14.750  -4.300  1.00 20.00     0.016 C 
HETATM   11  C4  UNL     1     -35.499  14.884  -3.618  1.00 20.00     0.016 C 
HETATM   12  C5  UNL     1     -34.423  16.824  -4.780  1.00 20.00     0.016 C 
ENDBRANCH   7   9
ENDBRANCH   6   7
ENDBRANCH   5   6
ENDBRANCH   4   5
ENDBRANCH   3   4
TORSDOF 5
ENDMDL
MODEL 7
REMARK VINA RESULT:      -4.2      2.369      3.257
REMARK  5 active torsions:
REMARK  status: ('A' for Active; 'I' for Inactive)
REMARK    1  A    between atoms: C6_6  and  C7_7 
REMARK    2  A    between atoms: C7_7  and  C8_8 
REMARK    3  A    between atoms: C8_8  and  C9_9 
REMARK    4  A    between atoms: C9_9  and  C10_10 
REMARK    5  A    between atoms: C10_10  and  C11_11 
ROOT
HETATM    1  C1  UNL     1     -35.163  16.529  -1.560  1.00 20.00     0.012 C 
HETATM    2  C2  UNL     1     -34.252  16.297  -2.306  1.00 20.00    -0.117 C 
HETATM    3  C6  UNL     1     -33.134  16.014  -3.217  1.00 20.00     0.093 C 
ENDROOT
BRANCH   3   4
HETATM    4  C7  UNL     1     -33.499  14.980  -4.284  1.00 20.00     0.012 C 
BRANCH   4   5
HETATM    5  C8  UNL     1     -34.650  14.061  -3.853  1.00 20.00     0.002 C 
BRANCH   5   6
HETATM    6  C9  UNL     1     -35.817  14.134  -4.852  1.00 20.00     0.021 C 
BRANCH   6   7
HETATM    7  C10 UNL     1     -35.785  15.394  -5.743  1.00 20.00     0.089 C 
HETATM    8 CL12 UNL     1     -35.832  14.886  -7.475  1.00 20.00    -0.124 Cl
BRANCH   7   9
HETATM    9  C11 UNL     1     -36.898  16.451  -5.425  1.00 20.00    -0.035 C 
HETATM   10  C3  UNL     1     -36.255  17.811  -5.070  1.00 20.00     0.016 C 
HETATM   11  C4  UNL     1     -37.790  16.686  -6.665  1.00 20.00     0.016 C 
HETATM   12  C5  UNL     1     -37.798  16.025  -4.250  1.00 20.00     0.016 C 
ENDBRANCH   7   9
ENDBRANCH   6   7
ENDBRANCH   5   6
ENDBRANCH   4   5
ENDBRANCH   3   4
TORSDOF 5
ENDMDL
MODEL 8
REMARK VINA RESULT:      -4.2      1.766      5.210
REMARK  5 active torsions:
REMARK  status: ('A' for Active; 'I' for Inactive)
REMARK    1  A    between atoms: C6_6  and  C7_7 
REMARK    2  A    between atoms: C7_7  and  C8_8 
REMARK    3  A    between atoms: C8_8  and  C9_9 
REMARK    4  A    between atoms: C9_9  and  C10_10 
REMARK    5  A    between atoms: C10_10  and  C11_11 
ROOT
HETATM    1  C1  UNL     1     -36.301  13.905  -4.506  1.00 20.00     0.012 C 
HETATM    2  C2  UNL     1     -36.010  14.329  -5.591  1.00 20.00    -0.117 C 
HETATM    3  C6  UNL     1     -35.657  14.846  -6.920  1.00 20.00     0.093 C 
ENDROOT
BRANCH   3   4
HETATM    4  C7  UNL     1     -34.601  15.952  -6.852  1.00 20.00     0.012 C 
BRANCH   4   5
HETATM    5  C8  UNL     1     -35.132  17.244  -6.219  1.00 20.00     0.002 C 
BRANCH   5   6
HETATM    6  C9  UNL     1     -34.135  17.805  -5.191  1.00 20.00     0.021 C 
BRANCH   6   7
HETATM    7  C10 UNL     1     -34.682  17.818  -3.748  1.00 20.00     0.089 C 
HETATM    8 CL12 UNL     1     -36.463  17.525  -3.794  1.00 20.00    -0.124 Cl
BRANCH   7   9
HETATM    9  C11 UNL     1     -33.963  16.830  -2.765  1.00 20.00    -0.035 C 
HETATM   10  C3  UNL     1     -32.982  17.604  -1.855  1.00 20.00     0.016 C 
HETATM   11  C4  UNL     1     -34.993  16.147  -1.836  1.00 20.00     0.016 C 
HETATM   12  C5  UNL     1     -33.171  15.736  -3.504  1.00 20.00     0.016 C 
ENDBRANCH   7   9
ENDBRANCH   6   7
ENDBRANCH   5   6
ENDBRANCH   4   5
ENDBRANCH   3   4
TORSDOF 5
ENDMDL
MODEL 9
REMARK VINA RESULT:      -4.1      2.374      3.263
REMARK  5 active torsions:
REMARK  status: ('A' for Active; 'I' for Inactive)
REMARK    1  A    between atoms: C6_6  and  C7_7 
REMARK    2  A    between atoms: C7_7  and  C8_8 
REMARK    3  A    between atoms: C8_8  and  C9_9 
REMARK    4  A    between atoms: C9_9  and  C10_10 
REMARK    5  A    between atoms: C10_10  and  C11_11 
ROOT
HETATM    1  C1  UNL     1     -35.100  16.532  -1.484  1.00 20.00     0.012 C 
HETATM    2  C2  UNL     1     -34.474  16.054  -2.390  1.00 20.00    -0.117 C 
HETATM    3  C6  UNL     1     -33.705  15.470  -3.498  1.00 20.00     0.093 C 
ENDROOT
BRANCH   3   4
HETATM    4  C7  UNL     1     -34.237  14.098  -3.917  1.00 20.00     0.012 C 
BRANCH   4   5
HETATM    5  C8  UNL     1     -35.730  14.121  -4.269  1.00 20.00     0.002 C 
BRANCH   5   6
HETATM    6  C9  UNL     1     -35.944  14.522  -5.738  1.00 20.00     0.021 C 
BRANCH   6   7
HETATM    7  C10 UNL     1     -36.742  15.832  -5.907  1.00 20.00     0.089 C 
HETATM    8 CL12 UNL     1     -37.546  16.234  -4.341  1.00 20.00    -0.124 Cl
BRANCH   7   9
HETATM    9  C11 UNL     1     -35.908  17.043  -6.451  1.00 20.00    -0.035 C 
HETATM   10  C3  UNL     1     -35.647  18.063  -5.319  1.00 20.00     0.016 C 
HETATM   11  C4  UNL     1     -34.526  16.565  -6.952  1.00 20.00     0.016 C 
HETATM   12  C5  UNL     1     -36.618  17.778  -7.604  1.00 20.00     0.016 C 
ENDBRANCH   7   9
ENDBRANCH   6   7
ENDBRANCH   5   6
ENDBRANCH   4   5
ENDBRANCH   3   4
TORSDOF 5
ENDMDL
