MODEL 1
REMARK VINA RESULT:      -4.9      0.000      0.000
REMARK  2 active torsions:
REMARK  status: ('A' for Active; 'I' for Inactive)
REMARK    1  A    between atoms: C4_4  and  C10_10 
REMARK    2  A    between atoms: C8_8  and  C10_10 
ROOT
HETATM    1  C5  UNL     1     -35.334  15.469  -2.986  1.00 20.00     0.006 C 
HETATM    2  C6  UNL     1     -34.917  14.173  -3.668  1.00 20.00     0.016 C 
HETATM    3  C7  UNL     1     -33.033  15.732  -3.705  1.00 20.00     0.020 C 
HETATM    4  C8  UNL     1     -33.998  16.073  -2.559  1.00 20.00    -0.009 C 
HETATM    5  C9  UNL     1     -33.666  14.554  -4.450  1.00 20.00     0.058 C 
HETATM    6 BR12 UNL     1     -34.160  15.099  -6.264  1.00 20.00    -0.091 Br
ENDROOT
BRANCH   4   7
HETATM    7  C10 UNL     1     -34.085  17.562  -2.270  1.00 20.00     0.043 C 
BRANCH   7   8
HETATM    8  C4  UNL     1     -33.246  17.952  -1.082  1.00 20.00    -0.051 A 
HETATM    9  C1  UNL     1     -31.838  18.170  -1.140  1.00 20.00     0.014 A 
HETATM   10  C2  UNL     1     -31.316  18.515   0.088  1.00 20.00     0.050 A 
HETATM   11  S11 UNL     1     -32.521  18.576   1.304  1.00 20.00    -0.113 SA
HETATM   12  C3  UNL     1     -33.745  18.139   0.189  1.00 20.00     0.056 A 
ENDBRANCH   7   8
ENDBRANCH   4   7
TORSDOF 2
ENDMDL
MODEL 2
REMARK VINA RESULT:      -4.9      0.649      1.174
REMARK  2 active torsions:
REMARK  status: ('A' for Active; 'I' for Inactive)
REMARK    1  A    between atoms: C4_4  and  C10_10 
REMARK    2  A    between atoms: C8_8  and  C10_10 
ROOT
HETATM    1  C5  UNL     1     -35.338  15.439  -2.978  1.00 20.00     0.006 C 
HETATM    2  C6  UNL     1     -34.893  14.160  -3.675  1.00 20.00     0.016 C 
HETATM    3  C7  UNL     1     -33.042  15.758  -3.690  1.00 20.00     0.020 C 
HETATM    4  C8  UNL     1     -34.015  16.064  -2.542  1.00 20.00    -0.009 C 
HETATM    5  C9  UNL     1     -33.650  14.576  -4.450  1.00 20.00     0.058 C 
HETATM    6 BR12 UNL     1     -34.154  15.133  -6.258  1.00 20.00    -0.091 Br
ENDROOT
BRANCH   4   7
HETATM    7  C10 UNL     1     -34.133  17.548  -2.235  1.00 20.00     0.043 C 
BRANCH   7   8
HETATM    8  C4  UNL     1     -33.239  17.957  -1.094  1.00 20.00    -0.051 A 
HETATM    9  C1  UNL     1     -33.691  18.138   0.246  1.00 20.00     0.014 A 
HETATM   10  C2  UNL     1     -32.670  18.514   1.091  1.00 20.00     0.050 A 
HETATM   11  S11 UNL     1     -31.173  18.647   0.271  1.00 20.00    -0.113 SA
HETATM   12  C3  UNL     1     -31.888  18.201  -1.220  1.00 20.00     0.056 A 
ENDBRANCH   7   8
ENDBRANCH   4   7
TORSDOF 2
ENDMDL
MODEL 3
REMARK VINA RESULT:      -4.7      0.838      1.619
REMARK  2 active torsions:
REMARK  status: ('A' for Active; 'I' for Inactive)
REMARK    1  A    between atoms: C4_4  and  C10_10 
REMARK    2  A    between atoms: C8_8  and  C10_10 
ROOT
HETATM    1  C5  UNL     1     -35.338  15.283  -3.077  1.00 20.00     0.006 C 
HETATM    2  C6  UNL     1     -34.786  14.052  -3.783  1.00 20.00     0.016 C 
HETATM    3  C7  UNL     1     -33.059  15.783  -3.736  1.00 20.00     0.020 C 
HETATM    4  C8  UNL     1     -34.075  15.997  -2.604  1.00 20.00    -0.009 C 
HETATM    5  C9  UNL     1     -33.562  14.572  -4.526  1.00 20.00     0.058 C 
HETATM    6 BR12 UNL     1     -34.069  15.120  -6.335  1.00 20.00    -0.091 Br
ENDROOT
BRANCH   4   7
HETATM    7  C10 UNL     1     -34.309  17.463  -2.277  1.00 20.00     0.043 C 
BRANCH   7   8
HETATM    8  C4  UNL     1     -34.212  17.730  -0.797  1.00 20.00    -0.051 A 
HETATM    9  C1  UNL     1     -35.232  17.393   0.140  1.00 20.00     0.014 A 
HETATM   10  C2  UNL     1     -34.890  17.747   1.427  1.00 20.00     0.050 A 
HETATM   11  S11 UNL     1     -33.345  18.483   1.502  1.00 20.00    -0.113 SA
HETATM   12  C3  UNL     1     -33.130  18.329  -0.190  1.00 20.00     0.056 A 
ENDBRANCH   7   8
ENDBRANCH   4   7
TORSDOF 2
ENDMDL
MODEL 4
REMARK VINA RESULT:      -4.5      3.420      5.464
REMARK  2 active torsions:
REMARK  status: ('A' for Active; 'I' for Inactive)
REMARK    1  A    between atoms: C4_4  and  C10_10 
REMARK    2  A    between atoms: C8_8  and  C10_10 
ROOT
HETATM    1  C5  UNL     1     -34.292  17.280  -0.974  1.00 20.00     0.006 C 
HETATM    2  C6  UNL     1     -34.008  18.704  -0.513  1.00 20.00     0.016 C 
HETATM    3  C7  UNL     1     -32.614  18.205  -2.460  1.00 20.00     0.020 C 
HETATM    4  C8  UNL     1     -33.858  17.304  -2.438  1.00 20.00    -0.009 C 
HETATM    5  C9  UNL     1     -32.686  19.052  -1.187  1.00 20.00     0.058 C 
HETATM    6 BR12 UNL     1     -31.199  18.598   0.002  1.00 20.00    -0.091 Br
ENDROOT
BRANCH   4   7
HETATM    7  C10 UNL     1     -33.605  15.918  -3.005  1.00 20.00     0.043 C 
BRANCH   7   8
HETATM    8  C4  UNL     1     -34.858  15.310  -3.579  1.00 20.00    -0.051 A 
HETATM    9  C1  UNL     1     -34.960  13.955  -4.009  1.00 20.00     0.014 A 
HETATM   10  C2  UNL     1     -36.215  13.658  -4.494  1.00 20.00     0.050 A 
HETATM   11  S11 UNL     1     -37.265  15.010  -4.430  1.00 20.00    -0.113 SA
HETATM   12  C3  UNL     1     -36.041  15.997  -3.752  1.00 20.00     0.056 A 
ENDBRANCH   7   8
ENDBRANCH   4   7
TORSDOF 2
ENDMDL
MODEL 5
REMARK VINA RESULT:      -4.5      2.126      2.570
REMARK  2 active torsions:
REMARK  status: ('A' for Active; 'I' for Inactive)
REMARK    1  A    between atoms: C4_4  and  C10_10 
REMARK    2  A    between atoms: C8_8  and  C10_10 
ROOT
HETATM    1  C5  UNL     1     -35.440  15.353  -3.052  1.00 20.00     0.006 C 
HETATM    2  C6  UNL     1     -34.926  14.105  -3.757  1.00 20.00     0.016 C 
HETATM    3  C7  UNL     1     -33.121  15.752  -3.637  1.00 20.00     0.020 C 
HETATM    4  C8  UNL     1     -34.160  16.002  -2.533  1.00 20.00    -0.009 C 
HETATM    5  C9  UNL     1     -33.656  14.575  -4.457  1.00 20.00     0.058 C 
HETATM    6 BR12 UNL     1     -34.082  15.166  -6.273  1.00 20.00    -0.091 Br
ENDROOT
BRANCH   4   7
HETATM    7  C10 UNL     1     -34.334  17.473  -2.195  1.00 20.00     0.043 C 
BRANCH   7   8
HETATM    8  C4  UNL     1     -35.333  17.679  -1.087  1.00 20.00    -0.051 A 
HETATM    9  C1  UNL     1     -35.105  17.304   0.269  1.00 20.00     0.014 A 
HETATM   10  C2  UNL     1     -36.180  17.602   1.077  1.00 20.00     0.050 A 
HETATM   11  S11 UNL     1     -37.458  18.333   0.202  1.00 20.00    -0.113 SA
HETATM   12  C3  UNL     1     -36.575  18.251  -1.262  1.00 20.00     0.056 A 
ENDBRANCH   7   8
ENDBRANCH   4   7
TORSDOF 2
ENDMDL
MODEL 6
REMARK VINA RESULT:      -4.4      3.605      5.626
REMARK  2 active torsions:
REMARK  status: ('A' for Active; 'I' for Inactive)
REMARK    1  A    between atoms: C4_4  and  C10_10 
REMARK    2  A    between atoms: C8_8  and  C10_10 
ROOT
HETATM    1  C5  UNL     1     -34.276  17.016  -1.310  1.00 20.00     0.006 C 
HETATM    2  C6  UNL     1     -34.193  18.431  -0.753  1.00 20.00     0.016 C 
HETATM    3  C7  UNL     1     -32.549  18.186  -2.547  1.00 20.00     0.020 C 
HETATM    4  C8  UNL     1     -33.689  17.169  -2.711  1.00 20.00    -0.009 C 
HETATM    5  C9  UNL     1     -32.849  18.946  -1.252  1.00 20.00     0.058 C 
HETATM    6 BR12 UNL     1     -31.462  18.570   0.077  1.00 20.00    -0.091 Br
ENDROOT
BRANCH   4   7
HETATM    7  C10 UNL     1     -33.233  15.849  -3.310  1.00 20.00     0.043 C 
BRANCH   7   8
HETATM    8  C4  UNL     1     -34.274  15.260  -4.226  1.00 20.00    -0.051 A 
HETATM    9  C1  UNL     1     -35.293  14.361  -3.796  1.00 20.00     0.014 A 
HETATM   10  C2  UNL     1     -36.112  13.972  -4.834  1.00 20.00     0.050 A 
HETATM   11  S11 UNL     1     -35.652  14.691  -6.319  1.00 20.00    -0.113 SA
HETATM   12  C3  UNL     1     -34.353  15.524  -5.576  1.00 20.00     0.056 A 
ENDBRANCH   7   8
ENDBRANCH   4   7
TORSDOF 2
ENDMDL
MODEL 7
REMARK VINA RESULT:      -4.1      1.454      1.934
REMARK  2 active torsions:
REMARK  status: ('A' for Active; 'I' for Inactive)
REMARK    1  A    between atoms: C4_4  and  C10_10 
REMARK    2  A    between atoms: C8_8  and  C10_10 
ROOT
HETATM    1  C5  UNL     1     -36.370  16.278  -3.502  1.00 20.00     0.006 C 
HETATM    2  C6  UNL     1     -37.092  15.098  -4.138  1.00 20.00     0.016 C 
HETATM    3  C7  UNL     1     -34.753  14.490  -3.764  1.00 20.00     0.020 C 
HETATM    4  C8  UNL     1     -35.181  15.615  -2.810  1.00 20.00    -0.009 C 
HETATM    5  C9  UNL     1     -35.966  14.213  -4.656  1.00 20.00     0.058 C 
HETATM    6 BR12 UNL     1     -35.553  14.684  -6.510  1.00 20.00    -0.091 Br
ENDROOT
BRANCH   4   7
HETATM    7  C10 UNL     1     -34.061  16.590  -2.491  1.00 20.00     0.043 C 
BRANCH   7   8
HETATM    8  C4  UNL     1     -34.256  17.249  -1.150  1.00 20.00    -0.051 A 
HETATM    9  C1  UNL     1     -33.340  18.182  -0.582  1.00 20.00     0.014 A 
HETATM   10  C2  UNL     1     -33.757  18.630   0.653  1.00 20.00     0.050 A 
HETATM   11  S11 UNL     1     -35.247  17.928   1.122  1.00 20.00    -0.113 SA
HETATM   12  C3  UNL     1     -35.337  17.020  -0.327  1.00 20.00     0.056 A 
ENDBRANCH   7   8
ENDBRANCH   4   7
TORSDOF 2
ENDMDL
MODEL 8
REMARK VINA RESULT:      -4.1      2.287      3.328
REMARK  2 active torsions:
REMARK  status: ('A' for Active; 'I' for Inactive)
REMARK    1  A    between atoms: C4_4  and  C10_10 
REMARK    2  A    between atoms: C8_8  and  C10_10 
ROOT
HETATM    1  C5  UNL     1     -36.447  15.568  -5.114  1.00 20.00     0.006 C 
HETATM    2  C6  UNL     1     -36.582  16.065  -6.547  1.00 20.00     0.016 C 
HETATM    3  C7  UNL     1     -34.370  15.063  -6.259  1.00 20.00     0.020 C 
HETATM    4  C8  UNL     1     -35.359  14.502  -5.226  1.00 20.00    -0.009 C 
HETATM    5  C9  UNL     1     -35.147  16.112  -7.058  1.00 20.00     0.058 C 
HETATM    6 BR12 UNL     1     -34.390  17.889  -6.739  1.00 20.00    -0.091 Br
ENDROOT
BRANCH   4   7
HETATM    7  C10 UNL     1     -34.711  14.173  -3.892  1.00 20.00     0.043 C 
BRANCH   7   8
HETATM    8  C4  UNL     1     -34.325  15.416  -3.134  1.00 20.00    -0.051 A 
HETATM    9  C1  UNL     1     -33.126  16.151  -3.370  1.00 20.00     0.014 A 
HETATM   10  C2  UNL     1     -33.017  17.245  -2.539  1.00 20.00     0.050 A 
HETATM   11  S11 UNL     1     -34.355  17.382  -1.479  1.00 20.00    -0.113 SA
HETATM   12  C3  UNL     1     -35.085  15.977  -2.130  1.00 20.00     0.056 A 
ENDBRANCH   7   8
ENDBRANCH   4   7
TORSDOF 2
ENDMDL
MODEL 9
REMARK VINA RESULT:      -4.1      2.253      3.047
REMARK  2 active torsions:
REMARK  status: ('A' for Active; 'I' for Inactive)
REMARK    1  A    between atoms: C4_4  and  C10_10 
REMARK    2  A    between atoms: C8_8  and  C10_10 
ROOT
HETATM    1  C5  UNL     1     -35.130  13.929  -4.026  1.00 20.00     0.006 C 
HETATM    2  C6  UNL     1     -36.315  13.922  -4.983  1.00 20.00     0.016 C 
HETATM    3  C7  UNL     1     -34.942  15.896  -5.432  1.00 20.00     0.020 C 
HETATM    4  C8  UNL     1     -34.108  14.796  -4.758  1.00 20.00    -0.009 C 
HETATM    5  C9  UNL     1     -36.370  15.350  -5.511  1.00 20.00     0.058 C 
HETATM    6 BR12 UNL     1     -37.559  16.425  -4.387  1.00 20.00    -0.091 Br
ENDROOT
BRANCH   4   7
HETATM    7  C10 UNL     1     -33.026  15.340  -3.841  1.00 20.00     0.043 C 
BRANCH   7   8
HETATM    8  C4  UNL     1     -33.529  16.483  -2.997  1.00 20.00    -0.051 A 
HETATM    9  C1  UNL     1     -34.517  16.345  -1.980  1.00 20.00     0.014 A 
HETATM   10  C2  UNL     1     -34.796  17.545  -1.363  1.00 20.00     0.050 A 
HETATM   11  S11 UNL     1     -33.867  18.831  -2.009  1.00 20.00    -0.113 SA
HETATM   12  C3  UNL     1     -33.090  17.784  -3.119  1.00 20.00     0.056 A 
ENDBRANCH   7   8
ENDBRANCH   4   7
TORSDOF 2
ENDMDL
