MODEL 1
REMARK VINA RESULT:      -5.0      0.000      0.000
REMARK  1 active torsions:
REMARK  status: ('A' for Active; 'I' for Inactive)
REMARK    1  A    between atoms: C6_6  and  C8_8 
ROOT
HETATM    1  C1  UNL     1     -32.713   8.105   1.246  1.00 20.00     0.064 C 
HETATM    2  C2  UNL     1     -32.009   7.577   3.570  1.00 20.00     0.019 C 
HETATM    3  C3  UNL     1     -33.174   7.110   4.434  1.00 20.00     0.006 C 
HETATM    4  C4  UNL     1     -33.423   5.993   2.340  1.00 20.00     0.024 C 
HETATM    5  C5  UNL     1     -32.303   7.032   2.164  1.00 20.00     0.093 C 
HETATM    6  C6  UNL     1     -33.509   5.745   3.846  1.00 20.00    -0.014 C 
HETATM    7  N9  UNL     1     -33.037   8.951   0.521  1.00 20.00    -0.197 NA
ENDROOT
BRANCH   6   8
HETATM    8  C8  UNL     1     -34.863   5.218   4.291  1.00 20.00     0.000 C 
HETATM    9  C7  UNL     1     -34.979   5.159   5.781  1.00 20.00     0.005 C 
ENDBRANCH   6   8
TORSDOF 1
ENDMDL
MODEL 2
REMARK VINA RESULT:      -4.7     15.295     16.269
REMARK  1 active torsions:
REMARK  status: ('A' for Active; 'I' for Inactive)
REMARK    1  A    between atoms: C6_6  and  C8_8 
ROOT
HETATM    1  C1  UNL     1     -21.952  17.508   8.127  1.00 20.00     0.064 C 
HETATM    2  C2  UNL     1     -23.601  19.215   8.864  1.00 20.00     0.019 C 
HETATM    3  C3  UNL     1     -24.773  18.598   9.617  1.00 20.00     0.006 C 
HETATM    4  C4  UNL     1     -22.816  17.519  10.453  1.00 20.00     0.024 C 
HETATM    5  C5  UNL     1     -22.381  18.362   9.244  1.00 20.00     0.093 C 
HETATM    6  C6  UNL     1     -24.135  18.135  10.921  1.00 20.00    -0.014 C 
HETATM    7  N9  UNL     1     -21.613  16.833   7.246  1.00 20.00    -0.197 NA
ENDROOT
BRANCH   6   8
HETATM    8  C8  UNL     1     -25.006  17.166  11.702  1.00 20.00     0.000 C 
HETATM    9  C7  UNL     1     -24.537  15.752  11.561  1.00 20.00     0.005 C 
ENDBRANCH   6   8
TORSDOF 1
ENDMDL
MODEL 3
REMARK VINA RESULT:      -4.6     10.677     11.751
REMARK  1 active torsions:
REMARK  status: ('A' for Active; 'I' for Inactive)
REMARK    1  A    between atoms: C6_6  and  C8_8 
ROOT
HETATM    1  C1  UNL     1     -36.994  14.056  -4.540  1.00 20.00     0.064 C 
HETATM    2  C2  UNL     1     -35.153  14.979  -5.932  1.00 20.00     0.019 C 
HETATM    3  C3  UNL     1     -34.431  16.130  -5.244  1.00 20.00     0.006 C 
HETATM    4  C4  UNL     1     -34.746  14.459  -3.569  1.00 20.00     0.024 C 
HETATM    5  C5  UNL     1     -35.548  14.014  -4.803  1.00 20.00     0.093 C 
HETATM    6  C6  UNL     1     -33.698  15.437  -4.101  1.00 20.00    -0.014 C 
HETATM    7  N9  UNL     1     -38.135  14.088  -4.332  1.00 20.00    -0.197 NA
ENDROOT
BRANCH   6   8
HETATM    8  C8  UNL     1     -33.189  16.403  -3.045  1.00 20.00     0.000 C 
HETATM    9  C7  UNL     1     -34.210  16.660  -1.981  1.00 20.00     0.005 C 
ENDBRANCH   6   8
TORSDOF 1
ENDMDL
MODEL 4
REMARK VINA RESULT:      -4.5     10.944     11.538
REMARK  1 active torsions:
REMARK  status: ('A' for Active; 'I' for Inactive)
REMARK    1  A    between atoms: C6_6  and  C8_8 
ROOT
HETATM    1  C1  UNL     1     -35.686  14.376  -5.406  1.00 20.00     0.064 C 
HETATM    2  C2  UNL     1     -33.474  14.441  -4.275  1.00 20.00     0.019 C 
HETATM    3  C3  UNL     1     -33.176  15.806  -3.667  1.00 20.00     0.006 C 
HETATM    4  C4  UNL     1     -35.452  15.328  -3.126  1.00 20.00     0.024 C 
HETATM    5  C5  UNL     1     -34.990  14.248  -4.118  1.00 20.00     0.093 C 
HETATM    6  C6  UNL     1     -34.168  15.886  -2.512  1.00 20.00    -0.014 C 
HETATM    7  N9  UNL     1     -36.236  14.477  -6.422  1.00 20.00    -0.197 NA
ENDROOT
BRANCH   6   8
HETATM    8  C8  UNL     1     -34.329  17.293  -1.960  1.00 20.00     0.000 C 
HETATM    9  C7  UNL     1     -33.045  17.829  -1.409  1.00 20.00     0.005 C 
ENDBRANCH   6   8
TORSDOF 1
ENDMDL
MODEL 5
REMARK VINA RESULT:      -4.4     10.722     11.763
REMARK  1 active torsions:
REMARK  status: ('A' for Active; 'I' for Inactive)
REMARK    1  A    between atoms: C6_6  and  C8_8 
ROOT
HETATM    1  C1  UNL     1     -36.422  14.050  -4.288  1.00 20.00     0.064 C 
HETATM    2  C2  UNL     1     -34.277  14.960  -5.154  1.00 20.00     0.019 C 
HETATM    3  C3  UNL     1     -34.025  16.388  -4.686  1.00 20.00     0.006 C 
HETATM    4  C4  UNL     1     -34.828  15.204  -2.775  1.00 20.00     0.024 C 
HETATM    5  C5  UNL     1     -35.000  14.272  -3.986  1.00 20.00     0.093 C 
HETATM    6  C6  UNL     1     -33.761  16.216  -3.195  1.00 20.00    -0.014 C 
HETATM    7  N9  UNL     1     -37.544  13.876  -4.525  1.00 20.00    -0.197 NA
ENDROOT
BRANCH   6   8
HETATM    8  C8  UNL     1     -33.834  17.521  -2.421  1.00 20.00     0.000 C 
HETATM    9  C7  UNL     1     -32.550  17.828  -1.717  1.00 20.00     0.005 C 
ENDBRANCH   6   8
TORSDOF 1
ENDMDL
MODEL 6
REMARK VINA RESULT:      -4.3     11.080     11.390
REMARK  1 active torsions:
REMARK  status: ('A' for Active; 'I' for Inactive)
REMARK    1  A    between atoms: C6_6  and  C8_8 
ROOT
HETATM    1  C1  UNL     1     -34.405  14.893  -5.698  1.00 20.00     0.064 C 
HETATM    2  C2  UNL     1     -32.914  15.402  -3.776  1.00 20.00     0.019 C 
HETATM    3  C3  UNL     1     -33.450  16.538  -2.914  1.00 20.00     0.006 C 
HETATM    4  C4  UNL     1     -35.325  15.147  -3.407  1.00 20.00     0.024 C 
HETATM    5  C5  UNL     1     -34.156  14.646  -4.271  1.00 20.00     0.093 C 
HETATM    6  C6  UNL     1     -34.676  15.916  -2.256  1.00 20.00    -0.014 C 
HETATM    7  N9  UNL     1     -34.602  15.089  -6.824  1.00 20.00    -0.197 NA
ENDROOT
BRANCH   6   8
HETATM    8  C8  UNL     1     -35.600  16.943  -1.624  1.00 20.00     0.000 C 
HETATM    9  C7  UNL     1     -35.309  17.138  -0.169  1.00 20.00     0.005 C 
ENDBRANCH   6   8
TORSDOF 1
ENDMDL
MODEL 7
REMARK VINA RESULT:      -4.2     11.022     11.636
REMARK  1 active torsions:
REMARK  status: ('A' for Active; 'I' for Inactive)
REMARK    1  A    between atoms: C6_6  and  C8_8 
ROOT
HETATM    1  C1  UNL     1     -32.874  17.998  -3.262  1.00 20.00     0.064 C 
HETATM    2  C2  UNL     1     -34.430  16.685  -1.835  1.00 20.00     0.019 C 
HETATM    3  C3  UNL     1     -35.460  15.920  -2.657  1.00 20.00     0.006 C 
HETATM    4  C4  UNL     1     -33.374  15.622  -3.778  1.00 20.00     0.024 C 
HETATM    5  C5  UNL     1     -33.147  16.675  -2.681  1.00 20.00     0.093 C 
HETATM    6  C6  UNL     1     -34.621  14.850  -3.344  1.00 20.00    -0.014 C 
HETATM    7  N9  UNL     1     -32.658  19.041  -3.720  1.00 20.00    -0.197 NA
ENDROOT
BRANCH   6   8
HETATM    8  C8  UNL     1     -35.341  14.175  -4.499  1.00 20.00     0.000 C 
HETATM    9  C7  UNL     1     -36.828  14.238  -4.345  1.00 20.00     0.005 C 
ENDBRANCH   6   8
TORSDOF 1
ENDMDL
MODEL 8
REMARK VINA RESULT:      -4.1     10.921     11.724
REMARK  1 active torsions:
REMARK  status: ('A' for Active; 'I' for Inactive)
REMARK    1  A    between atoms: C6_6  and  C8_8 
ROOT
HETATM    1  C1  UNL     1     -36.796  15.282  -4.900  1.00 20.00     0.064 C 
HETATM    2  C2  UNL     1     -34.746  14.140  -4.081  1.00 20.00     0.019 C 
HETATM    3  C3  UNL     1     -33.612  15.119  -3.802  1.00 20.00     0.006 C 
HETATM    4  C4  UNL     1     -35.582  16.124  -2.905  1.00 20.00     0.024 C 
HETATM    5  C5  UNL     1     -36.032  14.891  -3.706  1.00 20.00     0.093 C 
HETATM    6  C6  UNL     1     -34.110  15.876  -2.577  1.00 20.00    -0.014 C 
HETATM    7  N9  UNL     1     -37.399  15.591  -5.841  1.00 20.00    -0.197 NA
ENDROOT
BRANCH   6   8
HETATM    8  C8  UNL     1     -33.332  17.152  -2.306  1.00 20.00     0.000 C 
HETATM    9  C7  UNL     1     -33.793  17.835  -1.057  1.00 20.00     0.005 C 
ENDBRANCH   6   8
TORSDOF 1
ENDMDL
MODEL 9
REMARK VINA RESULT:      -4.1     10.860     11.706
REMARK  1 active torsions:
REMARK  status: ('A' for Active; 'I' for Inactive)
REMARK    1  A    between atoms: C6_6  and  C8_8 
ROOT
HETATM    1  C1  UNL     1     -33.515  14.768  -4.237  1.00 20.00     0.064 C 
HETATM    2  C2  UNL     1     -35.409  15.778  -2.984  1.00 20.00     0.019 C 
HETATM    3  C3  UNL     1     -34.986  16.292  -1.613  1.00 20.00     0.006 C 
HETATM    4  C4  UNL     1     -33.273  16.975  -3.129  1.00 20.00     0.024 C 
HETATM    5  C5  UNL     1     -34.202  16.024  -3.901  1.00 20.00     0.093 C 
HETATM    6  C6  UNL     1     -34.108  17.490  -1.956  1.00 20.00    -0.014 C 
HETATM    7  N9  UNL     1     -32.973  13.777  -4.503  1.00 20.00    -0.197 NA
ENDROOT
BRANCH   6   8
HETATM    8  C8  UNL     1     -33.267  17.969  -0.785  1.00 20.00     0.000 C 
HETATM    9  C7  UNL     1     -31.848  18.228  -1.183  1.00 20.00     0.005 C 
ENDBRANCH   6   8
TORSDOF 1
ENDMDL
