MODEL 1
REMARK VINA RESULT:      -4.9      0.000      0.000
REMARK  4 active torsions:
REMARK  status: ('A' for Active; 'I' for Inactive)
REMARK    1  A    between atoms: C4_4  and  C6_6 
REMARK    2  A    between atoms: C5_5  and  C8_8 
REMARK    3  A    between atoms: C6_6  and  C7_7 
REMARK    4  A    between atoms: C7_7  and  C8_8 
ROOT
HETATM    1  C1  UNL     1     -32.570   8.379   0.716  1.00 20.00     0.012 C 
HETATM    2  C2  UNL     1     -32.610   7.611   1.638  1.00 20.00    -0.117 C 
HETATM    3  C4  UNL     1     -32.656   6.674   2.768  1.00 20.00     0.093 C 
ENDROOT
BRANCH   3   4
HETATM    4  C6  UNL     1     -33.578   5.483   2.497  1.00 20.00     0.014 C 
BRANCH   4   5
HETATM    5  C7  UNL     1     -33.637   4.497   3.674  1.00 20.00     0.021 C 
BRANCH   5   6
HETATM    6  C8  UNL     1     -34.878   4.694   4.560  1.00 20.00     0.082 C 
HETATM    7 CL9  UNL     1     -36.052   5.798   3.775  1.00 20.00    -0.125 Cl
BRANCH   6   8
HETATM    8  C5  UNL     1     -34.533   5.200   5.971  1.00 20.00     0.016 C 
HETATM    9  C3  UNL     1     -34.094   6.656   6.057  1.00 20.00     0.006 C 
ENDBRANCH   6   8
ENDBRANCH   5   6
ENDBRANCH   4   5
ENDBRANCH   3   4
TORSDOF 4
ENDMDL
MODEL 2
REMARK VINA RESULT:      -4.7      1.727      4.634
REMARK  4 active torsions:
REMARK  status: ('A' for Active; 'I' for Inactive)
REMARK    1  A    between atoms: C4_4  and  C6_6 
REMARK    2  A    between atoms: C5_5  and  C8_8 
REMARK    3  A    between atoms: C6_6  and  C7_7 
REMARK    4  A    between atoms: C7_7  and  C8_8 
ROOT
HETATM    1  C1  UNL     1     -34.699   5.733   5.923  1.00 20.00     0.012 C 
HETATM    2  C2  UNL     1     -34.541   5.123   4.901  1.00 20.00    -0.117 C 
HETATM    3  C4  UNL     1     -34.351   4.373   3.652  1.00 20.00     0.093 C 
ENDROOT
BRANCH   3   4
HETATM    4  C6  UNL     1     -33.235   4.962   2.786  1.00 20.00     0.014 C 
BRANCH   4   5
HETATM    5  C7  UNL     1     -33.610   6.325   2.181  1.00 20.00     0.021 C 
BRANCH   5   6
HETATM    6  C8  UNL     1     -32.412   7.282   2.070  1.00 20.00     0.082 C 
HETATM    7 CL9  UNL     1     -31.712   7.615   3.686  1.00 20.00    -0.125 Cl
BRANCH   6   8
HETATM    8  C5  UNL     1     -32.763   8.600   1.359  1.00 20.00     0.016 C 
HETATM    9  C3  UNL     1     -33.188   8.468  -0.098  1.00 20.00     0.006 C 
ENDBRANCH   6   8
ENDBRANCH   5   6
ENDBRANCH   4   5
ENDBRANCH   3   4
TORSDOF 4
ENDMDL
MODEL 3
REMARK VINA RESULT:      -4.7      1.529      2.017
REMARK  4 active torsions:
REMARK  status: ('A' for Active; 'I' for Inactive)
REMARK    1  A    between atoms: C4_4  and  C6_6 
REMARK    2  A    between atoms: C5_5  and  C8_8 
REMARK    3  A    between atoms: C6_6  and  C7_7 
REMARK    4  A    between atoms: C7_7  and  C8_8 
ROOT
HETATM    1  C1  UNL     1     -33.528   9.475   0.305  1.00 20.00     0.012 C 
HETATM    2  C2  UNL     1     -32.855   8.567   0.711  1.00 20.00    -0.117 C 
HETATM    3  C4  UNL     1     -32.030   7.456   1.204  1.00 20.00     0.093 C 
ENDROOT
BRANCH   3   4
HETATM    4  C6  UNL     1     -32.236   7.199   2.699  1.00 20.00     0.014 C 
BRANCH   4   5
HETATM    5  C7  UNL     1     -33.232   6.062   2.974  1.00 20.00     0.021 C 
BRANCH   5   6
HETATM    6  C8  UNL     1     -34.189   6.370   4.137  1.00 20.00     0.082 C 
HETATM    7 CL9  UNL     1     -33.326   7.210   5.465  1.00 20.00    -0.125 Cl
BRANCH   6   8
HETATM    8  C5  UNL     1     -34.903   5.118   4.674  1.00 20.00     0.016 C 
HETATM    9  C3  UNL     1     -34.838   4.923   6.184  1.00 20.00     0.006 C 
ENDBRANCH   6   8
ENDBRANCH   5   6
ENDBRANCH   4   5
ENDBRANCH   3   4
TORSDOF 4
ENDMDL
MODEL 4
REMARK VINA RESULT:      -4.6      1.433      4.024
REMARK  4 active torsions:
REMARK  status: ('A' for Active; 'I' for Inactive)
REMARK    1  A    between atoms: C4_4  and  C6_6 
REMARK    2  A    between atoms: C5_5  and  C8_8 
REMARK    3  A    between atoms: C6_6  and  C7_7 
REMARK    4  A    between atoms: C7_7  and  C8_8 
ROOT
HETATM    1  C1  UNL     1     -33.659   7.420   6.220  1.00 20.00     0.012 C 
HETATM    2  C2  UNL     1     -34.160   6.340   6.066  1.00 20.00    -0.117 C 
HETATM    3  C4  UNL     1     -34.773   5.017   5.884  1.00 20.00     0.093 C 
ENDROOT
BRANCH   3   4
HETATM    4  C6  UNL     1     -34.803   4.590   4.415  1.00 20.00     0.014 C 
BRANCH   4   5
HETATM    5  C7  UNL     1     -34.783   5.784   3.448  1.00 20.00     0.021 C 
BRANCH   5   6
HETATM    6  C8  UNL     1     -33.634   5.713   2.429  1.00 20.00     0.082 C 
HETATM    7 CL9  UNL     1     -32.866   4.094   2.449  1.00 20.00    -0.125 Cl
BRANCH   6   8
HETATM    8  C5  UNL     1     -32.575   6.807   2.643  1.00 20.00     0.016 C 
HETATM    9  C3  UNL     1     -32.497   7.868   1.551  1.00 20.00     0.006 C 
ENDBRANCH   6   8
ENDBRANCH   5   6
ENDBRANCH   4   5
ENDBRANCH   3   4
TORSDOF 4
ENDMDL
MODEL 5
REMARK VINA RESULT:      -4.5      1.363      1.925
REMARK  4 active torsions:
REMARK  status: ('A' for Active; 'I' for Inactive)
REMARK    1  A    between atoms: C4_4  and  C6_6 
REMARK    2  A    between atoms: C5_5  and  C8_8 
REMARK    3  A    between atoms: C6_6  and  C7_7 
REMARK    4  A    between atoms: C7_7  and  C8_8 
ROOT
HETATM    1  C1  UNL     1     -33.274   9.451   0.421  1.00 20.00     0.012 C 
HETATM    2  C2  UNL     1     -32.774   8.476   0.912  1.00 20.00    -0.117 C 
HETATM    3  C4  UNL     1     -32.161   7.282   1.508  1.00 20.00     0.093 C 
ENDROOT
BRANCH   3   4
HETATM    4  C6  UNL     1     -32.253   7.284   3.036  1.00 20.00     0.014 C 
BRANCH   4   5
HETATM    5  C7  UNL     1     -33.615   6.792   3.550  1.00 20.00     0.021 C 
BRANCH   5   6
HETATM    6  C8  UNL     1     -33.644   5.280   3.821  1.00 20.00     0.082 C 
HETATM    7 CL9  UNL     1     -33.549   4.356   2.287  1.00 20.00    -0.125 Cl
BRANCH   6   8
HETATM    8  C5  UNL     1     -34.875   4.840   4.631  1.00 20.00     0.016 C 
HETATM    9  C3  UNL     1     -34.893   5.280   6.090  1.00 20.00     0.006 C 
ENDBRANCH   6   8
ENDBRANCH   5   6
ENDBRANCH   4   5
ENDBRANCH   3   4
TORSDOF 4
ENDMDL
MODEL 6
REMARK VINA RESULT:      -4.5      1.515      2.174
REMARK  4 active torsions:
REMARK  status: ('A' for Active; 'I' for Inactive)
REMARK    1  A    between atoms: C4_4  and  C6_6 
REMARK    2  A    between atoms: C5_5  and  C8_8 
REMARK    3  A    between atoms: C6_6  and  C7_7 
REMARK    4  A    between atoms: C7_7  and  C8_8 
ROOT
HETATM    1  C1  UNL     1     -33.337   8.874  -0.260  1.00 20.00     0.012 C 
HETATM    2  C2  UNL     1     -32.741   8.342   0.636  1.00 20.00    -0.117 C 
HETATM    3  C4  UNL     1     -32.008   7.693   1.732  1.00 20.00     0.093 C 
ENDROOT
BRANCH   3   4
HETATM    4  C6  UNL     1     -32.855   6.642   2.454  1.00 20.00     0.014 C 
BRANCH   4   5
HETATM    5  C7  UNL     1     -32.944   6.889   3.968  1.00 20.00     0.021 C 
BRANCH   5   6
HETATM    6  C8  UNL     1     -34.339   6.596   4.542  1.00 20.00     0.082 C 
HETATM    7 CL9  UNL     1     -34.281   6.489   6.331  1.00 20.00    -0.125 Cl
BRANCH   6   8
HETATM    8  C5  UNL     1     -34.976   5.326   3.954  1.00 20.00     0.016 C 
HETATM    9  C3  UNL     1     -34.246   4.024   4.259  1.00 20.00     0.006 C 
ENDBRANCH   6   8
ENDBRANCH   5   6
ENDBRANCH   4   5
ENDBRANCH   3   4
TORSDOF 4
ENDMDL
MODEL 7
REMARK VINA RESULT:      -4.2      1.509      4.499
REMARK  4 active torsions:
REMARK  status: ('A' for Active; 'I' for Inactive)
REMARK    1  A    between atoms: C4_4  and  C6_6 
REMARK    2  A    between atoms: C5_5  and  C8_8 
REMARK    3  A    between atoms: C6_6  and  C7_7 
REMARK    4  A    between atoms: C7_7  and  C8_8 
ROOT
HETATM    1  C1  UNL     1     -35.303   4.750   4.920  1.00 20.00     0.012 C 
HETATM    2  C2  UNL     1     -34.608   5.606   5.393  1.00 20.00    -0.117 C 
HETATM    3  C4  UNL     1     -33.758   6.652   5.978  1.00 20.00     0.093 C 
ENDROOT
BRANCH   3   4
HETATM    4  C6  UNL     1     -33.361   7.718   4.953  1.00 20.00     0.014 C 
BRANCH   4   5
HETATM    5  C7  UNL     1     -32.334   7.205   3.931  1.00 20.00     0.021 C 
BRANCH   5   6
HETATM    6  C8  UNL     1     -32.954   6.902   2.558  1.00 20.00     0.082 C 
HETATM    7 CL9  UNL     1     -33.004   5.135   2.258  1.00 20.00    -0.125 Cl
BRANCH   6   8
HETATM    8  C5  UNL     1     -32.233   7.618   1.403  1.00 20.00     0.016 C 
HETATM    9  C3  UNL     1     -32.963   8.821   0.818  1.00 20.00     0.006 C 
ENDBRANCH   6   8
ENDBRANCH   5   6
ENDBRANCH   4   5
ENDBRANCH   3   4
TORSDOF 4
ENDMDL
MODEL 8
REMARK VINA RESULT:      -4.0     11.894     12.529
REMARK  4 active torsions:
REMARK  status: ('A' for Active; 'I' for Inactive)
REMARK    1  A    between atoms: C4_4  and  C6_6 
REMARK    2  A    between atoms: C5_5  and  C8_8 
REMARK    3  A    between atoms: C6_6  and  C7_7 
REMARK    4  A    between atoms: C7_7  and  C8_8 
ROOT
HETATM    1  C1  UNL     1     -35.069  16.265  -1.728  1.00 20.00     0.012 C 
HETATM    2  C2  UNL     1     -34.213  16.046  -2.540  1.00 20.00    -0.117 C 
HETATM    3  C4  UNL     1     -33.163  15.783  -3.533  1.00 20.00     0.093 C 
ENDROOT
BRANCH   3   4
HETATM    4  C6  UNL     1     -33.460  14.541  -4.377  1.00 20.00     0.014 C 
BRANCH   4   5
HETATM    5  C7  UNL     1     -33.920  14.886  -5.801  1.00 20.00     0.021 C 
BRANCH   5   6
HETATM    6  C8  UNL     1     -35.449  14.893  -5.954  1.00 20.00     0.082 C 
HETATM    7 CL9  UNL     1     -36.105  16.544  -5.719  1.00 20.00    -0.125 Cl
BRANCH   6   8
HETATM    8  C5  UNL     1     -36.150  13.902  -5.008  1.00 20.00     0.016 C 
HETATM    9  C3  UNL     1     -37.353  14.455  -4.253  1.00 20.00     0.006 C 
ENDBRANCH   6   8
ENDBRANCH   5   6
ENDBRANCH   4   5
ENDBRANCH   3   4
TORSDOF 4
ENDMDL
MODEL 9
REMARK VINA RESULT:      -3.9      1.968      4.380
REMARK  4 active torsions:
REMARK  status: ('A' for Active; 'I' for Inactive)
REMARK    1  A    between atoms: C4_4  and  C6_6 
REMARK    2  A    between atoms: C5_5  and  C8_8 
REMARK    3  A    between atoms: C6_6  and  C7_7 
REMARK    4  A    between atoms: C7_7  and  C8_8 
ROOT
HETATM    1  C1  UNL     1     -35.045   4.763   5.769  1.00 20.00     0.012 C 
HETATM    2  C2  UNL     1     -34.383   5.764   5.810  1.00 20.00    -0.117 C 
HETATM    3  C4  UNL     1     -33.573   6.989   5.865  1.00 20.00     0.093 C 
ENDROOT
BRANCH   3   4
HETATM    4  C6  UNL     1     -33.504   7.700   4.512  1.00 20.00     0.014 C 
BRANCH   4   5
HETATM    5  C7  UNL     1     -32.174   7.460   3.781  1.00 20.00     0.021 C 
BRANCH   5   6
HETATM    6  C8  UNL     1     -32.359   6.852   2.382  1.00 20.00     0.082 C 
HETATM    7 CL9  UNL     1     -32.617   8.138   1.159  1.00 20.00    -0.125 Cl
BRANCH   6   8
HETATM    8  C5  UNL     1     -33.501   5.823   2.321  1.00 20.00     0.016 C 
HETATM    9  C3  UNL     1     -33.084   4.369   2.503  1.00 20.00     0.006 C 
ENDBRANCH   6   8
ENDBRANCH   5   6
ENDBRANCH   4   5
ENDBRANCH   3   4
TORSDOF 4
ENDMDL
