MODEL 1
REMARK VINA RESULT:      -3.7      0.000      0.000
REMARK  4 active torsions:
REMARK  status: ('A' for Active; 'I' for Inactive)
REMARK    1  A    between atoms: C5_5  and  C8_8 
REMARK    2  A    between atoms: C6_6  and  C7_7 
REMARK    3  A    between atoms: C6_6  and  C8_8 
REMARK    4  A    between atoms: C7_7  and  C9_9 
ROOT
HETATM    1  C6  UNL     1     -34.837  14.230  -3.961  1.00 20.00     0.021 C 
ENDROOT
BRANCH   1   2
HETATM    2  C7  UNL     1     -35.274  15.206  -2.857  1.00 20.00     0.010 C 
BRANCH   2   3
HETATM    3  C9  UNL     1     -34.486  16.543  -2.789  1.00 20.00    -0.051 C 
HETATM    4  C2  UNL     1     -34.557  17.067  -1.341  1.00 20.00     0.014 C 
HETATM    5  C3  UNL     1     -35.100  17.599  -3.721  1.00 20.00     0.014 C 
HETATM    6  C4  UNL     1     -33.007  16.339  -3.158  1.00 20.00     0.014 C 
ENDBRANCH   2   3
ENDBRANCH   1   2
BRANCH   1   7
HETATM    7  C8  UNL     1     -35.946  13.941  -4.990  1.00 20.00     0.082 C 
HETATM    8 CL10 UNL     1     -37.544  14.430  -4.340  1.00 20.00    -0.125 Cl
BRANCH   7   9
HETATM    9  C5  UNL     1     -35.662  14.670  -6.312  1.00 20.00     0.016 C 
HETATM   10  C1  UNL     1     -34.196  15.040  -6.501  1.00 20.00     0.006 C 
ENDBRANCH   7   9
ENDBRANCH   1   7
TORSDOF 4
ENDMDL
MODEL 2
REMARK VINA RESULT:      -3.7      0.089      1.388
REMARK  4 active torsions:
REMARK  status: ('A' for Active; 'I' for Inactive)
REMARK    1  A    between atoms: C5_5  and  C8_8 
REMARK    2  A    between atoms: C6_6  and  C7_7 
REMARK    3  A    between atoms: C6_6  and  C8_8 
REMARK    4  A    between atoms: C7_7  and  C9_9 
ROOT
HETATM    1  C6  UNL     1     -34.799  14.298  -3.906  1.00 20.00     0.021 C 
ENDROOT
BRANCH   1   2
HETATM    2  C7  UNL     1     -35.256  15.261  -2.798  1.00 20.00     0.010 C 
BRANCH   2   3
HETATM    3  C9  UNL     1     -34.498  16.615  -2.728  1.00 20.00    -0.051 C 
HETATM    4  C2  UNL     1     -33.047  16.375  -3.192  1.00 20.00     0.014 C 
HETATM    5  C3  UNL     1     -34.466  17.161  -1.292  1.00 20.00     0.014 C 
HETATM    6  C4  UNL     1     -35.136  17.662  -3.655  1.00 20.00     0.014 C 
ENDBRANCH   2   3
ENDBRANCH   1   2
BRANCH   1   7
HETATM    7  C8  UNL     1     -35.902  13.992  -4.938  1.00 20.00     0.082 C 
HETATM    8 CL10 UNL     1     -37.507  14.470  -4.297  1.00 20.00    -0.125 Cl
BRANCH   7   9
HETATM    9  C5  UNL     1     -35.619  14.717  -6.263  1.00 20.00     0.016 C 
HETATM   10  C1  UNL     1     -34.143  15.016  -6.492  1.00 20.00     0.006 C 
ENDBRANCH   7   9
ENDBRANCH   1   7
TORSDOF 4
ENDMDL
MODEL 3
REMARK VINA RESULT:      -3.6      3.059      5.144
REMARK  4 active torsions:
REMARK  status: ('A' for Active; 'I' for Inactive)
REMARK    1  A    between atoms: C5_5  and  C8_8 
REMARK    2  A    between atoms: C6_6  and  C7_7 
REMARK    3  A    between atoms: C6_6  and  C8_8 
REMARK    4  A    between atoms: C7_7  and  C9_9 
ROOT
HETATM    1  C6  UNL     1     -34.015  17.071  -1.621  1.00 20.00     0.021 C 
ENDROOT
BRANCH   1   2
HETATM    2  C7  UNL     1     -33.172  16.531  -2.787  1.00 20.00     0.010 C 
BRANCH   2   3
HETATM    3  C9  UNL     1     -33.939  15.673  -3.831  1.00 20.00    -0.051 C 
HETATM    4  C2  UNL     1     -34.354  16.593  -4.996  1.00 20.00     0.014 C 
HETATM    5  C3  UNL     1     -35.208  15.057  -3.220  1.00 20.00     0.014 C 
HETATM    6  C4  UNL     1     -33.051  14.551  -4.392  1.00 20.00     0.014 C 
ENDBRANCH   2   3
ENDBRANCH   1   2
BRANCH   1   7
HETATM    7  C8  UNL     1     -33.367  18.275  -0.910  1.00 20.00     0.082 C 
HETATM    8 CL10 UNL     1     -33.681  18.203   0.854  1.00 20.00    -0.125 Cl
BRANCH   7   9
HETATM    9  C5  UNL     1     -31.856  18.314  -1.182  1.00 20.00     0.016 C 
HETATM   10  C1  UNL     1     -31.010  18.372   0.084  1.00 20.00     0.006 C 
ENDBRANCH   7   9
ENDBRANCH   1   7
TORSDOF 4
ENDMDL
MODEL 4
REMARK VINA RESULT:      -3.6      3.105      5.243
REMARK  4 active torsions:
REMARK  status: ('A' for Active; 'I' for Inactive)
REMARK    1  A    between atoms: C5_5  and  C8_8 
REMARK    2  A    between atoms: C6_6  and  C7_7 
REMARK    3  A    between atoms: C6_6  and  C8_8 
REMARK    4  A    between atoms: C7_7  and  C9_9 
ROOT
HETATM    1  C6  UNL     1     -33.970  17.191  -1.599  1.00 20.00     0.021 C 
ENDROOT
BRANCH   1   2
HETATM    2  C7  UNL     1     -33.123  16.649  -2.761  1.00 20.00     0.010 C 
BRANCH   2   3
HETATM    3  C9  UNL     1     -33.885  15.787  -3.805  1.00 20.00    -0.051 C 
HETATM    4  C2  UNL     1     -35.125  15.185  -3.114  1.00 20.00     0.014 C 
HETATM    5  C3  UNL     1     -33.009  14.635  -4.323  1.00 20.00     0.014 C 
HETATM    6  C4  UNL     1     -34.359  16.638  -4.994  1.00 20.00     0.014 C 
ENDBRANCH   2   3
ENDBRANCH   1   2
BRANCH   1   7
HETATM    7  C8  UNL     1     -33.263  18.303  -0.799  1.00 20.00     0.082 C 
HETATM    8 CL10 UNL     1     -33.674  18.180   0.941  1.00 20.00    -0.125 Cl
BRANCH   7   9
HETATM    9  C5  UNL     1     -31.741  18.225  -0.994  1.00 20.00     0.016 C 
HETATM   10  C1  UNL     1     -30.950  18.443   0.290  1.00 20.00     0.006 C 
ENDBRANCH   7   9
ENDBRANCH   1   7
TORSDOF 4
ENDMDL
MODEL 5
REMARK VINA RESULT:      -3.6      1.773      2.558
REMARK  4 active torsions:
REMARK  status: ('A' for Active; 'I' for Inactive)
REMARK    1  A    between atoms: C5_5  and  C8_8 
REMARK    2  A    between atoms: C6_6  and  C7_7 
REMARK    3  A    between atoms: C6_6  and  C8_8 
REMARK    4  A    between atoms: C7_7  and  C9_9 
ROOT
HETATM    1  C6  UNL     1     -33.879  14.958  -4.159  1.00 20.00     0.021 C 
ENDROOT
BRANCH   1   2
HETATM    2  C7  UNL     1     -33.110  16.114  -3.501  1.00 20.00     0.010 C 
BRANCH   2   3
HETATM    3  C9  UNL     1     -33.934  17.002  -2.528  1.00 20.00    -0.051 C 
HETATM    4  C2  UNL     1     -34.622  18.107  -3.355  1.00 20.00     0.014 C 
HETATM    5  C3  UNL     1     -33.027  17.670  -1.481  1.00 20.00     0.014 C 
HETATM    6  C4  UNL     1     -35.021  16.186  -1.810  1.00 20.00     0.014 C 
ENDBRANCH   2   3
ENDBRANCH   1   2
BRANCH   1   7
HETATM    7  C8  UNL     1     -34.595  15.369  -5.460  1.00 20.00     0.082 C 
HETATM    8 CL10 UNL     1     -33.612  14.908  -6.887  1.00 20.00    -0.125 Cl
BRANCH   7   9
HETATM    9  C5  UNL     1     -35.986  14.721  -5.540  1.00 20.00     0.016 C 
HETATM   10  C1  UNL     1     -36.219  13.645  -4.486  1.00 20.00     0.006 C 
ENDBRANCH   7   9
ENDBRANCH   1   7
TORSDOF 4
ENDMDL
MODEL 6
REMARK VINA RESULT:      -3.5     17.835     18.858
REMARK  4 active torsions:
REMARK  status: ('A' for Active; 'I' for Inactive)
REMARK    1  A    between atoms: C5_5  and  C8_8 
REMARK    2  A    between atoms: C6_6  and  C7_7 
REMARK    3  A    between atoms: C6_6  and  C8_8 
REMARK    4  A    between atoms: C7_7  and  C9_9 
ROOT
HETATM    1  C6  UNL     1     -24.468  17.035  10.456  1.00 20.00     0.021 C 
ENDROOT
BRANCH   1   2
HETATM    2  C7  UNL     1     -23.152  16.728   9.724  1.00 20.00     0.010 C 
BRANCH   2   3
HETATM    3  C9  UNL     1     -22.580  17.881   8.854  1.00 20.00    -0.051 C 
HETATM    4  C2  UNL     1     -21.339  18.451   9.571  1.00 20.00     0.014 C 
HETATM    5  C3  UNL     1     -23.608  19.012   8.685  1.00 20.00     0.014 C 
HETATM    6  C4  UNL     1     -22.150  17.376   7.468  1.00 20.00     0.014 C 
ENDBRANCH   2   3
ENDBRANCH   1   2
BRANCH   1   7
HETATM    7  C8  UNL     1     -24.271  17.355  11.950  1.00 20.00     0.082 C 
HETATM    8 CL10 UNL     1     -22.527  17.511  12.332  1.00 20.00    -0.125 Cl
BRANCH   7   9
HETATM    9  C5  UNL     1     -25.017  18.643  12.330  1.00 20.00     0.016 C 
HETATM   10  C1  UNL     1     -26.412  18.743  11.723  1.00 20.00     0.006 C 
ENDBRANCH   7   9
ENDBRANCH   1   7
TORSDOF 4
ENDMDL
MODEL 7
REMARK VINA RESULT:      -3.5      3.121      5.249
REMARK  4 active torsions:
REMARK  status: ('A' for Active; 'I' for Inactive)
REMARK    1  A    between atoms: C5_5  and  C8_8 
REMARK    2  A    between atoms: C6_6  and  C7_7 
REMARK    3  A    between atoms: C6_6  and  C8_8 
REMARK    4  A    between atoms: C7_7  and  C9_9 
ROOT
HETATM    1  C6  UNL     1     -34.026  17.301  -1.558  1.00 20.00     0.021 C 
ENDROOT
BRANCH   1   2
HETATM    2  C7  UNL     1     -33.162  16.633  -2.640  1.00 20.00     0.010 C 
BRANCH   2   3
HETATM    3  C9  UNL     1     -33.939  15.836  -3.724  1.00 20.00    -0.051 C 
HETATM    4  C2  UNL     1     -33.002  14.744  -4.278  1.00 20.00     0.014 C 
HETATM    5  C3  UNL     1     -34.365  16.748  -4.886  1.00 20.00     0.014 C 
HETATM    6  C4  UNL     1     -35.183  15.154  -3.132  1.00 20.00     0.014 C 
ENDBRANCH   2   3
ENDBRANCH   1   2
BRANCH   1   7
HETATM    7  C8  UNL     1     -33.274  18.388  -0.766  1.00 20.00     0.082 C 
HETATM    8 CL10 UNL     1     -33.605  18.225   0.988  1.00 20.00    -0.125 Cl
BRANCH   7   9
HETATM    9  C5  UNL     1     -31.763  18.304  -1.033  1.00 20.00     0.016 C 
HETATM   10  C1  UNL     1     -30.918  18.319   0.234  1.00 20.00     0.006 C 
ENDBRANCH   7   9
ENDBRANCH   1   7
TORSDOF 4
ENDMDL
MODEL 8
REMARK VINA RESULT:      -3.5     10.929     12.204
REMARK  4 active torsions:
REMARK  status: ('A' for Active; 'I' for Inactive)
REMARK    1  A    between atoms: C5_5  and  C8_8 
REMARK    2  A    between atoms: C6_6  and  C7_7 
REMARK    3  A    between atoms: C6_6  and  C8_8 
REMARK    4  A    between atoms: C7_7  and  C9_9 
ROOT
HETATM    1  C6  UNL     1     -41.243   5.849   0.036  1.00 20.00     0.021 C 
ENDROOT
BRANCH   1   2
HETATM    2  C7  UNL     1     -41.358   7.184   0.789  1.00 20.00     0.010 C 
BRANCH   2   3
HETATM    3  C9  UNL     1     -41.888   8.383  -0.044  1.00 20.00    -0.051 C 
HETATM    4  C2  UNL     1     -43.393   8.543   0.252  1.00 20.00     0.014 C 
HETATM    5  C3  UNL     1     -41.712   8.135  -1.551  1.00 20.00     0.014 C 
HETATM    6  C4  UNL     1     -41.177   9.690   0.342  1.00 20.00     0.014 C 
ENDBRANCH   2   3
ENDBRANCH   1   2
BRANCH   1   7
HETATM    7  C8  UNL     1     -42.457   4.925   0.251  1.00 20.00     0.082 C 
HETATM    8 CL10 UNL     1     -43.319   5.364   1.760  1.00 20.00    -0.125 Cl
BRANCH   7   9
HETATM    9  C5  UNL     1     -43.413   5.000  -0.950  1.00 20.00     0.016 C 
HETATM   10  C1  UNL     1     -43.029   4.070  -2.094  1.00 20.00     0.006 C 
ENDBRANCH   7   9
ENDBRANCH   1   7
TORSDOF 4
ENDMDL
MODEL 9
REMARK VINA RESULT:      -3.5      2.398      4.656
REMARK  4 active torsions:
REMARK  status: ('A' for Active; 'I' for Inactive)
REMARK    1  A    between atoms: C5_5  and  C8_8 
REMARK    2  A    between atoms: C6_6  and  C7_7 
REMARK    3  A    between atoms: C6_6  and  C8_8 
REMARK    4  A    between atoms: C7_7  and  C9_9 
ROOT
HETATM    1  C6  UNL     1     -35.194  16.221  -1.848  1.00 20.00     0.021 C 
ENDROOT
BRANCH   1   2
HETATM    2  C7  UNL     1     -33.934  15.944  -2.684  1.00 20.00     0.010 C 
BRANCH   2   3
HETATM    3  C9  UNL     1     -34.176  15.258  -4.057  1.00 20.00    -0.051 C 
HETATM    4  C2  UNL     1     -32.906  14.465  -4.426  1.00 20.00     0.014 C 
HETATM    5  C3  UNL     1     -34.439  16.296  -5.160  1.00 20.00     0.014 C 
HETATM    6  C4  UNL     1     -35.357  14.276  -3.992  1.00 20.00     0.014 C 
ENDBRANCH   2   3
ENDBRANCH   1   2
BRANCH   1   7
HETATM    7  C8  UNL     1     -35.076  17.485  -0.974  1.00 20.00     0.082 C 
HETATM    8 CL10 UNL     1     -35.511  17.113   0.725  1.00 20.00    -0.125 Cl
BRANCH   7   9
HETATM    9  C5  UNL     1     -33.654  18.061  -1.047  1.00 20.00     0.016 C 
HETATM   10  C1  UNL     1     -33.065  18.404   0.317  1.00 20.00     0.006 C 
ENDBRANCH   7   9
ENDBRANCH   1   7
TORSDOF 4
ENDMDL
