MODEL 1
REMARK VINA RESULT:      -4.7      0.000      0.000
REMARK  1 active torsions:
REMARK  status: ('A' for Active; 'I' for Inactive)
REMARK    1  A    between atoms: C4_4  and  C8_8 
ROOT
HETATM    1  C1  UNL     1     -31.190  18.698   1.028  1.00 20.00     0.135 A 
HETATM    2  C2  UNL     1     -32.530  18.529   1.298  1.00 20.00     0.136 A 
HETATM    3  C3  UNL     1     -31.564  18.156  -1.162  1.00 20.00     0.143 A 
HETATM    4  C4  UNL     1     -32.904  17.987  -0.892  1.00 20.00     0.056 A 
HETATM    5  N10 UNL     1     -30.682  18.514  -0.208  1.00 20.00    -0.270 NA
HETATM    6  N11 UNL     1     -33.411  18.171   0.343  1.00 20.00    -0.262 NA
ENDROOT
BRANCH   4   7
HETATM    7  C8  UNL     1     -33.863  17.584  -1.989  1.00 20.00     0.041 C 
HETATM    8  C5  UNL     1     -33.198  16.904  -3.205  1.00 20.00     0.012 C 
HETATM    9  C6  UNL     1     -33.863  15.535  -3.335  1.00 20.00     0.021 C 
HETATM   10  C9  UNL     1     -35.238  15.708  -2.703  1.00 20.00     0.083 C 
HETATM   11  C7  UNL     1     -34.941  16.597  -1.501  1.00 20.00     0.031 C 
HETATM   12 CL12 UNL     1     -36.363  16.516  -3.831  1.00 20.00    -0.125 Cl
ENDBRANCH   4   7
TORSDOF 1
ENDMDL
MODEL 2
REMARK VINA RESULT:      -4.6      3.422      5.380
REMARK  1 active torsions:
REMARK  status: ('A' for Active; 'I' for Inactive)
REMARK    1  A    between atoms: C4_4  and  C8_8 
ROOT
HETATM    1  C1  UNL     1     -36.695  13.851  -4.736  1.00 20.00     0.135 A 
HETATM    2  C2  UNL     1     -37.111  15.041  -4.181  1.00 20.00     0.136 A 
HETATM    3  C3  UNL     1     -34.633  14.129  -3.786  1.00 20.00     0.143 A 
HETATM    4  C4  UNL     1     -35.049  15.319  -3.231  1.00 20.00     0.056 A 
HETATM    5  N10 UNL     1     -35.447  13.373  -4.548  1.00 20.00    -0.270 NA
HETATM    6  N11 UNL     1     -36.296  15.796  -3.418  1.00 20.00    -0.262 NA
ENDROOT
BRANCH   4   7
HETATM    7  C8  UNL     1     -34.106  16.140  -2.381  1.00 20.00     0.041 C 
HETATM    8  C5  UNL     1     -32.869  16.677  -3.132  1.00 20.00     0.012 C 
HETATM    9  C6  UNL     1     -32.916  18.198  -2.982  1.00 20.00     0.021 C 
HETATM   10  C9  UNL     1     -33.695  18.438  -1.695  1.00 20.00     0.083 C 
HETATM   11  C7  UNL     1     -34.788  17.378  -1.767  1.00 20.00     0.031 C 
HETATM   12 CL12 UNL     1     -32.657  18.189  -0.263  1.00 20.00    -0.125 Cl
ENDBRANCH   4   7
TORSDOF 1
ENDMDL
MODEL 3
REMARK VINA RESULT:      -4.4      3.600      5.704
REMARK  1 active torsions:
REMARK  status: ('A' for Active; 'I' for Inactive)
REMARK    1  A    between atoms: C4_4  and  C8_8 
ROOT
HETATM    1  C1  UNL     1     -35.559  14.719  -6.718  1.00 20.00     0.135 A 
HETATM    2  C2  UNL     1     -35.062  15.959  -6.384  1.00 20.00     0.136 A 
HETATM    3  C3  UNL     1     -35.761  14.202  -4.499  1.00 20.00     0.143 A 
HETATM    4  C4  UNL     1     -35.263  15.442  -4.165  1.00 20.00     0.056 A 
HETATM    5  N10 UNL     1     -35.918  13.818  -5.781  1.00 20.00    -0.270 NA
HETATM    6  N11 UNL     1     -34.905  16.343  -5.102  1.00 20.00    -0.262 NA
ENDROOT
BRANCH   4   7
HETATM    7  C8  UNL     1     -35.100  15.839  -2.715  1.00 20.00     0.041 C 
HETATM    8  C5  UNL     1     -33.668  16.265  -2.325  1.00 20.00     0.012 C 
HETATM    9  C6  UNL     1     -33.790  17.689  -1.781  1.00 20.00     0.021 C 
HETATM   10  C9  UNL     1     -35.219  17.787  -1.263  1.00 20.00     0.083 C 
HETATM   11  C7  UNL     1     -36.007  17.018  -2.318  1.00 20.00     0.031 C 
HETATM   12 CL12 UNL     1     -35.373  17.013   0.339  1.00 20.00    -0.125 Cl
ENDBRANCH   4   7
TORSDOF 1
ENDMDL
MODEL 4
REMARK VINA RESULT:      -4.4      0.812      1.418
REMARK  1 active torsions:
REMARK  status: ('A' for Active; 'I' for Inactive)
REMARK    1  A    between atoms: C4_4  and  C8_8 
ROOT
HETATM    1  C1  UNL     1     -31.690  18.789   1.133  1.00 20.00     0.135 A 
HETATM    2  C2  UNL     1     -31.102  18.514  -0.082  1.00 20.00     0.136 A 
HETATM    3  C3  UNL     1     -33.732  18.222   0.273  1.00 20.00     0.143 A 
HETATM    4  C4  UNL     1     -33.145  17.949  -0.942  1.00 20.00     0.056 A 
HETATM    5  N10 UNL     1     -33.016  18.647   1.333  1.00 20.00    -0.270 NA
HETATM    6  N11 UNL     1     -31.818  18.089  -1.141  1.00 20.00    -0.262 NA
ENDROOT
BRANCH   4   7
HETATM    7  C8  UNL     1     -33.980  17.474  -2.110  1.00 20.00     0.041 C 
HETATM    8  C5  UNL     1     -33.168  16.874  -3.277  1.00 20.00     0.012 C 
HETATM    9  C6  UNL     1     -33.693  15.451  -3.464  1.00 20.00     0.021 C 
HETATM   10  C9  UNL     1     -35.121  15.490  -2.935  1.00 20.00     0.083 C 
HETATM   11  C7  UNL     1     -34.995  16.387  -1.709  1.00 20.00     0.031 C 
HETATM   12 CL12 UNL     1     -36.229  16.206  -4.138  1.00 20.00    -0.125 Cl
ENDBRANCH   4   7
TORSDOF 1
ENDMDL
MODEL 5
REMARK VINA RESULT:      -4.3      2.164      3.036
REMARK  1 active torsions:
REMARK  status: ('A' for Active; 'I' for Inactive)
REMARK    1  A    between atoms: C4_4  and  C8_8 
ROOT
HETATM    1  C1  UNL     1     -34.248  17.874  -0.077  1.00 20.00     0.135 A 
HETATM    2  C2  UNL     1     -35.240  17.027  -0.518  1.00 20.00     0.136 A 
HETATM    3  C3  UNL     1     -33.029  17.425  -1.959  1.00 20.00     0.143 A 
HETATM    4  C4  UNL     1     -34.020  16.577  -2.399  1.00 20.00     0.056 A 
HETATM    5  N10 UNL     1     -33.124  18.089  -0.790  1.00 20.00    -0.270 NA
HETATM    6  N11 UNL     1     -35.145  16.364  -1.687  1.00 20.00    -0.262 NA
ENDROOT
BRANCH   4   7
HETATM    7  C8  UNL     1     -33.879  15.849  -3.717  1.00 20.00     0.041 C 
HETATM    8  C5  UNL     1     -34.513  14.441  -3.742  1.00 20.00     0.012 C 
HETATM    9  C6  UNL     1     -35.536  14.465  -4.877  1.00 20.00     0.021 C 
HETATM   10  C9  UNL     1     -35.030  15.534  -5.836  1.00 20.00     0.083 C 
HETATM   11  C7  UNL     1     -34.520  16.614  -4.890  1.00 20.00     0.031 C 
HETATM   12 CL12 UNL     1     -33.707  14.903  -6.856  1.00 20.00    -0.125 Cl
ENDBRANCH   4   7
TORSDOF 1
ENDMDL
MODEL 6
REMARK VINA RESULT:      -4.3      4.198      6.003
REMARK  1 active torsions:
REMARK  status: ('A' for Active; 'I' for Inactive)
REMARK    1  A    between atoms: C4_4  and  C8_8 
ROOT
HETATM    1  C1  UNL     1     -39.158  14.830  -4.371  1.00 20.00     0.135 A 
HETATM    2  C2  UNL     1     -39.164  16.146  -3.963  1.00 20.00     0.136 A 
HETATM    3  C3  UNL     1     -36.904  14.727  -4.001  1.00 20.00     0.143 A 
HETATM    4  C4  UNL     1     -36.910  16.042  -3.594  1.00 20.00     0.056 A 
HETATM    5  N10 UNL     1     -38.027  14.096  -4.397  1.00 20.00    -0.270 NA
HETATM    6  N11 UNL     1     -38.041  16.775  -3.566  1.00 20.00    -0.262 NA
ENDROOT
BRANCH   4   7
HETATM    7  C8  UNL     1     -35.629  16.716  -3.156  1.00 20.00     0.041 C 
HETATM    8  C5  UNL     1     -34.608  15.775  -2.481  1.00 20.00     0.012 C 
HETATM    9  C6  UNL     1     -33.333  15.874  -3.318  1.00 20.00     0.021 C 
HETATM   10  C9  UNL     1     -33.399  17.249  -3.969  1.00 20.00     0.083 C 
HETATM   11  C7  UNL     1     -34.876  17.376  -4.327  1.00 20.00     0.031 C 
HETATM   12 CL12 UNL     1     -32.909  18.525  -2.820  1.00 20.00    -0.125 Cl
ENDBRANCH   4   7
TORSDOF 1
ENDMDL
MODEL 7
REMARK VINA RESULT:      -4.3      1.623      2.190
REMARK  1 active torsions:
REMARK  status: ('A' for Active; 'I' for Inactive)
REMARK    1  A    between atoms: C4_4  and  C8_8 
ROOT
HETATM    1  C1  UNL     1     -34.058  18.151   0.801  1.00 20.00     0.135 A 
HETATM    2  C2  UNL     1     -35.177  17.408   0.498  1.00 20.00     0.136 A 
HETATM    3  C3  UNL     1     -33.271  17.833  -1.323  1.00 20.00     0.143 A 
HETATM    4  C4  UNL     1     -34.389  17.089  -1.626  1.00 20.00     0.056 A 
HETATM    5  N10 UNL     1     -33.084  18.377  -0.104  1.00 20.00    -0.270 NA
HETATM    6  N11 UNL     1     -35.363  16.864  -0.721  1.00 20.00    -0.262 NA
ENDROOT
BRANCH   4   7
HETATM    7  C8  UNL     1     -34.565  16.493  -3.004  1.00 20.00     0.041 C 
HETATM    8  C5  UNL     1     -33.250  16.294  -3.789  1.00 20.00     0.012 C 
HETATM    9  C6  UNL     1     -33.182  14.804  -4.120  1.00 20.00     0.021 C 
HETATM   10  C9  UNL     1     -34.633  14.343  -4.140  1.00 20.00     0.083 C 
HETATM   11  C7  UNL     1     -35.241  15.109  -2.970  1.00 20.00     0.031 C 
HETATM   12 CL12 UNL     1     -35.425  14.790  -5.676  1.00 20.00    -0.125 Cl
ENDBRANCH   4   7
TORSDOF 1
ENDMDL
MODEL 8
REMARK VINA RESULT:      -4.2      3.444      5.462
REMARK  1 active torsions:
REMARK  status: ('A' for Active; 'I' for Inactive)
REMARK    1  A    between atoms: C4_4  and  C8_8 
ROOT
HETATM    1  C1  UNL     1     -37.087  14.266  -4.574  1.00 20.00     0.135 A 
HETATM    2  C2  UNL     1     -35.846  13.703  -4.373  1.00 20.00     0.136 A 
HETATM    3  C3  UNL     1     -36.456  16.092  -3.351  1.00 20.00     0.143 A 
HETATM    4  C4  UNL     1     -35.216  15.529  -3.149  1.00 20.00     0.056 A 
HETATM    5  N10 UNL     1     -37.415  15.472  -4.066  1.00 20.00    -0.270 NA
HETATM    6  N11 UNL     1     -34.888  14.324  -3.658  1.00 20.00    -0.262 NA
ENDROOT
BRANCH   4   7
HETATM    7  C8  UNL     1     -34.165  16.255  -2.340  1.00 20.00     0.041 C 
HETATM    8  C5  UNL     1     -32.922  16.689  -3.147  1.00 20.00     0.012 C 
HETATM    9  C6  UNL     1     -32.827  18.206  -2.985  1.00 20.00     0.021 C 
HETATM   10  C9  UNL     1     -33.519  18.500  -1.661  1.00 20.00     0.083 C 
HETATM   11  C7  UNL     1     -34.704  17.541  -1.686  1.00 20.00     0.031 C 
HETATM   12 CL12 UNL     1     -32.441  18.146  -0.282  1.00 20.00    -0.125 Cl
ENDBRANCH   4   7
TORSDOF 1
ENDMDL
MODEL 9
REMARK VINA RESULT:      -4.2      1.521      1.963
REMARK  1 active torsions:
REMARK  status: ('A' for Active; 'I' for Inactive)
REMARK    1  A    between atoms: C4_4  and  C8_8 
ROOT
HETATM    1  C1  UNL     1     -32.271  19.260  -0.350  1.00 20.00     0.135 A 
HETATM    2  C2  UNL     1     -33.413  18.728   0.208  1.00 20.00     0.136 A 
HETATM    3  C3  UNL     1     -32.501  17.866  -2.149  1.00 20.00     0.143 A 
HETATM    4  C4  UNL     1     -33.642  17.334  -1.591  1.00 20.00     0.056 A 
HETATM    5  N10 UNL     1     -31.794  18.839  -1.539  1.00 20.00    -0.270 NA
HETATM    6  N11 UNL     1     -34.119  17.756  -0.402  1.00 20.00    -0.262 NA
ENDROOT
BRANCH   4   7
HETATM    7  C8  UNL     1     -34.409  16.243  -2.304  1.00 20.00     0.041 C 
HETATM    8  C5  UNL     1     -35.732  16.708  -2.950  1.00 20.00     0.012 C 
HETATM    9  C6  UNL     1     -35.612  16.373  -4.436  1.00 20.00     0.021 C 
HETATM   10  C9  UNL     1     -34.630  15.211  -4.496  1.00 20.00     0.083 C 
HETATM   11  C7  UNL     1     -33.597  15.595  -3.442  1.00 20.00     0.031 C 
HETATM   12 CL12 UNL     1     -35.433  13.673  -4.072  1.00 20.00    -0.125 Cl
ENDBRANCH   4   7
TORSDOF 1
ENDMDL
