MODEL 1
REMARK VINA RESULT:      -4.6      0.000      0.000
REMARK  3 active torsions:
REMARK  status: ('A' for Active; 'I' for Inactive)
REMARK    1  A    between atoms: C4_4  and  C7_7 
REMARK    2  A    between atoms: C7_7  and  C9_9 
REMARK    3  A    between atoms: C8_8  and  C9_9 
ROOT
HETATM    1  C1  UNL     1     -33.584   4.689   2.635  1.00 20.00     0.006 C 
HETATM    2  C2  UNL     1     -34.381   4.437   3.918  1.00 20.00     0.020 C 
HETATM    3  C3  UNL     1     -33.583   6.683   4.022  1.00 20.00     0.024 C 
HETATM    4  C4  UNL     1     -32.879   6.041   2.825  1.00 20.00    -0.013 C 
HETATM    5  C5  UNL     1     -33.874   5.480   4.906  1.00 20.00     0.082 C 
HETATM    6 CL10 UNL     1     -35.056   5.843   6.170  1.00 20.00    -0.125 Cl
ENDROOT
BRANCH   4   7
HETATM    7  C7  UNL     1     -32.907   6.914   1.582  1.00 20.00     0.005 C 
BRANCH   7   8
HETATM    8  C9  UNL     1     -32.408   8.326   1.882  1.00 20.00     0.000 C 
BRANCH   8   9
HETATM    9  C8  UNL     1     -32.857   9.313   0.804  1.00 20.00    -0.005 C 
HETATM   10  C6  UNL     1     -33.415   8.593  -0.413  1.00 20.00     0.005 C 
ENDBRANCH   8   9
ENDBRANCH   7   8
ENDBRANCH   4   7
TORSDOF 3
ENDMDL
MODEL 2
REMARK VINA RESULT:      -4.4     10.881     11.964
REMARK  3 active torsions:
REMARK  status: ('A' for Active; 'I' for Inactive)
REMARK    1  A    between atoms: C4_4  and  C7_7 
REMARK    2  A    between atoms: C7_7  and  C9_9 
REMARK    3  A    between atoms: C8_8  and  C9_9 
ROOT
HETATM    1  C1  UNL     1     -35.026  16.644  -1.597  1.00 20.00     0.006 C 
HETATM    2  C2  UNL     1     -34.919  15.476  -2.583  1.00 20.00     0.020 C 
HETATM    3  C3  UNL     1     -32.908  16.742  -2.781  1.00 20.00     0.024 C 
HETATM    4  C4  UNL     1     -33.846  17.577  -1.908  1.00 20.00    -0.013 C 
HETATM    5  C5  UNL     1     -33.885  15.922  -3.609  1.00 20.00     0.082 C 
HETATM    6 CL10 UNL     1     -33.104  14.556  -4.415  1.00 20.00    -0.125 Cl
ENDROOT
BRANCH   4   7
HETATM    7  C7  UNL     1     -33.168  18.124  -0.662  1.00 20.00     0.005 C 
BRANCH   7   8
HETATM    8  C9  UNL     1     -31.671  18.333  -0.889  1.00 20.00     0.000 C 
BRANCH   8   9
HETATM    9  C8  UNL     1     -30.911  18.371   0.436  1.00 20.00    -0.005 C 
HETATM   10  C6  UNL     1     -31.858  18.329   1.624  1.00 20.00     0.005 C 
ENDBRANCH   8   9
ENDBRANCH   7   8
ENDBRANCH   4   7
TORSDOF 3
ENDMDL
MODEL 3
REMARK VINA RESULT:      -4.4     10.629     11.632
REMARK  3 active torsions:
REMARK  status: ('A' for Active; 'I' for Inactive)
REMARK    1  A    between atoms: C4_4  and  C7_7 
REMARK    2  A    between atoms: C7_7  and  C9_9 
REMARK    3  A    between atoms: C8_8  and  C9_9 
ROOT
HETATM    1  C1  UNL     1     -33.065  15.647  -3.708  1.00 20.00     0.006 C 
HETATM    2  C2  UNL     1     -33.818  14.705  -4.652  1.00 20.00     0.020 C 
HETATM    3  C3  UNL     1     -35.385  15.453  -3.017  1.00 20.00     0.024 C 
HETATM    4  C4  UNL     1     -34.014  15.924  -2.532  1.00 20.00    -0.013 C 
HETATM    5  C5  UNL     1     -35.028  14.235  -3.855  1.00 20.00     0.082 C 
HETATM    6 CL10 UNL     1     -36.362  13.717  -4.895  1.00 20.00    -0.125 Cl
ENDROOT
BRANCH   4   7
HETATM    7  C7  UNL     1     -34.009  17.378  -2.085  1.00 20.00     0.005 C 
BRANCH   7   8
HETATM    8  C9  UNL     1     -32.589  17.875  -1.823  1.00 20.00     0.000 C 
BRANCH   8   9
HETATM    9  C8  UNL     1     -32.446  18.418  -0.401  1.00 20.00    -0.005 C 
HETATM   10  C6  UNL     1     -31.005  18.355   0.078  1.00 20.00     0.005 C 
ENDBRANCH   8   9
ENDBRANCH   7   8
ENDBRANCH   4   7
TORSDOF 3
ENDMDL
MODEL 4
REMARK VINA RESULT:      -4.3      9.291     10.005
REMARK  3 active torsions:
REMARK  status: ('A' for Active; 'I' for Inactive)
REMARK    1  A    between atoms: C4_4  and  C7_7 
REMARK    2  A    between atoms: C7_7  and  C9_9 
REMARK    3  A    between atoms: C8_8  and  C9_9 
ROOT
HETATM    1  C1  UNL     1     -42.256   5.552   0.529  1.00 20.00     0.006 C 
HETATM    2  C2  UNL     1     -42.474   7.000   0.977  1.00 20.00     0.020 C 
HETATM    3  C3  UNL     1     -41.069   7.069  -0.949  1.00 20.00     0.024 C 
HETATM    4  C4  UNL     1     -41.165   5.595  -0.550  1.00 20.00    -0.013 C 
HETATM    5  C5  UNL     1     -41.309   7.776   0.376  1.00 20.00     0.082 C 
HETATM    6 CL10 UNL     1     -41.678   9.493   0.166  1.00 20.00    -0.125 Cl
ENDROOT
BRANCH   4   7
HETATM    7  C7  UNL     1     -41.448   4.678  -1.729  1.00 20.00     0.005 C 
BRANCH   7   8
HETATM    8  C9  UNL     1     -42.941   4.386  -1.861  1.00 20.00     0.000 C 
BRANCH   8   9
HETATM    9  C8  UNL     1     -43.186   3.086  -2.627  1.00 20.00    -0.005 C 
HETATM   10  C6  UNL     1     -42.007   2.736  -3.521  1.00 20.00     0.005 C 
ENDBRANCH   8   9
ENDBRANCH   7   8
ENDBRANCH   4   7
TORSDOF 3
ENDMDL
MODEL 5
REMARK VINA RESULT:      -4.3      1.055      1.838
REMARK  3 active torsions:
REMARK  status: ('A' for Active; 'I' for Inactive)
REMARK    1  A    between atoms: C4_4  and  C7_7 
REMARK    2  A    between atoms: C7_7  and  C9_9 
REMARK    3  A    between atoms: C8_8  and  C9_9 
ROOT
HETATM    1  C1  UNL     1     -33.150   7.402   4.605  1.00 20.00     0.006 C 
HETATM    2  C2  UNL     1     -33.710   6.787   5.890  1.00 20.00     0.020 C 
HETATM    3  C3  UNL     1     -34.338   5.346   4.096  1.00 20.00     0.024 C 
HETATM    4  C4  UNL     1     -33.763   6.605   3.444  1.00 20.00    -0.013 C 
HETATM    5  C5  UNL     1     -34.842   5.878   5.429  1.00 20.00     0.082 C 
HETATM    6 CL10 UNL     1     -35.181   4.583   6.585  1.00 20.00    -0.125 Cl
ENDROOT
BRANCH   4   7
HETATM    7  C7  UNL     1     -32.770   6.298   2.334  1.00 20.00     0.005 C 
BRANCH   7   8
HETATM    8  C9  UNL     1     -32.020   7.555   1.895  1.00 20.00     0.000 C 
BRANCH   8   9
HETATM    9  C8  UNL     1     -32.544   8.072   0.555  1.00 20.00    -0.005 C 
HETATM   10  C6  UNL     1     -33.094   9.484   0.680  1.00 20.00     0.005 C 
ENDBRANCH   8   9
ENDBRANCH   7   8
ENDBRANCH   4   7
TORSDOF 3
ENDMDL
MODEL 6
REMARK VINA RESULT:      -4.3     10.935     11.862
REMARK  3 active torsions:
REMARK  status: ('A' for Active; 'I' for Inactive)
REMARK    1  A    between atoms: C4_4  and  C7_7 
REMARK    2  A    between atoms: C7_7  and  C9_9 
REMARK    3  A    between atoms: C8_8  and  C9_9 
ROOT
HETATM    1  C1  UNL     1     -31.132  18.359  -0.421  1.00 20.00     0.006 C 
HETATM    2  C2  UNL     1     -30.958  18.152   1.086  1.00 20.00     0.020 C 
HETATM    3  C3  UNL     1     -33.303  18.166   0.651  1.00 20.00     0.024 C 
HETATM    4  C4  UNL     1     -32.630  18.609  -0.650  1.00 20.00    -0.013 C 
HETATM    5  C5  UNL     1     -32.283  18.587   1.698  1.00 20.00     0.082 C 
HETATM    6 CL10 UNL     1     -32.582  17.832   3.269  1.00 20.00    -0.125 Cl
ENDROOT
BRANCH   4   7
HETATM    7  C7  UNL     1     -33.179  17.895  -1.875  1.00 20.00     0.005 C 
BRANCH   7   8
HETATM    8  C9  UNL     1     -34.375  17.014  -1.517  1.00 20.00     0.000 C 
BRANCH   8   9
HETATM    9  C8  UNL     1     -34.529  15.861  -2.508  1.00 20.00    -0.005 C 
HETATM   10  C6  UNL     1     -33.330  15.760  -3.437  1.00 20.00     0.005 C 
ENDBRANCH   8   9
ENDBRANCH   7   8
ENDBRANCH   4   7
TORSDOF 3
ENDMDL
MODEL 7
REMARK VINA RESULT:      -4.1     10.614     11.518
REMARK  3 active torsions:
REMARK  status: ('A' for Active; 'I' for Inactive)
REMARK    1  A    between atoms: C4_4  and  C7_7 
REMARK    2  A    between atoms: C7_7  and  C9_9 
REMARK    3  A    between atoms: C8_8  and  C9_9 
ROOT
HETATM    1  C1  UNL     1     -32.866  17.417  -2.349  1.00 20.00     0.006 C 
HETATM    2  C2  UNL     1     -33.416  17.804  -0.973  1.00 20.00     0.020 C 
HETATM    3  C3  UNL     1     -34.887  16.158  -1.875  1.00 20.00     0.024 C 
HETATM    4  C4  UNL     1     -33.944  16.549  -3.014  1.00 20.00    -0.013 C 
HETATM    5  C5  UNL     1     -34.887  17.412  -1.014  1.00 20.00     0.082 C 
HETATM    6 CL10 UNL     1     -35.553  17.123   0.598  1.00 20.00    -0.125 Cl
ENDROOT
BRANCH   4   7
HETATM    7  C7  UNL     1     -33.377  15.348  -3.753  1.00 20.00     0.005 C 
BRANCH   7   8
HETATM    8  C9  UNL     1     -34.468  14.329  -4.080  1.00 20.00     0.000 C 
BRANCH   8   9
HETATM    9  C8  UNL     1     -35.163  14.665  -5.399  1.00 20.00    -0.005 C 
HETATM   10  C6  UNL     1     -34.159  15.036  -6.479  1.00 20.00     0.005 C 
ENDBRANCH   8   9
ENDBRANCH   7   8
ENDBRANCH   4   7
TORSDOF 3
ENDMDL
MODEL 8
REMARK VINA RESULT:      -4.1      2.513      4.747
REMARK  3 active torsions:
REMARK  status: ('A' for Active; 'I' for Inactive)
REMARK    1  A    between atoms: C4_4  and  C7_7 
REMARK    2  A    between atoms: C7_7  and  C9_9 
REMARK    3  A    between atoms: C8_8  and  C9_9 
ROOT
HETATM    1  C1  UNL     1     -32.514   6.899   3.478  1.00 20.00     0.006 C 
HETATM    2  C2  UNL     1     -32.470   8.135   2.575  1.00 20.00     0.020 C 
HETATM    3  C3  UNL     1     -33.426   6.367   1.291  1.00 20.00     0.024 C 
HETATM    4  C4  UNL     1     -32.900   5.719   2.573  1.00 20.00    -0.013 C 
HETATM    5  C5  UNL     1     -32.527   7.586   1.155  1.00 20.00     0.082 C 
HETATM    6 CL10 UNL     1     -33.162   8.765   0.000  1.00 20.00    -0.125 Cl
ENDROOT
BRANCH   4   7
HETATM    7  C7  UNL     1     -33.902   4.772   3.215  1.00 20.00     0.005 C 
BRANCH   7   8
HETATM    8  C9  UNL     1     -34.941   5.533   4.035  1.00 20.00     0.000 C 
BRANCH   8   9
HETATM    9  C8  UNL     1     -34.826   5.200   5.522  1.00 20.00    -0.005 C 
HETATM   10  C6  UNL     1     -34.324   6.390   6.323  1.00 20.00     0.005 C 
ENDBRANCH   8   9
ENDBRANCH   7   8
ENDBRANCH   4   7
TORSDOF 3
ENDMDL
MODEL 9
REMARK VINA RESULT:      -4.1     10.699     11.575
REMARK  3 active torsions:
REMARK  status: ('A' for Active; 'I' for Inactive)
REMARK    1  A    between atoms: C4_4  and  C7_7 
REMARK    2  A    between atoms: C7_7  and  C9_9 
REMARK    3  A    between atoms: C8_8  and  C9_9 
ROOT
HETATM    1  C1  UNL     1     -33.157  16.011  -3.474  1.00 20.00     0.006 C 
HETATM    2  C2  UNL     1     -33.721  15.069  -4.541  1.00 20.00     0.020 C 
HETATM    3  C3  UNL     1     -35.449  15.418  -2.934  1.00 20.00     0.024 C 
HETATM    4  C4  UNL     1     -34.183  16.031  -2.331  1.00 20.00    -0.013 C 
HETATM    5  C5  UNL     1     -34.880  14.353  -3.858  1.00 20.00     0.082 C 
HETATM    6 CL10 UNL     1     -36.078  13.755  -5.014  1.00 20.00    -0.125 Cl
ENDROOT
BRANCH   4   7
HETATM    7  C7  UNL     1     -34.413  17.419  -1.754  1.00 20.00     0.005 C 
BRANCH   7   8
HETATM    8  C9  UNL     1     -35.696  17.472  -0.926  1.00 20.00     0.000 C 
BRANCH   8   9
HETATM    9  C8  UNL     1     -35.408  17.240   0.557  1.00 20.00    -0.005 C 
HETATM   10  C6  UNL     1     -34.203  18.041   1.023  1.00 20.00     0.005 C 
ENDBRANCH   8   9
ENDBRANCH   7   8
ENDBRANCH   4   7
TORSDOF 3
ENDMDL
