MODEL 1
REMARK VINA RESULT:      -4.4      0.000      0.000
REMARK  3 active torsions:
REMARK  status: ('A' for Active; 'I' for Inactive)
REMARK    1  A    between atoms: C3_3  and  C5_5 
REMARK    2  A    between atoms: C5_5  and  C6_6 
REMARK    3  A    between atoms: C6_6  and  C7_7 
ROOT
HETATM    1  C5  UNL     1     -32.501   7.272   2.645  1.00 20.00     0.006 C 
ENDROOT
BRANCH   1   2
HETATM    2  C3  UNL     1     -33.037   7.769   1.337  1.00 20.00    -0.014 A 
HETATM    3  C1  UNL     1     -32.912   9.221   0.969  1.00 20.00     0.005 A 
HETATM    4  C2  UNL     1     -32.095   8.189   0.243  1.00 20.00     0.005 A 
ENDBRANCH   1   2
BRANCH   1   5
HETATM    5  C6  UNL     1     -33.144   5.941   3.050  1.00 20.00     0.015 C 
BRANCH   5   6
HETATM    6  C7  UNL     1     -34.291   6.105   4.051  1.00 20.00     0.053 C 
HETATM    7  C4  UNL     1     -34.918   4.766   4.409  1.00 20.00     0.022 C 
HETATM    8 BR8  UNL     1     -33.628   6.921   5.707  1.00 20.00    -0.092 Br
ENDBRANCH   5   6
ENDBRANCH   1   5
TORSDOF 3
ENDMDL
MODEL 2
REMARK VINA RESULT:      -4.3      2.318      4.423
REMARK  3 active torsions:
REMARK  status: ('A' for Active; 'I' for Inactive)
REMARK    1  A    between atoms: C3_3  and  C5_5 
REMARK    2  A    between atoms: C5_5  and  C6_6 
REMARK    3  A    between atoms: C6_6  and  C7_7 
ROOT
HETATM    1  C5  UNL     1     -33.541   5.115   3.593  1.00 20.00     0.006 C 
ENDROOT
BRANCH   1   2
HETATM    2  C3  UNL     1     -34.557   5.805   4.452  1.00 20.00    -0.014 A 
HETATM    3  C1  UNL     1     -35.008   5.179   5.742  1.00 20.00     0.005 A 
HETATM    4  C2  UNL     1     -34.149   6.412   5.765  1.00 20.00     0.005 A 
ENDBRANCH   1   2
BRANCH   1   5
HETATM    5  C6  UNL     1     -33.269   5.896   2.303  1.00 20.00     0.015 C 
BRANCH   5   6
HETATM    6  C7  UNL     1     -32.887   7.358   2.552  1.00 20.00     0.053 C 
HETATM    7  C4  UNL     1     -31.559   7.473   3.285  1.00 20.00     0.022 C 
HETATM    8 BR8  UNL     1     -32.716   8.310   0.845  1.00 20.00    -0.092 Br
ENDBRANCH   5   6
ENDBRANCH   1   5
TORSDOF 3
ENDMDL
MODEL 3
REMARK VINA RESULT:      -4.2      2.443      4.483
REMARK  3 active torsions:
REMARK  status: ('A' for Active; 'I' for Inactive)
REMARK    1  A    between atoms: C3_3  and  C5_5 
REMARK    2  A    between atoms: C5_5  and  C6_6 
REMARK    3  A    between atoms: C6_6  and  C7_7 
ROOT
HETATM    1  C5  UNL     1     -33.368   6.898   5.292  1.00 20.00     0.006 C 
ENDROOT
BRANCH   1   2
HETATM    2  C3  UNL     1     -34.554   6.153   5.827  1.00 20.00    -0.014 A 
HETATM    3  C1  UNL     1     -35.297   5.183   4.952  1.00 20.00     0.005 A 
HETATM    4  C2  UNL     1     -34.461   4.677   6.094  1.00 20.00     0.005 A 
ENDBRANCH   1   2
BRANCH   1   5
HETATM    5  C6  UNL     1     -33.606   7.383   3.858  1.00 20.00     0.015 C 
BRANCH   5   6
HETATM    6  C7  UNL     1     -32.614   6.797   2.850  1.00 20.00     0.053 C 
HETATM    7  C4  UNL     1     -33.041   5.412   2.385  1.00 20.00     0.022 C 
HETATM    8 BR8  UNL     1     -32.498   7.952   1.268  1.00 20.00    -0.092 Br
ENDBRANCH   5   6
ENDBRANCH   1   5
TORSDOF 3
ENDMDL
MODEL 4
REMARK VINA RESULT:      -3.8      1.455      4.376
REMARK  3 active torsions:
REMARK  status: ('A' for Active; 'I' for Inactive)
REMARK    1  A    between atoms: C3_3  and  C5_5 
REMARK    2  A    between atoms: C5_5  and  C6_6 
REMARK    3  A    between atoms: C6_6  and  C7_7 
ROOT
HETATM    1  C5  UNL     1     -33.615   5.367   3.567  1.00 20.00     0.006 C 
ENDROOT
BRANCH   1   2
HETATM    2  C3  UNL     1     -34.676   5.762   4.550  1.00 20.00    -0.014 A 
HETATM    3  C1  UNL     1     -34.859   4.981   5.821  1.00 20.00     0.005 A 
HETATM    4  C2  UNL     1     -34.295   6.373   5.870  1.00 20.00     0.005 A 
ENDBRANCH   1   2
BRANCH   1   5
HETATM    5  C6  UNL     1     -33.708   6.188   2.276  1.00 20.00     0.015 C 
BRANCH   5   6
HETATM    6  C7  UNL     1     -32.453   7.019   1.997  1.00 20.00     0.053 C 
HETATM    7  C4  UNL     1     -32.751   8.195   1.079  1.00 20.00     0.022 C 
HETATM    8 BR8  UNL     1     -31.732   7.735   3.676  1.00 20.00    -0.092 Br
ENDBRANCH   5   6
ENDBRANCH   1   5
TORSDOF 3
ENDMDL
MODEL 5
REMARK VINA RESULT:      -3.7     16.076     16.814
REMARK  3 active torsions:
REMARK  status: ('A' for Active; 'I' for Inactive)
REMARK    1  A    between atoms: C3_3  and  C5_5 
REMARK    2  A    between atoms: C5_5  and  C6_6 
REMARK    3  A    between atoms: C6_6  and  C7_7 
ROOT
HETATM    1  C5  UNL     1     -24.526  17.517  10.847  1.00 20.00     0.006 C 
ENDROOT
BRANCH   1   2
HETATM    2  C3  UNL     1     -25.171  18.134  12.051  1.00 20.00    -0.014 A 
HETATM    3  C1  UNL     1     -26.157  19.257  11.892  1.00 20.00     0.005 A 
HETATM    4  C2  UNL     1     -26.629  17.900  12.332  1.00 20.00     0.005 A 
ENDBRANCH   1   2
BRANCH   1   5
HETATM    5  C6  UNL     1     -23.055  17.930  10.721  1.00 20.00     0.015 C 
BRANCH   5   6
HETATM    6  C7  UNL     1     -22.702  18.492   9.341  1.00 20.00     0.053 C 
HETATM    7  C4  UNL     1     -22.164  17.410   8.416  1.00 20.00     0.022 C 
HETATM    8 BR8  UNL     1     -24.298  19.263   8.500  1.00 20.00    -0.092 Br
ENDBRANCH   5   6
ENDBRANCH   1   5
TORSDOF 3
ENDMDL
MODEL 6
REMARK VINA RESULT:      -3.6     10.520     11.284
REMARK  3 active torsions:
REMARK  status: ('A' for Active; 'I' for Inactive)
REMARK    1  A    between atoms: C3_3  and  C5_5 
REMARK    2  A    between atoms: C5_5  and  C6_6 
REMARK    3  A    between atoms: C6_6  and  C7_7 
ROOT
HETATM    1  C5  UNL     1     -34.787  15.292  -3.033  1.00 20.00     0.006 C 
ENDROOT
BRANCH   1   2
HETATM    2  C3  UNL     1     -33.466  15.995  -3.115  1.00 20.00    -0.014 A 
HETATM    3  C1  UNL     1     -33.381  17.387  -3.674  1.00 20.00     0.005 A 
HETATM    4  C2  UNL     1     -33.168  17.154  -2.205  1.00 20.00     0.005 A 
ENDBRANCH   1   2
BRANCH   1   5
HETATM    5  C6  UNL     1     -34.806  14.024  -3.893  1.00 20.00     0.015 C 
BRANCH   5   6
HETATM    6  C7  UNL     1     -36.014  13.948  -4.830  1.00 20.00     0.053 C 
HETATM    7  C4  UNL     1     -37.235  14.629  -4.228  1.00 20.00     0.022 C 
HETATM    8 BR8  UNL     1     -35.605  14.840  -6.529  1.00 20.00    -0.092 Br
ENDBRANCH   5   6
ENDBRANCH   1   5
TORSDOF 3
ENDMDL
MODEL 7
REMARK VINA RESULT:      -3.6     10.485     11.189
REMARK  3 active torsions:
REMARK  status: ('A' for Active; 'I' for Inactive)
REMARK    1  A    between atoms: C3_3  and  C5_5 
REMARK    2  A    between atoms: C5_5  and  C6_6 
REMARK    3  A    between atoms: C6_6  and  C7_7 
ROOT
HETATM    1  C5  UNL     1     -33.992  15.087  -4.188  1.00 20.00     0.006 C 
ENDROOT
BRANCH   1   2
HETATM    2  C3  UNL     1     -34.333  16.318  -3.404  1.00 20.00    -0.014 A 
HETATM    3  C1  UNL     1     -34.792  16.205  -1.977  1.00 20.00     0.005 A 
HETATM    4  C2  UNL     1     -33.437  16.777  -2.288  1.00 20.00     0.005 A 
ENDBRANCH   1   2
BRANCH   1   5
HETATM    5  C6  UNL     1     -34.961  13.938  -3.886  1.00 20.00     0.015 C 
BRANCH   5   6
HETATM    6  C7  UNL     1     -36.117  13.846  -4.885  1.00 20.00     0.053 C 
HETATM    7  C4  UNL     1     -37.385  14.482  -4.335  1.00 20.00     0.022 C 
HETATM    8 BR8  UNL     1     -35.648  14.778  -6.546  1.00 20.00    -0.092 Br
ENDBRANCH   5   6
ENDBRANCH   1   5
TORSDOF 3
ENDMDL
MODEL 8
REMARK VINA RESULT:      -3.6     10.657     11.452
REMARK  3 active torsions:
REMARK  status: ('A' for Active; 'I' for Inactive)
REMARK    1  A    between atoms: C3_3  and  C5_5 
REMARK    2  A    between atoms: C5_5  and  C6_6 
REMARK    3  A    between atoms: C6_6  and  C7_7 
ROOT
HETATM    1  C5  UNL     1     -33.047  15.914  -3.361  1.00 20.00     0.006 C 
ENDROOT
BRANCH   1   2
HETATM    2  C3  UNL     1     -34.200  16.723  -2.849  1.00 20.00    -0.014 A 
HETATM    3  C1  UNL     1     -35.037  16.214  -1.710  1.00 20.00     0.005 A 
HETATM    4  C2  UNL     1     -34.120  17.387  -1.503  1.00 20.00     0.005 A 
ENDBRANCH   1   2
BRANCH   1   5
HETATM    5  C6  UNL     1     -33.518  14.761  -4.255  1.00 20.00     0.015 C 
BRANCH   5   6
HETATM    6  C7  UNL     1     -34.737  15.119  -5.109  1.00 20.00     0.053 C 
HETATM    7  C4  UNL     1     -34.431  15.009  -6.596  1.00 20.00     0.022 C 
HETATM    8 BR8  UNL     1     -36.221  13.901  -4.708  1.00 20.00    -0.092 Br
ENDBRANCH   5   6
ENDBRANCH   1   5
TORSDOF 3
ENDMDL
MODEL 9
REMARK VINA RESULT:      -3.6     10.326     11.298
REMARK  3 active torsions:
REMARK  status: ('A' for Active; 'I' for Inactive)
REMARK    1  A    between atoms: C3_3  and  C5_5 
REMARK    2  A    between atoms: C5_5  and  C6_6 
REMARK    3  A    between atoms: C6_6  and  C7_7 
ROOT
HETATM    1  C5  UNL     1     -33.987  16.217  -2.396  1.00 20.00     0.006 C 
ENDROOT
BRANCH   1   2
HETATM    2  C3  UNL     1     -34.209  15.619  -3.753  1.00 20.00    -0.014 A 
HETATM    3  C1  UNL     1     -33.232  14.622  -4.310  1.00 20.00     0.005 A 
HETATM    4  C2  UNL     1     -34.603  14.175  -3.887  1.00 20.00     0.005 A 
ENDBRANCH   1   2
BRANCH   1   5
HETATM    5  C6  UNL     1     -32.884  17.281  -2.421  1.00 20.00     0.015 C 
BRANCH   5   6
HETATM    6  C7  UNL     1     -33.017  18.315  -1.301  1.00 20.00     0.053 C 
HETATM    7  C4  UNL     1     -34.127  17.947  -0.327  1.00 20.00     0.022 C 
HETATM    8 BR8  UNL     1     -31.342  18.430  -0.287  1.00 20.00    -0.092 Br
ENDBRANCH   5   6
ENDBRANCH   1   5
TORSDOF 3
ENDMDL
