MODEL 1
REMARK VINA RESULT:      -4.2      0.000      0.000
REMARK  5 active torsions:
REMARK  status: ('A' for Active; 'I' for Inactive)
REMARK    1  A    between atoms: C2_2  and  C8_8 
REMARK    2  A    between atoms: C3_3  and  C9_9 
REMARK    3  A    between atoms: C3_3  and  C11_11 
REMARK    4  A    between atoms: C8_8  and  C10_10 
REMARK    5  A    between atoms: C9_9  and  C10_10 
ROOT
HETATM    1  C1  UNL     1     -33.180  16.737  -2.622  1.00 20.00    -0.111 C 
HETATM    2  C2  UNL     1     -33.352  15.806  -3.361  1.00 20.00    -0.107 C 
HETATM    3  C4  UNL     1     -32.978  17.872  -1.723  1.00 20.00     0.112 C 
ENDROOT
BRANCH   2   4
HETATM    4  C8  UNL     1     -33.568  14.671  -4.269  1.00 20.00     0.094 C 
BRANCH   4   5
HETATM    5  C10 UNL     1     -34.869  13.921  -3.966  1.00 20.00     0.020 C 
BRANCH   5   6
HETATM    6  C9  UNL     1     -35.900  13.972  -5.096  1.00 20.00     0.080 C 
BRANCH   6   7
HETATM    7  C3  UNL     1     -37.220  14.616  -4.683  1.00 20.00     0.134 C 
HETATM    8  O12 UNL     1     -38.151  13.926  -4.262  1.00 20.00    -0.297 OA
BRANCH   7   9
HETATM    9  C11 UNL     1     -37.344  16.150  -4.792  1.00 20.00     0.009 C 
HETATM   10  C5  UNL     1     -36.367  16.695  -5.842  1.00 20.00     0.022 C 
HETATM   11  C6  UNL     1     -37.006  16.790  -3.434  1.00 20.00     0.022 C 
HETATM   12  C7  UNL     1     -38.787  16.511  -5.163  1.00 20.00     0.022 C 
ENDBRANCH   7   9
ENDBRANCH   6   7
ENDBRANCH   5   6
ENDBRANCH   4   5
ENDBRANCH   2   4
TORSDOF 5
ENDMDL
MODEL 2
REMARK VINA RESULT:      -4.2      0.106      1.259
REMARK  5 active torsions:
REMARK  status: ('A' for Active; 'I' for Inactive)
REMARK    1  A    between atoms: C2_2  and  C8_8 
REMARK    2  A    between atoms: C3_3  and  C9_9 
REMARK    3  A    between atoms: C3_3  and  C11_11 
REMARK    4  A    between atoms: C8_8  and  C10_10 
REMARK    5  A    between atoms: C9_9  and  C10_10 
ROOT
HETATM    1  C1  UNL     1     -33.320  16.655  -2.631  1.00 20.00    -0.111 C 
HETATM    2  C2  UNL     1     -33.459  15.720  -3.370  1.00 20.00    -0.107 C 
HETATM    3  C4  UNL     1     -33.146  17.790  -1.726  1.00 20.00     0.112 C 
ENDROOT
BRANCH   2   4
HETATM    4  C8  UNL     1     -33.628  14.570  -4.270  1.00 20.00     0.094 C 
BRANCH   4   5
HETATM    5  C10 UNL     1     -34.941  13.821  -4.019  1.00 20.00     0.020 C 
BRANCH   5   6
HETATM    6  C9  UNL     1     -35.972  13.969  -5.142  1.00 20.00     0.080 C 
BRANCH   6   7
HETATM    7  C3  UNL     1     -37.268  14.634  -4.689  1.00 20.00     0.134 C 
HETATM    8  O12 UNL     1     -38.206  13.958  -4.262  1.00 20.00    -0.297 OA
BRANCH   7   9
HETATM    9  C11 UNL     1     -37.360  16.173  -4.767  1.00 20.00     0.009 C 
HETATM   10  C5  UNL     1     -37.037  16.801  -3.405  1.00 20.00     0.022 C 
HETATM   11  C6  UNL     1     -38.789  16.582  -5.167  1.00 20.00     0.022 C 
HETATM   12  C7  UNL     1     -36.383  16.678  -5.836  1.00 20.00     0.022 C 
ENDBRANCH   7   9
ENDBRANCH   6   7
ENDBRANCH   5   6
ENDBRANCH   4   5
ENDBRANCH   2   4
TORSDOF 5
ENDMDL
MODEL 3
REMARK VINA RESULT:      -4.2      1.178      1.178
REMARK  5 active torsions:
REMARK  status: ('A' for Active; 'I' for Inactive)
REMARK    1  A    between atoms: C2_2  and  C8_8 
REMARK    2  A    between atoms: C3_3  and  C9_9 
REMARK    3  A    between atoms: C3_3  and  C11_11 
REMARK    4  A    between atoms: C8_8  and  C10_10 
REMARK    5  A    between atoms: C9_9  and  C10_10 
ROOT
HETATM    1  C1  UNL     1     -34.885  16.562  -1.557  1.00 20.00    -0.111 C 
HETATM    2  C2  UNL     1     -34.472  15.909  -2.476  1.00 20.00    -0.107 C 
HETATM    3  C4  UNL     1     -35.396  17.355  -0.440  1.00 20.00     0.112 C 
ENDROOT
BRANCH   2   4
HETATM    4  C8  UNL     1     -33.971  15.111  -3.604  1.00 20.00     0.094 C 
BRANCH   4   5
HETATM    5  C10 UNL     1     -34.946  14.002  -4.012  1.00 20.00     0.020 C 
BRANCH   5   6
HETATM    6  C9  UNL     1     -35.851  14.366  -5.193  1.00 20.00     0.080 C 
BRANCH   6   7
HETATM    7  C3  UNL     1     -37.261  14.770  -4.773  1.00 20.00     0.134 C 
HETATM    8  O12 UNL     1     -38.055  13.930  -4.345  1.00 20.00    -0.297 OA
BRANCH   7   9
HETATM    9  C11 UNL     1     -37.652  16.259  -4.885  1.00 20.00     0.009 C 
HETATM   10  C5  UNL     1     -36.495  17.076  -5.476  1.00 20.00     0.022 C 
HETATM   11  C6  UNL     1     -37.974  16.812  -3.485  1.00 20.00     0.022 C 
HETATM   12  C7  UNL     1     -38.901  16.383  -5.765  1.00 20.00     0.022 C 
ENDBRANCH   7   9
ENDBRANCH   6   7
ENDBRANCH   5   6
ENDBRANCH   4   5
ENDBRANCH   2   4
TORSDOF 5
ENDMDL
MODEL 4
REMARK VINA RESULT:      -4.2      0.097      1.234
REMARK  5 active torsions:
REMARK  status: ('A' for Active; 'I' for Inactive)
REMARK    1  A    between atoms: C2_2  and  C8_8 
REMARK    2  A    between atoms: C3_3  and  C9_9 
REMARK    3  A    between atoms: C3_3  and  C11_11 
REMARK    4  A    between atoms: C8_8  and  C10_10 
REMARK    5  A    between atoms: C9_9  and  C10_10 
ROOT
HETATM    1  C1  UNL     1     -33.281  16.731  -2.681  1.00 20.00    -0.111 C 
HETATM    2  C2  UNL     1     -33.403  15.763  -3.381  1.00 20.00    -0.107 C 
HETATM    3  C4  UNL     1     -33.127  17.912  -1.834  1.00 20.00     0.112 C 
ENDROOT
BRANCH   2   4
HETATM    4  C8  UNL     1     -33.546  14.579  -4.240  1.00 20.00     0.094 C 
BRANCH   4   5
HETATM    5  C10 UNL     1     -34.873  13.849  -4.010  1.00 20.00     0.020 C 
BRANCH   5   6
HETATM    6  C9  UNL     1     -35.889  14.024  -5.143  1.00 20.00     0.080 C 
BRANCH   6   7
HETATM    7  C3  UNL     1     -37.201  14.653  -4.687  1.00 20.00     0.134 C 
HETATM    8  O12 UNL     1     -38.120  13.951  -4.259  1.00 20.00    -0.297 OA
BRANCH   7   9
HETATM    9  C11 UNL     1     -37.335  16.189  -4.763  1.00 20.00     0.009 C 
HETATM   10  C5  UNL     1     -38.738  16.584  -5.241  1.00 20.00     0.022 C 
HETATM   11  C6  UNL     1     -36.305  16.744  -5.764  1.00 20.00     0.022 C 
HETATM   12  C7  UNL     1     -37.051  16.785  -3.380  1.00 20.00     0.022 C 
ENDBRANCH   7   9
ENDBRANCH   6   7
ENDBRANCH   5   6
ENDBRANCH   4   5
ENDBRANCH   2   4
TORSDOF 5
ENDMDL
MODEL 5
REMARK VINA RESULT:      -4.1      2.274      3.384
REMARK  5 active torsions:
REMARK  status: ('A' for Active; 'I' for Inactive)
REMARK    1  A    between atoms: C2_2  and  C8_8 
REMARK    2  A    between atoms: C3_3  and  C9_9 
REMARK    3  A    between atoms: C3_3  and  C11_11 
REMARK    4  A    between atoms: C8_8  and  C10_10 
REMARK    5  A    between atoms: C9_9  and  C10_10 
ROOT
HETATM    1  C1  UNL     1     -32.320  18.185  -0.673  1.00 20.00    -0.111 C 
HETATM    2  C2  UNL     1     -33.344  17.771  -1.146  1.00 20.00    -0.107 C 
HETATM    3  C4  UNL     1     -31.079  18.694  -0.093  1.00 20.00     0.112 C 
ENDROOT
BRANCH   2   4
HETATM    4  C8  UNL     1     -34.599  17.269  -1.723  1.00 20.00     0.094 C 
BRANCH   4   5
HETATM    5  C10 UNL     1     -34.423  15.912  -2.411  1.00 20.00     0.020 C 
BRANCH   5   6
HETATM    6  C9  UNL     1     -33.355  15.899  -3.508  1.00 20.00     0.080 C 
BRANCH   6   7
HETATM    7  C3  UNL     1     -33.648  14.904  -4.627  1.00 20.00     0.134 C 
HETATM    8  O12 UNL     1     -33.252  13.739  -4.552  1.00 20.00    -0.297 OA
BRANCH   7   9
HETATM    9  C11 UNL     1     -34.464  15.397  -5.840  1.00 20.00     0.009 C 
HETATM   10  C5  UNL     1     -33.762  15.018  -7.151  1.00 20.00     0.022 C 
HETATM   11  C6  UNL     1     -34.594  16.930  -5.782  1.00 20.00     0.022 C 
HETATM   12  C7  UNL     1     -35.866  14.780  -5.784  1.00 20.00     0.022 C 
ENDBRANCH   7   9
ENDBRANCH   6   7
ENDBRANCH   5   6
ENDBRANCH   4   5
ENDBRANCH   2   4
TORSDOF 5
ENDMDL
MODEL 6
REMARK VINA RESULT:      -4.0      1.535      1.906
REMARK  5 active torsions:
REMARK  status: ('A' for Active; 'I' for Inactive)
REMARK    1  A    between atoms: C2_2  and  C8_8 
REMARK    2  A    between atoms: C3_3  and  C9_9 
REMARK    3  A    between atoms: C3_3  and  C11_11 
REMARK    4  A    between atoms: C8_8  and  C10_10 
REMARK    5  A    between atoms: C9_9  and  C10_10 
ROOT
HETATM    1  C1  UNL     1     -34.692  16.641  -1.558  1.00 20.00    -0.111 C 
HETATM    2  C2  UNL     1     -34.021  16.202  -2.452  1.00 20.00    -0.107 C 
HETATM    3  C4  UNL     1     -35.513  17.180  -0.476  1.00 20.00     0.112 C 
ENDROOT
BRANCH   2   4
HETATM    4  C8  UNL     1     -33.198  15.671  -3.548  1.00 20.00     0.094 C 
BRANCH   4   5
HETATM    5  C10 UNL     1     -33.795  14.400  -4.162  1.00 20.00     0.020 C 
BRANCH   5   6
HETATM    6  C9  UNL     1     -35.325  14.351  -4.138  1.00 20.00     0.080 C 
BRANCH   6   7
HETATM    7  C3  UNL     1     -35.964  14.794  -5.451  1.00 20.00     0.134 C 
HETATM    8  O12 UNL     1     -35.958  14.052  -6.435  1.00 20.00    -0.297 OA
BRANCH   7   9
HETATM    9  C11 UNL     1     -36.631  16.185  -5.499  1.00 20.00     0.009 C 
HETATM   10  C5  UNL     1     -37.628  16.263  -6.662  1.00 20.00     0.022 C 
HETATM   11  C6  UNL     1     -35.552  17.263  -5.709  1.00 20.00     0.022 C 
HETATM   12  C7  UNL     1     -37.340  16.447  -4.166  1.00 20.00     0.022 C 
ENDBRANCH   7   9
ENDBRANCH   6   7
ENDBRANCH   5   6
ENDBRANCH   4   5
ENDBRANCH   2   4
TORSDOF 5
ENDMDL
MODEL 7
REMARK VINA RESULT:      -4.0      1.391      1.535
REMARK  5 active torsions:
REMARK  status: ('A' for Active; 'I' for Inactive)
REMARK    1  A    between atoms: C2_2  and  C8_8 
REMARK    2  A    between atoms: C3_3  and  C9_9 
REMARK    3  A    between atoms: C3_3  and  C11_11 
REMARK    4  A    between atoms: C8_8  and  C10_10 
REMARK    5  A    between atoms: C9_9  and  C10_10 
ROOT
HETATM    1  C1  UNL     1     -33.069  16.779  -2.675  1.00 20.00    -0.111 C 
HETATM    2  C2  UNL     1     -33.229  15.827  -3.388  1.00 20.00    -0.107 C 
HETATM    3  C4  UNL     1     -32.866  17.939  -1.809  1.00 20.00     0.112 C 
ENDROOT
BRANCH   2   4
HETATM    4  C8  UNL     1     -33.419  14.660  -4.261  1.00 20.00     0.094 C 
BRANCH   4   5
HETATM    5  C10 UNL     1     -34.657  13.841  -3.879  1.00 20.00     0.020 C 
BRANCH   5   6
HETATM    6  C9  UNL     1     -35.984  14.484  -4.290  1.00 20.00     0.080 C 
BRANCH   6   7
HETATM    7  C3  UNL     1     -36.039  14.871  -5.765  1.00 20.00     0.134 C 
HETATM    8  O12 UNL     1     -35.989  14.008  -6.644  1.00 20.00    -0.297 OA
BRANCH   7   9
HETATM    9  C11 UNL     1     -36.174  16.367  -6.118  1.00 20.00     0.009 C 
HETATM   10  C5  UNL     1     -34.899  16.876  -6.803  1.00 20.00     0.022 C 
HETATM   11  C6  UNL     1     -36.392  17.180  -4.829  1.00 20.00     0.022 C 
HETATM   12  C7  UNL     1     -37.388  16.558  -7.034  1.00 20.00     0.022 C 
ENDBRANCH   7   9
ENDBRANCH   6   7
ENDBRANCH   5   6
ENDBRANCH   4   5
ENDBRANCH   2   4
TORSDOF 5
ENDMDL
MODEL 8
REMARK VINA RESULT:      -4.0      1.684      2.305
REMARK  5 active torsions:
REMARK  status: ('A' for Active; 'I' for Inactive)
REMARK    1  A    between atoms: C2_2  and  C8_8 
REMARK    2  A    between atoms: C3_3  and  C9_9 
REMARK    3  A    between atoms: C3_3  and  C11_11 
REMARK    4  A    between atoms: C8_8  and  C10_10 
REMARK    5  A    between atoms: C9_9  and  C10_10 
ROOT
HETATM    1  C1  UNL     1     -34.924  16.620  -1.481  1.00 20.00    -0.111 C 
HETATM    2  C2  UNL     1     -34.376  16.056  -2.389  1.00 20.00    -0.107 C 
HETATM    3  C4  UNL     1     -35.586  17.313  -0.378  1.00 20.00     0.112 C 
ENDROOT
BRANCH   2   4
HETATM    4  C8  UNL     1     -33.701  15.370  -3.499  1.00 20.00     0.094 C 
BRANCH   4   5
HETATM    5  C10 UNL     1     -34.438  14.099  -3.934  1.00 20.00     0.020 C 
BRANCH   5   6
HETATM    6  C9  UNL     1     -35.901  14.325  -4.323  1.00 20.00     0.080 C 
BRANCH   6   7
HETATM    7  C3  UNL     1     -36.076  14.820  -5.756  1.00 20.00     0.134 C 
HETATM    8  O12 UNL     1     -35.955  14.047  -6.708  1.00 20.00    -0.297 OA
BRANCH   7   9
HETATM    9  C11 UNL     1     -36.425  16.308  -5.971  1.00 20.00     0.009 C 
HETATM   10  C5  UNL     1     -37.085  16.893  -4.715  1.00 20.00     0.022 C 
HETATM   11  C6  UNL     1     -37.411  16.440  -7.146  1.00 20.00     0.022 C 
HETATM   12  C7  UNL     1     -35.144  17.078  -6.311  1.00 20.00     0.022 C 
ENDBRANCH   7   9
ENDBRANCH   6   7
ENDBRANCH   5   6
ENDBRANCH   4   5
ENDBRANCH   2   4
TORSDOF 5
ENDMDL
MODEL 9
REMARK VINA RESULT:      -3.9      2.300      3.914
REMARK  5 active torsions:
REMARK  status: ('A' for Active; 'I' for Inactive)
REMARK    1  A    between atoms: C2_2  and  C8_8 
REMARK    2  A    between atoms: C3_3  and  C9_9 
REMARK    3  A    between atoms: C3_3  and  C11_11 
REMARK    4  A    between atoms: C8_8  and  C10_10 
REMARK    5  A    between atoms: C9_9  and  C10_10 
ROOT
HETATM    1  C1  UNL     1     -31.148  18.481   0.145  1.00 20.00    -0.111 C 
HETATM    2  C2  UNL     1     -31.815  18.155  -0.799  1.00 20.00    -0.107 C 
HETATM    3  C4  UNL     1     -30.334  18.885   1.290  1.00 20.00     0.112 C 
ENDROOT
BRANCH   2   4
HETATM    4  C8  UNL     1     -32.626  17.759  -1.958  1.00 20.00     0.094 C 
BRANCH   4   5
HETATM    5  C10 UNL     1     -34.056  17.372  -1.565  1.00 20.00     0.020 C 
BRANCH   5   6
HETATM    6  C9  UNL     1     -34.538  16.052  -2.173  1.00 20.00     0.080 C 
BRANCH   6   7
HETATM    7  C3  UNL     1     -34.872  16.156  -3.658  1.00 20.00     0.134 C 
HETATM    8  O12 UNL     1     -35.385  17.179  -4.117  1.00 20.00    -0.297 OA
BRANCH   7   9
HETATM    9  C11 UNL     1     -34.534  14.953  -4.563  1.00 20.00     0.009 C 
HETATM   10  C5  UNL     1     -35.382  13.734  -4.177  1.00 20.00     0.022 C 
HETATM   11  C6  UNL     1     -33.048  14.586  -4.395  1.00 20.00     0.022 C 
HETATM   12  C7  UNL     1     -34.786  15.340  -6.025  1.00 20.00     0.022 C 
ENDBRANCH   7   9
ENDBRANCH   6   7
ENDBRANCH   5   6
ENDBRANCH   4   5
ENDBRANCH   2   4
TORSDOF 5
ENDMDL
