MODEL 1
REMARK VINA RESULT:      -5.4      0.000      0.000
REMARK  1 active torsions:
REMARK  status: ('A' for Active; 'I' for Inactive)
REMARK    1  A    between atoms: C4_4  and  C7_7 
ROOT
HETATM    1  C1  UNL     1     -33.455   4.978   2.522  1.00 20.00     0.006 C 
HETATM    2  C2  UNL     1     -34.073   4.331   3.765  1.00 20.00     0.020 C 
HETATM    3  C3  UNL     1     -33.825   6.656   4.238  1.00 20.00     0.024 C 
HETATM    4  C4  UNL     1     -33.525   6.496   2.747  1.00 20.00    -0.013 C 
HETATM    5  C5  UNL     1     -34.747   5.477   4.508  1.00 20.00     0.082 C 
HETATM    6 CL8  UNL     1     -34.929   5.146   6.237  1.00 20.00    -0.125 Cl
ENDROOT
BRANCH   4   7
HETATM    7  C7  UNL     1     -32.264   7.226   2.313  1.00 20.00     0.000 C 
HETATM    8  C6  UNL     1     -32.520   8.141   1.159  1.00 20.00     0.005 C 
ENDBRANCH   4   7
TORSDOF 1
ENDMDL
MODEL 2
REMARK VINA RESULT:      -4.2      2.378      3.822
REMARK  1 active torsions:
REMARK  status: ('A' for Active; 'I' for Inactive)
REMARK    1  A    between atoms: C4_4  and  C7_7 
ROOT
HETATM    1  C1  UNL     1     -33.661   4.573   2.815  1.00 20.00     0.006 C 
HETATM    2  C2  UNL     1     -33.072   5.477   1.728  1.00 20.00     0.020 C 
HETATM    3  C3  UNL     1     -33.649   6.883   3.567  1.00 20.00     0.024 C 
HETATM    4  C4  UNL     1     -33.802   5.446   4.071  1.00 20.00    -0.013 C 
HETATM    5  C5  UNL     1     -32.611   6.727   2.466  1.00 20.00     0.082 C 
HETATM    6 CL8  UNL     1     -32.533   8.145   1.410  1.00 20.00    -0.125 Cl
ENDROOT
BRANCH   4   7
HETATM    7  C7  UNL     1     -35.104   5.215   4.820  1.00 20.00     0.000 C 
HETATM    8  C6  UNL     1     -34.931   5.364   6.297  1.00 20.00     0.005 C 
ENDBRANCH   4   7
TORSDOF 1
ENDMDL
MODEL 3
REMARK VINA RESULT:      -4.0      2.163      3.737
REMARK  1 active torsions:
REMARK  status: ('A' for Active; 'I' for Inactive)
REMARK    1  A    between atoms: C4_4  and  C7_7 
ROOT
HETATM    1  C1  UNL     1     -32.924   7.178   3.749  1.00 20.00     0.006 C 
HETATM    2  C2  UNL     1     -32.412   6.311   2.595  1.00 20.00     0.020 C 
HETATM    3  C3  UNL     1     -34.138   5.075   3.684  1.00 20.00     0.024 C 
HETATM    4  C4  UNL     1     -34.184   6.481   4.285  1.00 20.00    -0.013 C 
HETATM    5  C5  UNL     1     -33.545   5.334   2.307  1.00 20.00     0.082 C 
HETATM    6 CL8  UNL     1     -32.975   3.850   1.530  1.00 20.00    -0.125 Cl
ENDROOT
BRANCH   4   7
HETATM    7  C7  UNL     1     -34.268   6.476   5.802  1.00 20.00     0.000 C 
HETATM    8  C6  UNL     1     -34.771   5.170   6.327  1.00 20.00     0.005 C 
ENDBRANCH   4   7
TORSDOF 1
ENDMDL
MODEL 4
REMARK VINA RESULT:      -4.0     11.506     12.237
REMARK  1 active torsions:
REMARK  status: ('A' for Active; 'I' for Inactive)
REMARK    1  A    between atoms: C4_4  and  C7_7 
ROOT
HETATM    1  C1  UNL     1     -35.316  15.999  -2.276  1.00 20.00     0.006 C 
HETATM    2  C2  UNL     1     -34.520  16.977  -1.407  1.00 20.00     0.020 C 
HETATM    3  C3  UNL     1     -33.061  16.240  -3.144  1.00 20.00     0.024 C 
HETATM    4  C4  UNL     1     -34.452  15.723  -3.515  1.00 20.00    -0.013 C 
HETATM    5  C5  UNL     1     -33.388  17.464  -2.302  1.00 20.00     0.082 C 
HETATM    6 CL8  UNL     1     -31.993  18.036  -1.375  1.00 20.00    -0.125 Cl
ENDROOT
BRANCH   4   7
HETATM    7  C7  UNL     1     -34.450  14.261  -3.932  1.00 20.00     0.000 C 
HETATM    8  C6  UNL     1     -35.811  13.798  -4.343  1.00 20.00     0.005 C 
ENDBRANCH   4   7
TORSDOF 1
ENDMDL
MODEL 5
REMARK VINA RESULT:      -3.9     15.982     16.638
REMARK  1 active torsions:
REMARK  status: ('A' for Active; 'I' for Inactive)
REMARK    1  A    between atoms: C4_4  and  C7_7 
ROOT
HETATM    1  C1  UNL     1     -25.438  16.639  12.273  1.00 20.00     0.006 C 
HETATM    2  C2  UNL     1     -24.405  15.974  11.357  1.00 20.00     0.020 C 
HETATM    3  C3  UNL     1     -24.614  18.241  10.644  1.00 20.00     0.024 C 
HETATM    4  C4  UNL     1     -25.384  18.142  11.962  1.00 20.00    -0.013 C 
HETATM    5  C5  UNL     1     -23.589  17.127  10.787  1.00 20.00     0.082 C 
HETATM    6 CL8  UNL     1     -22.823  16.714   9.245  1.00 20.00    -0.125 Cl
ENDROOT
BRANCH   4   7
HETATM    7  C7  UNL     1     -26.756  18.791  11.898  1.00 20.00     0.000 C 
HETATM    8  C6  UNL     1     -27.838  17.847  12.314  1.00 20.00     0.005 C 
ENDBRANCH   4   7
TORSDOF 1
ENDMDL
MODEL 6
REMARK VINA RESULT:      -3.9     16.000     17.021
REMARK  1 active torsions:
REMARK  status: ('A' for Active; 'I' for Inactive)
REMARK    1  A    between atoms: C4_4  and  C7_7 
ROOT
HETATM    1  C1  UNL     1     -22.140  17.398   9.567  1.00 20.00     0.006 C 
HETATM    2  C2  UNL     1     -22.711  17.811   8.207  1.00 20.00     0.020 C 
HETATM    3  C3  UNL     1     -24.378  18.301   9.843  1.00 20.00     0.024 C 
HETATM    4  C4  UNL     1     -23.114  17.937  10.625  1.00 20.00    -0.013 C 
HETATM    5  C5  UNL     1     -23.805  18.821   8.533  1.00 20.00     0.082 C 
HETATM    6 CL8  UNL     1     -25.028  18.926   7.258  1.00 20.00    -0.125 Cl
ENDROOT
BRANCH   4   7
HETATM    7  C7  UNL     1     -23.378  16.954  11.754  1.00 20.00     0.000 C 
HETATM    8  C6  UNL     1     -24.498  16.019  11.428  1.00 20.00     0.005 C 
ENDBRANCH   4   7
TORSDOF 1
ENDMDL
MODEL 7
REMARK VINA RESULT:      -3.9     11.427     12.071
REMARK  1 active torsions:
REMARK  status: ('A' for Active; 'I' for Inactive)
REMARK    1  A    between atoms: C4_4  and  C7_7 
ROOT
HETATM    1  C1  UNL     1     -33.612  14.703  -4.287  1.00 20.00     0.006 C 
HETATM    2  C2  UNL     1     -33.123  15.964  -3.567  1.00 20.00     0.020 C 
HETATM    3  C3  UNL     1     -35.384  15.607  -2.892  1.00 20.00     0.024 C 
HETATM    4  C4  UNL     1     -34.972  14.352  -3.663  1.00 20.00    -0.013 C 
HETATM    5  C5  UNL     1     -34.049  16.113  -2.366  1.00 20.00     0.082 C 
HETATM    6 CL8  UNL     1     -34.142  17.784  -1.789  1.00 20.00    -0.125 Cl
ENDROOT
BRANCH   4   7
HETATM    7  C7  UNL     1     -36.007  13.918  -4.687  1.00 20.00     0.000 C 
HETATM    8  C6  UNL     1     -35.756  14.532  -6.027  1.00 20.00     0.005 C 
ENDBRANCH   4   7
TORSDOF 1
ENDMDL
MODEL 8
REMARK VINA RESULT:      -3.8     11.602     12.077
REMARK  1 active torsions:
REMARK  status: ('A' for Active; 'I' for Inactive)
REMARK    1  A    between atoms: C4_4  and  C7_7 
ROOT
HETATM    1  C1  UNL     1     -32.986  16.674  -2.941  1.00 20.00     0.006 C 
HETATM    2  C2  UNL     1     -33.243  15.400  -3.751  1.00 20.00     0.020 C 
HETATM    3  C3  UNL     1     -35.196  15.800  -2.441  1.00 20.00     0.024 C 
HETATM    4  C4  UNL     1     -34.327  17.050  -2.294  1.00 20.00    -0.013 C 
HETATM    5  C5  UNL     1     -34.759  15.263  -3.796  1.00 20.00     0.082 C 
HETATM    6 CL8  UNL     1     -35.280  13.592  -4.058  1.00 20.00    -0.125 Cl
ENDROOT
BRANCH   4   7
HETATM    7  C7  UNL     1     -34.190  17.511  -0.853  1.00 20.00     0.000 C 
HETATM    8  C6  UNL     1     -35.393  17.159  -0.038  1.00 20.00     0.005 C 
ENDBRANCH   4   7
TORSDOF 1
ENDMDL
MODEL 9
REMARK VINA RESULT:      -3.8     11.599     12.061
REMARK  1 active torsions:
REMARK  status: ('A' for Active; 'I' for Inactive)
REMARK    1  A    between atoms: C4_4  and  C7_7 
ROOT
HETATM    1  C1  UNL     1     -33.057  15.944  -3.462  1.00 20.00     0.006 C 
HETATM    2  C2  UNL     1     -33.607  14.715  -4.191  1.00 20.00     0.020 C 
HETATM    3  C3  UNL     1     -35.407  15.639  -2.926  1.00 20.00     0.024 C 
HETATM    4  C4  UNL     1     -34.271  16.661  -2.851  1.00 20.00    -0.013 C 
HETATM    5  C5  UNL     1     -35.115  14.930  -4.240  1.00 20.00     0.082 C 
HETATM    6 CL8  UNL     1     -36.009  13.412  -4.400  1.00 20.00    -0.125 Cl
ENDROOT
BRANCH   4   7
HETATM    7  C7  UNL     1     -34.021  17.169  -1.441  1.00 20.00     0.000 C 
HETATM    8  C6  UNL     1     -32.730  17.916  -1.340  1.00 20.00     0.005 C 
ENDBRANCH   4   7
TORSDOF 1
ENDMDL
