MODEL 1
REMARK VINA RESULT:      -4.5      0.000      0.000
REMARK  4 active torsions:
REMARK  status: ('A' for Active; 'I' for Inactive)
REMARK    1  A    between atoms: C5_5  and  C8_8 
REMARK    2  A    between atoms: C6_6  and  C9_9 
REMARK    3  A    between atoms: C9_9  and  C10_10 
REMARK    4  A    between atoms: C10_10  and  C11_11 
ROOT
HETATM    1  C1  UNL     1     -34.762  17.249  -0.726  1.00 20.00     0.001 C 
HETATM    2  C2  UNL     1     -34.855  16.347  -1.952  1.00 20.00     0.005 C 
HETATM    3  C3  UNL     1     -34.215  18.630  -1.081  1.00 20.00     0.005 C 
HETATM    4  C4  UNL     1     -32.970  17.632  -3.042  1.00 20.00     0.009 C 
HETATM    5  C5  UNL     1     -33.513  16.240  -2.687  1.00 20.00    -0.014 C 
HETATM    6  C6  UNL     1     -32.878  18.573  -1.830  1.00 20.00    -0.014 C 
ENDROOT
BRANCH   6   7
HETATM    7  C9  UNL     1     -31.724  18.189  -0.901  1.00 20.00     0.005 C 
BRANCH   7   8
HETATM    8  C10 UNL     1     -31.673  19.102   0.320  1.00 20.00     0.015 C 
BRANCH   8   9
HETATM    9  C11 UNL     1     -31.439  18.292   1.589  1.00 20.00     0.114 C 
HETATM   10 CL12 UNL     1     -32.983  17.956   2.404  1.00 20.00    -0.130 Cl
ENDBRANCH   8   9
ENDBRANCH   7   8
ENDBRANCH   6   7
BRANCH   5  11
HETATM   11  C8  UNL     1     -33.656  15.384  -3.945  1.00 20.00     0.000 C 
HETATM   12  C7  UNL     1     -34.710  14.339  -3.783  1.00 20.00     0.005 C 
ENDBRANCH   5  11
TORSDOF 4
ENDMDL
MODEL 2
REMARK VINA RESULT:      -4.4      1.017      1.017
REMARK  4 active torsions:
REMARK  status: ('A' for Active; 'I' for Inactive)
REMARK    1  A    between atoms: C5_5  and  C8_8 
REMARK    2  A    between atoms: C6_6  and  C9_9 
REMARK    3  A    between atoms: C9_9  and  C10_10 
REMARK    4  A    between atoms: C10_10  and  C11_11 
ROOT
HETATM    1  C1  UNL     1     -34.973  16.995  -1.005  1.00 20.00     0.001 C 
HETATM    2  C2  UNL     1     -34.959  16.015  -2.174  1.00 20.00     0.005 C 
HETATM    3  C3  UNL     1     -34.506  18.386  -1.429  1.00 20.00     0.005 C 
HETATM    4  C4  UNL     1     -33.123  17.357  -3.278  1.00 20.00     0.009 C 
HETATM    5  C5  UNL     1     -33.586  15.955  -2.855  1.00 20.00    -0.014 C 
HETATM    6  C6  UNL     1     -33.140  18.374  -2.127  1.00 20.00    -0.014 C 
ENDROOT
BRANCH   6   7
HETATM    7  C9  UNL     1     -31.999  18.128  -1.136  1.00 20.00     0.005 C 
BRANCH   7   8
HETATM    8  C10 UNL     1     -32.089  19.077   0.054  1.00 20.00     0.015 C 
BRANCH   8   9
HETATM    9  C11 UNL     1     -31.596  18.397   1.325  1.00 20.00     0.114 C 
HETATM   10 CL12 UNL     1     -29.963  18.966   1.738  1.00 20.00    -0.130 Cl
ENDBRANCH   8   9
ENDBRANCH   7   8
ENDBRANCH   6   7
BRANCH   5  11
HETATM   11  C8  UNL     1     -33.624  15.016  -4.060  1.00 20.00     0.000 C 
HETATM   12  C7  UNL     1     -34.790  14.086  -3.996  1.00 20.00     0.005 C 
ENDBRANCH   5  11
TORSDOF 4
ENDMDL
MODEL 3
REMARK VINA RESULT:      -4.3      3.108      5.819
REMARK  4 active torsions:
REMARK  status: ('A' for Active; 'I' for Inactive)
REMARK    1  A    between atoms: C5_5  and  C8_8 
REMARK    2  A    between atoms: C6_6  and  C9_9 
REMARK    3  A    between atoms: C9_9  and  C10_10 
REMARK    4  A    between atoms: C10_10  and  C11_11 
ROOT
HETATM    1  C1  UNL     1     -35.816  15.130  -3.237  1.00 20.00     0.001 C 
HETATM    2  C2  UNL     1     -34.962  15.977  -2.298  1.00 20.00     0.005 C 
HETATM    3  C3  UNL     1     -34.985  14.064  -3.947  1.00 20.00     0.005 C 
HETATM    4  C4  UNL     1     -32.931  15.522  -3.732  1.00 20.00     0.009 C 
HETATM    5  C5  UNL     1     -33.761  16.600  -3.021  1.00 20.00    -0.014 C 
HETATM    6  C6  UNL     1     -33.764  14.639  -4.675  1.00 20.00    -0.014 C 
ENDROOT
BRANCH   6   7
HETATM    7  C9  UNL     1     -34.164  15.390  -5.948  1.00 20.00     0.005 C 
BRANCH   7   8
HETATM    8  C10 UNL     1     -35.402  14.769  -6.586  1.00 20.00     0.015 C 
BRANCH   8   9
HETATM    9  C11 UNL     1     -36.430  15.842  -6.923  1.00 20.00     0.114 C 
HETATM   10 CL12 UNL     1     -36.051  17.353  -6.067  1.00 20.00    -0.130 Cl
ENDBRANCH   8   9
ENDBRANCH   7   8
ENDBRANCH   6   7
BRANCH   5  11
HETATM   11  C8  UNL     1     -32.893  17.386  -2.040  1.00 20.00     0.000 C 
HETATM   12  C7  UNL     1     -33.690  17.898  -0.887  1.00 20.00     0.005 C 
ENDBRANCH   5  11
TORSDOF 4
ENDMDL
MODEL 4
REMARK VINA RESULT:      -4.1      3.210      5.532
REMARK  4 active torsions:
REMARK  status: ('A' for Active; 'I' for Inactive)
REMARK    1  A    between atoms: C5_5  and  C8_8 
REMARK    2  A    between atoms: C6_6  and  C9_9 
REMARK    3  A    between atoms: C9_9  and  C10_10 
REMARK    4  A    between atoms: C10_10  and  C11_11 
ROOT
HETATM    1  C1  UNL     1     -35.518  16.686  -1.842  1.00 20.00     0.001 C 
HETATM    2  C2  UNL     1     -34.318  17.339  -1.163  1.00 20.00     0.005 C 
HETATM    3  C3  UNL     1     -35.106  15.473  -2.673  1.00 20.00     0.005 C 
HETATM    4  C4  UNL     1     -32.810  16.480  -3.001  1.00 20.00     0.009 C 
HETATM    5  C5  UNL     1     -33.220  17.704  -2.169  1.00 20.00    -0.014 C 
HETATM    6  C6  UNL     1     -33.998  15.788  -3.687  1.00 20.00    -0.014 C 
ENDROOT
BRANCH   6   7
HETATM    7  C9  UNL     1     -34.526  16.606  -4.867  1.00 20.00     0.005 C 
BRANCH   7   8
HETATM    8  C10 UNL     1     -35.757  15.950  -5.484  1.00 20.00     0.015 C 
BRANCH   8   9
HETATM    9  C11 UNL     1     -35.357  14.772  -6.363  1.00 20.00     0.114 C 
HETATM   10 CL12 UNL     1     -33.839  15.125  -7.218  1.00 20.00    -0.130 Cl
ENDBRANCH   8   9
ENDBRANCH   7   8
ENDBRANCH   6   7
BRANCH   5  11
HETATM   11  C8  UNL     1     -32.008  18.295  -1.450  1.00 20.00     0.000 C 
HETATM   12  C7  UNL     1     -32.273  18.490   0.006  1.00 20.00     0.005 C 
ENDBRANCH   5  11
TORSDOF 4
ENDMDL
MODEL 5
REMARK VINA RESULT:      -4.1      2.377      4.965
REMARK  4 active torsions:
REMARK  status: ('A' for Active; 'I' for Inactive)
REMARK    1  A    between atoms: C5_5  and  C8_8 
REMARK    2  A    between atoms: C6_6  and  C9_9 
REMARK    3  A    between atoms: C9_9  and  C10_10 
REMARK    4  A    between atoms: C10_10  and  C11_11 
ROOT
HETATM    1  C1  UNL     1     -33.462  18.318  -3.824  1.00 20.00     0.001 C 
HETATM    2  C2  UNL     1     -32.456  18.836  -2.802  1.00 20.00     0.005 C 
HETATM    3  C3  UNL     1     -34.850  18.144  -3.211  1.00 20.00     0.005 C 
HETATM    4  C4  UNL     1     -33.800  17.780  -0.940  1.00 20.00     0.009 C 
HETATM    5  C5  UNL     1     -32.402  17.950  -1.551  1.00 20.00    -0.014 C 
HETATM    6  C6  UNL     1     -34.844  17.274  -1.948  1.00 20.00    -0.014 C 
ENDROOT
BRANCH   6   7
HETATM    7  C9  UNL     1     -34.640  15.793  -2.280  1.00 20.00     0.005 C 
BRANCH   7   8
HETATM    8  C10 UNL     1     -35.595  15.340  -3.379  1.00 20.00     0.015 C 
BRANCH   8   9
HETATM    9  C11 UNL     1     -34.866  14.481  -4.405  1.00 20.00     0.114 C 
HETATM   10 CL12 UNL     1     -33.108  14.709  -4.267  1.00 20.00    -0.130 Cl
ENDBRANCH   8   9
ENDBRANCH   7   8
ENDBRANCH   6   7
BRANCH   5  11
HETATM   11  C8  UNL     1     -31.434  18.532  -0.522  1.00 20.00     0.000 C 
HETATM   12  C7  UNL     1     -32.014  18.512   0.853  1.00 20.00     0.005 C 
ENDBRANCH   5  11
TORSDOF 4
ENDMDL
MODEL 6
REMARK VINA RESULT:      -4.1      2.110      3.879
REMARK  4 active torsions:
REMARK  status: ('A' for Active; 'I' for Inactive)
REMARK    1  A    between atoms: C5_5  and  C8_8 
REMARK    2  A    between atoms: C6_6  and  C9_9 
REMARK    3  A    between atoms: C9_9  and  C10_10 
REMARK    4  A    between atoms: C10_10  and  C11_11 
ROOT
HETATM    1  C1  UNL     1     -33.845  14.925  -5.763  1.00 20.00     0.001 C 
HETATM    2  C2  UNL     1     -35.368  15.019  -5.789  1.00 20.00     0.005 C 
HETATM    3  C3  UNL     1     -33.329  14.500  -4.390  1.00 20.00     0.005 C 
HETATM    4  C4  UNL     1     -35.380  15.507  -3.308  1.00 20.00     0.009 C 
HETATM    5  C5  UNL     1     -35.903  15.940  -4.686  1.00 20.00    -0.014 C 
HETATM    6  C6  UNL     1     -33.849  15.387  -3.252  1.00 20.00    -0.014 C 
ENDROOT
BRANCH   6   7
HETATM    7  C9  UNL     1     -33.173  16.760  -3.248  1.00 20.00     0.005 C 
BRANCH   7   8
HETATM    8  C10 UNL     1     -33.259  17.412  -1.872  1.00 20.00     0.015 C 
BRANCH   8   9
HETATM    9  C11 UNL     1     -32.284  18.578  -1.766  1.00 20.00     0.114 C 
HETATM   10 CL12 UNL     1     -31.101  18.280  -0.473  1.00 20.00    -0.130 Cl
ENDBRANCH   8   9
ENDBRANCH   7   8
ENDBRANCH   6   7
BRANCH   5  11
HETATM   11  C8  UNL     1     -37.431  15.960  -4.698  1.00 20.00     0.000 C 
HETATM   12  C7  UNL     1     -38.002  14.645  -4.284  1.00 20.00     0.005 C 
ENDBRANCH   5  11
TORSDOF 4
ENDMDL
MODEL 7
REMARK VINA RESULT:      -4.0      1.509      2.097
REMARK  4 active torsions:
REMARK  status: ('A' for Active; 'I' for Inactive)
REMARK    1  A    between atoms: C5_5  and  C8_8 
REMARK    2  A    between atoms: C6_6  and  C9_9 
REMARK    3  A    between atoms: C9_9  and  C10_10 
REMARK    4  A    between atoms: C10_10  and  C11_11 
ROOT
HETATM    1  C1  UNL     1     -35.538  17.758  -3.661  1.00 20.00     0.001 C 
HETATM    2  C2  UNL     1     -35.668  16.300  -4.090  1.00 20.00     0.005 C 
HETATM    3  C3  UNL     1     -34.107  18.267  -3.816  1.00 20.00     0.005 C 
HETATM    4  C4  UNL     1     -33.238  15.912  -3.510  1.00 20.00     0.009 C 
HETATM    5  C5  UNL     1     -34.675  15.395  -3.350  1.00 20.00    -0.014 C 
HETATM    6  C6  UNL     1     -33.075  17.385  -3.102  1.00 20.00    -0.014 C 
ENDROOT
BRANCH   6   7
HETATM    7  C9  UNL     1     -33.133  17.561  -1.583  1.00 20.00     0.005 C 
BRANCH   7   8
HETATM    8  C10 UNL     1     -31.879  18.256  -1.061  1.00 20.00     0.015 C 
BRANCH   8   9
HETATM    9  C11 UNL     1     -32.019  18.578   0.421  1.00 20.00     0.114 C 
HETATM   10 CL12 UNL     1     -30.438  18.476   1.229  1.00 20.00    -0.130 Cl
ENDBRANCH   8   9
ENDBRANCH   7   8
ENDBRANCH   6   7
BRANCH   5  11
HETATM   11  C8  UNL     1     -34.786  13.955  -3.848  1.00 20.00     0.000 C 
HETATM   12  C7  UNL     1     -36.109  13.695  -4.488  1.00 20.00     0.005 C 
ENDBRANCH   5  11
TORSDOF 4
ENDMDL
MODEL 8
REMARK VINA RESULT:      -4.0      2.555      4.974
REMARK  4 active torsions:
REMARK  status: ('A' for Active; 'I' for Inactive)
REMARK    1  A    between atoms: C5_5  and  C8_8 
REMARK    2  A    between atoms: C6_6  and  C9_9 
REMARK    3  A    between atoms: C9_9  and  C10_10 
REMARK    4  A    between atoms: C10_10  and  C11_11 
ROOT
HETATM    1  C1  UNL     1     -31.709  18.362  -0.866  1.00 20.00     0.001 C 
HETATM    2  C2  UNL     1     -32.626  18.552   0.338  1.00 20.00     0.005 C 
HETATM    3  C3  UNL     1     -32.428  18.670  -2.177  1.00 20.00     0.005 C 
HETATM    4  C4  UNL     1     -34.635  18.050  -1.111  1.00 20.00     0.009 C 
HETATM    5  C5  UNL     1     -33.917  17.735   0.210  1.00 20.00    -0.014 C 
HETATM    6  C6  UNL     1     -33.735  17.883  -2.345  1.00 20.00    -0.014 C 
ENDROOT
BRANCH   6   7
HETATM    7  C9  UNL     1     -33.472  16.408  -2.660  1.00 20.00     0.005 C 
BRANCH   7   8
HETATM    8  C10 UNL     1     -34.777  15.623  -2.742  1.00 20.00     0.015 C 
BRANCH   8   9
HETATM    9  C11 UNL     1     -34.694  14.554  -3.824  1.00 20.00     0.114 C 
HETATM   10 CL12 UNL     1     -33.019  14.371  -4.389  1.00 20.00    -0.130 Cl
ENDBRANCH   8   9
ENDBRANCH   7   8
ENDBRANCH   6   7
BRANCH   5  11
HETATM   11  C8  UNL     1     -34.840  17.999   1.399  1.00 20.00     0.000 C 
HETATM   12  C7  UNL     1     -34.071  18.386   2.618  1.00 20.00     0.005 C 
ENDBRANCH   5  11
TORSDOF 4
ENDMDL
MODEL 9
REMARK VINA RESULT:      -4.0      2.925      4.477
REMARK  4 active torsions:
REMARK  status: ('A' for Active; 'I' for Inactive)
REMARK    1  A    between atoms: C5_5  and  C8_8 
REMARK    2  A    between atoms: C6_6  and  C9_9 
REMARK    3  A    between atoms: C9_9  and  C10_10 
REMARK    4  A    between atoms: C10_10  and  C11_11 
ROOT
HETATM    1  C1  UNL     1     -32.868  17.349  -2.823  1.00 20.00     0.001 C 
HETATM    2  C2  UNL     1     -33.036  15.936  -3.371  1.00 20.00     0.005 C 
HETATM    3  C3  UNL     1     -33.621  17.537  -1.507  1.00 20.00     0.005 C 
HETATM    4  C4  UNL     1     -35.264  15.741  -2.192  1.00 20.00     0.009 C 
HETATM    5  C5  UNL     1     -34.513  15.550  -3.518  1.00 20.00    -0.014 C 
HETATM    6  C6  UNL     1     -35.103  17.151  -1.603  1.00 20.00    -0.014 C 
ENDROOT
BRANCH   6   7
HETATM    7  C9  UNL     1     -35.910  18.189  -2.387  1.00 20.00     0.005 C 
BRANCH   7   8
HETATM    8  C10 UNL     1     -37.289  17.651  -2.753  1.00 20.00     0.015 C 
BRANCH   8   9
HETATM    9  C11 UNL     1     -37.617  17.954  -4.209  1.00 20.00     0.114 C 
HETATM   10 CL12 UNL     1     -36.125  18.225  -5.137  1.00 20.00    -0.130 Cl
ENDBRANCH   8   9
ENDBRANCH   7   8
ENDBRANCH   6   7
BRANCH   5  11
HETATM   11  C8  UNL     1     -34.646  14.108  -4.007  1.00 20.00     0.000 C 
HETATM   12  C7  UNL     1     -36.048  13.788  -4.403  1.00 20.00     0.005 C 
ENDBRANCH   5  11
TORSDOF 4
ENDMDL
