MODEL 1
REMARK VINA RESULT:      -5.0      0.000      0.000
REMARK  3 active torsions:
REMARK  status: ('A' for Active; 'I' for Inactive)
REMARK    1  A    between atoms: C4_4  and  C7_7 
REMARK    2  A    between atoms: C7_7  and  C9_9 
REMARK    3  A    between atoms: C8_8  and  C9_9 
ROOT
HETATM    1  C1  UNL     1     -33.467   5.090   2.764  1.00 20.00     0.006 C 
HETATM    2  C2  UNL     1     -34.396   4.519   3.824  1.00 20.00     0.020 C 
HETATM    3  C3  UNL     1     -33.840   6.751   4.528  1.00 20.00     0.024 C 
HETATM    4  C4  UNL     1     -33.462   6.598   3.043  1.00 20.00    -0.013 C 
HETATM    5  C5  UNL     1     -34.006   5.325   5.053  1.00 20.00     0.082 C 
HETATM    6 CL10 UNL     1     -35.212   5.212   6.343  1.00 20.00    -0.125 Cl
ENDROOT
BRANCH   4   7
HETATM    7  C7  UNL     1     -32.132   7.249   2.698  1.00 20.00     0.005 C 
BRANCH   7   8
HETATM    8  C9  UNL     1     -32.065   7.638   1.221  1.00 20.00     0.000 C 
BRANCH   8   9
HETATM    9  C8  UNL     1     -32.870   8.908   0.945  1.00 20.00    -0.005 C 
HETATM   10  C6  UNL     1     -33.518   8.868  -0.430  1.00 20.00     0.005 C 
ENDBRANCH   8   9
ENDBRANCH   7   8
ENDBRANCH   4   7
TORSDOF 3
ENDMDL
MODEL 2
REMARK VINA RESULT:      -4.2     11.257     12.185
REMARK  3 active torsions:
REMARK  status: ('A' for Active; 'I' for Inactive)
REMARK    1  A    between atoms: C4_4  and  C7_7 
REMARK    2  A    between atoms: C7_7  and  C9_9 
REMARK    3  A    between atoms: C8_8  and  C9_9 
ROOT
HETATM    1  C1  UNL     1     -33.541  18.252   0.215  1.00 20.00     0.006 C 
HETATM    2  C2  UNL     1     -32.649  18.794   1.321  1.00 20.00     0.020 C 
HETATM    3  C3  UNL     1     -31.227  18.410  -0.579  1.00 20.00     0.024 C 
HETATM    4  C4  UNL     1     -32.692  18.397  -1.054  1.00 20.00    -0.013 C 
HETATM    5  C5  UNL     1     -31.291  18.231   0.936  1.00 20.00     0.082 C 
HETATM    6 CL10 UNL     1     -29.962  19.045   1.774  1.00 20.00    -0.125 Cl
ENDROOT
BRANCH   4   7
HETATM    7  C7  UNL     1     -32.978  17.305  -2.073  1.00 20.00     0.005 C 
BRANCH   7   8
HETATM    8  C9  UNL     1     -34.353  16.675  -1.848  1.00 20.00     0.000 C 
BRANCH   8   9
HETATM    9  C8  UNL     1     -34.613  15.543  -2.842  1.00 20.00    -0.005 C 
HETATM   10  C6  UNL     1     -33.445  15.361  -3.797  1.00 20.00     0.005 C 
ENDBRANCH   8   9
ENDBRANCH   7   8
ENDBRANCH   4   7
TORSDOF 3
ENDMDL
MODEL 3
REMARK VINA RESULT:      -4.2     10.622     11.712
REMARK  3 active torsions:
REMARK  status: ('A' for Active; 'I' for Inactive)
REMARK    1  A    between atoms: C4_4  and  C7_7 
REMARK    2  A    between atoms: C7_7  and  C9_9 
REMARK    3  A    between atoms: C8_8  and  C9_9 
ROOT
HETATM    1  C1  UNL     1     -33.051  15.808  -3.561  1.00 20.00     0.006 C 
HETATM    2  C2  UNL     1     -33.713  14.759  -4.442  1.00 20.00     0.020 C 
HETATM    3  C3  UNL     1     -35.445  15.675  -3.048  1.00 20.00     0.024 C 
HETATM    4  C4  UNL     1     -34.225  16.615  -2.994  1.00 20.00    -0.013 C 
HETATM    5  C5  UNL     1     -34.915  14.355  -3.603  1.00 20.00     0.082 C 
HETATM    6 CL10 UNL     1     -36.129  13.478  -4.546  1.00 20.00    -0.125 Cl
ENDROOT
BRANCH   4   7
HETATM    7  C7  UNL     1     -33.945  17.147  -1.597  1.00 20.00     0.005 C 
BRANCH   7   8
HETATM    8  C9  UNL     1     -32.604  17.879  -1.535  1.00 20.00     0.000 C 
BRANCH   8   9
HETATM    9  C8  UNL     1     -32.340  18.434  -0.136  1.00 20.00    -0.005 C 
HETATM   10  C6  UNL     1     -30.876  18.297   0.250  1.00 20.00     0.005 C 
ENDBRANCH   8   9
ENDBRANCH   7   8
ENDBRANCH   4   7
TORSDOF 3
ENDMDL
MODEL 4
REMARK VINA RESULT:      -4.1     11.301     12.206
REMARK  3 active torsions:
REMARK  status: ('A' for Active; 'I' for Inactive)
REMARK    1  A    between atoms: C4_4  and  C7_7 
REMARK    2  A    between atoms: C7_7  and  C9_9 
REMARK    3  A    between atoms: C8_8  and  C9_9 
ROOT
HETATM    1  C1  UNL     1     -36.062  14.763  -4.092  1.00 20.00     0.006 C 
HETATM    2  C2  UNL     1     -35.792  14.468  -5.560  1.00 20.00     0.020 C 
HETATM    3  C3  UNL     1     -33.721  15.257  -4.626  1.00 20.00     0.024 C 
HETATM    4  C4  UNL     1     -34.665  14.876  -3.470  1.00 20.00    -0.013 C 
HETATM    5  C5  UNL     1     -34.618  15.388  -5.856  1.00 20.00     0.082 C 
HETATM    6 CL10 UNL     1     -33.784  14.954  -7.355  1.00 20.00    -0.125 Cl
ENDROOT
BRANCH   4   7
HETATM    7  C7  UNL     1     -34.620  15.865  -2.315  1.00 20.00     0.005 C 
BRANCH   7   8
HETATM    8  C9  UNL     1     -33.442  16.829  -2.449  1.00 20.00     0.000 C 
BRANCH   8   9
HETATM    9  C8  UNL     1     -33.358  17.773  -1.249  1.00 20.00    -0.005 C 
HETATM   10  C6  UNL     1     -31.933  18.246  -1.012  1.00 20.00     0.005 C 
ENDBRANCH   8   9
ENDBRANCH   7   8
ENDBRANCH   4   7
TORSDOF 3
ENDMDL
MODEL 5
REMARK VINA RESULT:      -4.1     10.731     11.637
REMARK  3 active torsions:
REMARK  status: ('A' for Active; 'I' for Inactive)
REMARK    1  A    between atoms: C4_4  and  C7_7 
REMARK    2  A    between atoms: C7_7  and  C9_9 
REMARK    3  A    between atoms: C8_8  and  C9_9 
ROOT
HETATM    1  C1  UNL     1     -32.972  16.960  -2.858  1.00 20.00     0.006 C 
HETATM    2  C2  UNL     1     -32.979  17.757  -1.562  1.00 20.00     0.020 C 
HETATM    3  C3  UNL     1     -34.998  16.451  -1.574  1.00 20.00     0.024 C 
HETATM    4  C4  UNL     1     -34.041  15.883  -2.639  1.00 20.00    -0.013 C 
HETATM    5  C5  UNL     1     -34.465  17.846  -1.254  1.00 20.00     0.082 C 
HETATM    6 CL10 UNL     1     -34.778  18.326   0.421  1.00 20.00    -0.125 Cl
ENDROOT
BRANCH   4   7
HETATM    7  C7  UNL     1     -34.749  15.496  -3.928  1.00 20.00     0.005 C 
BRANCH   7   8
HETATM    8  C9  UNL     1     -34.834  13.977  -4.086  1.00 20.00     0.000 C 
BRANCH   8   9
HETATM    9  C8  UNL     1     -36.225  13.545  -4.550  1.00 20.00    -0.005 C 
HETATM   10  C6  UNL     1     -37.262  14.624  -4.280  1.00 20.00     0.005 C 
ENDBRANCH   8   9
ENDBRANCH   7   8
ENDBRANCH   4   7
TORSDOF 3
ENDMDL
MODEL 6
REMARK VINA RESULT:      -4.0     11.051     11.955
REMARK  3 active torsions:
REMARK  status: ('A' for Active; 'I' for Inactive)
REMARK    1  A    between atoms: C4_4  and  C7_7 
REMARK    2  A    between atoms: C7_7  and  C9_9 
REMARK    3  A    between atoms: C8_8  and  C9_9 
ROOT
HETATM    1  C1  UNL     1     -35.046  16.070  -1.933  1.00 20.00     0.006 C 
HETATM    2  C2  UNL     1     -34.408  17.363  -1.447  1.00 20.00     0.020 C 
HETATM    3  C3  UNL     1     -33.205  16.704  -3.423  1.00 20.00     0.024 C 
HETATM    4  C4  UNL     1     -34.525  15.911  -3.366  1.00 20.00    -0.013 C 
HETATM    5  C5  UNL     1     -33.000  17.252  -2.012  1.00 20.00     0.082 C 
HETATM    6 CL10 UNL     1     -32.146  18.801  -2.001  1.00 20.00    -0.125 Cl
ENDROOT
BRANCH   4   7
HETATM    7  C7  UNL     1     -34.360  14.454  -3.768  1.00 20.00     0.005 C 
BRANCH   7   8
HETATM    8  C9  UNL     1     -35.677  13.858  -4.267  1.00 20.00     0.000 C 
BRANCH   8   9
HETATM    9  C8  UNL     1     -36.340  14.768  -5.301  1.00 20.00    -0.005 C 
HETATM   10  C6  UNL     1     -35.633  14.690  -6.645  1.00 20.00     0.005 C 
ENDBRANCH   8   9
ENDBRANCH   7   8
ENDBRANCH   4   7
TORSDOF 3
ENDMDL
MODEL 7
REMARK VINA RESULT:      -4.0     10.762     11.913
REMARK  3 active torsions:
REMARK  status: ('A' for Active; 'I' for Inactive)
REMARK    1  A    between atoms: C4_4  and  C7_7 
REMARK    2  A    between atoms: C7_7  and  C9_9 
REMARK    3  A    between atoms: C8_8  and  C9_9 
ROOT
HETATM    1  C1  UNL     1     -33.579  14.814  -4.435  1.00 20.00     0.006 C 
HETATM    2  C2  UNL     1     -32.940  15.796  -3.465  1.00 20.00     0.020 C 
HETATM    3  C3  UNL     1     -35.191  15.442  -2.698  1.00 20.00     0.024 C 
HETATM    4  C4  UNL     1     -34.836  14.329  -3.702  1.00 20.00    -0.013 C 
HETATM    5  C5  UNL     1     -34.151  16.538  -2.922  1.00 20.00     0.082 C 
HETATM    6 CL10 UNL     1     -33.782  17.438  -1.445  1.00 20.00    -0.125 Cl
ENDROOT
BRANCH   4   7
HETATM    7  C7  UNL     1     -35.975  14.002  -4.655  1.00 20.00     0.005 C 
BRANCH   7   8
HETATM    8  C9  UNL     1     -35.788  14.687  -6.008  1.00 20.00     0.000 C 
BRANCH   8   9
HETATM    9  C8  UNL     1     -36.693  15.911  -6.140  1.00 20.00    -0.005 C 
HETATM   10  C6  UNL     1     -35.887  17.200  -6.168  1.00 20.00     0.005 C 
ENDBRANCH   8   9
ENDBRANCH   7   8
ENDBRANCH   4   7
TORSDOF 3
ENDMDL
MODEL 8
REMARK VINA RESULT:      -4.0      9.557     10.324
REMARK  3 active torsions:
REMARK  status: ('A' for Active; 'I' for Inactive)
REMARK    1  A    between atoms: C4_4  and  C7_7 
REMARK    2  A    between atoms: C7_7  and  C9_9 
REMARK    3  A    between atoms: C8_8  and  C9_9 
ROOT
HETATM    1  C1  UNL     1     -42.605   5.536   0.413  1.00 20.00     0.006 C 
HETATM    2  C2  UNL     1     -42.560   6.949   0.976  1.00 20.00     0.020 C 
HETATM    3  C3  UNL     1     -41.648   7.067  -1.246  1.00 20.00     0.024 C 
HETATM    4  C4  UNL     1     -42.394   5.727  -1.094  1.00 20.00    -0.013 C 
HETATM    5  C5  UNL     1     -41.425   7.570   0.178  1.00 20.00     0.082 C 
HETATM    6 CL10 UNL     1     -41.418   9.337   0.282  1.00 20.00    -0.125 Cl
ENDROOT
BRANCH   4   7
HETATM    7  C7  UNL     1     -41.656   4.560  -1.731  1.00 20.00     0.005 C 
BRANCH   7   8
HETATM    8  C9  UNL     1     -42.568   3.763  -2.663  1.00 20.00     0.000 C 
BRANCH   8   9
HETATM    9  C8  UNL     1     -41.776   2.728  -3.462  1.00 20.00    -0.005 C 
HETATM   10  C6  UNL     1     -42.180   2.728  -4.928  1.00 20.00     0.005 C 
ENDBRANCH   8   9
ENDBRANCH   7   8
ENDBRANCH   4   7
TORSDOF 3
ENDMDL
MODEL 9
REMARK VINA RESULT:      -3.9      2.686      4.875
REMARK  3 active torsions:
REMARK  status: ('A' for Active; 'I' for Inactive)
REMARK    1  A    between atoms: C4_4  and  C7_7 
REMARK    2  A    between atoms: C7_7  and  C9_9 
REMARK    3  A    between atoms: C8_8  and  C9_9 
ROOT
HETATM    1  C1  UNL     1     -32.101   6.926   3.387  1.00 20.00     0.006 C 
HETATM    2  C2  UNL     1     -31.978   8.264   2.673  1.00 20.00     0.020 C 
HETATM    3  C3  UNL     1     -33.574   6.966   1.427  1.00 20.00     0.024 C 
HETATM    4  C4  UNL     1     -33.379   6.309   2.807  1.00 20.00    -0.013 C 
HETATM    5  C5  UNL     1     -32.379   7.902   1.252  1.00 20.00     0.082 C 
HETATM    6 CL10 UNL     1     -32.769   9.328   0.279  1.00 20.00    -0.125 Cl
ENDROOT
BRANCH   4   7
HETATM    7  C7  UNL     1     -33.314   4.792   2.739  1.00 20.00     0.005 C 
BRANCH   7   8
HETATM    8  C9  UNL     1     -34.136   4.145   3.854  1.00 20.00     0.000 C 
BRANCH   8   9
HETATM    9  C8  UNL     1     -35.085   5.155   4.500  1.00 20.00    -0.005 C 
HETATM   10  C6  UNL     1     -34.778   5.341   5.977  1.00 20.00     0.005 C 
ENDBRANCH   8   9
ENDBRANCH   7   8
ENDBRANCH   4   7
TORSDOF 3
ENDMDL
