MODEL 1
REMARK VINA RESULT:      -5.3      0.000      0.000
REMARK  2 active torsions:
REMARK  status: ('A' for Active; 'I' for Inactive)
REMARK    1  A    between atoms: C2_2  and  C9_9 
REMARK    2  A    between atoms: C7_7  and  C9_9 
ROOT
HETATM    1  C3  UNL     1     -34.168   4.251   3.276  1.00 20.00     0.002 C 
HETATM    2  C4  UNL     1     -33.065   5.011   2.533  1.00 20.00     0.005 C 
HETATM    3  C5  UNL     1     -34.763   5.027   4.455  1.00 20.00     0.020 C 
HETATM    4  C6  UNL     1     -33.313   7.057   4.013  1.00 20.00     0.025 C 
HETATM    5  C7  UNL     1     -33.297   6.523   2.567  1.00 20.00    -0.010 C 
HETATM    6  C8  UNL     1     -33.753   6.007   5.041  1.00 20.00     0.082 C 
HETATM    7 CL10 UNL     1     -34.428   6.807   6.488  1.00 20.00    -0.125 Cl
ENDROOT
BRANCH   5   8
HETATM    8  C9  UNL     1     -32.259   7.262   1.725  1.00 20.00     0.031 C 
BRANCH   8   9
HETATM    9  C2  UNL     1     -32.811   8.546   1.192  1.00 20.00    -0.037 C 
HETATM   10  C1  UNL     1     -33.219   8.714  -0.071  1.00 20.00     0.007 C 
ENDBRANCH   8   9
ENDBRANCH   5   8
TORSDOF 2
ENDMDL
MODEL 2
REMARK VINA RESULT:      -4.4     10.569     11.732
REMARK  2 active torsions:
REMARK  status: ('A' for Active; 'I' for Inactive)
REMARK    1  A    between atoms: C2_2  and  C9_9 
REMARK    2  A    between atoms: C7_7  and  C9_9 
ROOT
HETATM    1  C3  UNL     1     -32.637  18.118  -2.325  1.00 20.00     0.002 C 
HETATM    2  C4  UNL     1     -33.147  17.280  -3.501  1.00 20.00     0.005 C 
HETATM    3  C5  UNL     1     -33.361  17.833  -1.006  1.00 20.00     0.020 C 
HETATM    4  C6  UNL     1     -34.807  16.030  -2.044  1.00 20.00     0.025 C 
HETATM    5  C7  UNL     1     -33.641  15.905  -3.044  1.00 20.00    -0.010 C 
HETATM    6  C8  UNL     1     -34.784  17.342  -1.248  1.00 20.00     0.082 C 
HETATM    7 CL10 UNL     1     -35.646  17.136   0.302  1.00 20.00    -0.125 Cl
ENDROOT
BRANCH   5   8
HETATM    8  C9  UNL     1     -34.037  15.034  -4.236  1.00 20.00     0.031 C 
BRANCH   8   9
HETATM    9  C2  UNL     1     -35.057  14.014  -3.843  1.00 20.00    -0.037 C 
HETATM   10  C1  UNL     1     -36.115  13.689  -4.595  1.00 20.00     0.007 C 
ENDBRANCH   8   9
ENDBRANCH   5   8
TORSDOF 2
ENDMDL
MODEL 3
REMARK VINA RESULT:      -4.2      9.272      9.970
REMARK  2 active torsions:
REMARK  status: ('A' for Active; 'I' for Inactive)
REMARK    1  A    between atoms: C2_2  and  C9_9 
REMARK    2  A    between atoms: C7_7  and  C9_9 
ROOT
HETATM    1  C3  UNL     1     -43.417   6.135   1.277  1.00 20.00     0.002 C 
HETATM    2  C4  UNL     1     -42.564   5.128   0.499  1.00 20.00     0.005 C 
HETATM    3  C5  UNL     1     -43.117   7.595   0.927  1.00 20.00     0.020 C 
HETATM    4  C6  UNL     1     -41.397   6.956  -0.819  1.00 20.00     0.025 C 
HETATM    5  C7  UNL     1     -42.206   5.647  -0.895  1.00 20.00    -0.010 C 
HETATM    6  C8  UNL     1     -41.680   7.769   0.451  1.00 20.00     0.082 C 
HETATM    7 CL10 UNL     1     -41.319   9.496   0.170  1.00 20.00    -0.125 Cl
ENDROOT
BRANCH   5   8
HETATM    8  C9  UNL     1     -41.457   4.590  -1.705  1.00 20.00     0.031 C 
BRANCH   8   9
HETATM    9  C2  UNL     1     -42.393   3.812  -2.575  1.00 20.00    -0.037 C 
HETATM   10  C1  UNL     1     -42.015   2.787  -3.347  1.00 20.00     0.007 C 
ENDBRANCH   8   9
ENDBRANCH   5   8
TORSDOF 2
ENDMDL
MODEL 4
REMARK VINA RESULT:      -4.2     11.236     12.335
REMARK  2 active torsions:
REMARK  status: ('A' for Active; 'I' for Inactive)
REMARK    1  A    between atoms: C2_2  and  C9_9 
REMARK    2  A    between atoms: C7_7  and  C9_9 
ROOT
HETATM    1  C3  UNL     1     -35.565  17.107  -1.572  1.00 20.00     0.002 C 
HETATM    2  C4  UNL     1     -34.519  18.225  -1.536  1.00 20.00     0.005 C 
HETATM    3  C5  UNL     1     -35.084  15.837  -2.280  1.00 20.00     0.020 C 
HETATM    4  C6  UNL     1     -32.780  16.798  -2.710  1.00 20.00     0.025 C 
HETATM    5  C7  UNL     1     -33.095  17.667  -1.477  1.00 20.00    -0.010 C 
HETATM    6  C8  UNL     1     -34.026  16.153  -3.331  1.00 20.00     0.082 C 
HETATM    7 CL10 UNL     1     -33.573  14.675  -4.225  1.00 20.00    -0.125 Cl
ENDROOT
BRANCH   5   8
HETATM    8  C9  UNL     1     -32.067  18.786  -1.322  1.00 20.00     0.031 C 
BRANCH   8   9
HETATM    9  C2  UNL     1     -31.034  18.432  -0.300  1.00 20.00    -0.037 C 
HETATM   10  C1  UNL     1     -31.273  18.381   1.016  1.00 20.00     0.007 C 
ENDBRANCH   8   9
ENDBRANCH   5   8
TORSDOF 2
ENDMDL
MODEL 5
REMARK VINA RESULT:      -4.1     10.942     11.958
REMARK  2 active torsions:
REMARK  status: ('A' for Active; 'I' for Inactive)
REMARK    1  A    between atoms: C2_2  and  C9_9 
REMARK    2  A    between atoms: C7_7  and  C9_9 
ROOT
HETATM    1  C3  UNL     1     -35.502  17.226  -1.145  1.00 20.00     0.002 C 
HETATM    2  C4  UNL     1     -35.048  15.979  -1.910  1.00 20.00     0.005 C 
HETATM    3  C5  UNL     1     -34.480  18.367  -1.165  1.00 20.00     0.020 C 
HETATM    4  C6  UNL     1     -32.873  17.070  -2.632  1.00 20.00     0.025 C 
HETATM    5  C7  UNL     1     -34.148  16.338  -3.095  1.00 20.00    -0.010 C 
HETATM    6  C8  UNL     1     -33.059  17.837  -1.316  1.00 20.00     0.082 C 
HETATM    7 CL10 UNL     1     -31.880  19.175  -1.212  1.00 20.00    -0.125 Cl
ENDROOT
BRANCH   5   8
HETATM    8  C9  UNL     1     -33.797  15.101  -3.920  1.00 20.00     0.031 C 
BRANCH   8   9
HETATM    9  C2  UNL     1     -34.894  14.086  -3.864  1.00 20.00    -0.037 C 
HETATM   10  C1  UNL     1     -35.879  14.003  -4.766  1.00 20.00     0.007 C 
ENDBRANCH   8   9
ENDBRANCH   5   8
TORSDOF 2
ENDMDL
MODEL 6
REMARK VINA RESULT:      -4.1     11.605     12.205
REMARK  2 active torsions:
REMARK  status: ('A' for Active; 'I' for Inactive)
REMARK    1  A    between atoms: C2_2  and  C9_9 
REMARK    2  A    between atoms: C7_7  and  C9_9 
ROOT
HETATM    1  C3  UNL     1     -36.710  14.293  -4.505  1.00 20.00     0.002 C 
HETATM    2  C4  UNL     1     -36.188  15.290  -3.465  1.00 20.00     0.005 C 
HETATM    3  C5  UNL     1     -35.751  14.072  -5.679  1.00 20.00     0.020 C 
HETATM    4  C6  UNL     1     -34.002  15.625  -4.707  1.00 20.00     0.025 C 
HETATM    5  C7  UNL     1     -34.662  15.258  -3.364  1.00 20.00    -0.010 C 
HETATM    6  C8  UNL     1     -34.879  15.298  -5.923  1.00 20.00     0.082 C 
HETATM    7 CL10 UNL     1     -33.861  15.061  -7.371  1.00 20.00    -0.125 Cl
ENDROOT
BRANCH   5   8
HETATM    8  C9  UNL     1     -34.160  16.167  -2.244  1.00 20.00     0.031 C 
BRANCH   8   9
HETATM    9  C2  UNL     1     -35.290  16.635  -1.382  1.00 20.00    -0.037 C 
HETATM   10  C1  UNL     1     -35.125  17.248  -0.205  1.00 20.00     0.007 C 
ENDBRANCH   8   9
ENDBRANCH   5   8
TORSDOF 2
ENDMDL
MODEL 7
REMARK VINA RESULT:      -4.1     11.429     12.691
REMARK  2 active torsions:
REMARK  status: ('A' for Active; 'I' for Inactive)
REMARK    1  A    between atoms: C2_2  and  C9_9 
REMARK    2  A    between atoms: C7_7  and  C9_9 
ROOT
HETATM    1  C3  UNL     1     -34.710  14.520  -3.752  1.00 20.00     0.002 C 
HETATM    2  C4  UNL     1     -34.667  15.533  -2.605  1.00 20.00     0.005 C 
HETATM    3  C5  UNL     1     -34.314  15.110  -5.109  1.00 20.00     0.020 C 
HETATM    4  C6  UNL     1     -33.834  17.391  -4.119  1.00 20.00     0.025 C 
HETATM    5  C7  UNL     1     -33.585  16.593  -2.825  1.00 20.00    -0.010 C 
HETATM    6  C8  UNL     1     -34.617  16.602  -5.176  1.00 20.00     0.082 C 
HETATM    7 CL10 UNL     1     -34.262  17.238  -6.807  1.00 20.00    -0.125 Cl
ENDROOT
BRANCH   5   8
HETATM    8  C9  UNL     1     -33.470  17.527  -1.622  1.00 20.00     0.031 C 
BRANCH   8   9
HETATM    9  C2  UNL     1     -32.145  18.220  -1.600  1.00 20.00    -0.037 C 
HETATM   10  C1  UNL     1     -31.372  18.317  -0.512  1.00 20.00     0.007 C 
ENDBRANCH   8   9
ENDBRANCH   5   8
TORSDOF 2
ENDMDL
MODEL 8
REMARK VINA RESULT:      -4.0     10.863     11.898
REMARK  2 active torsions:
REMARK  status: ('A' for Active; 'I' for Inactive)
REMARK    1  A    between atoms: C2_2  and  C9_9 
REMARK    2  A    between atoms: C7_7  and  C9_9 
ROOT
HETATM    1  C3  UNL     1     -32.214  18.276  -1.618  1.00 20.00     0.002 C 
HETATM    2  C4  UNL     1     -33.192  17.732  -2.662  1.00 20.00     0.005 C 
HETATM    3  C5  UNL     1     -32.731  18.178  -0.179  1.00 20.00     0.020 C 
HETATM    4  C6  UNL     1     -34.878  17.040  -0.896  1.00 20.00     0.025 C 
HETATM    5  C7  UNL     1     -34.037  16.584  -2.104  1.00 20.00    -0.010 C 
HETATM    6  C8  UNL     1     -34.254  18.216  -0.133  1.00 20.00     0.082 C 
HETATM    7 CL10 UNL     1     -34.828  18.226   1.558  1.00 20.00    -0.125 Cl
ENDROOT
BRANCH   5   8
HETATM    8  C9  UNL     1     -34.924  15.972  -3.186  1.00 20.00     0.031 C 
BRANCH   8   9
HETATM    9  C2  UNL     1     -34.374  14.664  -3.660  1.00 20.00    -0.037 C 
HETATM   10  C1  UNL     1     -33.246  14.543  -4.371  1.00 20.00     0.007 C 
ENDBRANCH   8   9
ENDBRANCH   5   8
TORSDOF 2
ENDMDL
MODEL 9
REMARK VINA RESULT:      -4.0     11.081     12.159
REMARK  2 active torsions:
REMARK  status: ('A' for Active; 'I' for Inactive)
REMARK    1  A    between atoms: C2_2  and  C9_9 
REMARK    2  A    between atoms: C7_7  and  C9_9 
ROOT
HETATM    1  C3  UNL     1     -32.881  17.537  -3.195  1.00 20.00     0.002 C 
HETATM    2  C4  UNL     1     -33.200  17.593  -1.698  1.00 20.00     0.005 C 
HETATM    3  C5  UNL     1     -33.766  16.562  -3.976  1.00 20.00     0.020 C 
HETATM    4  C6  UNL     1     -35.111  15.940  -1.922  1.00 20.00     0.025 C 
HETATM    5  C7  UNL     1     -34.683  17.334  -1.424  1.00 20.00    -0.010 C 
HETATM    6  C8  UNL     1     -34.258  15.425  -3.089  1.00 20.00     0.082 C 
HETATM    7 CL10 UNL     1     -35.183  14.237  -4.050  1.00 20.00    -0.125 Cl
ENDROOT
BRANCH   5   8
HETATM    8  C9  UNL     1     -35.012  17.508   0.057  1.00 20.00     0.031 C 
BRANCH   8   9
HETATM    9  C2  UNL     1     -33.912  18.225   0.774  1.00 20.00    -0.037 C 
HETATM   10  C1  UNL     1     -33.658  18.085   2.080  1.00 20.00     0.007 C 
ENDBRANCH   8   9
ENDBRANCH   5   8
TORSDOF 2
ENDMDL
