MODEL 1
REMARK VINA RESULT:      -4.7      0.000      0.000
REMARK  3 active torsions:
REMARK  status: ('A' for Active; 'I' for Inactive)
REMARK    1  A    between atoms: C5_5  and  C9_9 
REMARK    2  A    between atoms: C9_9  and  C11_11 
REMARK    3  A    between atoms: C10_10  and  C11_11 
ROOT
HETATM    1  C1  UNL     1     -33.719  14.406  -4.170  1.00 20.00     0.002 C 
HETATM    2  C2  UNL     1     -33.103  15.739  -3.771  1.00 20.00     0.005 C 
HETATM    3  C3  UNL     1     -35.240  14.472  -4.329  1.00 20.00     0.020 C 
HETATM    4  C4  UNL     1     -35.159  15.915  -2.237  1.00 20.00     0.024 C 
HETATM    5  C5  UNL     1     -33.663  16.237  -2.431  1.00 20.00    -0.013 C 
HETATM    6  C6  UNL     1     -35.919  15.586  -3.523  1.00 20.00     0.082 C 
HETATM    7 CL12 UNL     1     -36.124  17.057  -4.527  1.00 20.00    -0.125 Cl
ENDROOT
BRANCH   5   8
HETATM    8  C9  UNL     1     -33.364  17.725  -2.241  1.00 20.00     0.009 C 
BRANCH   8   9
HETATM    9  C11 UNL     1     -32.992  18.102  -0.794  1.00 20.00    -0.019 C 
HETATM   10  C8  UNL     1     -33.847  19.263  -0.275  1.00 20.00     0.010 C 
BRANCH   9  11
HETATM   11  C10 UNL     1     -31.487  18.437  -0.743  1.00 20.00    -0.000 C 
HETATM   12  C7  UNL     1     -30.854  18.220   0.624  1.00 20.00     0.005 C 
ENDBRANCH   9  11
ENDBRANCH   8   9
ENDBRANCH   5   8
TORSDOF 3
ENDMDL
MODEL 2
REMARK VINA RESULT:      -4.6      1.072      1.834
REMARK  3 active torsions:
REMARK  status: ('A' for Active; 'I' for Inactive)
REMARK    1  A    between atoms: C5_5  and  C9_9 
REMARK    2  A    between atoms: C9_9  and  C11_11 
REMARK    3  A    between atoms: C10_10  and  C11_11 
ROOT
HETATM    1  C1  UNL     1     -35.648  13.730  -4.153  1.00 20.00     0.002 C 
HETATM    2  C2  UNL     1     -34.296  14.426  -4.190  1.00 20.00     0.005 C 
HETATM    3  C3  UNL     1     -36.826  14.705  -4.215  1.00 20.00     0.020 C 
HETATM    4  C4  UNL     1     -35.434  16.119  -2.625  1.00 20.00     0.024 C 
HETATM    5  C5  UNL     1     -34.129  15.392  -3.008  1.00 20.00    -0.013 C 
HETATM    6  C6  UNL     1     -36.513  16.119  -3.710  1.00 20.00     0.082 C 
HETATM    7 CL12 UNL     1     -36.040  17.186  -5.071  1.00 20.00    -0.125 Cl
ENDROOT
BRANCH   5   8
HETATM    8  C9  UNL     1     -32.980  16.367  -3.267  1.00 20.00     0.009 C 
BRANCH   8   9
HETATM    9  C11 UNL     1     -33.237  17.786  -2.721  1.00 20.00    -0.019 C 
HETATM   10  C8  UNL     1     -32.960  18.858  -3.780  1.00 20.00     0.010 C 
BRANCH   9  11
HETATM   11  C10 UNL     1     -32.371  17.994  -1.461  1.00 20.00    -0.000 C 
HETATM   12  C7  UNL     1     -33.175  18.315  -0.208  1.00 20.00     0.005 C 
ENDBRANCH   9  11
ENDBRANCH   8   9
ENDBRANCH   5   8
TORSDOF 3
ENDMDL
MODEL 3
REMARK VINA RESULT:      -4.5      0.908      1.342
REMARK  3 active torsions:
REMARK  status: ('A' for Active; 'I' for Inactive)
REMARK    1  A    between atoms: C5_5  and  C9_9 
REMARK    2  A    between atoms: C9_9  and  C11_11 
REMARK    3  A    between atoms: C10_10  and  C11_11 
ROOT
HETATM    1  C1  UNL     1     -33.328  14.924  -3.969  1.00 20.00     0.002 C 
HETATM    2  C2  UNL     1     -33.051  16.367  -3.573  1.00 20.00     0.005 C 
HETATM    3  C3  UNL     1     -34.821  14.617  -4.106  1.00 20.00     0.020 C 
HETATM    4  C4  UNL     1     -35.065  16.035  -2.009  1.00 20.00     0.024 C 
HETATM    5  C5  UNL     1     -33.696  16.713  -2.223  1.00 20.00    -0.013 C 
HETATM    6  C6  UNL     1     -35.739  15.531  -3.286  1.00 20.00     0.082 C 
HETATM    7 CL12 UNL     1     -36.312  16.908  -4.282  1.00 20.00    -0.125 Cl
ENDROOT
BRANCH   5   8
HETATM    8  C9  UNL     1     -33.767  18.228  -2.032  1.00 20.00     0.009 C 
BRANCH   8   9
HETATM    9  C11 UNL     1     -33.020  18.730  -0.780  1.00 20.00    -0.019 C 
HETATM   10  C8  UNL     1     -31.569  18.240  -0.753  1.00 20.00     0.010 C 
BRANCH   9  11
HETATM   11  C10 UNL     1     -33.797  18.277   0.474  1.00 20.00    -0.000 C 
HETATM   12  C7  UNL     1     -32.972  18.306   1.753  1.00 20.00     0.005 C 
ENDBRANCH   9  11
ENDBRANCH   8   9
ENDBRANCH   5   8
TORSDOF 3
ENDMDL
MODEL 4
REMARK VINA RESULT:      -4.5      1.984      5.026
REMARK  3 active torsions:
REMARK  status: ('A' for Active; 'I' for Inactive)
REMARK    1  A    between atoms: C5_5  and  C9_9 
REMARK    2  A    between atoms: C9_9  and  C11_11 
REMARK    3  A    between atoms: C10_10  and  C11_11 
ROOT
HETATM    1  C1  UNL     1     -34.990  16.974  -1.267  1.00 20.00     0.002 C 
HETATM    2  C2  UNL     1     -35.118  15.866  -2.302  1.00 20.00     0.005 C 
HETATM    3  C3  UNL     1     -34.545  18.308  -1.870  1.00 20.00     0.020 C 
HETATM    4  C4  UNL     1     -32.958  16.883  -3.254  1.00 20.00     0.024 C 
HETATM    5  C5  UNL     1     -33.781  15.602  -3.010  1.00 20.00    -0.013 C 
HETATM    6  C6  UNL     1     -33.756  18.186  -3.179  1.00 20.00     0.082 C 
HETATM    7 CL12 UNL     1     -34.849  18.338  -4.592  1.00 20.00    -0.125 Cl
ENDROOT
BRANCH   5   8
HETATM    8  C9  UNL     1     -34.001  14.805  -4.296  1.00 20.00     0.009 C 
BRANCH   8   9
HETATM    9  C11 UNL     1     -35.460  14.823  -4.794  1.00 20.00    -0.019 C 
HETATM   10  C8  UNL     1     -36.162  13.486  -4.534  1.00 20.00     0.010 C 
BRANCH   9  11
HETATM   11  C10 UNL     1     -35.467  15.186  -6.293  1.00 20.00    -0.000 C 
HETATM   12  C7  UNL     1     -34.082  15.215  -6.926  1.00 20.00     0.005 C 
ENDBRANCH   9  11
ENDBRANCH   8   9
ENDBRANCH   5   8
TORSDOF 3
ENDMDL
MODEL 5
REMARK VINA RESULT:      -4.5      1.705      2.638
REMARK  3 active torsions:
REMARK  status: ('A' for Active; 'I' for Inactive)
REMARK    1  A    between atoms: C5_5  and  C9_9 
REMARK    2  A    between atoms: C9_9  and  C11_11 
REMARK    3  A    between atoms: C10_10  and  C11_11 
ROOT
HETATM    1  C1  UNL     1     -34.616  15.683  -6.113  1.00 20.00     0.002 C 
HETATM    2  C2  UNL     1     -34.617  16.402  -4.772  1.00 20.00     0.005 C 
HETATM    3  C3  UNL     1     -35.632  14.541  -6.182  1.00 20.00     0.020 C 
HETATM    4  C4  UNL     1     -34.864  14.029  -3.812  1.00 20.00     0.024 C 
HETATM    5  C5  UNL     1     -34.279  15.444  -3.621  1.00 20.00    -0.013 C 
HETATM    6  C6  UNL     1     -36.008  13.938  -4.823  1.00 20.00     0.082 C 
HETATM    7 CL12 UNL     1     -37.487  14.717  -4.173  1.00 20.00    -0.125 Cl
ENDROOT
BRANCH   5   8
HETATM    8  C9  UNL     1     -34.676  16.054  -2.277  1.00 20.00     0.009 C 
BRANCH   8   9
HETATM    9  C11 UNL     1     -34.143  17.485  -2.065  1.00 20.00    -0.019 C 
HETATM   10  C8  UNL     1     -32.611  17.520  -2.043  1.00 20.00     0.010 C 
BRANCH   9  11
HETATM   11  C10 UNL     1     -34.743  18.048  -0.759  1.00 20.00    -0.000 C 
HETATM   12  C7  UNL     1     -35.493  17.014   0.069  1.00 20.00     0.005 C 
ENDBRANCH   9  11
ENDBRANCH   8   9
ENDBRANCH   5   8
TORSDOF 3
ENDMDL
MODEL 6
REMARK VINA RESULT:      -4.3      1.590      5.259
REMARK  3 active torsions:
REMARK  status: ('A' for Active; 'I' for Inactive)
REMARK    1  A    between atoms: C5_5  and  C9_9 
REMARK    2  A    between atoms: C9_9  and  C11_11 
REMARK    3  A    between atoms: C10_10  and  C11_11 
ROOT
HETATM    1  C1  UNL     1     -34.482  17.472  -0.264  1.00 20.00     0.002 C 
HETATM    2  C2  UNL     1     -35.346  16.954  -1.405  1.00 20.00     0.005 C 
HETATM    3  C3  UNL     1     -33.308  18.328  -0.744  1.00 20.00     0.020 C 
HETATM    4  C4  UNL     1     -33.090  16.582  -2.580  1.00 20.00     0.024 C 
HETATM    5  C5  UNL     1     -34.535  16.082  -2.374  1.00 20.00    -0.013 C 
HETATM    6  C6  UNL     1     -32.849  18.038  -2.178  1.00 20.00     0.082 C 
HETATM    7 CL12 UNL     1     -33.650  19.151  -3.334  1.00 20.00    -0.125 Cl
ENDROOT
BRANCH   5   8
HETATM    8  C9  UNL     1     -35.279  15.911  -3.698  1.00 20.00     0.009 C 
BRANCH   8   9
HETATM    9  C11 UNL     1     -34.877  14.642  -4.475  1.00 20.00    -0.019 C 
HETATM   10  C8  UNL     1     -34.341  14.980  -5.870  1.00 20.00     0.010 C 
BRANCH   9  11
HETATM   11  C10 UNL     1     -36.097  13.700  -4.548  1.00 20.00    -0.000 C 
HETATM   12  C7  UNL     1     -37.428  14.396  -4.302  1.00 20.00     0.005 C 
ENDBRANCH   9  11
ENDBRANCH   8   9
ENDBRANCH   5   8
TORSDOF 3
ENDMDL
MODEL 7
REMARK VINA RESULT:      -4.3      1.689      2.138
REMARK  3 active torsions:
REMARK  status: ('A' for Active; 'I' for Inactive)
REMARK    1  A    between atoms: C5_5  and  C9_9 
REMARK    2  A    between atoms: C9_9  and  C11_11 
REMARK    3  A    between atoms: C10_10  and  C11_11 
ROOT
HETATM    1  C1  UNL     1     -34.552  16.719  -5.804  1.00 20.00     0.002 C 
HETATM    2  C2  UNL     1     -34.882  17.042  -4.354  1.00 20.00     0.005 C 
HETATM    3  C3  UNL     1     -34.223  15.241  -6.028  1.00 20.00     0.020 C 
HETATM    4  C4  UNL     1     -32.939  15.438  -3.842  1.00 20.00     0.024 C 
HETATM    5  C5  UNL     1     -33.709  16.708  -3.423  1.00 20.00    -0.013 C 
HETATM    6  C6  UNL     1     -33.700  14.507  -4.788  1.00 20.00     0.082 C 
HETATM    7 CL12 UNL     1     -35.043  13.692  -3.923  1.00 20.00    -0.125 Cl
ENDROOT
BRANCH   5   8
HETATM    8  C9  UNL     1     -34.176  16.644  -1.968  1.00 20.00     0.009 C 
BRANCH   8   9
HETATM    9  C11 UNL     1     -33.699  17.833  -1.112  1.00 20.00    -0.019 C 
HETATM   10  C8  UNL     1     -34.690  19.000  -1.163  1.00 20.00     0.010 C 
BRANCH   9  11
HETATM   11  C10 UNL     1     -32.296  18.257  -1.593  1.00 20.00    -0.000 C 
HETATM   12  C7  UNL     1     -31.253  18.306  -0.485  1.00 20.00     0.005 C 
ENDBRANCH   9  11
ENDBRANCH   8   9
ENDBRANCH   5   8
TORSDOF 3
ENDMDL
MODEL 8
REMARK VINA RESULT:      -4.3      1.967      2.475
REMARK  3 active torsions:
REMARK  status: ('A' for Active; 'I' for Inactive)
REMARK    1  A    between atoms: C5_5  and  C9_9 
REMARK    2  A    between atoms: C9_9  and  C11_11 
REMARK    3  A    between atoms: C10_10  and  C11_11 
ROOT
HETATM    1  C1  UNL     1     -33.187  14.708  -4.530  1.00 20.00     0.002 C 
HETATM    2  C2  UNL     1     -33.043  15.777  -3.457  1.00 20.00     0.005 C 
HETATM    3  C3  UNL     1     -34.423  14.906  -5.411  1.00 20.00     0.020 C 
HETATM    4  C4  UNL     1     -35.589  15.504  -3.232  1.00 20.00     0.024 C 
HETATM    5  C5  UNL     1     -34.255  15.795  -2.515  1.00 20.00    -0.013 C 
HETATM    6  C6  UNL     1     -35.559  15.695  -4.750  1.00 20.00     0.082 C 
HETATM    7 CL12 UNL     1     -35.444  17.435  -5.164  1.00 20.00    -0.125 Cl
ENDROOT
BRANCH   5   8
HETATM    8  C9  UNL     1     -34.301  17.100  -1.720  1.00 20.00     0.009 C 
BRANCH   8   9
HETATM    9  C11 UNL     1     -35.625  17.318  -0.962  1.00 20.00    -0.019 C 
HETATM   10  C8  UNL     1     -36.280  18.651  -1.339  1.00 20.00     0.010 C 
BRANCH   9  11
HETATM   11  C10 UNL     1     -35.349  17.228   0.553  1.00 20.00    -0.000 C 
HETATM   12  C7  UNL     1     -36.421  17.880   1.414  1.00 20.00     0.005 C 
ENDBRANCH   9  11
ENDBRANCH   8   9
ENDBRANCH   5   8
TORSDOF 3
ENDMDL
MODEL 9
REMARK VINA RESULT:      -4.2      2.004      5.115
REMARK  3 active torsions:
REMARK  status: ('A' for Active; 'I' for Inactive)
REMARK    1  A    between atoms: C5_5  and  C9_9 
REMARK    2  A    between atoms: C9_9  and  C11_11 
REMARK    3  A    between atoms: C10_10  and  C11_11 
ROOT
HETATM    1  C1  UNL     1     -32.730  18.300  -2.195  1.00 20.00     0.002 C 
HETATM    2  C2  UNL     1     -33.024  16.826  -2.432  1.00 20.00     0.005 C 
HETATM    3  C3  UNL     1     -33.764  18.980  -1.294  1.00 20.00     0.020 C 
HETATM    4  C4  UNL     1     -35.460  17.626  -2.619  1.00 20.00     0.024 C 
HETATM    5  C5  UNL     1     -34.390  16.628  -3.105  1.00 20.00    -0.013 C 
HETATM    6  C6  UNL     1     -35.144  18.312  -1.289  1.00 20.00     0.082 C 
HETATM    7 CL12 UNL     1     -35.277  17.148   0.068  1.00 20.00    -0.125 Cl
ENDROOT
BRANCH   5   8
HETATM    8  C9  UNL     1     -34.852  15.176  -2.968  1.00 20.00     0.009 C 
BRANCH   8   9
HETATM    9  C11 UNL     1     -34.729  14.362  -4.272  1.00 20.00    -0.019 C 
HETATM   10  C8  UNL     1     -34.360  15.253  -5.462  1.00 20.00     0.010 C 
BRANCH   9  11
HETATM   11  C10 UNL     1     -36.056  13.612  -4.512  1.00 20.00    -0.000 C 
HETATM   12  C7  UNL     1     -37.294  14.480  -4.337  1.00 20.00     0.005 C 
ENDBRANCH   9  11
ENDBRANCH   8   9
ENDBRANCH   5   8
TORSDOF 3
ENDMDL
