MODEL 1
REMARK VINA RESULT:      -5.9      0.000      0.000
REMARK  2 active torsions:
REMARK  status: ('A' for Active; 'I' for Inactive)
REMARK    1  A    between atoms: C7_7  and  C9_9 
REMARK    2  A    between atoms: C8_8  and  O10_10 
ROOT
HETATM    1  C1  UNL     1     -33.038   8.983   0.385  1.00 20.00     0.012 C 
HETATM    2  C2  UNL     1     -32.650   8.186   1.195  1.00 20.00    -0.117 C 
HETATM    3  C9  UNL     1     -32.164   7.217   2.181  1.00 20.00     0.097 C 
ENDROOT
BRANCH   3   4
HETATM    4  C7  UNL     1     -33.329   6.505   2.867  1.00 20.00    -0.001 C 
HETATM    5  C4  UNL     1     -33.199   4.983   2.715  1.00 20.00     0.005 C 
HETATM    6  C3  UNL     1     -34.323   4.243   3.440  1.00 20.00     0.003 C 
HETATM    7  C5  UNL     1     -34.406   4.646   4.907  1.00 20.00     0.032 C 
HETATM    8  C8  UNL     1     -34.535   6.160   5.067  1.00 20.00     0.118 C 
HETATM    9  C6  UNL     1     -33.409   6.900   4.347  1.00 20.00     0.037 C 
BRANCH   8  10
HETATM   10  O10 UNL     1     -34.519   6.495   6.451  1.00 20.00    -0.396 OA
HETATM   11  H24 UNL     1     -34.989   5.784   6.915  1.00 20.00     0.210 HD
ENDBRANCH   8  10
ENDBRANCH   3   4
TORSDOF 2
ENDMDL
MODEL 2
REMARK VINA RESULT:      -4.8     11.523     12.010
REMARK  2 active torsions:
REMARK  status: ('A' for Active; 'I' for Inactive)
REMARK    1  A    between atoms: C7_7  and  C9_9 
REMARK    2  A    between atoms: C8_8  and  O10_10 
ROOT
HETATM    1  C1  UNL     1     -35.606  17.376   0.450  1.00 20.00     0.012 C 
HETATM    2  C2  UNL     1     -34.890  17.272  -0.508  1.00 20.00    -0.117 C 
HETATM    3  C9  UNL     1     -34.009  17.154  -1.673  1.00 20.00     0.097 C 
ENDROOT
BRANCH   3   4
HETATM    4  C7  UNL     1     -34.339  15.902  -2.484  1.00 20.00    -0.001 C 
HETATM    5  C4  UNL     1     -35.790  15.948  -2.986  1.00 20.00     0.005 C 
HETATM    6  C3  UNL     1     -36.130  14.732  -3.846  1.00 20.00     0.003 C 
HETATM    7  C5  UNL     1     -35.151  14.570  -5.003  1.00 20.00     0.032 C 
HETATM    8  C8  UNL     1     -33.705  14.524  -4.512  1.00 20.00     0.118 C 
HETATM    9  C6  UNL     1     -33.362  15.742  -3.656  1.00 20.00     0.037 C 
BRANCH   8  10
HETATM   10  O10 UNL     1     -32.825  14.463  -5.630  1.00 20.00    -0.396 OA
HETATM   11  H24 UNL     1     -31.924  14.416  -5.272  1.00 20.00     0.210 HD
ENDBRANCH   8  10
ENDBRANCH   3   4
TORSDOF 2
ENDMDL
MODEL 3
REMARK VINA RESULT:      -4.7     10.985     12.243
REMARK  2 active torsions:
REMARK  status: ('A' for Active; 'I' for Inactive)
REMARK    1  A    between atoms: C7_7  and  C9_9 
REMARK    2  A    between atoms: C8_8  and  O10_10 
ROOT
HETATM    1  C1  UNL     1     -33.833  17.802  -0.862  1.00 20.00     0.012 C 
HETATM    2  C2  UNL     1     -33.556  17.190  -1.857  1.00 20.00    -0.117 C 
HETATM    3  C9  UNL     1     -33.206  16.444  -3.068  1.00 20.00     0.097 C 
ENDROOT
BRANCH   3   4
HETATM    4  C7  UNL     1     -34.460  15.982  -3.808  1.00 20.00    -0.001 C 
HETATM    5  C4  UNL     1     -34.436  16.458  -5.268  1.00 20.00     0.005 C 
HETATM    6  C3  UNL     1     -35.654  15.963  -6.045  1.00 20.00     0.003 C 
HETATM    7  C5  UNL     1     -35.797  14.448  -5.961  1.00 20.00     0.032 C 
HETATM    8  C8  UNL     1     -35.823  13.966  -4.512  1.00 20.00     0.118 C 
HETATM    9  C6  UNL     1     -34.602  14.456  -3.734  1.00 20.00     0.037 C 
BRANCH   8  10
HETATM   10  O10 UNL     1     -35.867  12.543  -4.483  1.00 20.00    -0.396 OA
HETATM   11  H24 UNL     1     -36.663  12.280  -4.972  1.00 20.00     0.210 HD
ENDBRANCH   8  10
ENDBRANCH   3   4
TORSDOF 2
ENDMDL
MODEL 4
REMARK VINA RESULT:      -4.7     11.329     12.231
REMARK  2 active torsions:
REMARK  status: ('A' for Active; 'I' for Inactive)
REMARK    1  A    between atoms: C7_7  and  C9_9 
REMARK    2  A    between atoms: C8_8  and  O10_10 
ROOT
HETATM    1  C1  UNL     1     -31.053  18.205  -0.242  1.00 20.00     0.012 C 
HETATM    2  C2  UNL     1     -31.888  18.181  -1.104  1.00 20.00    -0.117 C 
HETATM    3  C9  UNL     1     -32.906  18.163  -2.158  1.00 20.00     0.097 C 
ENDROOT
BRANCH   3   4
HETATM    4  C7  UNL     1     -33.387  16.739  -2.430  1.00 20.00    -0.001 C 
HETATM    5  C4  UNL     1     -34.920  16.663  -2.366  1.00 20.00     0.005 C 
HETATM    6  C3  UNL     1     -35.431  15.260  -2.688  1.00 20.00     0.003 C 
HETATM    7  C5  UNL     1     -34.910  14.767  -4.033  1.00 20.00     0.032 C 
HETATM    8  C8  UNL     1     -33.386  14.839  -4.105  1.00 20.00     0.118 C 
HETATM    9  C6  UNL     1     -32.873  16.243  -3.788  1.00 20.00     0.037 C 
BRANCH   8  10
HETATM   10  O10 UNL     1     -32.952  14.455  -5.406  1.00 20.00    -0.396 OA
HETATM   11  H24 UNL     1     -33.041  15.238  -5.971  1.00 20.00     0.210 HD
ENDBRANCH   8  10
ENDBRANCH   3   4
TORSDOF 2
ENDMDL
MODEL 5
REMARK VINA RESULT:      -4.6      1.217      2.016
REMARK  2 active torsions:
REMARK  status: ('A' for Active; 'I' for Inactive)
REMARK    1  A    between atoms: C7_7  and  C9_9 
REMARK    2  A    between atoms: C8_8  and  O10_10 
ROOT
HETATM    1  C1  UNL     1     -32.903   9.210   1.029  1.00 20.00     0.012 C 
HETATM    2  C2  UNL     1     -32.726   8.041   1.239  1.00 20.00    -0.117 C 
HETATM    3  C9  UNL     1     -32.506   6.613   1.484  1.00 20.00     0.097 C 
ENDROOT
BRANCH   3   4
HETATM    4  C7  UNL     1     -32.762   6.264   2.949  1.00 20.00    -0.001 C 
HETATM    5  C4  UNL     1     -32.794   7.533   3.812  1.00 20.00     0.005 C 
HETATM    6  C3  UNL     1     -33.103   7.217   5.274  1.00 20.00     0.003 C 
HETATM    7  C5  UNL     1     -34.395   6.421   5.416  1.00 20.00     0.032 C 
HETATM    8  C8  UNL     1     -34.371   5.156   4.561  1.00 20.00     0.118 C 
HETATM    9  C6  UNL     1     -34.068   5.471   3.097  1.00 20.00     0.037 C 
BRANCH   8  10
HETATM   10  O10 UNL     1     -35.628   4.493   4.656  1.00 20.00    -0.396 OA
HETATM   11  H24 UNL     1     -35.951   4.378   3.748  1.00 20.00     0.210 HD
ENDBRANCH   8  10
ENDBRANCH   3   4
TORSDOF 2
ENDMDL
MODEL 6
REMARK VINA RESULT:      -4.6     15.081     15.989
REMARK  2 active torsions:
REMARK  status: ('A' for Active; 'I' for Inactive)
REMARK    1  A    between atoms: C7_7  and  C9_9 
REMARK    2  A    between atoms: C8_8  and  O10_10 
ROOT
HETATM    1  C1  UNL     1     -26.149  18.888   7.008  1.00 20.00     0.012 C 
HETATM    2  C2  UNL     1     -25.181  19.000   7.710  1.00 20.00    -0.117 C 
HETATM    3  C9  UNL     1     -23.994  19.142   8.557  1.00 20.00     0.097 C 
ENDROOT
BRANCH   3   4
HETATM    4  C7  UNL     1     -24.280  18.676   9.983  1.00 20.00    -0.001 C 
HETATM    5  C4  UNL     1     -25.633  19.216  10.469  1.00 20.00     0.005 C 
HETATM    6  C3  UNL     1     -25.970  18.720  11.874  1.00 20.00     0.003 C 
HETATM    7  C5  UNL     1     -25.921  17.200  11.959  1.00 20.00     0.032 C 
HETATM    8  C8  UNL     1     -24.578  16.653  11.478  1.00 20.00     0.118 C 
HETATM    9  C6  UNL     1     -24.242  17.145  10.071  1.00 20.00     0.037 C 
BRANCH   8  10
HETATM   10  O10 UNL     1     -24.610  15.230  11.492  1.00 20.00    -0.396 OA
HETATM   11  H24 UNL     1     -25.368  14.974  12.041  1.00 20.00     0.210 HD
ENDBRANCH   8  10
ENDBRANCH   3   4
TORSDOF 2
ENDMDL
MODEL 7
REMARK VINA RESULT:      -4.6     11.386     12.162
REMARK  2 active torsions:
REMARK  status: ('A' for Active; 'I' for Inactive)
REMARK    1  A    between atoms: C7_7  and  C9_9 
REMARK    2  A    between atoms: C8_8  and  O10_10 
ROOT
HETATM    1  C1  UNL     1     -36.247  13.702  -4.498  1.00 20.00     0.012 C 
HETATM    2  C2  UNL     1     -35.202  14.218  -4.210  1.00 20.00    -0.117 C 
HETATM    3  C9  UNL     1     -33.920  14.839  -3.864  1.00 20.00     0.097 C 
ENDROOT
BRANCH   3   4
HETATM    4  C7  UNL     1     -34.133  16.180  -3.165  1.00 20.00    -0.001 C 
HETATM    5  C4  UNL     1     -34.975  16.002  -1.892  1.00 20.00     0.005 C 
HETATM    6  C3  UNL     1     -35.157  17.321  -1.144  1.00 20.00     0.003 C 
HETATM    7  C5  UNL     1     -33.819  17.980  -0.832  1.00 20.00     0.032 C 
HETATM    8  C8  UNL     1     -32.976  18.162  -2.093  1.00 20.00     0.118 C 
HETATM    9  C6  UNL     1     -32.788  16.842  -2.840  1.00 20.00     0.037 C 
BRANCH   8  10
HETATM   10  O10 UNL     1     -31.704  18.697  -1.742  1.00 20.00    -0.396 OA
HETATM   11  H24 UNL     1     -31.866  19.389  -1.081  1.00 20.00     0.210 HD
ENDBRANCH   8  10
ENDBRANCH   3   4
TORSDOF 2
ENDMDL
MODEL 8
REMARK VINA RESULT:      -4.5     11.494     12.119
REMARK  2 active torsions:
REMARK  status: ('A' for Active; 'I' for Inactive)
REMARK    1  A    between atoms: C7_7  and  C9_9 
REMARK    2  A    between atoms: C8_8  and  O10_10 
ROOT
HETATM    1  C1  UNL     1     -35.329  17.094  -0.601  1.00 20.00     0.012 C 
HETATM    2  C2  UNL     1     -34.679  16.652  -1.509  1.00 20.00    -0.117 C 
HETATM    3  C9  UNL     1     -33.876  16.112  -2.609  1.00 20.00     0.097 C 
ENDROOT
BRANCH   3   4
HETATM    4  C7  UNL     1     -34.735  15.881  -3.851  1.00 20.00    -0.001 C 
HETATM    5  C4  UNL     1     -33.895  15.281  -4.988  1.00 20.00     0.005 C 
HETATM    6  C3  UNL     1     -34.742  14.989  -6.225  1.00 20.00     0.003 C 
HETATM    7  C5  UNL     1     -35.934  14.100  -5.893  1.00 20.00     0.032 C 
HETATM    8  C8  UNL     1     -36.776  14.690  -4.762  1.00 20.00     0.118 C 
HETATM    9  C6  UNL     1     -35.930  14.978  -3.522  1.00 20.00     0.037 C 
BRANCH   8  10
HETATM   10  O10 UNL     1     -37.823  13.785  -4.427  1.00 20.00    -0.396 OA
HETATM   11  H24 UNL     1     -37.861  13.127  -5.139  1.00 20.00     0.210 HD
ENDBRANCH   8  10
ENDBRANCH   3   4
TORSDOF 2
ENDMDL
MODEL 9
REMARK VINA RESULT:      -4.5     11.672     12.928
REMARK  2 active torsions:
REMARK  status: ('A' for Active; 'I' for Inactive)
REMARK    1  A    between atoms: C7_7  and  C9_9 
REMARK    2  A    between atoms: C8_8  and  O10_10 
ROOT
HETATM    1  C1  UNL     1     -32.736  17.762  -1.790  1.00 20.00     0.012 C 
HETATM    2  C2  UNL     1     -33.673  17.018  -1.887  1.00 20.00    -0.117 C 
HETATM    3  C9  UNL     1     -34.819  16.110  -1.993  1.00 20.00     0.097 C 
ENDROOT
BRANCH   3   4
HETATM    4  C7  UNL     1     -35.142  15.806  -3.455  1.00 20.00    -0.001 C 
HETATM    5  C4  UNL     1     -35.657  17.064  -4.169  1.00 20.00     0.005 C 
HETATM    6  C3  UNL     1     -35.937  16.802  -5.648  1.00 20.00     0.003 C 
HETATM    7  C5  UNL     1     -34.718  16.225  -6.357  1.00 20.00     0.032 C 
HETATM    8  C8  UNL     1     -34.200  14.972  -5.653  1.00 20.00     0.118 C 
HETATM    9  C6  UNL     1     -33.915  15.234  -4.174  1.00 20.00     0.037 C 
BRANCH   8  10
HETATM   10  O10 UNL     1     -33.012  14.520  -6.296  1.00 20.00    -0.396 OA
HETATM   11  H24 UNL     1     -32.270  14.806  -5.740  1.00 20.00     0.210 HD
ENDBRANCH   8  10
ENDBRANCH   3   4
TORSDOF 2
ENDMDL
