MODEL 1
REMARK VINA RESULT:      -5.0      0.000      0.000
REMARK  2 active torsions:
REMARK  status: ('A' for Active; 'I' for Inactive)
REMARK    1  A    between atoms: C4_4  and  C10_10 
REMARK    2  A    between atoms: C8_8  and  C10_10 
ROOT
HETATM    1  C5  UNL     1     -33.038  15.884  -3.561  1.00 20.00     0.006 C 
HETATM    2  C6  UNL     1     -33.652  14.658  -4.221  1.00 20.00     0.020 C 
HETATM    3  C7  UNL     1     -35.345  15.590  -2.786  1.00 20.00     0.025 C 
HETATM    4  C8  UNL     1     -33.983  16.192  -2.393  1.00 20.00    -0.009 C 
HETATM    5  C9  UNL     1     -35.137  14.985  -4.174  1.00 20.00     0.082 C 
HETATM    6 CL12 UNL     1     -36.149  13.562  -4.455  1.00 20.00    -0.125 Cl
ENDROOT
BRANCH   4   7
HETATM    7  C10 UNL     1     -34.058  17.679  -2.083  1.00 20.00     0.043 C 
BRANCH   7   8
HETATM    8  C4  UNL     1     -33.157  18.058  -0.936  1.00 20.00    -0.051 A 
HETATM    9  C1  UNL     1     -31.751  18.246  -1.059  1.00 20.00     0.014 A 
HETATM   10  C2  UNL     1     -31.167  18.586   0.141  1.00 20.00     0.050 A 
HETATM   11  S11 UNL     1     -32.313  18.680   1.409  1.00 20.00    -0.113 SA
HETATM   12  C3  UNL     1     -33.595  18.263   0.354  1.00 20.00     0.056 A 
ENDBRANCH   7   8
ENDBRANCH   4   7
TORSDOF 2
ENDMDL
MODEL 2
REMARK VINA RESULT:      -4.9      0.607      1.173
REMARK  2 active torsions:
REMARK  status: ('A' for Active; 'I' for Inactive)
REMARK    1  A    between atoms: C4_4  and  C10_10 
REMARK    2  A    between atoms: C8_8  and  C10_10 
ROOT
HETATM    1  C5  UNL     1     -33.052  15.862  -3.551  1.00 20.00     0.006 C 
HETATM    2  C6  UNL     1     -33.686  14.641  -4.203  1.00 20.00     0.020 C 
HETATM    3  C7  UNL     1     -35.372  15.625  -2.795  1.00 20.00     0.025 C 
HETATM    4  C8  UNL     1     -34.002  16.203  -2.397  1.00 20.00    -0.009 C 
HETATM    5  C9  UNL     1     -35.164  14.999  -4.173  1.00 20.00     0.082 C 
HETATM    6 CL12 UNL     1     -36.202  13.593  -4.447  1.00 20.00    -0.125 Cl
ENDROOT
BRANCH   4   7
HETATM    7  C10 UNL     1     -34.049  17.696  -2.105  1.00 20.00     0.043 C 
BRANCH   7   8
HETATM    8  C4  UNL     1     -33.154  18.070  -0.952  1.00 20.00    -0.051 A 
HETATM    9  C1  UNL     1     -33.618  18.272   0.380  1.00 20.00     0.014 A 
HETATM   10  C2  UNL     1     -32.595  18.607   1.239  1.00 20.00     0.050 A 
HETATM   11  S11 UNL     1     -31.081  18.675   0.439  1.00 20.00    -0.113 SA
HETATM   12  C3  UNL     1     -31.794  18.257  -1.060  1.00 20.00     0.056 A 
ENDBRANCH   7   8
ENDBRANCH   4   7
TORSDOF 2
ENDMDL
MODEL 3
REMARK VINA RESULT:      -4.5      1.640      1.935
REMARK  2 active torsions:
REMARK  status: ('A' for Active; 'I' for Inactive)
REMARK    1  A    between atoms: C4_4  and  C10_10 
REMARK    2  A    between atoms: C8_8  and  C10_10 
ROOT
HETATM    1  C5  UNL     1     -33.101  16.046  -3.388  1.00 20.00     0.006 C 
HETATM    2  C6  UNL     1     -33.584  14.800  -4.117  1.00 20.00     0.020 C 
HETATM    3  C7  UNL     1     -35.411  15.544  -2.738  1.00 20.00     0.025 C 
HETATM    4  C8  UNL     1     -34.122  16.236  -2.259  1.00 20.00    -0.009 C 
HETATM    5  C9  UNL     1     -35.091  15.008  -4.133  1.00 20.00     0.082 C 
HETATM    6 CL12 UNL     1     -35.971  13.520  -4.509  1.00 20.00    -0.125 Cl
ENDROOT
BRANCH   4   7
HETATM    7  C10 UNL     1     -34.330  17.701  -1.905  1.00 20.00     0.043 C 
BRANCH   7   8
HETATM    8  C4  UNL     1     -34.731  17.877  -0.463  1.00 20.00    -0.051 A 
HETATM    9  C1  UNL     1     -33.809  18.131   0.592  1.00 20.00     0.014 A 
HETATM   10  C2  UNL     1     -34.438  18.249   1.812  1.00 20.00     0.050 A 
HETATM   11  S11 UNL     1     -36.135  18.056   1.681  1.00 20.00    -0.113 SA
HETATM   12  C3  UNL     1     -36.031  17.812  -0.011  1.00 20.00     0.056 A 
ENDBRANCH   7   8
ENDBRANCH   4   7
TORSDOF 2
ENDMDL
MODEL 4
REMARK VINA RESULT:      -4.4      3.518      5.554
REMARK  2 active torsions:
REMARK  status: ('A' for Active; 'I' for Inactive)
REMARK    1  A    between atoms: C4_4  and  C10_10 
REMARK    2  A    between atoms: C8_8  and  C10_10 
ROOT
HETATM    1  C5  UNL     1     -33.101  17.708  -1.541  1.00 20.00     0.006 C 
HETATM    2  C6  UNL     1     -33.959  18.326  -0.446  1.00 20.00     0.020 C 
HETATM    3  C7  UNL     1     -35.340  16.709  -1.573  1.00 20.00     0.025 C 
HETATM    4  C8  UNL     1     -34.114  17.006  -2.455  1.00 20.00    -0.009 C 
HETATM    5  C9  UNL     1     -34.975  17.226  -0.182  1.00 20.00     0.082 C 
HETATM    6 CL12 UNL     1     -36.381  17.811   0.717  1.00 20.00    -0.125 Cl
ENDROOT
BRANCH   4   7
HETATM    7  C10 UNL     1     -33.537  15.760  -3.111  1.00 20.00     0.043 C 
BRANCH   7   8
HETATM    8  C4  UNL     1     -34.456  15.206  -4.168  1.00 20.00    -0.051 A 
HETATM    9  C1  UNL     1     -35.283  14.061  -3.981  1.00 20.00     0.014 A 
HETATM   10  C2  UNL     1     -36.023  13.768  -5.105  1.00 20.00     0.050 A 
HETATM   11  S11 UNL     1     -35.722  14.873  -6.379  1.00 20.00    -0.113 SA
HETATM   12  C3  UNL     1     -34.598  15.746  -5.428  1.00 20.00     0.056 A 
ENDBRANCH   7   8
ENDBRANCH   4   7
TORSDOF 2
ENDMDL
MODEL 5
REMARK VINA RESULT:      -4.3      3.734      5.482
REMARK  2 active torsions:
REMARK  status: ('A' for Active; 'I' for Inactive)
REMARK    1  A    between atoms: C4_4  and  C10_10 
REMARK    2  A    between atoms: C8_8  and  C10_10 
ROOT
HETATM    1  C5  UNL     1     -36.675  18.079  -1.026  1.00 20.00     0.006 C 
HETATM    2  C6  UNL     1     -37.401  18.278   0.297  1.00 20.00     0.020 C 
HETATM    3  C7  UNL     1     -35.308  17.206   0.813  1.00 20.00     0.025 C 
HETATM    4  C8  UNL     1     -35.573  17.064  -0.697  1.00 20.00    -0.009 C 
HETATM    5  C9  UNL     1     -36.247  18.315   1.288  1.00 20.00     0.082 C 
HETATM    6 CL12 UNL     1     -36.785  18.082   2.957  1.00 20.00    -0.125 Cl
ENDROOT
BRANCH   4   7
HETATM    7  C10 UNL     1     -34.324  17.270  -1.542  1.00 20.00     0.043 C 
BRANCH   7   8
HETATM    8  C4  UNL     1     -34.173  16.197  -2.588  1.00 20.00    -0.051 A 
HETATM    9  C1  UNL     1     -35.187  15.248  -2.906  1.00 20.00     0.014 A 
HETATM   10  C2  UNL     1     -34.790  14.378  -3.897  1.00 20.00     0.050 A 
HETATM   11  S11 UNL     1     -33.201  14.708  -4.442  1.00 20.00    -0.113 SA
HETATM   12  C3  UNL     1     -33.039  16.016  -3.351  1.00 20.00     0.056 A 
ENDBRANCH   7   8
ENDBRANCH   4   7
TORSDOF 2
ENDMDL
MODEL 6
REMARK VINA RESULT:      -4.3      1.527      2.353
REMARK  2 active torsions:
REMARK  status: ('A' for Active; 'I' for Inactive)
REMARK    1  A    between atoms: C4_4  and  C10_10 
REMARK    2  A    between atoms: C8_8  and  C10_10 
ROOT
HETATM    1  C5  UNL     1     -34.870  14.504  -3.602  1.00 20.00     0.006 C 
HETATM    2  C6  UNL     1     -35.684  14.169  -4.844  1.00 20.00     0.020 C 
HETATM    3  C7  UNL     1     -34.521  16.222  -5.315  1.00 20.00     0.025 C 
HETATM    4  C8  UNL     1     -34.484  15.975  -3.796  1.00 20.00    -0.009 C 
HETATM    5  C9  UNL     1     -34.900  14.879  -5.936  1.00 20.00     0.082 C 
HETATM    6 CL12 UNL     1     -35.834  15.058  -7.428  1.00 20.00    -0.125 Cl
ENDROOT
BRANCH   4   7
HETATM    7  C10 UNL     1     -33.137  16.309  -3.172  1.00 20.00     0.043 C 
BRANCH   7   8
HETATM    8  C4  UNL     1     -33.281  17.226  -1.986  1.00 20.00    -0.051 A 
HETATM    9  C1  UNL     1     -34.437  17.276  -1.156  1.00 20.00     0.014 A 
HETATM   10  C2  UNL     1     -34.309  18.201  -0.144  1.00 20.00     0.050 A 
HETATM   11  S11 UNL     1     -32.797  19.005  -0.196  1.00 20.00    -0.113 SA
HETATM   12  C3  UNL     1     -32.312  18.115  -1.576  1.00 20.00     0.056 A 
ENDBRANCH   7   8
ENDBRANCH   4   7
TORSDOF 2
ENDMDL
MODEL 7
REMARK VINA RESULT:      -4.2      3.701      5.656
REMARK  2 active torsions:
REMARK  status: ('A' for Active; 'I' for Inactive)
REMARK    1  A    between atoms: C4_4  and  C10_10 
REMARK    2  A    between atoms: C8_8  and  C10_10 
ROOT
HETATM    1  C5  UNL     1     -34.858  17.751  -0.172  1.00 20.00     0.006 C 
HETATM    2  C6  UNL     1     -33.650  18.187   0.645  1.00 20.00     0.020 C 
HETATM    3  C7  UNL     1     -32.846  17.707  -1.573  1.00 20.00     0.025 C 
HETATM    4  C8  UNL     1     -34.248  17.091  -1.416  1.00 20.00    -0.009 C 
HETATM    5  C9  UNL     1     -32.715  18.716  -0.432  1.00 20.00     0.082 C 
HETATM    6 CL12 UNL     1     -31.051  18.880   0.143  1.00 20.00    -0.125 Cl
ENDROOT
BRANCH   4   7
HETATM    7  C10 UNL     1     -35.118  17.268  -2.651  1.00 20.00     0.043 C 
BRANCH   7   8
HETATM    8  C4  UNL     1     -35.411  15.952  -3.323  1.00 20.00    -0.051 A 
HETATM    9  C1  UNL     1     -34.458  14.903  -3.465  1.00 20.00     0.014 A 
HETATM   10  C2  UNL     1     -34.984  13.810  -4.118  1.00 20.00     0.050 A 
HETATM   11  S11 UNL     1     -36.622  14.051  -4.557  1.00 20.00    -0.113 SA
HETATM   12  C3  UNL     1     -36.630  15.621  -3.873  1.00 20.00     0.056 A 
ENDBRANCH   7   8
ENDBRANCH   4   7
TORSDOF 2
ENDMDL
MODEL 8
REMARK VINA RESULT:      -4.2      3.772      5.724
REMARK  2 active torsions:
REMARK  status: ('A' for Active; 'I' for Inactive)
REMARK    1  A    between atoms: C4_4  and  C10_10 
REMARK    2  A    between atoms: C8_8  and  C10_10 
ROOT
HETATM    1  C5  UNL     1     -34.110  18.207  -0.383  1.00 20.00     0.006 C 
HETATM    2  C6  UNL     1     -33.167  18.519   0.771  1.00 20.00     0.020 C 
HETATM    3  C7  UNL     1     -31.790  18.199  -1.177  1.00 20.00     0.025 C 
HETATM    4  C8  UNL     1     -33.192  17.632  -1.469  1.00 20.00    -0.009 C 
HETATM    5  C9  UNL     1     -31.962  19.099   0.046  1.00 20.00     0.082 C 
HETATM    6 CL12 UNL     1     -30.518  19.141   1.067  1.00 20.00    -0.125 Cl
ENDROOT
BRANCH   4   7
HETATM    7  C10 UNL     1     -33.683  17.951  -2.873  1.00 20.00     0.043 C 
BRANCH   7   8
HETATM    8  C4  UNL     1     -34.121  16.712  -3.609  1.00 20.00    -0.051 A 
HETATM    9  C1  UNL     1     -34.358  15.457  -2.979  1.00 20.00     0.014 A 
HETATM   10  C2  UNL     1     -34.748  14.491  -3.880  1.00 20.00     0.050 A 
HETATM   11  S11 UNL     1     -34.828  15.099  -5.479  1.00 20.00    -0.113 SA
HETATM   12  C3  UNL     1     -34.340  16.659  -4.968  1.00 20.00     0.056 A 
ENDBRANCH   7   8
ENDBRANCH   4   7
TORSDOF 2
ENDMDL
MODEL 9
REMARK VINA RESULT:      -4.2      2.430      3.730
REMARK  2 active torsions:
REMARK  status: ('A' for Active; 'I' for Inactive)
REMARK    1  A    between atoms: C4_4  and  C10_10 
REMARK    2  A    between atoms: C8_8  and  C10_10 
ROOT
HETATM    1  C5  UNL     1     -35.559  15.812  -5.581  1.00 20.00     0.006 C 
HETATM    2  C6  UNL     1     -36.990  16.217  -5.905  1.00 20.00     0.020 C 
HETATM    3  C7  UNL     1     -37.127  14.371  -4.367  1.00 20.00     0.025 C 
HETATM    4  C8  UNL     1     -35.701  14.424  -4.942  1.00 20.00    -0.009 C 
HETATM    5  C9  UNL     1     -37.741  15.737  -4.672  1.00 20.00     0.082 C 
HETATM    6 CL12 UNL     1     -39.488  15.655  -4.937  1.00 20.00    -0.125 Cl
ENDROOT
BRANCH   4   7
HETATM    7  C10 UNL     1     -34.627  14.155  -3.898  1.00 20.00     0.043 C 
BRANCH   7   8
HETATM    8  C4  UNL     1     -34.253  15.403  -3.143  1.00 20.00    -0.051 A 
HETATM    9  C1  UNL     1     -35.048  15.973  -2.108  1.00 20.00     0.014 A 
HETATM   10  C2  UNL     1     -34.477  17.113  -1.585  1.00 20.00     0.050 A 
HETATM   11  S11 UNL     1     -32.988  17.490  -2.341  1.00 20.00    -0.113 SA
HETATM   12  C3  UNL     1     -33.104  16.128  -3.372  1.00 20.00     0.056 A 
ENDBRANCH   7   8
ENDBRANCH   4   7
TORSDOF 2
ENDMDL
