MODEL 1
REMARK VINA RESULT:      -5.3      0.000      0.000
REMARK  6 active torsions:
REMARK  status: ('A' for Active; 'I' for Inactive)
REMARK    1  A    between atoms: C4_4  and  C6_6 
REMARK    2  A    between atoms: C5_5  and  C9_9 
REMARK    3  A    between atoms: C6_6  and  C7_7 
REMARK    4  A    between atoms: C7_7  and  C8_8 
REMARK    5  A    between atoms: C8_8  and  C9_9 
REMARK    6  A    between atoms: C9_9  and  O10_10 
ROOT
HETATM    1  C1  UNL     1     -33.207   8.711  -0.120  1.00 20.00     0.012 C 
HETATM    2  C2  UNL     1     -32.923   8.363   0.993  1.00 20.00    -0.117 C 
HETATM    3  C4  UNL     1     -32.576   7.939   2.357  1.00 20.00     0.093 C 
ENDROOT
BRANCH   3   4
HETATM    4  C6  UNL     1     -32.167   6.465   2.386  1.00 20.00     0.012 C 
BRANCH   4   5
HETATM    5  C7  UNL     1     -33.347   5.510   2.592  1.00 20.00     0.003 C 
BRANCH   5   6
HETATM    6  C8  UNL     1     -34.418   6.063   3.540  1.00 20.00     0.032 C 
BRANCH   6   7
HETATM    7  C9  UNL     1     -34.985   4.977   4.465  1.00 20.00     0.117 C 
BRANCH   7   8
HETATM    8  C5  UNL     1     -34.756   5.332   5.939  1.00 20.00     0.027 C 
HETATM    9  C3  UNL     1     -34.035   6.662   6.109  1.00 20.00     0.007 C 
ENDBRANCH   7   8
BRANCH   7  10
HETATM   10  O10 UNL     1     -34.366   3.728   4.171  1.00 20.00    -0.396 OA
HETATM   11  H26 UNL     1     -34.991   3.233   3.621  1.00 20.00     0.210 HD
ENDBRANCH   7  10
ENDBRANCH   6   7
ENDBRANCH   5   6
ENDBRANCH   4   5
ENDBRANCH   3   4
TORSDOF 6
ENDMDL
MODEL 2
REMARK VINA RESULT:      -5.3      1.664      4.692
REMARK  6 active torsions:
REMARK  status: ('A' for Active; 'I' for Inactive)
REMARK    1  A    between atoms: C4_4  and  C6_6 
REMARK    2  A    between atoms: C5_5  and  C9_9 
REMARK    3  A    between atoms: C6_6  and  C7_7 
REMARK    4  A    between atoms: C7_7  and  C8_8 
REMARK    5  A    between atoms: C8_8  and  C9_9 
REMARK    6  A    between atoms: C9_9  and  O10_10 
ROOT
HETATM    1  C1  UNL     1     -33.673   7.236   6.185  1.00 20.00     0.012 C 
HETATM    2  C2  UNL     1     -34.240   6.217   5.897  1.00 20.00    -0.117 C 
HETATM    3  C4  UNL     1     -34.935   4.970   5.546  1.00 20.00     0.093 C 
ENDROOT
BRANCH   3   4
HETATM    4  C6  UNL     1     -34.368   4.369   4.259  1.00 20.00     0.012 C 
BRANCH   4   5
HETATM    5  C7  UNL     1     -34.363   5.348   3.081  1.00 20.00     0.003 C 
BRANCH   5   6
HETATM    6  C8  UNL     1     -32.955   5.675   2.568  1.00 20.00     0.032 C 
BRANCH   6   7
HETATM    7  C9  UNL     1     -32.692   7.186   2.529  1.00 20.00     0.117 C 
BRANCH   7   8
HETATM    8  C5  UNL     1     -32.368   7.654   1.104  1.00 20.00     0.027 C 
HETATM    9  C3  UNL     1     -32.953   9.027   0.800  1.00 20.00     0.007 C 
ENDBRANCH   7   8
BRANCH   7  10
HETATM   10  O10 UNL     1     -31.605   7.504   3.395  1.00 20.00    -0.396 OA
HETATM   11  H26 UNL     1     -30.800   7.454   2.858  1.00 20.00     0.210 HD
ENDBRANCH   7  10
ENDBRANCH   6   7
ENDBRANCH   5   6
ENDBRANCH   4   5
ENDBRANCH   3   4
TORSDOF 6
ENDMDL
MODEL 3
REMARK VINA RESULT:      -4.3      1.357      2.114
REMARK  6 active torsions:
REMARK  status: ('A' for Active; 'I' for Inactive)
REMARK    1  A    between atoms: C4_4  and  C6_6 
REMARK    2  A    between atoms: C5_5  and  C9_9 
REMARK    3  A    between atoms: C6_6  and  C7_7 
REMARK    4  A    between atoms: C7_7  and  C8_8 
REMARK    5  A    between atoms: C8_8  and  C9_9 
REMARK    6  A    between atoms: C9_9  and  O10_10 
ROOT
HETATM    1  C1  UNL     1     -32.941   8.872   0.515  1.00 20.00     0.012 C 
HETATM    2  C2  UNL     1     -32.650   8.003   1.290  1.00 20.00    -0.117 C 
HETATM    3  C4  UNL     1     -32.293   6.938   2.238  1.00 20.00     0.093 C 
ENDROOT
BRANCH   3   4
HETATM    4  C6  UNL     1     -32.364   7.441   3.681  1.00 20.00     0.012 C 
BRANCH   4   5
HETATM    5  C7  UNL     1     -33.761   7.324   4.299  1.00 20.00     0.003 C 
BRANCH   5   6
HETATM    6  C8  UNL     1     -33.759   6.668   5.685  1.00 20.00     0.032 C 
BRANCH   6   7
HETATM    7  C9  UNL     1     -34.405   5.276   5.665  1.00 20.00     0.117 C 
BRANCH   7   8
HETATM    8  C5  UNL     1     -34.942   4.935   4.269  1.00 20.00     0.027 C 
HETATM    9  C3  UNL     1     -34.065   3.924   3.543  1.00 20.00     0.007 C 
ENDBRANCH   7   8
BRANCH   7  10
HETATM   10  O10 UNL     1     -35.470   5.230   6.612  1.00 20.00    -0.396 OA
HETATM   11  H26 UNL     1     -36.293   5.297   6.105  1.00 20.00     0.210 HD
ENDBRANCH   7  10
ENDBRANCH   6   7
ENDBRANCH   5   6
ENDBRANCH   4   5
ENDBRANCH   3   4
TORSDOF 6
ENDMDL
MODEL 4
REMARK VINA RESULT:      -4.3     10.795     12.007
REMARK  6 active torsions:
REMARK  status: ('A' for Active; 'I' for Inactive)
REMARK    1  A    between atoms: C4_4  and  C6_6 
REMARK    2  A    between atoms: C5_5  and  C9_9 
REMARK    3  A    between atoms: C6_6  and  C7_7 
REMARK    4  A    between atoms: C7_7  and  C8_8 
REMARK    5  A    between atoms: C8_8  and  C9_9 
REMARK    6  A    between atoms: C9_9  and  O10_10 
ROOT
HETATM    1  C1  UNL     1     -30.997  18.407   0.192  1.00 20.00     0.012 C 
HETATM    2  C2  UNL     1     -31.694  18.214  -0.766  1.00 20.00    -0.117 C 
HETATM    3  C4  UNL     1     -32.547  17.978  -1.940  1.00 20.00     0.093 C 
ENDROOT
BRANCH   3   4
HETATM    4  C6  UNL     1     -33.895  17.385  -1.529  1.00 20.00     0.012 C 
BRANCH   4   5
HETATM    5  C7  UNL     1     -34.307  16.169  -2.365  1.00 20.00     0.003 C 
BRANCH   5   6
HETATM    6  C8  UNL     1     -33.262  15.771  -3.415  1.00 20.00     0.032 C 
BRANCH   6   7
HETATM    7  C9  UNL     1     -33.802  14.723  -4.397  1.00 20.00     0.117 C 
BRANCH   7   8
HETATM    8  C5  UNL     1     -34.963  13.933  -3.780  1.00 20.00     0.027 C 
HETATM    9  C3  UNL     1     -36.171  13.865  -4.704  1.00 20.00     0.007 C 
ENDBRANCH   7   8
BRANCH   7  10
HETATM   10  O10 UNL     1     -32.755  13.827  -4.763  1.00 20.00    -0.396 OA
HETATM   11  H26 UNL     1     -32.937  12.990  -4.310  1.00 20.00     0.210 HD
ENDBRANCH   7  10
ENDBRANCH   6   7
ENDBRANCH   5   6
ENDBRANCH   4   5
ENDBRANCH   3   4
TORSDOF 6
ENDMDL
MODEL 5
REMARK VINA RESULT:      -4.3     11.472     12.376
REMARK  6 active torsions:
REMARK  status: ('A' for Active; 'I' for Inactive)
REMARK    1  A    between atoms: C4_4  and  C6_6 
REMARK    2  A    between atoms: C5_5  and  C9_9 
REMARK    3  A    between atoms: C6_6  and  C7_7 
REMARK    4  A    between atoms: C7_7  and  C8_8 
REMARK    5  A    between atoms: C8_8  and  C9_9 
REMARK    6  A    between atoms: C9_9  and  O10_10 
ROOT
HETATM    1  C1  UNL     1     -31.817  18.182  -0.937  1.00 20.00     0.012 C 
HETATM    2  C2  UNL     1     -32.926  17.889  -1.293  1.00 20.00    -0.117 C 
HETATM    3  C4  UNL     1     -34.284  17.533  -1.728  1.00 20.00     0.093 C 
ENDROOT
BRANCH   3   4
HETATM    4  C6  UNL     1     -34.318  16.124  -2.321  1.00 20.00     0.012 C 
BRANCH   4   5
HETATM    5  C7  UNL     1     -33.239  15.883  -3.381  1.00 20.00     0.003 C 
BRANCH   5   6
HETATM    6  C8  UNL     1     -33.524  14.669  -4.274  1.00 20.00     0.032 C 
BRANCH   6   7
HETATM    7  C9  UNL     1     -34.109  15.078  -5.633  1.00 20.00     0.117 C 
BRANCH   7   8
HETATM    8  C5  UNL     1     -35.557  14.593  -5.779  1.00 20.00     0.027 C 
HETATM    9  C3  UNL     1     -35.977  13.672  -4.642  1.00 20.00     0.007 C 
ENDBRANCH   7   8
BRANCH   7  10
HETATM   10  O10 UNL     1     -33.312  14.530  -6.680  1.00 20.00    -0.396 OA
HETATM   11  H26 UNL     1     -32.667  13.943  -6.258  1.00 20.00     0.210 HD
ENDBRANCH   7  10
ENDBRANCH   6   7
ENDBRANCH   5   6
ENDBRANCH   4   5
ENDBRANCH   3   4
TORSDOF 6
ENDMDL
MODEL 6
REMARK VINA RESULT:      -4.1     11.004     12.396
REMARK  6 active torsions:
REMARK  status: ('A' for Active; 'I' for Inactive)
REMARK    1  A    between atoms: C4_4  and  C6_6 
REMARK    2  A    between atoms: C5_5  and  C9_9 
REMARK    3  A    between atoms: C6_6  and  C7_7 
REMARK    4  A    between atoms: C7_7  and  C8_8 
REMARK    5  A    between atoms: C8_8  and  C9_9 
REMARK    6  A    between atoms: C9_9  and  O10_10 
ROOT
HETATM    1  C1  UNL     1     -35.172  16.538  -1.579  1.00 20.00     0.012 C 
HETATM    2  C2  UNL     1     -34.261  16.294  -2.322  1.00 20.00    -0.117 C 
HETATM    3  C4  UNL     1     -33.146  15.995  -3.232  1.00 20.00     0.093 C 
ENDROOT
BRANCH   3   4
HETATM    4  C6  UNL     1     -33.573  15.008  -4.319  1.00 20.00     0.012 C 
BRANCH   4   5
HETATM    5  C7  UNL     1     -34.559  13.945  -3.822  1.00 20.00     0.003 C 
BRANCH   5   6
HETATM    6  C8  UNL     1     -35.886  13.942  -4.591  1.00 20.00     0.032 C 
BRANCH   6   7
HETATM    7  C9  UNL     1     -35.813  14.785  -5.872  1.00 20.00     0.117 C 
BRANCH   7   8
HETATM    8  C5  UNL     1     -36.929  15.836  -5.906  1.00 20.00     0.027 C 
HETATM    9  C3  UNL     1     -36.549  17.108  -5.162  1.00 20.00     0.007 C 
ENDBRANCH   7   8
BRANCH   7  10
HETATM   10  O10 UNL     1     -35.921  13.935  -7.010  1.00 20.00    -0.396 OA
HETATM   11  H26 UNL     1     -36.604  13.280  -6.803  1.00 20.00     0.210 HD
ENDBRANCH   7  10
ENDBRANCH   6   7
ENDBRANCH   5   6
ENDBRANCH   4   5
ENDBRANCH   3   4
TORSDOF 6
ENDMDL
MODEL 7
REMARK VINA RESULT:      -4.1     11.342     12.953
REMARK  6 active torsions:
REMARK  status: ('A' for Active; 'I' for Inactive)
REMARK    1  A    between atoms: C4_4  and  C6_6 
REMARK    2  A    between atoms: C5_5  and  C9_9 
REMARK    3  A    between atoms: C6_6  and  C7_7 
REMARK    4  A    between atoms: C7_7  and  C8_8 
REMARK    5  A    between atoms: C8_8  and  C9_9 
REMARK    6  A    between atoms: C9_9  and  O10_10 
ROOT
HETATM    1  C1  UNL     1     -32.885  17.450  -2.168  1.00 20.00     0.012 C 
HETATM    2  C2  UNL     1     -33.802  16.687  -2.305  1.00 20.00    -0.117 C 
HETATM    3  C4  UNL     1     -34.925  15.754  -2.472  1.00 20.00     0.093 C 
ENDROOT
BRANCH   3   4
HETATM    4  C6  UNL     1     -34.601  14.686  -3.518  1.00 20.00     0.012 C 
BRANCH   4   5
HETATM    5  C7  UNL     1     -35.786  14.343  -4.426  1.00 20.00     0.003 C 
BRANCH   5   6
HETATM    6  C8  UNL     1     -35.489  14.547  -5.917  1.00 20.00     0.032 C 
BRANCH   6   7
HETATM    7  C9  UNL     1     -34.190  15.333  -6.143  1.00 20.00     0.117 C 
BRANCH   7   8
HETATM    8  C5  UNL     1     -34.470  16.677  -6.827  1.00 20.00     0.027 C 
HETATM    9  C3  UNL     1     -34.496  17.835  -5.838  1.00 20.00     0.007 C 
ENDBRANCH   7   8
BRANCH   7  10
HETATM   10  O10 UNL     1     -33.300  14.564  -6.947  1.00 20.00    -0.396 OA
HETATM   11  H26 UNL     1     -32.886  15.180  -7.569  1.00 20.00     0.210 HD
ENDBRANCH   7  10
ENDBRANCH   6   7
ENDBRANCH   5   6
ENDBRANCH   4   5
ENDBRANCH   3   4
TORSDOF 6
ENDMDL
MODEL 8
REMARK VINA RESULT:      -4.0     11.010     11.795
REMARK  6 active torsions:
REMARK  status: ('A' for Active; 'I' for Inactive)
REMARK    1  A    between atoms: C4_4  and  C6_6 
REMARK    2  A    between atoms: C5_5  and  C9_9 
REMARK    3  A    between atoms: C6_6  and  C7_7 
REMARK    4  A    between atoms: C7_7  and  C8_8 
REMARK    5  A    between atoms: C8_8  and  C9_9 
REMARK    6  A    between atoms: C9_9  and  O10_10 
ROOT
HETATM    1  C1  UNL     1     -33.223  18.221  -0.996  1.00 20.00     0.012 C 
HETATM    2  C2  UNL     1     -33.749  17.317  -1.586  1.00 20.00    -0.117 C 
HETATM    3  C4  UNL     1     -34.395  16.211  -2.308  1.00 20.00     0.093 C 
ENDROOT
BRANCH   3   4
HETATM    4  C6  UNL     1     -33.480  15.662  -3.403  1.00 20.00     0.012 C 
BRANCH   4   5
HETATM    5  C7  UNL     1     -34.012  14.382  -4.056  1.00 20.00     0.003 C 
BRANCH   5   6
HETATM    6  C8  UNL     1     -35.060  14.645  -5.145  1.00 20.00     0.032 C 
BRANCH   6   7
HETATM    7  C9  UNL     1     -36.293  13.745  -4.987  1.00 20.00     0.117 C 
BRANCH   7   8
HETATM    8  C5  UNL     1     -37.421  14.478  -4.250  1.00 20.00     0.027 C 
HETATM    9  C3  UNL     1     -37.439  15.969  -4.557  1.00 20.00     0.007 C 
ENDBRANCH   7   8
BRANCH   7  10
HETATM   10  O10 UNL     1     -35.937  12.568  -4.267  1.00 20.00    -0.396 OA
HETATM   11  H26 UNL     1     -36.767  12.137  -4.015  1.00 20.00     0.210 HD
ENDBRANCH   7  10
ENDBRANCH   6   7
ENDBRANCH   5   6
ENDBRANCH   4   5
ENDBRANCH   3   4
TORSDOF 6
ENDMDL
MODEL 9
REMARK VINA RESULT:      -4.0     10.794     12.099
REMARK  6 active torsions:
REMARK  status: ('A' for Active; 'I' for Inactive)
REMARK    1  A    between atoms: C4_4  and  C6_6 
REMARK    2  A    between atoms: C5_5  and  C9_9 
REMARK    3  A    between atoms: C6_6  and  C7_7 
REMARK    4  A    between atoms: C7_7  and  C8_8 
REMARK    5  A    between atoms: C8_8  and  C9_9 
REMARK    6  A    between atoms: C9_9  and  O10_10 
ROOT
HETATM    1  C1  UNL     1     -35.081  17.396   0.175  1.00 20.00     0.012 C 
HETATM    2  C2  UNL     1     -35.199  16.868  -0.896  1.00 20.00    -0.117 C 
HETATM    3  C4  UNL     1     -35.344  16.222  -2.209  1.00 20.00     0.093 C 
ENDROOT
BRANCH   3   4
HETATM    4  C6  UNL     1     -33.980  15.865  -2.799  1.00 20.00     0.012 C 
BRANCH   4   5
HETATM    5  C7  UNL     1     -34.065  14.926  -4.007  1.00 20.00     0.003 C 
BRANCH   5   6
HETATM    6  C8  UNL     1     -35.132  13.835  -3.854  1.00 20.00     0.032 C 
BRANCH   6   7
HETATM    7  C9  UNL     1     -36.153  13.863  -4.999  1.00 20.00     0.117 C 
BRANCH   7   8
HETATM    8  C5  UNL     1     -36.073  15.181  -5.779  1.00 20.00     0.027 C 
HETATM    9  C3  UNL     1     -35.727  14.965  -7.246  1.00 20.00     0.007 C 
ENDBRANCH   7   8
BRANCH   7  10
HETATM   10  O10 UNL     1     -37.467  13.699  -4.472  1.00 20.00    -0.396 OA
HETATM   11  H26 UNL     1     -37.500  12.810  -4.087  1.00 20.00     0.210 HD
ENDBRANCH   7  10
ENDBRANCH   6   7
ENDBRANCH   5   6
ENDBRANCH   4   5
ENDBRANCH   3   4
TORSDOF 6
ENDMDL
