MODEL 1
REMARK VINA RESULT:      -6.0      0.000      0.000
REMARK  1 active torsions:
REMARK  status: ('A' for Active; 'I' for Inactive)
REMARK    1  A    between atoms: C7_7  and  C8_8 
ROOT
HETATM    1  C1  UNL     1     -32.896   8.721   0.467  1.00 20.00     0.012 C 
HETATM    2  C2  UNL     1     -32.629   8.028   1.409  1.00 20.00    -0.117 C 
HETATM    3  C8  UNL     1     -32.298   7.180   2.561  1.00 20.00     0.098 C 
ENDROOT
BRANCH   3   4
HETATM    4  C7  UNL     1     -33.548   6.586   3.187  1.00 20.00     0.004 C 
HETATM    5  C5  UNL     1     -33.625   6.818   4.698  1.00 20.00     0.083 C 
HETATM    6  C3  UNL     1     -34.492   5.668   5.141  1.00 20.00     0.127 C 
HETATM    7  C4  UNL     1     -34.674   4.639   4.057  1.00 20.00     0.079 C 
HETATM    8  O9  UNL     1     -34.992   5.582   6.256  1.00 20.00    -0.298 OA
HETATM    9  C6  UNL     1     -33.618   5.064   3.044  1.00 20.00     0.013 C 
ENDBRANCH   3   4
TORSDOF 1
ENDMDL
MODEL 2
REMARK VINA RESULT:      -4.8     10.871     11.642
REMARK  1 active torsions:
REMARK  status: ('A' for Active; 'I' for Inactive)
REMARK    1  A    between atoms: C7_7  and  C8_8 
ROOT
HETATM    1  C1  UNL     1     -33.245  18.059  -1.005  1.00 20.00     0.012 C 
HETATM    2  C2  UNL     1     -33.251  17.319  -1.949  1.00 20.00    -0.117 C 
HETATM    3  C8  UNL     1     -33.256  16.416  -3.107  1.00 20.00     0.098 C 
ENDROOT
BRANCH   3   4
HETATM    4  C7  UNL     1     -34.431  15.455  -3.053  1.00 20.00     0.004 C 
HETATM    5  C5  UNL     1     -34.214  14.202  -3.905  1.00 20.00     0.083 C 
HETATM    6  C3  UNL     1     -35.632  13.790  -4.210  1.00 20.00     0.127 C 
HETATM    7  C4  UNL     1     -36.628  14.861  -3.851  1.00 20.00     0.079 C 
HETATM    8  O9  UNL     1     -35.938  12.707  -4.693  1.00 20.00    -0.298 OA
HETATM    9  C6  UNL     1     -35.720  16.062  -3.610  1.00 20.00     0.013 C 
ENDBRANCH   3   4
TORSDOF 1
ENDMDL
MODEL 3
REMARK VINA RESULT:      -4.6     15.921     16.986
REMARK  1 active torsions:
REMARK  status: ('A' for Active; 'I' for Inactive)
REMARK    1  A    between atoms: C7_7  and  C8_8 
ROOT
HETATM    1  C1  UNL     1     -24.613  15.788  11.638  1.00 20.00     0.012 C 
HETATM    2  C2  UNL     1     -23.797  16.668  11.611  1.00 20.00    -0.117 C 
HETATM    3  C8  UNL     1     -22.799  17.744  11.582  1.00 20.00     0.098 C 
ENDROOT
BRANCH   3   4
HETATM    4  C7  UNL     1     -22.474  18.158  10.156  1.00 20.00     0.004 C 
HETATM    5  C5  UNL     1     -23.709  18.608   9.372  1.00 20.00     0.083 C 
HETATM    6  C3  UNL     1     -23.289  18.328   7.952  1.00 20.00     0.127 C 
HETATM    7  C4  UNL     1     -22.040  17.490   7.880  1.00 20.00     0.079 C 
HETATM    8  O9  UNL     1     -23.894  18.739   6.969  1.00 20.00    -0.298 OA
HETATM    9  C6  UNL     1     -21.905  17.010   9.320  1.00 20.00     0.013 C 
ENDBRANCH   3   4
TORSDOF 1
ENDMDL
MODEL 4
REMARK VINA RESULT:      -4.5     11.205     12.009
REMARK  1 active torsions:
REMARK  status: ('A' for Active; 'I' for Inactive)
REMARK    1  A    between atoms: C7_7  and  C8_8 
ROOT
HETATM    1  C1  UNL     1     -31.490  18.296  -0.744  1.00 20.00     0.012 C 
HETATM    2  C2  UNL     1     -32.573  18.042  -1.193  1.00 20.00    -0.117 C 
HETATM    3  C8  UNL     1     -33.900  17.735  -1.742  1.00 20.00     0.098 C 
ENDROOT
BRANCH   3   4
HETATM    4  C7  UNL     1     -33.974  16.302  -2.239  1.00 20.00     0.004 C 
HETATM    5  C5  UNL     1     -33.097  16.053  -3.469  1.00 20.00     0.083 C 
HETATM    6  C3  UNL     1     -33.800  14.887  -4.116  1.00 20.00     0.127 C 
HETATM    7  C4  UNL     1     -35.161  14.638  -3.519  1.00 20.00     0.079 C 
HETATM    8  O9  UNL     1     -33.318  14.217  -5.021  1.00 20.00    -0.298 OA
HETATM    9  C6  UNL     1     -35.378  15.905  -2.701  1.00 20.00     0.013 C 
ENDBRANCH   3   4
TORSDOF 1
ENDMDL
MODEL 5
REMARK VINA RESULT:      -4.4     10.974     11.770
REMARK  1 active torsions:
REMARK  status: ('A' for Active; 'I' for Inactive)
REMARK    1  A    between atoms: C7_7  and  C8_8 
ROOT
HETATM    1  C1  UNL     1     -31.960  18.390  -1.362  1.00 20.00     0.012 C 
HETATM    2  C2  UNL     1     -33.005  17.813  -1.478  1.00 20.00    -0.117 C 
HETATM    3  C8  UNL     1     -34.285  17.106  -1.615  1.00 20.00     0.098 C 
ENDROOT
BRANCH   3   4
HETATM    4  C7  UNL     1     -34.363  16.357  -2.934  1.00 20.00     0.004 C 
HETATM    5  C5  UNL     1     -35.284  15.136  -2.871  1.00 20.00     0.083 C 
HETATM    6  C3  UNL     1     -34.713  14.264  -3.959  1.00 20.00     0.127 C 
HETATM    7  C4  UNL     1     -33.371  14.753  -4.438  1.00 20.00     0.079 C 
HETATM    8  O9  UNL     1     -35.276  13.271  -4.404  1.00 20.00    -0.298 OA
HETATM    9  C6  UNL     1     -33.015  15.778  -3.369  1.00 20.00     0.013 C 
ENDBRANCH   3   4
TORSDOF 1
ENDMDL
MODEL 6
REMARK VINA RESULT:      -4.4     11.419     11.975
REMARK  1 active torsions:
REMARK  status: ('A' for Active; 'I' for Inactive)
REMARK    1  A    between atoms: C7_7  and  C8_8 
ROOT
HETATM    1  C1  UNL     1     -35.559  17.222   0.339  1.00 20.00     0.012 C 
HETATM    2  C2  UNL     1     -34.846  17.230  -0.626  1.00 20.00    -0.117 C 
HETATM    3  C8  UNL     1     -33.973  17.244  -1.806  1.00 20.00     0.098 C 
ENDROOT
BRANCH   3   4
HETATM    4  C7  UNL     1     -34.037  15.924  -2.556  1.00 20.00     0.004 C 
HETATM    5  C5  UNL     1     -33.277  15.957  -3.884  1.00 20.00     0.083 C 
HETATM    6  C3  UNL     1     -33.993  14.891  -4.673  1.00 20.00     0.127 C 
HETATM    7  C4  UNL     1     -35.276  14.457  -4.015  1.00 20.00     0.079 C 
HETATM    8  O9  UNL     1     -33.576  14.428  -5.729  1.00 20.00    -0.298 OA
HETATM    9  C6  UNL     1     -35.462  15.536  -2.955  1.00 20.00     0.013 C 
ENDBRANCH   3   4
TORSDOF 1
ENDMDL
MODEL 7
REMARK VINA RESULT:      -4.4     11.430     12.175
REMARK  1 active torsions:
REMARK  status: ('A' for Active; 'I' for Inactive)
REMARK    1  A    between atoms: C7_7  and  C8_8 
ROOT
HETATM    1  C1  UNL     1     -34.906  16.750  -1.541  1.00 20.00     0.012 C 
HETATM    2  C2  UNL     1     -34.203  16.274  -2.389  1.00 20.00    -0.117 C 
HETATM    3  C8  UNL     1     -33.339  15.694  -3.426  1.00 20.00     0.098 C 
ENDROOT
BRANCH   3   4
HETATM    4  C7  UNL     1     -34.106  14.719  -4.302  1.00 20.00     0.004 C 
HETATM    5  C5  UNL     1     -34.459  15.302  -5.672  1.00 20.00     0.083 C 
HETATM    6  C3  UNL     1     -35.679  14.498  -6.043  1.00 20.00     0.127 C 
HETATM    7  C4  UNL     1     -36.221  13.712  -4.877  1.00 20.00     0.079 C 
HETATM    8  O9  UNL     1     -36.172  14.483  -7.164  1.00 20.00    -0.298 OA
HETATM    9  C6  UNL     1     -35.461  14.326  -3.708  1.00 20.00     0.013 C 
ENDBRANCH   3   4
TORSDOF 1
ENDMDL
MODEL 8
REMARK VINA RESULT:      -4.3      9.424     10.079
REMARK  1 active torsions:
REMARK  status: ('A' for Active; 'I' for Inactive)
REMARK    1  A    between atoms: C7_7  and  C8_8 
ROOT
HETATM    1  C1  UNL     1     -42.944   3.771  -2.287  1.00 20.00     0.012 C 
HETATM    2  C2  UNL     1     -42.215   4.575  -1.773  1.00 20.00    -0.117 C 
HETATM    3  C8  UNL     1     -41.322   5.556  -1.145  1.00 20.00     0.098 C 
ENDROOT
BRANCH   3   4
HETATM    4  C7  UNL     1     -41.994   6.912  -1.013  1.00 20.00     0.004 C 
HETATM    5  C5  UNL     1     -41.014   8.028  -0.646  1.00 20.00     0.083 C 
HETATM    6  C3  UNL     1     -41.922   9.020   0.036  1.00 20.00     0.127 C 
HETATM    7  C4  UNL     1     -43.276   8.437   0.345  1.00 20.00     0.079 C 
HETATM    8  O9  UNL     1     -41.596  10.170   0.304  1.00 20.00    -0.298 OA
HETATM    9  C6  UNL     1     -43.037   6.952   0.106  1.00 20.00     0.013 C 
ENDBRANCH   3   4
TORSDOF 1
ENDMDL
MODEL 9
REMARK VINA RESULT:      -4.2     15.589     16.373
REMARK  1 active torsions:
REMARK  status: ('A' for Active; 'I' for Inactive)
REMARK    1  A    between atoms: C7_7  and  C8_8 
ROOT
HETATM    1  C1  UNL     1     -24.716  19.188   7.847  1.00 20.00     0.012 C 
HETATM    2  C2  UNL     1     -23.744  18.519   8.067  1.00 20.00    -0.117 C 
HETATM    3  C8  UNL     1     -22.553  17.702   8.333  1.00 20.00     0.098 C 
ENDROOT
BRANCH   3   4
HETATM    4  C7  UNL     1     -22.625  17.051   9.704  1.00 20.00     0.004 C 
HETATM    5  C5  UNL     1     -23.985  16.409   9.987  1.00 20.00     0.083 C 
HETATM    6  C3  UNL     1     -24.034  16.445  11.493  1.00 20.00     0.127 C 
HETATM    7  C4  UNL     1     -22.951  17.313  12.079  1.00 20.00     0.079 C 
HETATM    8  O9  UNL     1     -24.859  15.835  12.163  1.00 20.00    -0.298 OA
HETATM    9  C6  UNL     1     -22.445  18.052  10.847  1.00 20.00     0.013 C 
ENDBRANCH   3   4
TORSDOF 1
ENDMDL
