MODEL 1
REMARK VINA RESULT:      -4.3      0.000      0.000
REMARK  7 active torsions:
REMARK  status: ('A' for Active; 'I' for Inactive)
REMARK    1  A    between atoms: C4_4  and  C8_8 
REMARK    2  A    between atoms: C5_5  and  C6_6 
REMARK    3  A    between atoms: C5_5  and  C7_7 
REMARK    4  A    between atoms: C6_6  and  C9_9 
REMARK    5  A    between atoms: C7_7  and  C10_10 
REMARK    6  A    between atoms: C8_8  and  C11_11 
REMARK    7  A    between atoms: C9_9  and  C11_11 
ROOT
HETATM    1  C6  UNL     1     -33.386   4.751   2.609  1.00 20.00     0.001 C 
ENDROOT
BRANCH   1   2
HETATM    2  C5  UNL     1     -34.307   4.250   3.728  1.00 20.00     0.000 C 
BRANCH   2   3
HETATM    3  C7  UNL     1     -35.137   5.366   4.372  1.00 20.00     0.004 C 
BRANCH   3   4
HETATM    4  C10 UNL     1     -34.781   5.615   5.850  1.00 20.00    -0.023 C 
HETATM    5  C2  UNL     1     -34.168   7.009   6.008  1.00 20.00     0.009 C 
HETATM    6  C3  UNL     1     -33.821   4.563   6.404  1.00 20.00     0.009 C 
ENDBRANCH   3   4
ENDBRANCH   2   3
ENDBRANCH   1   2
BRANCH   1   7
HETATM    7  C9  UNL     1     -33.439   6.273   2.419  1.00 20.00     0.020 C 
BRANCH   7   8
HETATM    8  C11 UNL     1     -32.051   6.933   2.378  1.00 20.00     0.082 C 
HETATM    9 CL12 UNL     1     -31.778   7.895   3.871  1.00 20.00    -0.125 Cl
BRANCH   8  10
HETATM   10  C8  UNL     1     -31.860   7.866   1.171  1.00 20.00     0.020 C 
BRANCH  10  11
HETATM   11  C4  UNL     1     -32.987   8.890   1.010  1.00 20.00    -0.003 C 
HETATM   12  C1  UNL     1     -33.548   8.879  -0.404  1.00 20.00     0.005 C 
ENDBRANCH  10  11
ENDBRANCH   8  10
ENDBRANCH   7   8
ENDBRANCH   1   7
TORSDOF 7
ENDMDL
MODEL 2
REMARK VINA RESULT:      -4.2     10.858     12.046
REMARK  7 active torsions:
REMARK  status: ('A' for Active; 'I' for Inactive)
REMARK    1  A    between atoms: C4_4  and  C8_8 
REMARK    2  A    between atoms: C5_5  and  C6_6 
REMARK    3  A    between atoms: C5_5  and  C7_7 
REMARK    4  A    between atoms: C6_6  and  C9_9 
REMARK    5  A    between atoms: C7_7  and  C10_10 
REMARK    6  A    between atoms: C8_8  and  C11_11 
REMARK    7  A    between atoms: C9_9  and  C11_11 
ROOT
HETATM    1  C6  UNL     1     -34.501  15.952  -2.368  1.00 20.00     0.001 C 
ENDROOT
BRANCH   1   2
HETATM    2  C5  UNL     1     -34.229  17.201  -1.522  1.00 20.00     0.000 C 
BRANCH   2   3
HETATM    3  C7  UNL     1     -32.805  17.742  -1.682  1.00 20.00     0.004 C 
BRANCH   3   4
HETATM    4  C10 UNL     1     -32.341  18.601  -0.491  1.00 20.00    -0.023 C 
HETATM    5  C2  UNL     1     -30.901  18.238  -0.118  1.00 20.00     0.009 C 
HETATM    6  C3  UNL     1     -33.246  18.442   0.731  1.00 20.00     0.009 C 
ENDBRANCH   3   4
ENDBRANCH   2   3
ENDBRANCH   1   2
BRANCH   1   7
HETATM    7  C9  UNL     1     -33.459  15.733  -3.474  1.00 20.00     0.020 C 
BRANCH   7   8
HETATM    8  C11 UNL     1     -33.754  14.511  -4.359  1.00 20.00     0.082 C 
HETATM    9 CL12 UNL     1     -34.014  15.026  -6.061  1.00 20.00    -0.125 Cl
BRANCH   8  10
HETATM   10  C8  UNL     1     -34.993  13.721  -3.907  1.00 20.00     0.020 C 
BRANCH  10  11
HETATM   11  C4  UNL     1     -36.150  13.781  -4.907  1.00 20.00    -0.003 C 
HETATM   12  C1  UNL     1     -37.337  14.542  -4.336  1.00 20.00     0.005 C 
ENDBRANCH  10  11
ENDBRANCH   8  10
ENDBRANCH   7   8
ENDBRANCH   1   7
TORSDOF 7
ENDMDL
MODEL 3
REMARK VINA RESULT:      -4.2      1.510      5.262
REMARK  7 active torsions:
REMARK  status: ('A' for Active; 'I' for Inactive)
REMARK    1  A    between atoms: C4_4  and  C8_8 
REMARK    2  A    between atoms: C5_5  and  C6_6 
REMARK    3  A    between atoms: C5_5  and  C7_7 
REMARK    4  A    between atoms: C6_6  and  C9_9 
REMARK    5  A    between atoms: C7_7  and  C10_10 
REMARK    6  A    between atoms: C8_8  and  C11_11 
REMARK    7  A    between atoms: C9_9  and  C11_11 
ROOT
HETATM    1  C6  UNL     1     -33.501   5.655   2.345  1.00 20.00     0.001 C 
ENDROOT
BRANCH   1   2
HETATM    2  C5  UNL     1     -32.578   6.801   2.775  1.00 20.00     0.000 C 
BRANCH   2   3
HETATM    3  C7  UNL     1     -32.089   7.655   1.601  1.00 20.00     0.004 C 
BRANCH   3   4
HETATM    4  C10 UNL     1     -33.191   8.540   0.989  1.00 20.00    -0.023 C 
HETATM    5  C2  UNL     1     -33.225   8.350  -0.530  1.00 20.00     0.009 C 
HETATM    6  C3  UNL     1     -33.002  10.020   1.320  1.00 20.00     0.009 C 
ENDBRANCH   3   4
ENDBRANCH   2   3
ENDBRANCH   1   2
BRANCH   1   7
HETATM    7  C9  UNL     1     -33.479   4.465   3.315  1.00 20.00     0.020 C 
BRANCH   7   8
HETATM    8  C11 UNL     1     -34.680   4.436   4.274  1.00 20.00     0.082 C 
HETATM    9 CL12 UNL     1     -35.889   5.676   3.793  1.00 20.00    -0.125 Cl
BRANCH   8  10
HETATM   10  C8  UNL     1     -34.292   4.695   5.739  1.00 20.00     0.020 C 
BRANCH  10  11
HETATM   11  C4  UNL     1     -34.704   6.082   6.241  1.00 20.00    -0.003 C 
HETATM   12  C1  UNL     1     -33.592   7.099   6.035  1.00 20.00     0.005 C 
ENDBRANCH  10  11
ENDBRANCH   8  10
ENDBRANCH   7   8
ENDBRANCH   1   7
TORSDOF 7
ENDMDL
MODEL 4
REMARK VINA RESULT:      -4.2     10.915     12.030
REMARK  7 active torsions:
REMARK  status: ('A' for Active; 'I' for Inactive)
REMARK    1  A    between atoms: C4_4  and  C8_8 
REMARK    2  A    between atoms: C5_5  and  C6_6 
REMARK    3  A    between atoms: C5_5  and  C7_7 
REMARK    4  A    between atoms: C6_6  and  C9_9 
REMARK    5  A    between atoms: C7_7  and  C10_10 
REMARK    6  A    between atoms: C8_8  and  C11_11 
REMARK    7  A    between atoms: C9_9  and  C11_11 
ROOT
HETATM    1  C6  UNL     1     -33.830  14.657  -4.354  1.00 20.00     0.001 C 
ENDROOT
BRANCH   1   2
HETATM    2  C5  UNL     1     -33.594  15.826  -3.391  1.00 20.00     0.000 C 
BRANCH   2   3
HETATM    3  C7  UNL     1     -34.620  15.889  -2.255  1.00 20.00     0.004 C 
BRANCH   3   4
HETATM    4  C10 UNL     1     -34.642  17.247  -1.528  1.00 20.00    -0.023 C 
HETATM    5  C2  UNL     1     -33.212  17.763  -1.349  1.00 20.00     0.009 C 
HETATM    6  C3  UNL     1     -35.336  17.168  -0.168  1.00 20.00     0.009 C 
ENDBRANCH   3   4
ENDBRANCH   2   3
ENDBRANCH   1   2
BRANCH   1   7
HETATM    7  C9  UNL     1     -34.985  13.742  -3.923  1.00 20.00     0.020 C 
BRANCH   7   8
HETATM    8  C11 UNL     1     -36.178  13.764  -4.893  1.00 20.00     0.082 C 
HETATM    9 CL12 UNL     1     -35.694  14.514  -6.453  1.00 20.00    -0.125 Cl
BRANCH   8  10
HETATM   10  C8  UNL     1     -37.387  14.541  -4.347  1.00 20.00     0.020 C 
BRANCH  10  11
HETATM   11  C4  UNL     1     -37.455  15.988  -4.845  1.00 20.00    -0.003 C 
HETATM   12  C1  UNL     1     -37.785  16.948  -3.712  1.00 20.00     0.005 C 
ENDBRANCH  10  11
ENDBRANCH   8  10
ENDBRANCH   7   8
ENDBRANCH   1   7
TORSDOF 7
ENDMDL
MODEL 5
REMARK VINA RESULT:      -4.1     10.800     12.317
REMARK  7 active torsions:
REMARK  status: ('A' for Active; 'I' for Inactive)
REMARK    1  A    between atoms: C4_4  and  C8_8 
REMARK    2  A    between atoms: C5_5  and  C6_6 
REMARK    3  A    between atoms: C5_5  and  C7_7 
REMARK    4  A    between atoms: C6_6  and  C9_9 
REMARK    5  A    between atoms: C7_7  and  C10_10 
REMARK    6  A    between atoms: C8_8  and  C11_11 
REMARK    7  A    between atoms: C9_9  and  C11_11 
ROOT
HETATM    1  C6  UNL     1     -34.400  17.188  -1.538  1.00 20.00     0.001 C 
ENDROOT
BRANCH   1   2
HETATM    2  C5  UNL     1     -34.683  15.930  -2.367  1.00 20.00     0.000 C 
BRANCH   2   3
HETATM    3  C7  UNL     1     -33.613  15.650  -3.426  1.00 20.00     0.004 C 
BRANCH   3   4
HETATM    4  C10 UNL     1     -33.983  14.496  -4.378  1.00 20.00    -0.023 C 
HETATM    5  C2  UNL     1     -33.948  14.987  -5.827  1.00 20.00     0.009 C 
HETATM    6  C3  UNL     1     -35.357  13.902  -4.067  1.00 20.00     0.009 C 
ENDBRANCH   3   4
ENDBRANCH   2   3
ENDBRANCH   1   2
BRANCH   1   7
HETATM    7  C9  UNL     1     -32.969  17.717  -1.712  1.00 20.00     0.020 C 
BRANCH   7   8
HETATM    8  C11 UNL     1     -32.491  18.587  -0.539  1.00 20.00     0.082 C 
HETATM    9 CL12 UNL     1     -30.789  18.186  -0.123  1.00 20.00    -0.125 Cl
BRANCH   8  10
HETATM   10  C8  UNL     1     -33.343  18.415   0.729  1.00 20.00     0.020 C 
BRANCH  10  11
HETATM   11  C4  UNL     1     -32.600  18.782   2.016  1.00 20.00    -0.003 C 
HETATM   12  C1  UNL     1     -32.671  17.658   3.038  1.00 20.00     0.005 C 
ENDBRANCH  10  11
ENDBRANCH   8  10
ENDBRANCH   7   8
ENDBRANCH   1   7
TORSDOF 7
ENDMDL
MODEL 6
REMARK VINA RESULT:      -4.0     11.090     12.708
REMARK  7 active torsions:
REMARK  status: ('A' for Active; 'I' for Inactive)
REMARK    1  A    between atoms: C4_4  and  C8_8 
REMARK    2  A    between atoms: C5_5  and  C6_6 
REMARK    3  A    between atoms: C5_5  and  C7_7 
REMARK    4  A    between atoms: C6_6  and  C9_9 
REMARK    5  A    between atoms: C7_7  and  C10_10 
REMARK    6  A    between atoms: C8_8  and  C11_11 
REMARK    7  A    between atoms: C9_9  and  C11_11 
ROOT
HETATM    1  C6  UNL     1     -34.635  14.121  -3.890  1.00 20.00     0.001 C 
ENDROOT
BRANCH   1   2
HETATM    2  C5  UNL     1     -34.519  15.349  -2.980  1.00 20.00     0.000 C 
BRANCH   2   3
HETATM    3  C7  UNL     1     -33.223  16.138  -3.191  1.00 20.00     0.004 C 
BRANCH   3   4
HETATM    4  C10 UNL     1     -33.038  17.288  -2.182  1.00 20.00    -0.023 C 
HETATM    5  C2  UNL     1     -34.292  17.425  -1.315  1.00 20.00     0.009 C 
HETATM    6  C3  UNL     1     -32.737  18.621  -2.868  1.00 20.00     0.009 C 
ENDBRANCH   3   4
ENDBRANCH   2   3
ENDBRANCH   1   2
BRANCH   1   7
HETATM    7  C9  UNL     1     -35.920  14.108  -4.729  1.00 20.00     0.020 C 
BRANCH   7   8
HETATM    8  C11 UNL     1     -35.748  14.733  -6.123  1.00 20.00     0.082 C 
HETATM    9 CL12 UNL     1     -34.002  14.898  -6.516  1.00 20.00    -0.125 Cl
BRANCH   8  10
HETATM   10  C8  UNL     1     -36.395  16.121  -6.248  1.00 20.00     0.020 C 
BRANCH  10  11
HETATM   11  C4  UNL     1     -35.403  17.274  -6.074  1.00 20.00    -0.003 C 
HETATM   12  C1  UNL     1     -35.838  18.218  -4.964  1.00 20.00     0.005 C 
ENDBRANCH  10  11
ENDBRANCH   8  10
ENDBRANCH   7   8
ENDBRANCH   1   7
TORSDOF 7
ENDMDL
MODEL 7
REMARK VINA RESULT:      -4.0     11.302     12.296
REMARK  7 active torsions:
REMARK  status: ('A' for Active; 'I' for Inactive)
REMARK    1  A    between atoms: C4_4  and  C8_8 
REMARK    2  A    between atoms: C5_5  and  C6_6 
REMARK    3  A    between atoms: C5_5  and  C7_7 
REMARK    4  A    between atoms: C6_6  and  C9_9 
REMARK    5  A    between atoms: C7_7  and  C10_10 
REMARK    6  A    between atoms: C8_8  and  C11_11 
REMARK    7  A    between atoms: C9_9  and  C11_11 
ROOT
HETATM    1  C6  UNL     1     -33.551  15.801  -3.236  1.00 20.00     0.001 C 
ENDROOT
BRANCH   1   2
HETATM    2  C5  UNL     1     -32.972  17.049  -2.559  1.00 20.00     0.000 C 
BRANCH   2   3
HETATM    3  C7  UNL     1     -33.821  17.548  -1.385  1.00 20.00     0.004 C 
BRANCH   3   4
HETATM    4  C10 UNL     1     -33.075  18.539  -0.471  1.00 20.00    -0.023 C 
HETATM    5  C2  UNL     1     -31.564  18.382  -0.660  1.00 20.00     0.009 C 
HETATM    6  C3  UNL     1     -33.433  18.354   1.004  1.00 20.00     0.009 C 
ENDBRANCH   3   4
ENDBRANCH   2   3
ENDBRANCH   1   2
BRANCH   1   7
HETATM    7  C9  UNL     1     -34.984  15.481  -2.789  1.00 20.00     0.020 C 
BRANCH   7   8
HETATM    8  C11 UNL     1     -35.951  15.240  -3.960  1.00 20.00     0.082 C 
HETATM    9 CL12 UNL     1     -36.001  13.491  -4.372  1.00 20.00    -0.125 Cl
BRANCH   8  10
HETATM   10  C8  UNL     1     -35.568  16.016  -5.230  1.00 20.00     0.020 C 
BRANCH  10  11
HETATM   11  C4  UNL     1     -35.409  15.123  -6.464  1.00 20.00    -0.003 C 
HETATM   12  C1  UNL     1     -33.973  15.120  -6.964  1.00 20.00     0.005 C 
ENDBRANCH  10  11
ENDBRANCH   8  10
ENDBRANCH   7   8
ENDBRANCH   1   7
TORSDOF 7
ENDMDL
MODEL 8
REMARK VINA RESULT:      -4.0     10.985     12.348
REMARK  7 active torsions:
REMARK  status: ('A' for Active; 'I' for Inactive)
REMARK    1  A    between atoms: C4_4  and  C8_8 
REMARK    2  A    between atoms: C5_5  and  C6_6 
REMARK    3  A    between atoms: C5_5  and  C7_7 
REMARK    4  A    between atoms: C6_6  and  C9_9 
REMARK    5  A    between atoms: C7_7  and  C10_10 
REMARK    6  A    between atoms: C8_8  and  C11_11 
REMARK    7  A    between atoms: C9_9  and  C11_11 
ROOT
HETATM    1  C6  UNL     1     -33.431  15.973  -3.327  1.00 20.00     0.001 C 
ENDROOT
BRANCH   1   2
HETATM    2  C5  UNL     1     -33.679  14.771  -4.246  1.00 20.00     0.000 C 
BRANCH   2   3
HETATM    3  C7  UNL     1     -34.881  13.922  -3.820  1.00 20.00     0.004 C 
BRANCH   3   4
HETATM    4  C10 UNL     1     -36.018  13.907  -4.860  1.00 20.00    -0.023 C 
HETATM    5  C2  UNL     1     -35.576  14.653  -6.122  1.00 20.00     0.009 C 
HETATM    6  C3  UNL     1     -37.308  14.525  -4.321  1.00 20.00     0.009 C 
ENDBRANCH   3   4
ENDBRANCH   2   3
ENDBRANCH   1   2
BRANCH   1   7
HETATM    7  C9  UNL     1     -34.480  16.109  -2.214  1.00 20.00     0.020 C 
BRANCH   7   8
HETATM    8  C11 UNL     1     -34.720  17.562  -1.774  1.00 20.00     0.082 C 
HETATM    9 CL12 UNL     1     -34.329  18.689  -3.119  1.00 20.00    -0.125 Cl
BRANCH   8  10
HETATM   10  C8  UNL     1     -33.880  17.971  -0.553  1.00 20.00     0.020 C 
BRANCH  10  11
HETATM   11  C4  UNL     1     -32.718  18.906  -0.899  1.00 20.00    -0.003 C 
HETATM   12  C1  UNL     1     -31.376  18.268  -0.572  1.00 20.00     0.005 C 
ENDBRANCH  10  11
ENDBRANCH   8  10
ENDBRANCH   7   8
ENDBRANCH   1   7
TORSDOF 7
ENDMDL
MODEL 9
REMARK VINA RESULT:      -3.8     10.890     12.213
REMARK  7 active torsions:
REMARK  status: ('A' for Active; 'I' for Inactive)
REMARK    1  A    between atoms: C4_4  and  C8_8 
REMARK    2  A    between atoms: C5_5  and  C6_6 
REMARK    3  A    between atoms: C5_5  and  C7_7 
REMARK    4  A    between atoms: C6_6  and  C9_9 
REMARK    5  A    between atoms: C7_7  and  C10_10 
REMARK    6  A    between atoms: C8_8  and  C11_11 
REMARK    7  A    between atoms: C9_9  and  C11_11 
ROOT
HETATM    1  C6  UNL     1     -33.590  17.569  -1.592  1.00 20.00     0.001 C 
ENDROOT
BRANCH   1   2
HETATM    2  C5  UNL     1     -33.502  16.485  -2.672  1.00 20.00     0.000 C 
BRANCH   2   3
HETATM    3  C7  UNL     1     -34.740  15.584  -2.726  1.00 20.00     0.004 C 
BRANCH   3   4
HETATM    4  C10 UNL     1     -34.584  14.389  -3.686  1.00 20.00    -0.023 C 
HETATM    5  C2  UNL     1     -33.299  14.546  -4.504  1.00 20.00     0.009 C 
HETATM    6  C3  UNL     1     -35.779  14.237  -4.627  1.00 20.00     0.009 C 
ENDBRANCH   3   4
ENDBRANCH   2   3
ENDBRANCH   1   2
BRANCH   1   7
HETATM    7  C9  UNL     1     -34.756  17.357  -0.616  1.00 20.00     0.020 C 
BRANCH   7   8
HETATM    8  C11 UNL     1     -34.476  17.894   0.797  1.00 20.00     0.082 C 
HETATM    9 CL12 UNL     1     -35.900  18.807   1.405  1.00 20.00    -0.125 Cl
BRANCH   8  10
HETATM   10  C8  UNL     1     -33.254  18.824   0.860  1.00 20.00     0.020 C 
BRANCH  10  11
HETATM   11  C4  UNL     1     -32.130  18.292   1.754  1.00 20.00    -0.003 C 
HETATM   12  C1  UNL     1     -32.680  17.697   3.041  1.00 20.00     0.005 C 
ENDBRANCH  10  11
ENDBRANCH   8  10
ENDBRANCH   7   8
ENDBRANCH   1   7
TORSDOF 7
ENDMDL
