MODEL 1
REMARK VINA RESULT:      -5.8      0.000      0.000
REMARK  1 active torsions:
REMARK  status: ('A' for Active; 'I' for Inactive)
REMARK    1  A    between atoms: C7_7  and  C9_9 
ROOT
HETATM    1  C1  UNL     1     -32.973   8.686   0.535  1.00 20.00     0.012 C 
HETATM    2  C2  UNL     1     -32.629   7.975   1.440  1.00 20.00    -0.117 C 
HETATM    3  C9  UNL     1     -32.196   7.109   2.539  1.00 20.00     0.097 C 
ENDROOT
BRANCH   3   4
HETATM    4  C7  UNL     1     -33.365   6.776   3.466  1.00 20.00    -0.002 C 
HETATM    5  C4  UNL     1     -33.029   7.159   4.914  1.00 20.00     0.005 C 
HETATM    6  C3  UNL     1     -34.154   6.784   5.877  1.00 20.00     0.002 C 
HETATM    7  C5  UNL     1     -34.519   5.304   5.769  1.00 20.00     0.020 C 
HETATM    8  C8  UNL     1     -34.836   4.869   4.337  1.00 20.00     0.082 C 
HETATM    9  C6  UNL     1     -33.729   5.287   3.364  1.00 20.00     0.025 C 
HETATM   10 CL10 UNL     1     -36.414   5.543   3.814  1.00 20.00    -0.125 Cl
ENDBRANCH   3   4
TORSDOF 1
ENDMDL
MODEL 2
REMARK VINA RESULT:      -5.0      1.392      2.119
REMARK  1 active torsions:
REMARK  status: ('A' for Active; 'I' for Inactive)
REMARK    1  A    between atoms: C7_7  and  C9_9 
ROOT
HETATM    1  C1  UNL     1     -33.190   8.420   0.531  1.00 20.00     0.012 C 
HETATM    2  C2  UNL     1     -32.583   7.992   1.474  1.00 20.00    -0.117 C 
HETATM    3  C9  UNL     1     -31.832   7.478   2.623  1.00 20.00     0.097 C 
ENDROOT
BRANCH   3   4
HETATM    4  C7  UNL     1     -32.673   6.487   3.427  1.00 20.00    -0.002 C 
HETATM    5  C4  UNL     1     -33.156   5.339   2.530  1.00 20.00     0.005 C 
HETATM    6  C3  UNL     1     -34.050   4.362   3.289  1.00 20.00     0.002 C 
HETATM    7  C5  UNL     1     -35.228   5.074   3.953  1.00 20.00     0.020 C 
HETATM    8  C8  UNL     1     -34.796   6.245   4.838  1.00 20.00     0.082 C 
HETATM    9  C6  UNL     1     -33.861   7.200   4.090  1.00 20.00     0.025 C 
HETATM   10 CL10 UNL     1     -34.008   5.642   6.332  1.00 20.00    -0.125 Cl
ENDBRANCH   3   4
TORSDOF 1
ENDMDL
MODEL 3
REMARK VINA RESULT:      -4.4     15.750     16.571
REMARK  1 active torsions:
REMARK  status: ('A' for Active; 'I' for Inactive)
REMARK    1  A    between atoms: C7_7  and  C9_9 
ROOT
HETATM    1  C1  UNL     1     -25.524  19.226   6.974  1.00 20.00     0.012 C 
HETATM    2  C2  UNL     1     -24.502  18.890   7.509  1.00 20.00    -0.117 C 
HETATM    3  C9  UNL     1     -23.250  18.482   8.150  1.00 20.00     0.097 C 
ENDROOT
BRANCH   3   4
HETATM    4  C7  UNL     1     -23.421  18.375   9.665  1.00 20.00    -0.002 C 
HETATM    5  C4  UNL     1     -22.119  17.896  10.321  1.00 20.00     0.005 C 
HETATM    6  C3  UNL     1     -22.273  17.720  11.830  1.00 20.00     0.002 C 
HETATM    7  C5  UNL     1     -23.437  16.791  12.173  1.00 20.00     0.020 C 
HETATM    8  C8  UNL     1     -24.753  17.214  11.519  1.00 20.00     0.082 C 
HETATM    9  C6  UNL     1     -24.586  17.436  10.012  1.00 20.00     0.025 C 
HETATM   10 CL10 UNL     1     -25.392  18.696  12.301  1.00 20.00    -0.125 Cl
ENDBRANCH   3   4
TORSDOF 1
ENDMDL
MODEL 4
REMARK VINA RESULT:      -4.4     11.316     12.087
REMARK  1 active torsions:
REMARK  status: ('A' for Active; 'I' for Inactive)
REMARK    1  A    between atoms: C7_7  and  C9_9 
ROOT
HETATM    1  C1  UNL     1     -32.570  18.211  -1.543  1.00 20.00     0.012 C 
HETATM    2  C2  UNL     1     -33.547  17.513  -1.565  1.00 20.00    -0.117 C 
HETATM    3  C9  UNL     1     -34.745  16.669  -1.582  1.00 20.00     0.097 C 
ENDROOT
BRANCH   3   4
HETATM    4  C7  UNL     1     -34.688  15.664  -2.732  1.00 20.00    -0.002 C 
HETATM    5  C4  UNL     1     -33.290  15.644  -3.362  1.00 20.00     0.005 C 
HETATM    6  C3  UNL     1     -33.216  14.693  -4.554  1.00 20.00     0.002 C 
HETATM    7  C5  UNL     1     -34.286  15.012  -5.598  1.00 20.00     0.020 C 
HETATM    8  C8  UNL     1     -35.697  15.069  -5.010  1.00 20.00     0.082 C 
HETATM    9  C6  UNL     1     -35.760  15.987  -3.785  1.00 20.00     0.025 C 
HETATM   10 CL10 UNL     1     -36.263  13.422  -4.584  1.00 20.00    -0.125 Cl
ENDBRANCH   3   4
TORSDOF 1
ENDMDL
MODEL 5
REMARK VINA RESULT:      -4.4     11.518     12.250
REMARK  1 active torsions:
REMARK  status: ('A' for Active; 'I' for Inactive)
REMARK    1  A    between atoms: C7_7  and  C9_9 
ROOT
HETATM    1  C1  UNL     1     -36.071  13.855  -4.517  1.00 20.00     0.012 C 
HETATM    2  C2  UNL     1     -34.976  14.313  -4.336  1.00 20.00    -0.117 C 
HETATM    3  C9  UNL     1     -33.636  14.866  -4.126  1.00 20.00     0.097 C 
ENDROOT
BRANCH   3   4
HETATM    4  C7  UNL     1     -33.629  15.860  -2.965  1.00 20.00    -0.002 C 
HETATM    5  C4  UNL     1     -35.000  15.890  -2.275  1.00 20.00     0.005 C 
HETATM    6  C3  UNL     1     -35.046  16.918  -1.147  1.00 20.00     0.002 C 
HETATM    7  C5  UNL     1     -34.644  18.310  -1.635  1.00 20.00     0.020 C 
HETATM    8  C8  UNL     1     -33.294  18.324  -2.354  1.00 20.00     0.082 C 
HETATM    9  C6  UNL     1     -33.232  17.261  -3.455  1.00 20.00     0.025 C 
HETATM   10 CL10 UNL     1     -31.959  18.087  -1.180  1.00 20.00    -0.125 Cl
ENDBRANCH   3   4
TORSDOF 1
ENDMDL
MODEL 6
REMARK VINA RESULT:      -4.4     11.335     12.093
REMARK  1 active torsions:
REMARK  status: ('A' for Active; 'I' for Inactive)
REMARK    1  A    between atoms: C7_7  and  C9_9 
ROOT
HETATM    1  C1  UNL     1     -34.419  18.139   0.109  1.00 20.00     0.012 C 
HETATM    2  C2  UNL     1     -33.761  17.794  -0.835  1.00 20.00    -0.117 C 
HETATM    3  C9  UNL     1     -32.948  17.377  -1.979  1.00 20.00     0.097 C 
ENDROOT
BRANCH   3   4
HETATM    4  C7  UNL     1     -33.788  16.602  -2.994  1.00 20.00    -0.002 C 
HETATM    5  C4  UNL     1     -34.979  15.926  -2.302  1.00 20.00     0.005 C 
HETATM    6  C3  UNL     1     -35.806  15.092  -3.279  1.00 20.00     0.002 C 
HETATM    7  C5  UNL     1     -34.944  14.068  -4.016  1.00 20.00     0.020 C 
HETATM    8  C8  UNL     1     -33.727  14.693  -4.701  1.00 20.00     0.082 C 
HETATM    9  C6  UNL     1     -32.924  15.567  -3.732  1.00 20.00     0.025 C 
HETATM   10 CL10 UNL     1     -34.236  15.650  -6.129  1.00 20.00    -0.125 Cl
ENDBRANCH   3   4
TORSDOF 1
ENDMDL
MODEL 7
REMARK VINA RESULT:      -4.3     11.413     12.031
REMARK  1 active torsions:
REMARK  status: ('A' for Active; 'I' for Inactive)
REMARK    1  A    between atoms: C7_7  and  C9_9 
ROOT
HETATM    1  C1  UNL     1     -36.286  13.649  -4.543  1.00 20.00     0.012 C 
HETATM    2  C2  UNL     1     -35.243  14.171  -4.258  1.00 20.00    -0.117 C 
HETATM    3  C9  UNL     1     -33.965  14.800  -3.917  1.00 20.00     0.097 C 
ENDROOT
BRANCH   3   4
HETATM    4  C7  UNL     1     -34.184  16.134  -3.204  1.00 20.00    -0.002 C 
HETATM    5  C4  UNL     1     -32.841  16.753  -2.794  1.00 20.00     0.005 C 
HETATM    6  C3  UNL     1     -33.028  18.059  -2.026  1.00 20.00     0.002 C 
HETATM    7  C5  UNL     1     -33.941  17.876  -0.815  1.00 20.00     0.020 C 
HETATM    8  C8  UNL     1     -35.285  17.236  -1.171  1.00 20.00     0.082 C 
HETATM    9  C6  UNL     1     -35.098  15.950  -1.982  1.00 20.00     0.025 C 
HETATM   10 CL10 UNL     1     -36.311  18.399  -2.071  1.00 20.00    -0.125 Cl
ENDBRANCH   3   4
TORSDOF 1
ENDMDL
MODEL 8
REMARK VINA RESULT:      -4.2     11.371     12.198
REMARK  1 active torsions:
REMARK  status: ('A' for Active; 'I' for Inactive)
REMARK    1  A    between atoms: C7_7  and  C9_9 
ROOT
HETATM    1  C1  UNL     1     -35.663  17.265   0.181  1.00 20.00     0.012 C 
HETATM    2  C2  UNL     1     -34.862  17.194  -0.711  1.00 20.00    -0.117 C 
HETATM    3  C9  UNL     1     -33.877  17.115  -1.793  1.00 20.00     0.097 C 
ENDROOT
BRANCH   3   4
HETATM    4  C7  UNL     1     -34.275  16.054  -2.819  1.00 20.00    -0.002 C 
HETATM    5  C4  UNL     1     -33.047  15.581  -3.608  1.00 20.00     0.005 C 
HETATM    6  C3  UNL     1     -33.421  14.564  -4.685  1.00 20.00     0.002 C 
HETATM    7  C5  UNL     1     -34.502  15.104  -5.620  1.00 20.00     0.020 C 
HETATM    8  C8  UNL     1     -35.737  15.612  -4.875  1.00 20.00     0.082 C 
HETATM    9  C6  UNL     1     -35.359  16.597  -3.764  1.00 20.00     0.025 C 
HETATM   10 CL10 UNL     1     -36.669  14.238  -4.198  1.00 20.00    -0.125 Cl
ENDBRANCH   3   4
TORSDOF 1
ENDMDL
MODEL 9
REMARK VINA RESULT:      -4.2     11.492     12.269
REMARK  1 active torsions:
REMARK  status: ('A' for Active; 'I' for Inactive)
REMARK    1  A    between atoms: C7_7  and  C9_9 
ROOT
HETATM    1  C1  UNL     1     -34.009  14.965  -6.407  1.00 20.00     0.012 C 
HETATM    2  C2  UNL     1     -34.224  14.893  -5.227  1.00 20.00    -0.117 C 
HETATM    3  C9  UNL     1     -34.487  14.792  -3.790  1.00 20.00     0.097 C 
ENDROOT
BRANCH   3   4
HETATM    4  C7  UNL     1     -34.382  16.160  -3.117  1.00 20.00    -0.002 C 
HETATM    5  C4  UNL     1     -32.912  16.574  -2.967  1.00 20.00     0.005 C 
HETATM    6  C3  UNL     1     -32.769  17.911  -2.242  1.00 20.00     0.002 C 
HETATM    7  C5  UNL     1     -33.478  17.898  -0.889  1.00 20.00     0.020 C 
HETATM    8  C8  UNL     1     -34.942  17.465  -0.985  1.00 20.00     0.082 C 
HETATM    9  C6  UNL     1     -35.089  16.147  -1.753  1.00 20.00     0.025 C 
HETATM   10 CL10 UNL     1     -35.925  18.750  -1.758  1.00 20.00    -0.125 Cl
ENDBRANCH   3   4
TORSDOF 1
ENDMDL
