MODEL 1
REMARK VINA RESULT:      -5.2      0.000      0.000
REMARK  3 active torsions:
REMARK  status: ('A' for Active; 'I' for Inactive)
REMARK    1  A    between atoms: C1_1  and  C4_4 
REMARK    2  A    between atoms: C1_1  and  C5_5 
REMARK    3  A    between atoms: C5_5  and  C6_6 
ROOT
HETATM    1  C1  UNL     1     -33.891   5.570   3.392  1.00 20.00     0.139 C 
HETATM    2  O7  UNL     1     -33.363   4.633   2.808  1.00 20.00    -0.297 OA
ENDROOT
BRANCH   1   3
HETATM    3  C4  UNL     1     -33.415   6.963   3.150  1.00 20.00     0.056 A 
HETATM    4  C2  UNL     1     -31.967   7.266   3.348  1.00 20.00     0.013 A 
HETATM    5  C3  UNL     1     -32.544   7.222   1.966  1.00 20.00     0.013 A 
ENDBRANCH   1   3
BRANCH   1   6
HETATM    6  C5  UNL     1     -35.031   5.439   4.378  1.00 20.00     0.196 C 
BRANCH   6   7
HETATM    7  C6  UNL     1     -34.572   5.529   5.815  1.00 20.00     0.394 C 
HETATM    8  F8  UNL     1     -33.884   6.666   6.045  1.00 20.00    -0.171 F 
HETATM    9  F9  UNL     1     -33.785   4.484   6.149  1.00 20.00    -0.171 F 
HETATM   10  F10 UNL     1     -35.637   5.520   6.649  1.00 20.00    -0.171 F 
ENDBRANCH   6   7
ENDBRANCH   1   6
TORSDOF 3
ENDMDL
MODEL 2
REMARK VINA RESULT:      -5.2      0.059      1.182
REMARK  3 active torsions:
REMARK  status: ('A' for Active; 'I' for Inactive)
REMARK    1  A    between atoms: C1_1  and  C4_4 
REMARK    2  A    between atoms: C1_1  and  C5_5 
REMARK    3  A    between atoms: C5_5  and  C6_6 
ROOT
HETATM    1  C1  UNL     1     -33.882   5.583   3.374  1.00 20.00     0.139 C 
HETATM    2  O7  UNL     1     -33.353   4.648   2.787  1.00 20.00    -0.297 OA
ENDROOT
BRANCH   1   3
HETATM    3  C4  UNL     1     -33.400   6.976   3.145  1.00 20.00     0.056 A 
HETATM    4  C2  UNL     1     -31.950   7.270   3.342  1.00 20.00     0.013 A 
HETATM    5  C3  UNL     1     -32.532   7.244   1.961  1.00 20.00     0.013 A 
ENDBRANCH   1   3
BRANCH   1   6
HETATM    6  C5  UNL     1     -35.029   5.449   4.352  1.00 20.00     0.196 C 
BRANCH   6   7
HETATM    7  C6  UNL     1     -34.575   5.487   5.792  1.00 20.00     0.394 C 
HETATM    8  F8  UNL     1     -35.624   5.503   6.641  1.00 20.00    -0.171 F 
HETATM    9  F9  UNL     1     -33.814   6.574   6.042  1.00 20.00    -0.171 F 
HETATM   10  F10 UNL     1     -33.833   4.394   6.080  1.00 20.00    -0.171 F 
ENDBRANCH   6   7
ENDBRANCH   1   6
TORSDOF 3
ENDMDL
MODEL 3
REMARK VINA RESULT:      -5.0      3.351      4.497
REMARK  3 active torsions:
REMARK  status: ('A' for Active; 'I' for Inactive)
REMARK    1  A    between atoms: C1_1  and  C4_4 
REMARK    2  A    between atoms: C1_1  and  C5_5 
REMARK    3  A    between atoms: C5_5  and  C6_6 
ROOT
HETATM    1  C1  UNL     1     -33.178   6.216   3.037  1.00 20.00     0.139 C 
HETATM    2  O7  UNL     1     -33.121   5.082   2.580  1.00 20.00    -0.297 OA
ENDROOT
BRANCH   1   3
HETATM    3  C4  UNL     1     -34.232   6.567   4.032  1.00 20.00     0.056 A 
HETATM    4  C2  UNL     1     -34.689   5.517   4.988  1.00 20.00     0.013 A 
HETATM    5  C3  UNL     1     -33.850   6.660   5.472  1.00 20.00     0.013 A 
ENDBRANCH   1   3
BRANCH   1   6
HETATM    6  C5  UNL     1     -32.236   7.341   2.669  1.00 20.00     0.196 C 
BRANCH   6   7
HETATM    7  C6  UNL     1     -32.541   7.939   1.315  1.00 20.00     0.394 C 
HETATM    8  F8  UNL     1     -32.745   9.270   1.396  1.00 20.00    -0.171 F 
HETATM    9  F9  UNL     1     -33.636   7.376   0.762  1.00 20.00    -0.171 F 
HETATM   10  F10 UNL     1     -31.506   7.735   0.468  1.00 20.00    -0.171 F 
ENDBRANCH   6   7
ENDBRANCH   1   6
TORSDOF 3
ENDMDL
MODEL 4
REMARK VINA RESULT:      -5.0      1.284      1.834
REMARK  3 active torsions:
REMARK  status: ('A' for Active; 'I' for Inactive)
REMARK    1  A    between atoms: C1_1  and  C4_4 
REMARK    2  A    between atoms: C1_1  and  C5_5 
REMARK    3  A    between atoms: C5_5  and  C6_6 
ROOT
HETATM    1  C1  UNL     1     -33.259   6.185   3.004  1.00 20.00     0.139 C 
HETATM    2  O7  UNL     1     -33.432   5.173   2.337  1.00 20.00    -0.297 OA
ENDROOT
BRANCH   1   3
HETATM    3  C4  UNL     1     -32.380   7.275   2.492  1.00 20.00     0.056 A 
HETATM    4  C2  UNL     1     -32.232   7.438   1.016  1.00 20.00     0.013 A 
HETATM    5  C3  UNL     1     -33.014   8.440   1.809  1.00 20.00     0.013 A 
ENDBRANCH   1   3
BRANCH   1   6
HETATM    6  C5  UNL     1     -33.882   6.440   4.360  1.00 20.00     0.196 C 
BRANCH   6   7
HETATM    7  C6  UNL     1     -34.867   5.366   4.761  1.00 20.00     0.394 C 
HETATM    8  F8  UNL     1     -34.371   4.131   4.540  1.00 20.00    -0.171 F 
HETATM    9  F9  UNL     1     -36.028   5.482   4.082  1.00 20.00    -0.171 F 
HETATM   10  F10 UNL     1     -35.154   5.461   6.079  1.00 20.00    -0.171 F 
ENDBRANCH   6   7
ENDBRANCH   1   6
TORSDOF 3
ENDMDL
MODEL 5
REMARK VINA RESULT:      -4.9      2.815      4.063
REMARK  3 active torsions:
REMARK  status: ('A' for Active; 'I' for Inactive)
REMARK    1  A    between atoms: C1_1  and  C4_4 
REMARK    2  A    between atoms: C1_1  and  C5_5 
REMARK    3  A    between atoms: C5_5  and  C6_6 
ROOT
HETATM    1  C1  UNL     1     -33.899   6.805   4.611  1.00 20.00     0.139 C 
HETATM    2  O7  UNL     1     -33.262   7.114   5.610  1.00 20.00    -0.297 OA
ENDROOT
BRANCH   1   3
HETATM    3  C4  UNL     1     -34.944   5.745   4.691  1.00 20.00     0.056 A 
HETATM    4  C2  UNL     1     -34.559   4.337   4.380  1.00 20.00     0.013 A 
HETATM    5  C3  UNL     1     -34.857   4.741   5.791  1.00 20.00     0.013 A 
ENDBRANCH   1   3
BRANCH   1   6
HETATM    6  C5  UNL     1     -33.713   7.427   3.244  1.00 20.00     0.196 C 
BRANCH   6   7
HETATM    7  C6  UNL     1     -32.440   6.975   2.565  1.00 20.00     0.394 C 
HETATM    8  F8  UNL     1     -32.299   7.543   1.349  1.00 20.00    -0.171 F 
HETATM    9  F9  UNL     1     -32.412   5.635   2.411  1.00 20.00    -0.171 F 
HETATM   10  F10 UNL     1     -31.364   7.323   3.306  1.00 20.00    -0.171 F 
ENDBRANCH   6   7
ENDBRANCH   1   6
TORSDOF 3
ENDMDL
MODEL 6
REMARK VINA RESULT:      -4.9      2.346      3.743
REMARK  3 active torsions:
REMARK  status: ('A' for Active; 'I' for Inactive)
REMARK    1  A    between atoms: C1_1  and  C4_4 
REMARK    2  A    between atoms: C1_1  and  C5_5 
REMARK    3  A    between atoms: C5_5  and  C6_6 
ROOT
HETATM    1  C1  UNL     1     -34.502   5.072   3.856  1.00 20.00     0.139 C 
HETATM    2  O7  UNL     1     -34.241   3.878   3.773  1.00 20.00    -0.297 OA
ENDROOT
BRANCH   1   3
HETATM    3  C4  UNL     1     -35.096   5.619   5.110  1.00 20.00     0.056 A 
HETATM    4  C2  UNL     1     -34.645   5.058   6.417  1.00 20.00     0.013 A 
HETATM    5  C3  UNL     1     -34.233   6.439   6.009  1.00 20.00     0.013 A 
ENDBRANCH   1   3
BRANCH   1   6
HETATM    6  C5  UNL     1     -34.268   6.084   2.756  1.00 20.00     0.196 C 
BRANCH   6   7
HETATM    7  C6  UNL     1     -32.809   6.442   2.593  1.00 20.00     0.394 C 
HETATM    8  F8  UNL     1     -32.329   7.074   3.684  1.00 20.00    -0.171 F 
HETATM    9  F9  UNL     1     -32.613   7.241   1.522  1.00 20.00    -0.171 F 
HETATM   10  F10 UNL     1     -32.070   5.325   2.409  1.00 20.00    -0.171 F 
ENDBRANCH   6   7
ENDBRANCH   1   6
TORSDOF 3
ENDMDL
MODEL 7
REMARK VINA RESULT:      -4.7      3.736      5.078
REMARK  3 active torsions:
REMARK  status: ('A' for Active; 'I' for Inactive)
REMARK    1  A    between atoms: C1_1  and  C4_4 
REMARK    2  A    between atoms: C1_1  and  C5_5 
REMARK    3  A    between atoms: C5_5  and  C6_6 
ROOT
HETATM    1  C1  UNL     1     -32.480   7.176   2.374  1.00 20.00     0.139 C 
HETATM    2  O7  UNL     1     -31.996   7.481   3.457  1.00 20.00    -0.297 OA
ENDROOT
BRANCH   1   3
HETATM    3  C4  UNL     1     -33.542   6.131   2.300  1.00 20.00     0.056 A 
HETATM    4  C2  UNL     1     -33.165   4.711   2.561  1.00 20.00     0.013 A 
HETATM    5  C3  UNL     1     -33.980   5.470   3.564  1.00 20.00     0.013 A 
ENDBRANCH   1   3
BRANCH   1   6
HETATM    6  C5  UNL     1     -32.081   7.787   1.049  1.00 20.00     0.196 C 
BRANCH   6   7
HETATM    7  C6  UNL     1     -33.032   8.870   0.595  1.00 20.00     0.394 C 
HETATM    8  F8  UNL     1     -33.883   9.226   1.580  1.00 20.00    -0.171 F 
HETATM    9  F9  UNL     1     -33.760   8.474  -0.470  1.00 20.00    -0.171 F 
HETATM   10  F10 UNL     1     -32.345   9.976   0.230  1.00 20.00    -0.171 F 
ENDBRANCH   6   7
ENDBRANCH   1   6
TORSDOF 3
ENDMDL
MODEL 8
REMARK VINA RESULT:      -4.5      1.758      2.385
REMARK  3 active torsions:
REMARK  status: ('A' for Active; 'I' for Inactive)
REMARK    1  A    between atoms: C1_1  and  C4_4 
REMARK    2  A    between atoms: C1_1  and  C5_5 
REMARK    3  A    between atoms: C5_5  and  C6_6 
ROOT
HETATM    1  C1  UNL     1     -32.743   6.866   2.701  1.00 20.00     0.139 C 
HETATM    2  O7  UNL     1     -31.871   7.368   3.398  1.00 20.00    -0.297 OA
ENDROOT
BRANCH   1   3
HETATM    3  C4  UNL     1     -33.204   7.562   1.466  1.00 20.00     0.056 A 
HETATM    4  C2  UNL     1     -32.916   9.019   1.318  1.00 20.00     0.013 A 
HETATM    5  C3  UNL     1     -32.180   8.018   0.481  1.00 20.00     0.013 A 
ENDBRANCH   1   3
BRANCH   1   6
HETATM    6  C5  UNL     1     -33.425   5.547   2.993  1.00 20.00     0.196 C 
BRANCH   6   7
HETATM    7  C6  UNL     1     -34.397   5.634   4.147  1.00 20.00     0.394 C 
HETATM    8  F8  UNL     1     -35.671   5.735   3.715  1.00 20.00    -0.171 F 
HETATM    9  F9  UNL     1     -34.133   6.698   4.935  1.00 20.00    -0.171 F 
HETATM   10  F10 UNL     1     -34.313   4.525   4.916  1.00 20.00    -0.171 F 
ENDBRANCH   6   7
ENDBRANCH   1   6
TORSDOF 3
ENDMDL
MODEL 9
REMARK VINA RESULT:      -4.3     11.876     12.843
REMARK  3 active torsions:
REMARK  status: ('A' for Active; 'I' for Inactive)
REMARK    1  A    between atoms: C1_1  and  C4_4 
REMARK    2  A    between atoms: C1_1  and  C5_5 
REMARK    3  A    between atoms: C5_5  and  C6_6 
ROOT
HETATM    1  C1  UNL     1     -35.845  13.853  -4.256  1.00 20.00     0.139 C 
HETATM    2  O7  UNL     1     -35.782  12.675  -4.583  1.00 20.00    -0.297 OA
ENDROOT
BRANCH   1   3
HETATM    3  C4  UNL     1     -37.060  14.654  -4.582  1.00 20.00     0.056 A 
HETATM    4  C2  UNL     1     -37.098  16.090  -4.180  1.00 20.00     0.013 A 
HETATM    5  C3  UNL     1     -36.955  15.717  -5.624  1.00 20.00     0.013 A 
ENDBRANCH   1   3
BRANCH   1   6
HETATM    6  C5  UNL     1     -34.755  14.603  -3.522  1.00 20.00     0.196 C 
BRANCH   6   7
HETATM    7  C6  UNL     1     -33.470  14.687  -4.311  1.00 20.00     0.394 C 
HETATM    8  F8  UNL     1     -33.703  14.970  -5.609  1.00 20.00    -0.171 F 
HETATM    9  F9  UNL     1     -32.776  13.531  -4.250  1.00 20.00    -0.171 F 
HETATM   10  F10 UNL     1     -32.677  15.665  -3.816  1.00 20.00    -0.171 F 
ENDBRANCH   6   7
ENDBRANCH   1   6
TORSDOF 3
ENDMDL
