MODEL 1
REMARK VINA RESULT:      -4.2      0.000      0.000
REMARK  1 active torsions:
REMARK  status: ('A' for Active; 'I' for Inactive)
REMARK    1  A    between atoms: C7_7  and  C8_8 
ROOT
HETATM    1  C1  UNL     1     -22.383  17.336   9.352  1.00 20.00     0.002 C 
HETATM    2  C2  UNL     1     -22.625  18.782   8.920  1.00 20.00     0.005 C 
HETATM    3  C5  UNL     1     -23.094  17.013  10.664  1.00 20.00     0.016 C 
HETATM    4  C6  UNL     1     -24.826  18.789  10.167  1.00 20.00     0.020 C 
HETATM    5  C8  UNL     1     -24.115  19.151   8.853  1.00 20.00    -0.009 C 
HETATM    6  C9  UNL     1     -24.581  17.341  10.583  1.00 20.00     0.058 C 
HETATM    7 BR10 UNL     1     -25.402  17.028  12.331  1.00 20.00    -0.091 Br
ENDROOT
BRANCH   5   8
HETATM    8  C7  UNL     1     -24.802  18.511   7.644  1.00 20.00    -0.010 A 
HETATM    9  C3  UNL     1     -26.136  19.021   7.172  1.00 20.00     0.005 A 
HETATM   10  C4  UNL     1     -24.904  19.263   6.346  1.00 20.00     0.005 A 
ENDBRANCH   5   8
TORSDOF 1
ENDMDL
MODEL 2
REMARK VINA RESULT:      -4.2     15.805     18.065
REMARK  1 active torsions:
REMARK  status: ('A' for Active; 'I' for Inactive)
REMARK    1  A    between atoms: C7_7  and  C8_8 
ROOT
HETATM    1  C1  UNL     1     -36.386  13.905  -4.593  1.00 20.00     0.002 C 
HETATM    2  C2  UNL     1     -36.762  15.217  -3.905  1.00 20.00     0.005 C 
HETATM    3  C5  UNL     1     -35.811  14.143  -5.987  1.00 20.00     0.016 C 
HETATM    4  C6  UNL     1     -35.016  16.436  -5.271  1.00 20.00     0.020 C 
HETATM    5  C8  UNL     1     -35.608  16.231  -3.867  1.00 20.00    -0.009 C 
HETATM    6  C9  UNL     1     -34.639  15.118  -5.943  1.00 20.00     0.058 C 
HETATM    7 BR10 UNL     1     -34.037  15.479  -7.769  1.00 20.00    -0.091 Br
ENDROOT
BRANCH   5   8
HETATM    8  C7  UNL     1     -34.534  15.827  -2.854  1.00 20.00    -0.010 A 
HETATM    9  C3  UNL     1     -33.169  16.456  -2.906  1.00 20.00     0.005 A 
HETATM   10  C4  UNL     1     -34.107  16.789  -1.780  1.00 20.00     0.005 A 
ENDBRANCH   5   8
TORSDOF 1
ENDMDL
MODEL 3
REMARK VINA RESULT:      -4.2     14.991     17.165
REMARK  1 active torsions:
REMARK  status: ('A' for Active; 'I' for Inactive)
REMARK    1  A    between atoms: C7_7  and  C8_8 
ROOT
HETATM    1  C1  UNL     1     -33.931  14.983  -5.731  1.00 20.00     0.002 C 
HETATM    2  C2  UNL     1     -33.239  14.662  -4.406  1.00 20.00     0.005 C 
HETATM    3  C5  UNL     1     -35.433  14.716  -5.663  1.00 20.00     0.016 C 
HETATM    4  C6  UNL     1     -35.395  15.122  -3.166  1.00 20.00     0.020 C 
HETATM    5  C8  UNL     1     -33.879  15.372  -3.203  1.00 20.00    -0.009 C 
HETATM    6  C9  UNL     1     -36.074  15.454  -4.493  1.00 20.00     0.058 C 
HETATM    7 BR10 UNL     1     -37.965  14.965  -4.386  1.00 20.00    -0.091 Br
ENDROOT
BRANCH   5   8
HETATM    8  C7  UNL     1     -33.552  16.868  -3.190  1.00 20.00    -0.010 A 
HETATM    9  C3  UNL     1     -34.206  17.777  -2.187  1.00 20.00     0.005 A 
HETATM   10  C4  UNL     1     -32.743  17.455  -2.067  1.00 20.00     0.005 A 
ENDBRANCH   5   8
TORSDOF 1
ENDMDL
MODEL 4
REMARK VINA RESULT:      -4.1      2.024      3.082
REMARK  1 active torsions:
REMARK  status: ('A' for Active; 'I' for Inactive)
REMARK    1  A    between atoms: C7_7  and  C8_8 
ROOT
HETATM    1  C1  UNL     1     -24.542  15.884  11.977  1.00 20.00     0.002 C 
HETATM    2  C2  UNL     1     -23.185  16.587  11.941  1.00 20.00     0.005 C 
HETATM    3  C5  UNL     1     -25.690  16.880  12.120  1.00 20.00     0.016 C 
HETATM    4  C6  UNL     1     -24.284  18.666  11.009  1.00 20.00     0.020 C 
HETATM    5  C8  UNL     1     -23.104  17.690  10.875  1.00 20.00    -0.009 C 
HETATM    6  C9  UNL     1     -25.633  17.951  11.036  1.00 20.00     0.058 C 
HETATM    7 BR10 UNL     1     -27.048  19.263  11.357  1.00 20.00    -0.091 Br
ENDROOT
BRANCH   5   8
HETATM    8  C7  UNL     1     -23.013  17.105   9.463  1.00 20.00    -0.010 A 
HETATM    9  C3  UNL     1     -23.011  18.015   8.265  1.00 20.00     0.005 A 
HETATM   10  C4  UNL     1     -21.758  17.279   8.652  1.00 20.00     0.005 A 
ENDBRANCH   5   8
TORSDOF 1
ENDMDL
MODEL 5
REMARK VINA RESULT:      -4.1     12.568     14.769
REMARK  1 active torsions:
REMARK  status: ('A' for Active; 'I' for Inactive)
REMARK    1  A    between atoms: C7_7  and  C8_8 
ROOT
HETATM    1  C1  UNL     1     -35.471  16.950  -1.077  1.00 20.00     0.002 C 
HETATM    2  C2  UNL     1     -34.971  18.379  -1.286  1.00 20.00     0.005 C 
HETATM    3  C5  UNL     1     -35.139  16.056  -2.269  1.00 20.00     0.016 C 
HETATM    4  C6  UNL     1     -33.150  17.521  -2.818  1.00 20.00     0.020 C 
HETATM    5  C8  UNL     1     -33.478  18.451  -1.639  1.00 20.00    -0.009 C 
HETATM    6  C9  UNL     1     -33.649  16.095  -2.592  1.00 20.00     0.058 C 
HETATM    7 BR10 UNL     1     -33.315  15.037  -4.203  1.00 20.00    -0.091 Br
ENDROOT
BRANCH   5   8
HETATM    8  C7  UNL     1     -32.595  18.154  -0.423  1.00 20.00    -0.010 A 
HETATM    9  C3  UNL     1     -31.097  18.209  -0.543  1.00 20.00     0.005 A 
HETATM   10  C4  UNL     1     -31.827  19.263   0.242  1.00 20.00     0.005 A 
ENDBRANCH   5   8
TORSDOF 1
ENDMDL
MODEL 6
REMARK VINA RESULT:      -4.0     15.517     17.098
REMARK  1 active torsions:
REMARK  status: ('A' for Active; 'I' for Inactive)
REMARK    1  A    between atoms: C7_7  and  C8_8 
ROOT
HETATM    1  C1  UNL     1     -35.726  15.163  -3.035  1.00 20.00     0.002 C 
HETATM    2  C2  UNL     1     -34.887  14.159  -3.824  1.00 20.00     0.005 C 
HETATM    3  C5  UNL     1     -34.854  16.068  -2.167  1.00 20.00     0.016 C 
HETATM    4  C6  UNL     1     -32.924  15.752  -3.772  1.00 20.00     0.020 C 
HETATM    5  C8  UNL     1     -33.773  14.819  -4.650  1.00 20.00    -0.009 C 
HETATM    6  C9  UNL     1     -33.773  16.755  -2.995  1.00 20.00     0.058 C 
HETATM    7 BR10 UNL     1     -32.616  17.790  -1.805  1.00 20.00    -0.091 Br
ENDROOT
BRANCH   5   8
HETATM    8  C7  UNL     1     -34.333  15.549  -5.874  1.00 20.00    -0.010 A 
HETATM    9  C3  UNL     1     -33.829  15.217  -7.251  1.00 20.00     0.005 A 
HETATM   10  C4  UNL     1     -35.222  14.824  -6.846  1.00 20.00     0.005 A 
ENDBRANCH   5   8
TORSDOF 1
ENDMDL
MODEL 7
REMARK VINA RESULT:      -4.0     14.965     15.963
REMARK  1 active torsions:
REMARK  status: ('A' for Active; 'I' for Inactive)
REMARK    1  A    between atoms: C7_7  and  C8_8 
ROOT
HETATM    1  C1  UNL     1     -33.871   4.903   2.357  1.00 20.00     0.002 C 
HETATM    2  C2  UNL     1     -32.554   5.518   1.885  1.00 20.00     0.005 C 
HETATM    3  C5  UNL     1     -34.086   5.111   3.855  1.00 20.00     0.016 C 
HETATM    4  C6  UNL     1     -32.657   7.198   3.774  1.00 20.00     0.020 C 
HETATM    5  C8  UNL     1     -32.406   6.998   2.270  1.00 20.00    -0.009 C 
HETATM    6  C9  UNL     1     -33.979   6.585   4.230  1.00 20.00     0.058 C 
HETATM    7 BR10 UNL     1     -34.132   6.764   6.172  1.00 20.00    -0.091 Br
ENDROOT
BRANCH   5   8
HETATM    8  C7  UNL     1     -33.310   7.896   1.422  1.00 20.00    -0.010 A 
HETATM    9  C3  UNL     1     -32.971   9.350   1.234  1.00 20.00     0.005 A 
HETATM   10  C4  UNL     1     -32.840   8.392   0.082  1.00 20.00     0.005 A 
ENDBRANCH   5   8
TORSDOF 1
ENDMDL
MODEL 8
REMARK VINA RESULT:      -4.0     14.402     16.391
REMARK  1 active torsions:
REMARK  status: ('A' for Active; 'I' for Inactive)
REMARK    1  A    between atoms: C7_7  and  C8_8 
ROOT
HETATM    1  C1  UNL     1     -34.098  17.678  -4.624  1.00 20.00     0.002 C 
HETATM    2  C2  UNL     1     -33.105  17.332  -3.515  1.00 20.00     0.005 C 
HETATM    3  C5  UNL     1     -34.895  16.455  -5.070  1.00 20.00     0.016 C 
HETATM    4  C6  UNL     1     -34.586  15.415  -2.784  1.00 20.00     0.020 C 
HETATM    5  C8  UNL     1     -33.759  16.624  -2.318  1.00 20.00    -0.009 C 
HETATM    6  C9  UNL     1     -35.578  15.777  -3.887  1.00 20.00     0.058 C 
HETATM    7 BR10 UNL     1     -36.469  14.150  -4.508  1.00 20.00    -0.091 Br
ENDROOT
BRANCH   5   8
HETATM    8  C7  UNL     1     -34.597  17.592  -1.479  1.00 20.00    -0.010 A 
HETATM    9  C3  UNL     1     -35.402  17.084  -0.314  1.00 20.00     0.005 A 
HETATM   10  C4  UNL     1     -34.183  17.929  -0.073  1.00 20.00     0.005 A 
ENDBRANCH   5   8
TORSDOF 1
ENDMDL
MODEL 9
REMARK VINA RESULT:      -4.0     12.099     13.940
REMARK  1 active torsions:
REMARK  status: ('A' for Active; 'I' for Inactive)
REMARK    1  A    between atoms: C7_7  and  C8_8 
ROOT
HETATM    1  C1  UNL     1     -31.534  18.347  -0.562  1.00 20.00     0.002 C 
HETATM    2  C2  UNL     1     -32.199  18.694  -1.894  1.00 20.00     0.005 C 
HETATM    3  C5  UNL     1     -32.429  18.697   0.624  1.00 20.00     0.016 C 
HETATM    4  C6  UNL     1     -34.478  18.409  -0.833  1.00 20.00     0.020 C 
HETATM    5  C8  UNL     1     -33.598  18.078  -2.049  1.00 20.00    -0.009 C 
HETATM    6  C9  UNL     1     -33.804  18.051   0.490  1.00 20.00     0.058 C 
HETATM    7 BR10 UNL     1     -34.938  18.645   1.969  1.00 20.00    -0.091 Br
ENDROOT
BRANCH   5   8
HETATM    8  C7  UNL     1     -33.526  16.569  -2.300  1.00 20.00    -0.010 A 
HETATM    9  C3  UNL     1     -34.788  15.768  -2.464  1.00 20.00     0.005 A 
HETATM   10  C4  UNL     1     -33.892  16.009  -3.647  1.00 20.00     0.005 A 
ENDBRANCH   5   8
TORSDOF 1
ENDMDL
