MODEL 1
REMARK VINA RESULT:      -5.3      0.000      0.000
REMARK  4 active torsions:
REMARK  status: ('A' for Active; 'I' for Inactive)
REMARK    1  A    between atoms: C4_4  and  C6_6 
REMARK    2  A    between atoms: C5_5  and  C8_8 
REMARK    3  A    between atoms: C6_6  and  C7_7 
REMARK    4  A    between atoms: C7_7  and  C8_8 
ROOT
HETATM    1  C1  UNL     1     -32.913   8.765   0.407  1.00 20.00     0.012 C 
HETATM    2  C2  UNL     1     -32.577   8.084   1.338  1.00 20.00    -0.117 C 
HETATM    3  C4  UNL     1     -32.162   7.253   2.477  1.00 20.00     0.093 C 
ENDROOT
BRANCH   3   4
HETATM    4  C6  UNL     1     -33.073   6.038   2.671  1.00 20.00     0.014 C 
BRANCH   4   5
HETATM    5  C7  UNL     1     -34.332   6.366   3.489  1.00 20.00     0.021 C 
BRANCH   5   6
HETATM    6  C8  UNL     1     -34.873   5.157   4.267  1.00 20.00     0.082 C 
HETATM    7 CL9  UNL     1     -34.002   3.664   3.793  1.00 20.00    -0.125 Cl
BRANCH   6   8
HETATM    8  C5  UNL     1     -34.814   5.349   5.792  1.00 20.00     0.016 C 
HETATM    9  C3  UNL     1     -34.098   6.608   6.266  1.00 20.00     0.006 C 
ENDBRANCH   6   8
ENDBRANCH   5   6
ENDBRANCH   4   5
ENDBRANCH   3   4
TORSDOF 4
ENDMDL
MODEL 2
REMARK VINA RESULT:      -4.9      1.658      4.611
REMARK  4 active torsions:
REMARK  status: ('A' for Active; 'I' for Inactive)
REMARK    1  A    between atoms: C4_4  and  C6_6 
REMARK    2  A    between atoms: C5_5  and  C8_8 
REMARK    3  A    between atoms: C6_6  and  C7_7 
REMARK    4  A    between atoms: C7_7  and  C8_8 
ROOT
HETATM    1  C1  UNL     1     -34.362   6.513   6.242  1.00 20.00     0.012 C 
HETATM    2  C2  UNL     1     -34.418   5.650   5.409  1.00 20.00    -0.117 C 
HETATM    3  C4  UNL     1     -34.485   4.592   4.391  1.00 20.00     0.093 C 
ENDROOT
BRANCH   3   4
HETATM    4  C6  UNL     1     -34.408   5.150   2.968  1.00 20.00     0.014 C 
BRANCH   4   5
HETATM    5  C7  UNL     1     -32.987   5.590   2.581  1.00 20.00     0.021 C 
BRANCH   5   6
HETATM    6  C8  UNL     1     -32.817   7.118   2.557  1.00 20.00     0.082 C 
HETATM    7 CL9  UNL     1     -31.764   7.653   3.904  1.00 20.00    -0.125 Cl
BRANCH   6   8
HETATM    8  C5  UNL     1     -32.278   7.640   1.215  1.00 20.00     0.016 C 
HETATM    9  C3  UNL     1     -32.918   8.927   0.707  1.00 20.00     0.006 C 
ENDBRANCH   6   8
ENDBRANCH   5   6
ENDBRANCH   4   5
ENDBRANCH   3   4
TORSDOF 4
ENDMDL
MODEL 3
REMARK VINA RESULT:      -4.3      1.213      4.402
REMARK  4 active torsions:
REMARK  status: ('A' for Active; 'I' for Inactive)
REMARK    1  A    between atoms: C4_4  and  C6_6 
REMARK    2  A    between atoms: C5_5  and  C8_8 
REMARK    3  A    between atoms: C6_6  and  C7_7 
REMARK    4  A    between atoms: C7_7  and  C8_8 
ROOT
HETATM    1  C1  UNL     1     -35.272   4.717   5.007  1.00 20.00     0.012 C 
HETATM    2  C2  UNL     1     -34.676   5.662   5.449  1.00 20.00    -0.117 C 
HETATM    3  C4  UNL     1     -33.949   6.817   5.993  1.00 20.00     0.093 C 
ENDROOT
BRANCH   3   4
HETATM    4  C6  UNL     1     -32.926   7.378   5.002  1.00 20.00     0.014 C 
BRANCH   4   5
HETATM    5  C7  UNL     1     -33.454   7.410   3.559  1.00 20.00     0.021 C 
BRANCH   5   6
HETATM    6  C8  UNL     1     -32.511   6.723   2.559  1.00 20.00     0.082 C 
HETATM    7 CL9  UNL     1     -32.989   5.013   2.319  1.00 20.00    -0.125 Cl
BRANCH   6   8
HETATM    8  C5  UNL     1     -32.436   7.453   1.207  1.00 20.00     0.016 C 
HETATM    9  C3  UNL     1     -32.889   8.908   1.222  1.00 20.00     0.006 C 
ENDBRANCH   6   8
ENDBRANCH   5   6
ENDBRANCH   4   5
ENDBRANCH   3   4
TORSDOF 4
ENDMDL
MODEL 4
REMARK VINA RESULT:      -4.2      1.700      2.135
REMARK  4 active torsions:
REMARK  status: ('A' for Active; 'I' for Inactive)
REMARK    1  A    between atoms: C4_4  and  C6_6 
REMARK    2  A    between atoms: C5_5  and  C8_8 
REMARK    3  A    between atoms: C6_6  and  C7_7 
REMARK    4  A    between atoms: C7_7  and  C8_8 
ROOT
HETATM    1  C1  UNL     1     -33.097   9.370   0.518  1.00 20.00     0.012 C 
HETATM    2  C2  UNL     1     -32.765   8.344   1.047  1.00 20.00    -0.117 C 
HETATM    3  C4  UNL     1     -32.359   7.087   1.691  1.00 20.00     0.093 C 
ENDROOT
BRANCH   3   4
HETATM    4  C6  UNL     1     -32.239   7.225   3.210  1.00 20.00     0.014 C 
BRANCH   4   5
HETATM    5  C7  UNL     1     -33.606   7.265   3.911  1.00 20.00     0.021 C 
BRANCH   5   6
HETATM    6  C8  UNL     1     -33.824   6.084   4.870  1.00 20.00     0.082 C 
HETATM    7 CL9  UNL     1     -34.437   6.665   6.451  1.00 20.00    -0.125 Cl
BRANCH   6   8
HETATM    8  C5  UNL     1     -34.761   5.009   4.294  1.00 20.00     0.016 C 
HETATM    9  C3  UNL     1     -34.074   3.878   3.537  1.00 20.00     0.006 C 
ENDBRANCH   6   8
ENDBRANCH   5   6
ENDBRANCH   4   5
ENDBRANCH   3   4
TORSDOF 4
ENDMDL
MODEL 5
REMARK VINA RESULT:      -4.2      1.352      3.987
REMARK  4 active torsions:
REMARK  status: ('A' for Active; 'I' for Inactive)
REMARK    1  A    between atoms: C4_4  and  C6_6 
REMARK    2  A    between atoms: C5_5  and  C8_8 
REMARK    3  A    between atoms: C6_6  and  C7_7 
REMARK    4  A    between atoms: C7_7  and  C8_8 
ROOT
HETATM    1  C1  UNL     1     -33.728   7.468   6.203  1.00 20.00     0.012 C 
HETATM    2  C2  UNL     1     -34.201   6.371   6.080  1.00 20.00    -0.117 C 
HETATM    3  C4  UNL     1     -34.779   5.028   5.934  1.00 20.00     0.093 C 
ENDROOT
BRANCH   3   4
HETATM    4  C6  UNL     1     -34.987   4.643   4.467  1.00 20.00     0.014 C 
BRANCH   4   5
HETATM    5  C7  UNL     1     -34.569   5.759   3.496  1.00 20.00     0.021 C 
BRANCH   5   6
HETATM    6  C8  UNL     1     -33.147   5.573   2.944  1.00 20.00     0.082 C 
HETATM    7 CL9  UNL     1     -33.095   4.192   1.802  1.00 20.00    -0.125 Cl
BRANCH   6   8
HETATM    8  C5  UNL     1     -32.593   6.842   2.276  1.00 20.00     0.016 C 
HETATM    9  C3  UNL     1     -31.717   7.720   3.163  1.00 20.00     0.006 C 
ENDBRANCH   6   8
ENDBRANCH   5   6
ENDBRANCH   4   5
ENDBRANCH   3   4
TORSDOF 4
ENDMDL
MODEL 6
REMARK VINA RESULT:      -4.0      2.213      4.283
REMARK  4 active torsions:
REMARK  status: ('A' for Active; 'I' for Inactive)
REMARK    1  A    between atoms: C4_4  and  C6_6 
REMARK    2  A    between atoms: C5_5  and  C8_8 
REMARK    3  A    between atoms: C6_6  and  C7_7 
REMARK    4  A    between atoms: C7_7  and  C8_8 
ROOT
HETATM    1  C1  UNL     1     -34.823   5.402   5.940  1.00 20.00     0.012 C 
HETATM    2  C2  UNL     1     -34.606   4.808   4.919  1.00 20.00    -0.117 C 
HETATM    3  C4  UNL     1     -34.343   4.078   3.671  1.00 20.00     0.093 C 
ENDROOT
BRANCH   3   4
HETATM    4  C6  UNL     1     -33.299   4.779   2.798  1.00 20.00     0.014 C 
BRANCH   4   5
HETATM    5  C7  UNL     1     -33.612   6.269   2.582  1.00 20.00     0.021 C 
BRANCH   5   6
HETATM    6  C8  UNL     1     -32.367   7.098   2.228  1.00 20.00     0.082 C 
HETATM    7 CL9  UNL     1     -32.792   8.406   1.079  1.00 20.00    -0.125 Cl
BRANCH   6   8
HETATM    8  C5  UNL     1     -31.663   7.679   3.465  1.00 20.00     0.016 C 
HETATM    9  C3  UNL     1     -32.521   7.783   4.720  1.00 20.00     0.006 C 
ENDBRANCH   6   8
ENDBRANCH   5   6
ENDBRANCH   4   5
ENDBRANCH   3   4
TORSDOF 4
ENDMDL
MODEL 7
REMARK VINA RESULT:      -4.0     15.931     17.050
REMARK  4 active torsions:
REMARK  status: ('A' for Active; 'I' for Inactive)
REMARK    1  A    between atoms: C4_4  and  C6_6 
REMARK    2  A    between atoms: C5_5  and  C8_8 
REMARK    3  A    between atoms: C6_6  and  C7_7 
REMARK    4  A    between atoms: C7_7  and  C8_8 
ROOT
HETATM    1  C1  UNL     1     -25.823  18.888  12.332  1.00 20.00     0.012 C 
HETATM    2  C2  UNL     1     -25.383  17.813  12.025  1.00 20.00    -0.117 C 
HETATM    3  C4  UNL     1     -24.845  16.497  11.654  1.00 20.00     0.093 C 
ENDROOT
BRANCH   3   4
HETATM    4  C6  UNL     1     -23.918  16.571  10.438  1.00 20.00     0.014 C 
BRANCH   4   5
HETATM    5  C7  UNL     1     -22.817  17.633  10.596  1.00 20.00     0.021 C 
BRANCH   5   6
HETATM    6  C8  UNL     1     -22.617  18.483   9.332  1.00 20.00     0.082 C 
HETATM    7 CL9  UNL     1     -22.052  17.462   7.972  1.00 20.00    -0.125 Cl
BRANCH   6   8
HETATM    8  C5  UNL     1     -23.880  19.263   8.928  1.00 20.00     0.016 C 
HETATM    9  C3  UNL     1     -24.469  18.899   7.570  1.00 20.00     0.006 C 
ENDBRANCH   6   8
ENDBRANCH   5   6
ENDBRANCH   4   5
ENDBRANCH   3   4
TORSDOF 4
ENDMDL
MODEL 8
REMARK VINA RESULT:      -4.0     11.268     12.288
REMARK  4 active torsions:
REMARK  status: ('A' for Active; 'I' for Inactive)
REMARK    1  A    between atoms: C4_4  and  C6_6 
REMARK    2  A    between atoms: C5_5  and  C8_8 
REMARK    3  A    between atoms: C6_6  and  C7_7 
REMARK    4  A    between atoms: C7_7  and  C8_8 
ROOT
HETATM    1  C1  UNL     1     -35.036  16.274  -1.684  1.00 20.00     0.012 C 
HETATM    2  C2  UNL     1     -34.186  16.068  -2.508  1.00 20.00    -0.117 C 
HETATM    3  C4  UNL     1     -33.146  15.820  -3.515  1.00 20.00     0.093 C 
ENDROOT
BRANCH   3   4
HETATM    4  C6  UNL     1     -33.439  14.576  -4.358  1.00 20.00     0.014 C 
BRANCH   4   5
HETATM    5  C7  UNL     1     -34.076  14.916  -5.715  1.00 20.00     0.021 C 
BRANCH   5   6
HETATM    6  C8  UNL     1     -35.587  14.642  -5.755  1.00 20.00     0.082 C 
HETATM    7 CL9  UNL     1     -36.054  13.509  -4.448  1.00 20.00    -0.125 Cl
BRANCH   6   8
HETATM    8  C5  UNL     1     -36.431  15.926  -5.678  1.00 20.00     0.016 C 
HETATM    9  C3  UNL     1     -37.457  15.969  -4.552  1.00 20.00     0.006 C 
ENDBRANCH   6   8
ENDBRANCH   5   6
ENDBRANCH   4   5
ENDBRANCH   3   4
TORSDOF 4
ENDMDL
MODEL 9
REMARK VINA RESULT:      -3.9      9.259     10.038
REMARK  4 active torsions:
REMARK  status: ('A' for Active; 'I' for Inactive)
REMARK    1  A    between atoms: C4_4  and  C6_6 
REMARK    2  A    between atoms: C5_5  and  C8_8 
REMARK    3  A    between atoms: C6_6  and  C7_7 
REMARK    4  A    between atoms: C7_7  and  C8_8 
ROOT
HETATM    1  C1  UNL     1     -42.145   2.863  -3.343  1.00 20.00     0.012 C 
HETATM    2  C2  UNL     1     -42.268   3.757  -2.550  1.00 20.00    -0.117 C 
HETATM    3  C4  UNL     1     -42.422   4.852  -1.582  1.00 20.00     0.093 C 
ENDROOT
BRANCH   3   4
HETATM    4  C6  UNL     1     -41.074   5.374  -1.078  1.00 20.00     0.014 C 
BRANCH   4   5
HETATM    5  C7  UNL     1     -41.223   6.417   0.041  1.00 20.00     0.021 C 
BRANCH   5   6
HETATM    6  C8  UNL     1     -42.674   6.884   0.237  1.00 20.00     0.082 C 
HETATM    7 CL9  UNL     1     -43.406   6.079   1.660  1.00 20.00    -0.125 Cl
BRANCH   6   8
HETATM    8  C5  UNL     1     -42.800   8.412   0.361  1.00 20.00     0.016 C 
HETATM    9  C3  UNL     1     -41.499   9.191   0.217  1.00 20.00     0.006 C 
ENDBRANCH   6   8
ENDBRANCH   5   6
ENDBRANCH   4   5
ENDBRANCH   3   4
TORSDOF 4
ENDMDL
