MODEL 1
REMARK VINA RESULT:      -5.4      0.000      0.000
REMARK  2 active torsions:
REMARK  status: ('A' for Active; 'I' for Inactive)
REMARK    1  A    between atoms: C5_5  and  C8_8 
REMARK    2  A    between atoms: C8_8  and  C9_9 
ROOT
HETATM    1  C1  UNL     1     -33.955   4.116   2.769  1.00 20.00     0.002 C 
HETATM    2  C2  UNL     1     -32.906   5.140   2.345  1.00 20.00     0.005 C 
HETATM    3  C3  UNL     1     -34.282   4.227   4.256  1.00 20.00     0.020 C 
HETATM    4  C4  UNL     1     -33.651   6.677   4.210  1.00 20.00     0.024 C 
HETATM    5  C5  UNL     1     -33.325   6.570   2.713  1.00 20.00    -0.013 C 
HETATM    6  C6  UNL     1     -34.707   5.650   4.622  1.00 20.00     0.082 C 
HETATM    7 CL10 UNL     1     -35.006   5.759   6.380  1.00 20.00    -0.125 Cl
ENDROOT
BRANCH   5   8
HETATM    8  C8  UNL     1     -32.236   7.569   2.325  1.00 20.00     0.004 C 
BRANCH   8   9
HETATM    9  C9  UNL     1     -32.324   7.936   0.848  1.00 20.00    -0.004 C 
HETATM   10  C7  UNL     1     -33.022   9.272   0.652  1.00 20.00     0.005 C 
ENDBRANCH   8   9
ENDBRANCH   5   8
TORSDOF 2
ENDMDL
MODEL 2
REMARK VINA RESULT:      -4.3     11.207     12.130
REMARK  2 active torsions:
REMARK  status: ('A' for Active; 'I' for Inactive)
REMARK    1  A    between atoms: C5_5  and  C8_8 
REMARK    2  A    between atoms: C8_8  and  C9_9 
ROOT
HETATM    1  C1  UNL     1     -35.472  17.150  -1.230  1.00 20.00     0.002 C 
HETATM    2  C2  UNL     1     -35.232  15.908  -2.083  1.00 20.00     0.005 C 
HETATM    3  C3  UNL     1     -34.170  17.699  -0.653  1.00 20.00     0.020 C 
HETATM    4  C4  UNL     1     -32.895  16.721  -2.607  1.00 20.00     0.024 C 
HETATM    5  C5  UNL     1     -34.204  16.171  -3.193  1.00 20.00    -0.013 C 
HETATM    6  C6  UNL     1     -33.149  17.968  -1.758  1.00 20.00     0.082 C 
HETATM    7 CL10 UNL     1     -31.614  18.536  -1.040  1.00 20.00    -0.125 Cl
ENDROOT
BRANCH   5   8
HETATM    8  C8  UNL     1     -33.942  14.900  -3.998  1.00 20.00     0.004 C 
BRANCH   8   9
HETATM    9  C9  UNL     1     -35.192  14.030  -4.079  1.00 20.00    -0.004 C 
HETATM   10  C7  UNL     1     -35.965  14.292  -5.361  1.00 20.00     0.005 C 
ENDBRANCH   8   9
ENDBRANCH   5   8
TORSDOF 2
ENDMDL
MODEL 3
REMARK VINA RESULT:      -4.3     10.748     11.924
REMARK  2 active torsions:
REMARK  status: ('A' for Active; 'I' for Inactive)
REMARK    1  A    between atoms: C5_5  and  C8_8 
REMARK    2  A    between atoms: C8_8  and  C9_9 
ROOT
HETATM    1  C1  UNL     1     -32.743  17.778  -1.493  1.00 20.00     0.002 C 
HETATM    2  C2  UNL     1     -33.003  17.081  -2.826  1.00 20.00     0.005 C 
HETATM    3  C3  UNL     1     -34.041  18.251  -0.842  1.00 20.00     0.020 C 
HETATM    4  C4  UNL     1     -35.304  16.404  -2.023  1.00 20.00     0.024 C 
HETATM    5  C5  UNL     1     -34.000  15.923  -2.677  1.00 20.00    -0.013 C 
HETATM    6  C6  UNL     1     -35.031  17.097  -0.686  1.00 20.00     0.082 C 
HETATM    7 CL10 UNL     1     -36.562  17.702   0.007  1.00 20.00    -0.125 Cl
ENDROOT
BRANCH   5   8
HETATM    8  C8  UNL     1     -34.283  15.277  -4.032  1.00 20.00     0.004 C 
BRANCH   8   9
HETATM    9  C9  UNL     1     -34.865  13.877  -3.865  1.00 20.00    -0.004 C 
HETATM   10  C7  UNL     1     -36.211  13.753  -4.561  1.00 20.00     0.005 C 
ENDBRANCH   8   9
ENDBRANCH   5   8
TORSDOF 2
ENDMDL
MODEL 4
REMARK VINA RESULT:      -4.3     11.497     12.482
REMARK  2 active torsions:
REMARK  status: ('A' for Active; 'I' for Inactive)
REMARK    1  A    between atoms: C5_5  and  C8_8 
REMARK    2  A    between atoms: C8_8  and  C9_9 
ROOT
HETATM    1  C1  UNL     1     -35.171  16.290  -1.468  1.00 20.00     0.002 C 
HETATM    2  C2  UNL     1     -34.400  17.607  -1.443  1.00 20.00     0.005 C 
HETATM    3  C3  UNL     1     -35.165  15.659  -2.858  1.00 20.00     0.020 C 
HETATM    4  C4  UNL     1     -32.966  16.803  -3.365  1.00 20.00     0.024 C 
HETATM    5  C5  UNL     1     -32.967  17.437  -1.966  1.00 20.00    -0.013 C 
HETATM    6  C6  UNL     1     -33.737  15.482  -3.376  1.00 20.00     0.082 C 
HETATM    7 CL10 UNL     1     -33.773  14.813  -5.032  1.00 20.00    -0.125 Cl
ENDROOT
BRANCH   5   8
HETATM    8  C8  UNL     1     -32.234  18.777  -1.981  1.00 20.00     0.004 C 
BRANCH   8   9
HETATM    9  C9  UNL     1     -31.901  19.239  -0.566  1.00 20.00    -0.004 C 
HETATM   10  C7  UNL     1     -30.903  18.305   0.098  1.00 20.00     0.005 C 
ENDBRANCH   8   9
ENDBRANCH   5   8
TORSDOF 2
ENDMDL
MODEL 5
REMARK VINA RESULT:      -4.2     11.714     12.404
REMARK  2 active torsions:
REMARK  status: ('A' for Active; 'I' for Inactive)
REMARK    1  A    between atoms: C5_5  and  C8_8 
REMARK    2  A    between atoms: C8_8  and  C9_9 
ROOT
HETATM    1  C1  UNL     1     -36.226  13.840  -4.580  1.00 20.00     0.002 C 
HETATM    2  C2  UNL     1     -35.934  14.817  -3.445  1.00 20.00     0.005 C 
HETATM    3  C3  UNL     1     -35.794  14.401  -5.932  1.00 20.00     0.020 C 
HETATM    4  C4  UNL     1     -34.028  15.802  -4.784  1.00 20.00     0.024 C 
HETATM    5  C5  UNL     1     -34.458  15.236  -3.421  1.00 20.00    -0.013 C 
HETATM    6  C6  UNL     1     -34.321  14.812  -5.912  1.00 20.00     0.082 C 
HETATM    7 CL10 UNL     1     -33.873  15.533  -7.484  1.00 20.00    -0.125 Cl
ENDROOT
BRANCH   5   8
HETATM    8  C8  UNL     1     -34.203  16.253  -2.311  1.00 20.00     0.004 C 
BRANCH   8   9
HETATM    9  C9  UNL     1     -32.956  17.083  -2.598  1.00 20.00    -0.004 C 
HETATM   10  C7  UNL     1     -32.588  17.955  -1.408  1.00 20.00     0.005 C 
ENDBRANCH   8   9
ENDBRANCH   5   8
TORSDOF 2
ENDMDL
MODEL 6
REMARK VINA RESULT:      -4.1     11.185     11.932
REMARK  2 active torsions:
REMARK  status: ('A' for Active; 'I' for Inactive)
REMARK    1  A    between atoms: C5_5  and  C8_8 
REMARK    2  A    between atoms: C8_8  and  C9_9 
ROOT
HETATM    1  C1  UNL     1     -32.891  15.059  -4.148  1.00 20.00     0.002 C 
HETATM    2  C2  UNL     1     -34.189  14.627  -4.823  1.00 20.00     0.005 C 
HETATM    3  C3  UNL     1     -33.091  16.302  -3.284  1.00 20.00     0.020 C 
HETATM    4  C4  UNL     1     -35.515  15.668  -2.938  1.00 20.00     0.024 C 
HETATM    5  C5  UNL     1     -35.317  14.414  -3.803  1.00 20.00    -0.013 C 
HETATM    6  C6  UNL     1     -34.209  16.089  -2.263  1.00 20.00     0.082 C 
HETATM    7 CL10 UNL     1     -34.465  17.587  -1.325  1.00 20.00    -0.125 Cl
ENDROOT
BRANCH   5   8
HETATM    8  C8  UNL     1     -36.617  14.034  -4.508  1.00 20.00     0.004 C 
BRANCH   8   9
HETATM    9  C9  UNL     1     -37.556  15.231  -4.619  1.00 20.00    -0.004 C 
HETATM   10  C7  UNL     1     -38.971  14.862  -4.205  1.00 20.00     0.005 C 
ENDBRANCH   8   9
ENDBRANCH   5   8
TORSDOF 2
ENDMDL
MODEL 7
REMARK VINA RESULT:      -4.1     11.500     12.317
REMARK  2 active torsions:
REMARK  status: ('A' for Active; 'I' for Inactive)
REMARK    1  A    between atoms: C5_5  and  C8_8 
REMARK    2  A    between atoms: C8_8  and  C9_9 
ROOT
HETATM    1  C1  UNL     1     -35.180  18.044   0.357  1.00 20.00     0.002 C 
HETATM    2  C2  UNL     1     -35.275  16.878  -0.624  1.00 20.00     0.005 C 
HETATM    3  C3  UNL     1     -33.730  18.378   0.696  1.00 20.00     0.020 C 
HETATM    4  C4  UNL     1     -32.997  17.473  -1.549  1.00 20.00     0.024 C 
HETATM    5  C5  UNL     1     -34.456  17.138  -1.897  1.00 20.00    -0.013 C 
HETATM    6  C6  UNL     1     -32.915  18.645  -0.570  1.00 20.00     0.082 C 
HETATM    7 CL10 UNL     1     -31.210  18.957  -0.138  1.00 20.00    -0.125 Cl
ENDROOT
BRANCH   5   8
HETATM    8  C8  UNL     1     -34.524  15.936  -2.837  1.00 20.00     0.004 C 
BRANCH   8   9
HETATM    9  C9  UNL     1     -33.201  15.731  -3.568  1.00 20.00    -0.004 C 
HETATM   10  C7  UNL     1     -33.236  14.481  -4.431  1.00 20.00     0.005 C 
ENDBRANCH   8   9
ENDBRANCH   5   8
TORSDOF 2
ENDMDL
MODEL 8
REMARK VINA RESULT:      -4.1     11.228     12.211
REMARK  2 active torsions:
REMARK  status: ('A' for Active; 'I' for Inactive)
REMARK    1  A    between atoms: C5_5  and  C8_8 
REMARK    2  A    between atoms: C8_8  and  C9_9 
ROOT
HETATM    1  C1  UNL     1     -32.820  17.457  -3.010  1.00 20.00     0.002 C 
HETATM    2  C2  UNL     1     -33.278  17.625  -1.564  1.00 20.00     0.005 C 
HETATM    3  C3  UNL     1     -33.127  16.058  -3.540  1.00 20.00     0.020 C 
HETATM    4  C4  UNL     1     -35.069  15.876  -1.929  1.00 20.00     0.024 C 
HETATM    5  C5  UNL     1     -34.766  17.285  -1.396  1.00 20.00    -0.013 C 
HETATM    6  C6  UNL     1     -34.609  15.722  -3.380  1.00 20.00     0.082 C 
HETATM    7 CL10 UNL     1     -34.915  14.053  -3.939  1.00 20.00    -0.125 Cl
ENDROOT
BRANCH   5   8
HETATM    8  C8  UNL     1     -35.186  17.410   0.067  1.00 20.00     0.004 C 
BRANCH   8   9
HETATM    9  C9  UNL     1     -34.395  18.503   0.777  1.00 20.00    -0.004 C 
HETATM   10  C7  UNL     1     -33.887  18.027   2.128  1.00 20.00     0.005 C 
ENDBRANCH   8   9
ENDBRANCH   5   8
TORSDOF 2
ENDMDL
MODEL 9
REMARK VINA RESULT:      -3.9     11.141     12.056
REMARK  2 active torsions:
REMARK  status: ('A' for Active; 'I' for Inactive)
REMARK    1  A    between atoms: C5_5  and  C8_8 
REMARK    2  A    between atoms: C8_8  and  C9_9 
ROOT
HETATM    1  C1  UNL     1     -36.030  13.668  -4.674  1.00 20.00     0.002 C 
HETATM    2  C2  UNL     1     -34.788  14.099  -3.899  1.00 20.00     0.005 C 
HETATM    3  C3  UNL     1     -37.262  14.465  -4.252  1.00 20.00     0.020 C 
HETATM    4  C4  UNL     1     -35.779  16.405  -3.593  1.00 20.00     0.024 C 
HETATM    5  C5  UNL     1     -34.537  15.608  -4.021  1.00 20.00    -0.013 C 
HETATM    6  C6  UNL     1     -37.016  15.968  -4.380  1.00 20.00     0.082 C 
HETATM    7 CL10 UNL     1     -38.449  16.868  -3.806  1.00 20.00    -0.125 Cl
ENDROOT
BRANCH   5   8
HETATM    8  C8  UNL     1     -33.320  16.021  -3.195  1.00 20.00     0.004 C 
BRANCH   8   9
HETATM    9  C9  UNL     1     -33.718  16.950  -2.052  1.00 20.00    -0.004 C 
HETATM   10  C7  UNL     1     -32.550  17.818  -1.615  1.00 20.00     0.005 C 
ENDBRANCH   8   9
ENDBRANCH   5   8
TORSDOF 2
ENDMDL
