MODEL 1
REMARK VINA RESULT:      -4.2      0.000      0.000
REMARK  1 active torsions:
REMARK  status: ('A' for Active; 'I' for Inactive)
REMARK    1  A    between atoms: C6_6  and  C7_7 
ROOT
HETATM    1  C3  UNL     1     -22.884  17.917  10.372  1.00 20.00     0.006 C 
HETATM    2  C4  UNL     1     -22.961  17.763  11.893  1.00 20.00     0.020 C 
HETATM    3  C5  UNL     1     -25.191  18.101  11.147  1.00 20.00     0.025 C 
HETATM    4  C7  UNL     1     -24.335  18.029   9.878  1.00 20.00    -0.009 C 
HETATM    5  C8  UNL     1     -24.390  17.327  12.187  1.00 20.00     0.082 C 
HETATM    6 CL9  UNL     1     -24.577  15.565  11.960  1.00 20.00    -0.125 Cl
ENDROOT
BRANCH   4   7
HETATM    7  C6  UNL     1     -24.560  19.214   8.951  1.00 20.00    -0.010 A 
HETATM    8  C1  UNL     1     -24.413  19.051   7.463  1.00 20.00     0.005 A 
HETATM    9  C2  UNL     1     -25.774  19.263   8.066  1.00 20.00     0.005 A 
ENDBRANCH   4   7
TORSDOF 1
ENDMDL
MODEL 2
REMARK VINA RESULT:      -4.2     15.868     16.629
REMARK  1 active torsions:
REMARK  status: ('A' for Active; 'I' for Inactive)
REMARK    1  A    between atoms: C6_6  and  C7_7 
ROOT
HETATM    1  C3  UNL     1     -33.310   7.370   4.476  1.00 20.00     0.006 C 
HETATM    2  C4  UNL     1     -31.948   7.354   3.778  1.00 20.00     0.020 C 
HETATM    3  C5  UNL     1     -33.325   5.830   2.583  1.00 20.00     0.025 C 
HETATM    4  C7  UNL     1     -34.232   6.467   3.641  1.00 20.00    -0.009 C 
HETATM    5  C8  UNL     1     -32.221   6.858   2.364  1.00 20.00     0.082 C 
HETATM    6 CL9  UNL     1     -32.784   8.193   1.320  1.00 20.00    -0.125 Cl
ENDROOT
BRANCH   4   7
HETATM    7  C6  UNL     1     -34.972   5.434   4.477  1.00 20.00    -0.010 A 
HETATM    8  C1  UNL     1     -34.225   4.286   5.099  1.00 20.00     0.005 A 
HETATM    9  C2  UNL     1     -34.775   5.384   5.966  1.00 20.00     0.005 A 
ENDBRANCH   4   7
TORSDOF 1
ENDMDL
MODEL 3
REMARK VINA RESULT:      -4.1      2.208      2.759
REMARK  1 active torsions:
REMARK  status: ('A' for Active; 'I' for Inactive)
REMARK    1  A    between atoms: C6_6  and  C7_7 
ROOT
HETATM    1  C3  UNL     1     -24.293  16.026  10.595  1.00 20.00     0.006 C 
HETATM    2  C4  UNL     1     -24.657  16.212  12.070  1.00 20.00     0.020 C 
HETATM    3  C5  UNL     1     -23.360  18.107  11.463  1.00 20.00     0.025 C 
HETATM    4  C7  UNL     1     -23.545  17.301  10.173  1.00 20.00    -0.009 C 
HETATM    5  C8  UNL     1     -24.547  17.708  12.332  1.00 20.00     0.082 C 
HETATM    6 CL9  UNL     1     -26.033  18.555  11.818  1.00 20.00    -0.125 Cl
ENDROOT
BRANCH   4   7
HETATM    7  C6  UNL     1     -22.229  17.014   9.467  1.00 20.00    -0.010 A 
HETATM    8  C1  UNL     1     -22.035  17.421   8.032  1.00 20.00     0.005 A 
HETATM    9  C2  UNL     1     -21.294  18.140   9.125  1.00 20.00     0.005 A 
ENDBRANCH   4   7
TORSDOF 1
ENDMDL
MODEL 4
REMARK VINA RESULT:      -4.0     15.357     16.994
REMARK  1 active torsions:
REMARK  status: ('A' for Active; 'I' for Inactive)
REMARK    1  A    between atoms: C6_6  and  C7_7 
ROOT
HETATM    1  C3  UNL     1     -33.313  15.199  -4.034  1.00 20.00     0.006 C 
HETATM    2  C4  UNL     1     -34.374  14.099  -3.955  1.00 20.00     0.020 C 
HETATM    3  C5  UNL     1     -35.187  15.900  -2.637  1.00 20.00     0.025 C 
HETATM    4  C7  UNL     1     -33.886  16.404  -3.270  1.00 20.00    -0.009 C 
HETATM    5  C8  UNL     1     -35.670  14.808  -3.583  1.00 20.00     0.082 C 
HETATM    6 CL9  UNL     1     -36.449  15.509  -5.029  1.00 20.00    -0.125 Cl
ENDROOT
BRANCH   4   7
HETATM    7  C6  UNL     1     -32.917  16.975  -2.245  1.00 20.00    -0.010 A 
HETATM    8  C1  UNL     1     -32.550  18.433  -2.280  1.00 20.00     0.005 A 
HETATM    9  C2  UNL     1     -33.413  17.901  -1.170  1.00 20.00     0.005 A 
ENDBRANCH   4   7
TORSDOF 1
ENDMDL
MODEL 5
REMARK VINA RESULT:      -3.9     14.111     16.268
REMARK  1 active torsions:
REMARK  status: ('A' for Active; 'I' for Inactive)
REMARK    1  A    between atoms: C6_6  and  C7_7 
ROOT
HETATM    1  C3  UNL     1     -34.794  16.095  -1.990  1.00 20.00     0.006 C 
HETATM    2  C4  UNL     1     -35.404  15.817  -3.365  1.00 20.00     0.020 C 
HETATM    3  C5  UNL     1     -33.380  16.997  -3.763  1.00 20.00     0.025 C 
HETATM    4  C7  UNL     1     -33.434  16.763  -2.249  1.00 20.00    -0.009 C 
HETATM    5  C8  UNL     1     -34.242  15.884  -4.348  1.00 20.00     0.082 C 
HETATM    6 CL9  UNL     1     -33.352  14.336  -4.386  1.00 20.00    -0.125 Cl
ENDROOT
BRANCH   4   7
HETATM    7  C6  UNL     1     -33.235  18.043  -1.452  1.00 20.00    -0.010 A 
HETATM    8  C1  UNL     1     -31.936  18.297  -0.738  1.00 20.00     0.005 A 
HETATM    9  C2  UNL     1     -32.299  19.108  -1.951  1.00 20.00     0.005 A 
ENDBRANCH   4   7
TORSDOF 1
ENDMDL
MODEL 6
REMARK VINA RESULT:      -3.8     16.213     18.216
REMARK  1 active torsions:
REMARK  status: ('A' for Active; 'I' for Inactive)
REMARK    1  A    between atoms: C6_6  and  C7_7 
ROOT
HETATM    1  C3  UNL     1     -34.737  14.183  -4.020  1.00 20.00     0.006 C 
HETATM    2  C4  UNL     1     -36.111  13.699  -4.489  1.00 20.00     0.020 C 
HETATM    3  C5  UNL     1     -36.423  15.918  -3.701  1.00 20.00     0.025 C 
HETATM    4  C7  UNL     1     -34.917  15.654  -3.609  1.00 20.00    -0.009 C 
HETATM    5  C8  UNL     1     -36.910  14.962  -4.783  1.00 20.00     0.082 C 
HETATM    6 CL9  UNL     1     -36.532  15.589  -6.412  1.00 20.00    -0.125 Cl
ENDROOT
BRANCH   4   7
HETATM    7  C6  UNL     1     -34.349  15.963  -2.232  1.00 20.00    -0.010 A 
HETATM    8  C1  UNL     1     -33.502  17.187  -2.019  1.00 20.00     0.005 A 
HETATM    9  C2  UNL     1     -34.886  17.119  -1.435  1.00 20.00     0.005 A 
ENDBRANCH   4   7
TORSDOF 1
ENDMDL
MODEL 7
REMARK VINA RESULT:      -3.8     23.870     25.073
REMARK  1 active torsions:
REMARK  status: ('A' for Active; 'I' for Inactive)
REMARK    1  A    between atoms: C6_6  and  C7_7 
ROOT
HETATM    1  C3  UNL     1     -43.362   5.289  -0.100  1.00 20.00     0.006 C 
HETATM    2  C4  UNL     1     -42.271   5.780   0.853  1.00 20.00     0.020 C 
HETATM    3  C5  UNL     1     -41.182   5.274  -1.197  1.00 20.00     0.025 C 
HETATM    4  C7  UNL     1     -42.677   5.062  -1.458  1.00 20.00    -0.009 C 
HETATM    5  C8  UNL     1     -41.137   6.265  -0.040  1.00 20.00     0.082 C 
HETATM    6 CL9  UNL     1     -41.443   7.930  -0.609  1.00 20.00    -0.125 Cl
ENDROOT
BRANCH   4   7
HETATM    7  C6  UNL     1     -42.981   3.699  -2.059  1.00 20.00    -0.010 A 
HETATM    8  C1  UNL     1     -43.417   3.583  -3.494  1.00 20.00     0.005 A 
HETATM    9  C2  UNL     1     -42.055   3.100  -3.080  1.00 20.00     0.005 A 
ENDBRANCH   4   7
TORSDOF 1
ENDMDL
MODEL 8
REMARK VINA RESULT:      -3.8     15.211     16.698
REMARK  1 active torsions:
REMARK  status: ('A' for Active; 'I' for Inactive)
REMARK    1  A    between atoms: C6_6  and  C7_7 
ROOT
HETATM    1  C3  UNL     1     -35.551  16.277  -2.235  1.00 20.00     0.006 C 
HETATM    2  C4  UNL     1     -35.008  16.914  -0.954  1.00 20.00     0.020 C 
HETATM    3  C5  UNL     1     -33.165  16.742  -2.444  1.00 20.00     0.025 C 
HETATM    4  C7  UNL     1     -34.385  16.262  -3.236  1.00 20.00    -0.009 C 
HETATM    5  C8  UNL     1     -33.745  17.657  -1.373  1.00 20.00     0.082 C 
HETATM    6 CL9  UNL     1     -34.146  19.262  -2.047  1.00 20.00    -0.125 Cl
ENDROOT
BRANCH   4   7
HETATM    7  C6  UNL     1     -34.169  14.902  -3.880  1.00 20.00    -0.010 A 
HETATM    8  C1  UNL     1     -33.951  14.791  -5.364  1.00 20.00     0.005 A 
HETATM    9  C2  UNL     1     -32.816  14.525  -4.416  1.00 20.00     0.005 A 
ENDBRANCH   4   7
TORSDOF 1
ENDMDL
MODEL 9
REMARK VINA RESULT:      -3.8     15.035     16.703
REMARK  1 active torsions:
REMARK  status: ('A' for Active; 'I' for Inactive)
REMARK    1  A    between atoms: C6_6  and  C7_7 
ROOT
HETATM    1  C3  UNL     1     -35.096  17.057  -1.627  1.00 20.00     0.006 C 
HETATM    2  C4  UNL     1     -33.857  17.659  -0.961  1.00 20.00     0.020 C 
HETATM    3  C5  UNL     1     -33.082  16.514  -2.893  1.00 20.00     0.025 C 
HETATM    4  C7  UNL     1     -34.610  16.408  -2.932  1.00 20.00    -0.009 C 
HETATM    5  C8  UNL     1     -32.811  17.763  -2.063  1.00 20.00     0.082 C 
HETATM    6 CL9  UNL     1     -33.056  19.243  -3.033  1.00 20.00    -0.125 Cl
ENDROOT
BRANCH   4   7
HETATM    7  C6  UNL     1     -35.094  14.976  -3.103  1.00 20.00    -0.010 A 
HETATM    8  C1  UNL     1     -35.841  14.571  -4.344  1.00 20.00     0.005 A 
HETATM    9  C2  UNL     1     -34.442  14.072  -4.111  1.00 20.00     0.005 A 
ENDBRANCH   4   7
TORSDOF 1
ENDMDL
