MODEL 1
REMARK VINA RESULT:      -5.2      0.000      0.000
REMARK  2 active torsions:
REMARK  status: ('A' for Active; 'I' for Inactive)
REMARK    1  A    between atoms: C9_9  and  C11_11 
REMARK    2  A    between atoms: C10_10  and  C11_11 
ROOT
HETATM    1  C1  UNL     1     -33.626   9.205  -0.358  1.00 20.00     0.012 C 
HETATM    2  C2  UNL     1     -32.908   8.506   0.303  1.00 20.00    -0.117 C 
HETATM    3  C10 UNL     1     -32.026   7.649   1.107  1.00 20.00     0.093 C 
ENDROOT
BRANCH   3   4
HETATM    4  C11 UNL     1     -32.246   7.921   2.581  1.00 20.00     0.017 C 
BRANCH   4   5
HETATM    5  C9  UNL     1     -33.193   6.876   3.186  1.00 20.00    -0.007 C 
HETATM    6  C5  UNL     1     -32.968   6.802   4.701  1.00 20.00     0.082 C 
HETATM    7  C3  UNL     1     -34.187   6.360   5.479  1.00 20.00     0.127 C 
HETATM    8  C4  UNL     1     -35.028   5.210   4.973  1.00 20.00     0.078 C 
HETATM    9  O12 UNL     1     -34.501   6.940   6.524  1.00 20.00    -0.298 OA
HETATM   10  C6  UNL     1     -34.244   4.130   4.241  1.00 20.00     0.007 C 
HETATM   11  C7  UNL     1     -34.010   4.460   2.769  1.00 20.00     0.001 C 
HETATM   12  C8  UNL     1     -32.943   5.520   2.506  1.00 20.00     0.005 C 
ENDBRANCH   4   5
ENDBRANCH   3   4
TORSDOF 2
ENDMDL
MODEL 2
REMARK VINA RESULT:      -5.1      1.630      2.451
REMARK  2 active torsions:
REMARK  status: ('A' for Active; 'I' for Inactive)
REMARK    1  A    between atoms: C9_9  and  C11_11 
REMARK    2  A    between atoms: C10_10  and  C11_11 
ROOT
HETATM    1  C1  UNL     1     -32.938   9.455   0.293  1.00 20.00     0.012 C 
HETATM    2  C2  UNL     1     -32.741   8.424   0.875  1.00 20.00    -0.117 C 
HETATM    3  C10 UNL     1     -32.502   7.159   1.583  1.00 20.00     0.093 C 
ENDROOT
BRANCH   3   4
HETATM    4  C11 UNL     1     -32.016   7.438   2.990  1.00 20.00     0.017 C 
BRANCH   4   5
HETATM    5  C9  UNL     1     -32.792   6.590   4.005  1.00 20.00    -0.007 C 
HETATM    6  C5  UNL     1     -33.825   5.731   3.267  1.00 20.00     0.082 C 
HETATM    7  C3  UNL     1     -34.172   4.443   3.981  1.00 20.00     0.127 C 
HETATM    8  C4  UNL     1     -34.402   4.449   5.475  1.00 20.00     0.078 C 
HETATM    9  O12 UNL     1     -34.262   3.387   3.348  1.00 20.00    -0.298 OA
HETATM   10  C6  UNL     1     -35.026   5.729   6.013  1.00 20.00     0.007 C 
HETATM   11  C7  UNL     1     -33.997   6.825   6.279  1.00 20.00     0.001 C 
HETATM   12  C8  UNL     1     -33.456   7.521   5.033  1.00 20.00     0.005 C 
ENDBRANCH   4   5
ENDBRANCH   3   4
TORSDOF 2
ENDMDL
MODEL 3
REMARK VINA RESULT:      -5.1     10.615     11.927
REMARK  2 active torsions:
REMARK  status: ('A' for Active; 'I' for Inactive)
REMARK    1  A    between atoms: C9_9  and  C11_11 
REMARK    2  A    between atoms: C10_10  and  C11_11 
ROOT
HETATM    1  C1  UNL     1     -31.433  18.506  -0.485  1.00 20.00     0.012 C 
HETATM    2  C2  UNL     1     -32.181  17.978  -1.262  1.00 20.00    -0.117 C 
HETATM    3  C10 UNL     1     -33.092  17.333  -2.216  1.00 20.00     0.093 C 
ENDROOT
BRANCH   3   4
HETATM    4  C11 UNL     1     -34.353  16.886  -1.505  1.00 20.00     0.017 C 
BRANCH   4   5
HETATM    5  C9  UNL     1     -35.258  16.096  -2.459  1.00 20.00    -0.007 C 
HETATM    6  C5  UNL     1     -34.391  15.248  -3.397  1.00 20.00     0.082 C 
HETATM    7  C3  UNL     1     -35.077  13.995  -3.897  1.00 20.00     0.127 C 
HETATM    8  C4  UNL     1     -36.517  14.056  -4.354  1.00 20.00     0.078 C 
HETATM    9  O12 UNL     1     -34.466  12.923  -3.928  1.00 20.00    -0.298 OA
HETATM   10  C6  UNL     1     -36.918  15.373  -5.006  1.00 20.00     0.007 C 
HETATM   11  C7  UNL     1     -37.311  16.443  -3.990  1.00 20.00     0.001 C 
HETATM   12  C8  UNL     1     -36.145  17.080  -3.238  1.00 20.00     0.005 C 
ENDBRANCH   4   5
ENDBRANCH   3   4
TORSDOF 2
ENDMDL
MODEL 4
REMARK VINA RESULT:      -5.0     10.803     12.310
REMARK  2 active torsions:
REMARK  status: ('A' for Active; 'I' for Inactive)
REMARK    1  A    between atoms: C9_9  and  C11_11 
REMARK    2  A    between atoms: C10_10  and  C11_11 
ROOT
HETATM    1  C1  UNL     1     -32.737  18.716  -0.153  1.00 20.00     0.012 C 
HETATM    2  C2  UNL     1     -32.876  17.985  -1.095  1.00 20.00    -0.117 C 
HETATM    3  C10 UNL     1     -33.041  17.090  -2.249  1.00 20.00     0.093 C 
ENDROOT
BRANCH   3   4
HETATM    4  C11 UNL     1     -34.370  16.370  -2.157  1.00 20.00     0.017 C 
BRANCH   4   5
HETATM    5  C9  UNL     1     -34.847  15.940  -3.550  1.00 20.00    -0.007 C 
HETATM    6  C5  UNL     1     -34.549  14.449  -3.753  1.00 20.00     0.082 C 
HETATM    7  C3  UNL     1     -35.492  13.763  -4.716  1.00 20.00     0.127 C 
HETATM    8  C4  UNL     1     -35.877  14.446  -6.009  1.00 20.00     0.078 C 
HETATM    9  O12 UNL     1     -35.952  12.649  -4.447  1.00 20.00    -0.298 OA
HETATM   10  C6  UNL     1     -34.785  15.319  -6.612  1.00 20.00     0.007 C 
HETATM   11  C7  UNL     1     -34.747  16.721  -6.011  1.00 20.00     0.001 C 
HETATM   12  C8  UNL     1     -34.149  16.809  -4.609  1.00 20.00     0.005 C 
ENDBRANCH   4   5
ENDBRANCH   3   4
TORSDOF 2
ENDMDL
MODEL 5
REMARK VINA RESULT:      -4.8     10.821     12.249
REMARK  2 active torsions:
REMARK  status: ('A' for Active; 'I' for Inactive)
REMARK    1  A    between atoms: C9_9  and  C11_11 
REMARK    2  A    between atoms: C10_10  and  C11_11 
ROOT
HETATM    1  C1  UNL     1     -34.383  18.035   0.870  1.00 20.00     0.012 C 
HETATM    2  C2  UNL     1     -34.810  17.447  -0.086  1.00 20.00    -0.117 C 
HETATM    3  C10 UNL     1     -35.336  16.729  -1.254  1.00 20.00     0.093 C 
ENDROOT
BRANCH   3   4
HETATM    4  C11 UNL     1     -34.201  16.348  -2.181  1.00 20.00     0.017 C 
BRANCH   4   5
HETATM    5  C9  UNL     1     -34.742  15.947  -3.559  1.00 20.00    -0.007 C 
HETATM    6  C5  UNL     1     -34.493  14.451  -3.788  1.00 20.00     0.082 C 
HETATM    7  C3  UNL     1     -35.491  13.801  -4.721  1.00 20.00     0.127 C 
HETATM    8  C4  UNL     1     -35.908  14.508  -5.991  1.00 20.00     0.078 C 
HETATM    9  O12 UNL     1     -35.971  12.697  -4.445  1.00 20.00    -0.298 OA
HETATM   10  C6  UNL     1     -34.817  15.358  -6.627  1.00 20.00     0.007 C 
HETATM   11  C7  UNL     1     -34.717  16.753  -6.014  1.00 20.00     0.001 C 
HETATM   12  C8  UNL     1     -34.063  16.809  -4.636  1.00 20.00     0.005 C 
ENDBRANCH   4   5
ENDBRANCH   3   4
TORSDOF 2
ENDMDL
MODEL 6
REMARK VINA RESULT:      -4.7     10.987     11.970
REMARK  2 active torsions:
REMARK  status: ('A' for Active; 'I' for Inactive)
REMARK    1  A    between atoms: C9_9  and  C11_11 
REMARK    2  A    between atoms: C10_10  and  C11_11 
ROOT
HETATM    1  C1  UNL     1     -34.233  15.146  -6.803  1.00 20.00     0.012 C 
HETATM    2  C2  UNL     1     -33.852  15.010  -5.673  1.00 20.00    -0.117 C 
HETATM    3  C10 UNL     1     -33.381  14.842  -4.291  1.00 20.00     0.093 C 
ENDROOT
BRANCH   3   4
HETATM    4  C11 UNL     1     -34.527  15.064  -3.325  1.00 20.00     0.017 C 
BRANCH   4   5
HETATM    5  C9  UNL     1     -34.152  16.125  -2.282  1.00 20.00    -0.007 C 
HETATM    6  C5  UNL     1     -35.401  16.931  -1.906  1.00 20.00     0.082 C 
HETATM    7  C3  UNL     1     -35.357  17.509  -0.508  1.00 20.00     0.127 C 
HETATM    8  C4  UNL     1     -34.089  18.156   0.000  1.00 20.00     0.078 C 
HETATM    9  O12 UNL     1     -36.353  17.448   0.220  1.00 20.00    -0.298 OA
HETATM   10  C6  UNL     1     -33.270  18.866  -1.069  1.00 20.00     0.007 C 
HETATM   11  C7  UNL     1     -32.349  17.921  -1.836  1.00 20.00     0.001 C 
HETATM   12  C8  UNL     1     -33.046  17.025  -2.856  1.00 20.00     0.005 C 
ENDBRANCH   4   5
ENDBRANCH   3   4
TORSDOF 2
ENDMDL
MODEL 7
REMARK VINA RESULT:      -4.7     11.116     12.077
REMARK  2 active torsions:
REMARK  status: ('A' for Active; 'I' for Inactive)
REMARK    1  A    between atoms: C9_9  and  C11_11 
REMARK    2  A    between atoms: C10_10  and  C11_11 
ROOT
HETATM    1  C1  UNL     1     -36.053  13.548  -4.528  1.00 20.00     0.012 C 
HETATM    2  C2  UNL     1     -35.181  14.229  -4.062  1.00 20.00    -0.117 C 
HETATM    3  C10 UNL     1     -34.111  15.059  -3.491  1.00 20.00     0.093 C 
ENDROOT
BRANCH   3   4
HETATM    4  C11 UNL     1     -34.424  16.525  -3.705  1.00 20.00     0.017 C 
BRANCH   4   5
HETATM    5  C9  UNL     1     -34.282  17.303  -2.390  1.00 20.00    -0.007 C 
HETATM    6  C5  UNL     1     -32.812  17.304  -1.956  1.00 20.00     0.082 C 
HETATM    7  C3  UNL     1     -32.422  18.503  -1.120  1.00 20.00     0.127 C 
HETATM    8  C4  UNL     1     -33.339  18.985  -0.020  1.00 20.00     0.078 C 
HETATM    9  O12 UNL     1     -31.359  19.093  -1.339  1.00 20.00    -0.298 OA
HETATM   10  C6  UNL     1     -34.125  17.882   0.676  1.00 20.00     0.007 C 
HETATM   11  C7  UNL     1     -35.401  17.501  -0.070  1.00 20.00     0.001 C 
HETATM   12  C8  UNL     1     -35.189  16.663  -1.328  1.00 20.00     0.005 C 
ENDBRANCH   4   5
ENDBRANCH   3   4
TORSDOF 2
ENDMDL
MODEL 8
REMARK VINA RESULT:      -4.6     10.631     11.897
REMARK  2 active torsions:
REMARK  status: ('A' for Active; 'I' for Inactive)
REMARK    1  A    between atoms: C9_9  and  C11_11 
REMARK    2  A    between atoms: C10_10  and  C11_11 
ROOT
HETATM    1  C1  UNL     1     -34.160  18.005   1.909  1.00 20.00     0.012 C 
HETATM    2  C2  UNL     1     -34.718  17.824   0.861  1.00 20.00    -0.117 C 
HETATM    3  C10 UNL     1     -35.403  17.605  -0.419  1.00 20.00     0.093 C 
ENDROOT
BRANCH   3   4
HETATM    4  C11 UNL     1     -34.476  16.899  -1.387  1.00 20.00     0.017 C 
BRANCH   4   5
HETATM    5  C9  UNL     1     -35.282  16.078  -2.402  1.00 20.00    -0.007 C 
HETATM    6  C5  UNL     1     -34.318  15.331  -3.332  1.00 20.00     0.082 C 
HETATM    7  C3  UNL     1     -34.886  14.049  -3.899  1.00 20.00     0.127 C 
HETATM    8  C4  UNL     1     -36.309  14.016  -4.411  1.00 20.00     0.078 C 
HETATM    9  O12 UNL     1     -34.193  13.028  -3.941  1.00 20.00    -0.298 OA
HETATM   10  C6  UNL     1     -36.786  15.321  -5.034  1.00 20.00     0.007 C 
HETATM   11  C7  UNL     1     -37.298  16.321  -4.000  1.00 20.00     0.001 C 
HETATM   12  C8  UNL     1     -36.213  17.018  -3.183  1.00 20.00     0.005 C 
ENDBRANCH   4   5
ENDBRANCH   3   4
TORSDOF 2
ENDMDL
MODEL 9
REMARK VINA RESULT:      -4.6     11.321     12.686
REMARK  2 active torsions:
REMARK  status: ('A' for Active; 'I' for Inactive)
REMARK    1  A    between atoms: C9_9  and  C11_11 
REMARK    2  A    between atoms: C10_10  and  C11_11 
ROOT
HETATM    1  C1  UNL     1     -35.201  16.749  -1.042  1.00 20.00     0.012 C 
HETATM    2  C2  UNL     1     -34.298  16.606  -1.820  1.00 20.00    -0.117 C 
HETATM    3  C10 UNL     1     -33.190  16.435  -2.770  1.00 20.00     0.093 C 
ENDROOT
BRANCH   3   4
HETATM    4  C11 UNL     1     -33.554  15.389  -3.804  1.00 20.00     0.017 C 
BRANCH   4   5
HETATM    5  C9  UNL     1     -34.879  15.747  -4.488  1.00 20.00    -0.007 C 
HETATM    6  C5  UNL     1     -35.658  14.461  -4.791  1.00 20.00     0.082 C 
HETATM    7  C3  UNL     1     -37.158  14.652  -4.835  1.00 20.00     0.127 C 
HETATM    8  C4  UNL     1     -37.745  15.852  -5.543  1.00 20.00     0.078 C 
HETATM    9  O12 UNL     1     -37.904  13.832  -4.290  1.00 20.00    -0.298 OA
HETATM   10  C6  UNL     1     -36.952  16.321  -6.754  1.00 20.00     0.007 C 
HETATM   11  C7  UNL     1     -35.794  17.245  -6.384  1.00 20.00     0.001 C 
HETATM   12  C8  UNL     1     -34.584  16.549  -5.765  1.00 20.00     0.005 C 
ENDBRANCH   4   5
ENDBRANCH   3   4
TORSDOF 2
ENDMDL
