MODEL 1
REMARK VINA RESULT:      -5.2      0.000      0.000
REMARK  1 active torsions:
REMARK  status: ('A' for Active; 'I' for Inactive)
REMARK    1  A    between atoms: C8_8  and  C9_9 
ROOT
HETATM    1  C1  UNL     1     -35.213  17.013  -0.607  1.00 20.00     0.006 C 
HETATM    2  C2  UNL     1     -34.465  17.902   0.390  1.00 20.00     0.020 C 
HETATM    3  C5  UNL     1     -33.087  17.714  -1.547  1.00 20.00     0.025 C 
HETATM    4  C8  UNL     1     -34.433  17.097  -1.928  1.00 20.00    -0.009 C 
HETATM    5  C10 UNL     1     -33.481  18.699  -0.456  1.00 20.00     0.082 C 
HETATM    6 CL12 UNL     1     -32.088  19.262   0.478  1.00 20.00    -0.125 Cl
ENDROOT
BRANCH   4   7
HETATM    7  C9  UNL     1     -34.294  15.751  -2.633  1.00 20.00    -0.006 C 
HETATM    8  C3  UNL     1     -33.141  15.773  -3.642  1.00 20.00     0.031 C 
HETATM    9  C6  UNL     1     -33.091  14.469  -4.430  1.00 20.00     0.168 C 
HETATM   10  O11 UNL     1     -34.338  14.222  -5.078  1.00 20.00    -0.391 OA
HETATM   11  C7  UNL     1     -35.410  14.082  -4.146  1.00 20.00     0.168 C 
HETATM   12  C4  UNL     1     -35.597  15.362  -3.341  1.00 20.00     0.031 C 
ENDBRANCH   4   7
TORSDOF 1
ENDMDL
MODEL 2
REMARK VINA RESULT:      -5.0      1.506      2.612
REMARK  1 active torsions:
REMARK  status: ('A' for Active; 'I' for Inactive)
REMARK    1  A    between atoms: C8_8  and  C9_9 
ROOT
HETATM    1  C1  UNL     1     -33.038  16.615  -3.033  1.00 20.00     0.006 C 
HETATM    2  C2  UNL     1     -32.824  17.831  -2.126  1.00 20.00     0.020 C 
HETATM    3  C5  UNL     1     -34.967  16.930  -1.593  1.00 20.00     0.025 C 
HETATM    4  C8  UNL     1     -34.301  15.910  -2.517  1.00 20.00    -0.009 C 
HETATM    5  C10 UNL     1     -33.769  17.614  -0.951  1.00 20.00     0.082 C 
HETATM    6 CL12 UNL     1     -34.208  19.129  -0.149  1.00 20.00    -0.125 Cl
ENDROOT
BRANCH   4   7
HETATM    7  C9  UNL     1     -35.221  15.426  -3.634  1.00 20.00    -0.006 C 
HETATM    8  C3  UNL     1     -36.678  15.813  -3.356  1.00 20.00     0.031 C 
HETATM    9  C6  UNL     1     -37.602  15.218  -4.411  1.00 20.00     0.168 C 
HETATM   10  O11 UNL     1     -37.449  13.801  -4.477  1.00 20.00    -0.391 OA
HETATM   11  C7  UNL     1     -36.125  13.420  -4.850  1.00 20.00     0.168 C 
HETATM   12  C4  UNL     1     -35.113  13.909  -3.821  1.00 20.00     0.031 C 
ENDBRANCH   4   7
TORSDOF 1
ENDMDL
MODEL 3
REMARK VINA RESULT:      -4.9      0.817      1.616
REMARK  1 active torsions:
REMARK  status: ('A' for Active; 'I' for Inactive)
REMARK    1  A    between atoms: C8_8  and  C9_9 
ROOT
HETATM    1  C1  UNL     1     -34.766  17.360  -1.126  1.00 20.00     0.006 C 
HETATM    2  C2  UNL     1     -33.771  17.791  -0.044  1.00 20.00     0.020 C 
HETATM    3  C5  UNL     1     -32.583  17.761  -2.112  1.00 20.00     0.025 C 
HETATM    4  C8  UNL     1     -34.057  17.577  -2.472  1.00 20.00    -0.009 C 
HETATM    5  C10 UNL     1     -32.666  18.521  -0.795  1.00 20.00     0.082 C 
HETATM    6 CL12 UNL     1     -31.131  18.512   0.085  1.00 20.00    -0.125 Cl
ENDROOT
BRANCH   4   7
HETATM    7  C9  UNL     1     -34.291  16.443  -3.466  1.00 20.00    -0.006 C 
HETATM    8  C3  UNL     1     -35.434  15.532  -3.005  1.00 20.00     0.031 C 
HETATM    9  C6  UNL     1     -35.576  14.334  -3.937  1.00 20.00     0.168 C 
HETATM   10  O11 UNL     1     -34.347  13.615  -4.027  1.00 20.00    -0.391 OA
HETATM   11  C7  UNL     1     -33.294  14.414  -4.566  1.00 20.00     0.168 C 
HETATM   12  C4  UNL     1     -33.017  15.616  -3.671  1.00 20.00     0.031 C 
ENDBRANCH   4   7
TORSDOF 1
ENDMDL
MODEL 4
REMARK VINA RESULT:      -4.9      1.301      2.322
REMARK  1 active torsions:
REMARK  status: ('A' for Active; 'I' for Inactive)
REMARK    1  A    between atoms: C8_8  and  C9_9 
ROOT
HETATM    1  C1  UNL     1     -33.196  16.558  -3.205  1.00 20.00     0.006 C 
HETATM    2  C2  UNL     1     -32.774  17.818  -2.445  1.00 20.00     0.020 C 
HETATM    3  C5  UNL     1     -34.757  17.004  -1.399  1.00 20.00     0.025 C 
HETATM    4  C8  UNL     1     -34.323  15.915  -2.381  1.00 20.00    -0.009 C 
HETATM    5  C10 UNL     1     -33.439  17.694  -1.080  1.00 20.00     0.082 C 
HETATM    6 CL12 UNL     1     -33.672  19.263  -0.296  1.00 20.00    -0.125 Cl
ENDROOT
BRANCH   4   7
HETATM    7  C9  UNL     1     -35.472  15.391  -3.238  1.00 20.00    -0.006 C 
HETATM    8  C3  UNL     1     -35.086  14.085  -3.940  1.00 20.00     0.031 C 
HETATM    9  C6  UNL     1     -36.192  13.639  -4.889  1.00 20.00     0.168 C 
HETATM   10  O11 UNL     1     -36.492  14.664  -5.835  1.00 20.00    -0.391 OA
HETATM   11  C7  UNL     1     -36.966  15.853  -5.206  1.00 20.00     0.168 C 
HETATM   12  C4  UNL     1     -35.907  16.432  -4.276  1.00 20.00     0.031 C 
ENDBRANCH   4   7
TORSDOF 1
ENDMDL
MODEL 5
REMARK VINA RESULT:      -4.8      1.743      2.316
REMARK  1 active torsions:
REMARK  status: ('A' for Active; 'I' for Inactive)
REMARK    1  A    between atoms: C8_8  and  C9_9 
ROOT
HETATM    1  C1  UNL     1     -33.172  17.092  -3.246  1.00 20.00     0.006 C 
HETATM    2  C2  UNL     1     -33.644  18.199  -2.298  1.00 20.00     0.020 C 
HETATM    3  C5  UNL     1     -34.983  16.277  -1.848  1.00 20.00     0.025 C 
HETATM    4  C8  UNL     1     -33.870  15.804  -2.785  1.00 20.00    -0.009 C 
HETATM    5  C10 UNL     1     -34.336  17.467  -1.155  1.00 20.00     0.082 C 
HETATM    6 CL12 UNL     1     -35.518  18.485  -0.320  1.00 20.00    -0.125 Cl
ENDROOT
BRANCH   4   7
HETATM    7  C9  UNL     1     -34.385  14.950  -3.940  1.00 20.00    -0.006 C 
HETATM    8  C3  UNL     1     -34.268  15.697  -5.273  1.00 20.00     0.031 C 
HETATM    9  C6  UNL     1     -34.899  14.887  -6.399  1.00 20.00     0.168 C 
HETATM   10  O11 UNL     1     -36.259  14.578  -6.099  1.00 20.00    -0.391 OA
HETATM   11  C7  UNL     1     -36.382  13.781  -4.922  1.00 20.00     0.168 C 
HETATM   12  C4  UNL     1     -35.839  14.525  -3.707  1.00 20.00     0.031 C 
ENDBRANCH   4   7
TORSDOF 1
ENDMDL
MODEL 6
REMARK VINA RESULT:      -4.7      3.393      5.272
REMARK  1 active torsions:
REMARK  status: ('A' for Active; 'I' for Inactive)
REMARK    1  A    between atoms: C8_8  and  C9_9 
ROOT
HETATM    1  C1  UNL     1     -35.057  13.968  -3.859  1.00 20.00     0.006 C 
HETATM    2  C2  UNL     1     -35.922  14.001  -5.123  1.00 20.00     0.020 C 
HETATM    3  C5  UNL     1     -34.630  16.006  -5.109  1.00 20.00     0.025 C 
HETATM    4  C8  UNL     1     -34.066  15.135  -3.986  1.00 20.00    -0.009 C 
HETATM    5  C10 UNL     1     -35.211  14.969  -6.060  1.00 20.00     0.082 C 
HETATM    6 CL12 UNL     1     -36.307  15.685  -7.250  1.00 20.00    -0.125 Cl
ENDROOT
BRANCH   4   7
HETATM    7  C9  UNL     1     -33.865  15.900  -2.681  1.00 20.00    -0.006 C 
HETATM    8  C3  UNL     1     -35.210  16.259  -2.040  1.00 20.00     0.031 C 
HETATM    9  C6  UNL     1     -35.001  17.130  -0.807  1.00 20.00     0.168 C 
HETATM   10  O11 UNL     1     -34.257  18.302  -1.135  1.00 20.00    -0.391 OA
HETATM   11  C7  UNL     1     -32.954  17.992  -1.626  1.00 20.00     0.168 C 
HETATM   12  C4  UNL     1     -33.041  17.172  -2.908  1.00 20.00     0.031 C 
ENDBRANCH   4   7
TORSDOF 1
ENDMDL
MODEL 7
REMARK VINA RESULT:      -4.7      3.299      5.104
REMARK  1 active torsions:
REMARK  status: ('A' for Active; 'I' for Inactive)
REMARK    1  A    between atoms: C8_8  and  C9_9 
ROOT
HETATM    1  C1  UNL     1     -32.994  17.148  -2.754  1.00 20.00     0.006 C 
HETATM    2  C2  UNL     1     -33.044  15.789  -3.458  1.00 20.00     0.020 C 
HETATM    3  C5  UNL     1     -35.159  16.106  -2.401  1.00 20.00     0.025 C 
HETATM    4  C8  UNL     1     -34.428  17.444  -2.287  1.00 20.00    -0.009 C 
HETATM    5  C10 UNL     1     -34.528  15.499  -3.646  1.00 20.00     0.082 C 
HETATM    6 CL12 UNL     1     -34.864  13.768  -3.796  1.00 20.00    -0.125 Cl
ENDROOT
BRANCH   4   7
HETATM    7  C9  UNL     1     -34.494  18.042  -0.885  1.00 20.00    -0.006 C 
HETATM    8  C3  UNL     1     -33.091  18.205  -0.288  1.00 20.00     0.031 C 
HETATM    9  C6  UNL     1     -33.175  18.684   1.156  1.00 20.00     0.168 C 
HETATM   10  O11 UNL     1     -33.969  17.794   1.940  1.00 20.00    -0.391 OA
HETATM   11  C7  UNL     1     -35.313  17.717   1.469  1.00 20.00     0.168 C 
HETATM   12  C4  UNL     1     -35.357  17.181   0.044  1.00 20.00     0.031 C 
ENDBRANCH   4   7
TORSDOF 1
ENDMDL
MODEL 8
REMARK VINA RESULT:      -4.7      1.226      2.123
REMARK  1 active torsions:
REMARK  status: ('A' for Active; 'I' for Inactive)
REMARK    1  A    between atoms: C8_8  and  C9_9 
ROOT
HETATM    1  C1  UNL     1     -34.272  17.995   0.156  1.00 20.00     0.006 C 
HETATM    2  C2  UNL     1     -33.168  18.111   1.211  1.00 20.00     0.020 C 
HETATM    3  C5  UNL     1     -32.108  18.216  -0.923  1.00 20.00     0.025 C 
HETATM    4  C8  UNL     1     -33.610  18.304  -1.195  1.00 20.00    -0.009 C 
HETATM    5  C10 UNL     1     -32.004  18.776   0.489  1.00 20.00     0.082 C 
HETATM    6 CL12 UNL     1     -30.445  18.413   1.243  1.00 20.00    -0.125 Cl
ENDROOT
BRANCH   4   7
HETATM    7  C9  UNL     1     -34.068  17.377  -2.317  1.00 20.00    -0.006 C 
HETATM    8  C3  UNL     1     -35.093  16.358  -1.807  1.00 20.00     0.031 C 
HETATM    9  C6  UNL     1     -35.448  15.359  -2.902  1.00 20.00     0.168 C 
HETATM   10  O11 UNL     1     -34.277  14.711  -3.395  1.00 20.00    -0.391 OA
HETATM   11  C7  UNL     1     -33.359  15.632  -3.981  1.00 20.00     0.168 C 
HETATM   12  C4  UNL     1     -32.879  16.647  -2.951  1.00 20.00     0.031 C 
ENDBRANCH   4   7
TORSDOF 1
ENDMDL
MODEL 9
REMARK VINA RESULT:      -4.6      3.268      5.050
REMARK  1 active torsions:
REMARK  status: ('A' for Active; 'I' for Inactive)
REMARK    1  A    between atoms: C8_8  and  C9_9 
ROOT
HETATM    1  C1  UNL     1     -33.203  16.013  -3.329  1.00 20.00     0.006 C 
HETATM    2  C2  UNL     1     -33.681  14.685  -3.923  1.00 20.00     0.020 C 
HETATM    3  C5  UNL     1     -35.628  15.898  -3.267  1.00 20.00     0.025 C 
HETATM    4  C8  UNL     1     -34.459  16.875  -3.135  1.00 20.00    -0.009 C 
HETATM    5  C10 UNL     1     -35.125  14.938  -4.337  1.00 20.00     0.082 C 
HETATM    6 CL12 UNL     1     -36.078  13.450  -4.408  1.00 20.00    -0.125 Cl
ENDROOT
BRANCH   4   7
HETATM    7  C9  UNL     1     -34.468  17.640  -1.815  1.00 20.00    -0.006 C 
HETATM    8  C3  UNL     1     -33.044  17.843  -1.285  1.00 20.00     0.031 C 
HETATM    9  C6  UNL     1     -33.071  18.494   0.092  1.00 20.00     0.168 C 
HETATM   10  O11 UNL     1     -33.855  17.724   1.002  1.00 20.00    -0.391 OA
HETATM   11  C7  UNL     1     -35.216  17.621   0.585  1.00 20.00     0.168 C 
HETATM   12  C4  UNL     1     -35.317  16.918  -0.763  1.00 20.00     0.031 C 
ENDBRANCH   4   7
TORSDOF 1
ENDMDL
