MODEL 1
REMARK VINA RESULT:      -4.7      0.000      0.000
REMARK  2 active torsions:
REMARK  status: ('A' for Active; 'I' for Inactive)
REMARK    1  A    between atoms: C6_6  and  C7_7 
REMARK    2  A    between atoms: C8_8  and  O9_9 
ROOT
HETATM    1  C3  UNL     1     -33.445  14.533  -4.444  1.00 20.00     0.007 C 
HETATM    2  C4  UNL     1     -33.949  14.953  -5.824  1.00 20.00     0.032 C 
HETATM    3  C5  UNL     1     -35.797  14.194  -4.415  1.00 20.00     0.036 C 
HETATM    4  C7  UNL     1     -34.653  14.661  -3.518  1.00 20.00    -0.008 C 
HETATM    5  C8  UNL     1     -35.467  14.758  -5.796  1.00 20.00     0.118 C 
ENDROOT
BRANCH   4   6
HETATM    6  C6  UNL     1     -34.852  16.091  -3.018  1.00 20.00    -0.010 A 
HETATM    7  C1  UNL     1     -35.036  16.362  -1.551  1.00 20.00     0.005 A 
HETATM    8  C2  UNL     1     -33.766  16.778  -2.238  1.00 20.00     0.005 A 
ENDBRANCH   4   6
BRANCH   5   9
HETATM    9  O9  UNL     1     -35.890  13.853  -6.802  1.00 20.00    -0.396 OA
HETATM   10  H23 UNL     1     -35.923  12.975  -6.389  1.00 20.00     0.210 HD
ENDBRANCH   5   9
TORSDOF 2
ENDMDL
MODEL 2
REMARK VINA RESULT:      -4.2      2.016      2.561
REMARK  2 active torsions:
REMARK  status: ('A' for Active; 'I' for Inactive)
REMARK    1  A    between atoms: C6_6  and  C7_7 
REMARK    2  A    between atoms: C8_8  and  O9_9 
ROOT
HETATM    1  C3  UNL     1     -34.159  15.906  -2.558  1.00 20.00     0.007 C 
HETATM    2  C4  UNL     1     -33.083  15.699  -3.624  1.00 20.00     0.032 C 
HETATM    3  C5  UNL     1     -34.910  14.099  -3.907  1.00 20.00     0.036 C 
HETATM    4  C7  UNL     1     -35.436  15.321  -3.157  1.00 20.00    -0.008 C 
HETATM    5  C8  UNL     1     -33.580  14.551  -4.506  1.00 20.00     0.118 C 
ENDROOT
BRANCH   4   6
HETATM    6  C6  UNL     1     -36.150  16.308  -4.079  1.00 20.00    -0.010 A 
HETATM    7  C1  UNL     1     -37.527  16.805  -3.737  1.00 20.00     0.005 A 
HETATM    8  C2  UNL     1     -36.349  17.735  -3.652  1.00 20.00     0.005 A 
ENDBRANCH   4   6
BRANCH   5   9
HETATM    9  O9  UNL     1     -32.661  13.471  -4.515  1.00 20.00    -0.396 OA
HETATM   10  H23 UNL     1     -32.547  13.198  -3.592  1.00 20.00     0.210 HD
ENDBRANCH   5   9
TORSDOF 2
ENDMDL
MODEL 3
REMARK VINA RESULT:      -4.1     10.407     11.882
REMARK  2 active torsions:
REMARK  status: ('A' for Active; 'I' for Inactive)
REMARK    1  A    between atoms: C6_6  and  C7_7 
REMARK    2  A    between atoms: C8_8  and  O9_9 
ROOT
HETATM    1  C3  UNL     1     -43.354   7.625   0.455  1.00 20.00     0.007 C 
HETATM    2  C4  UNL     1     -43.115   8.999  -0.170  1.00 20.00     0.032 C 
HETATM    3  C5  UNL     1     -41.014   8.014   0.599  1.00 20.00     0.036 C 
HETATM    4  C7  UNL     1     -42.018   6.893   0.340  1.00 20.00    -0.008 C 
HETATM    5  C8  UNL     1     -41.605   9.238  -0.099  1.00 20.00     0.118 C 
ENDROOT
BRANCH   4   6
HETATM    6  C6  UNL     1     -41.827   6.245  -1.030  1.00 20.00    -0.010 A 
HETATM    7  C1  UNL     1     -41.019   4.985  -1.166  1.00 20.00     0.005 A 
HETATM    8  C2  UNL     1     -42.509   4.946  -1.354  1.00 20.00     0.005 A 
ENDBRANCH   4   6
BRANCH   5   9
HETATM    9  O9  UNL     1     -41.301  10.410   0.640  1.00 20.00    -0.396 OA
HETATM   10  H23 UNL     1     -42.070  10.996   0.556  1.00 20.00     0.210 HD
ENDBRANCH   5   9
TORSDOF 2
ENDMDL
MODEL 4
REMARK VINA RESULT:      -4.1      1.416      2.102
REMARK  2 active torsions:
REMARK  status: ('A' for Active; 'I' for Inactive)
REMARK    1  A    between atoms: C6_6  and  C7_7 
REMARK    2  A    between atoms: C8_8  and  O9_9 
ROOT
HETATM    1  C3  UNL     1     -35.533  16.164  -4.410  1.00 20.00     0.007 C 
HETATM    2  C4  UNL     1     -36.392  14.981  -3.962  1.00 20.00     0.032 C 
HETATM    3  C5  UNL     1     -34.060  14.306  -4.250  1.00 20.00     0.036 C 
HETATM    4  C7  UNL     1     -34.109  15.809  -3.987  1.00 20.00    -0.008 C 
HETATM    5  C8  UNL     1     -35.437  13.791  -3.836  1.00 20.00     0.118 C 
ENDROOT
BRANCH   4   6
HETATM    6  C6  UNL     1     -33.835  16.155  -2.524  1.00 20.00    -0.010 A 
HETATM    7  C1  UNL     1     -32.941  17.311  -2.173  1.00 20.00     0.005 A 
HETATM    8  C2  UNL     1     -34.419  17.399  -1.918  1.00 20.00     0.005 A 
ENDBRANCH   4   6
BRANCH   5   9
HETATM    9  O9  UNL     1     -35.829  12.723  -4.682  1.00 20.00    -0.396 OA
HETATM   10  H23 UNL     1     -35.617  11.903  -4.209  1.00 20.00     0.210 HD
ENDBRANCH   5   9
TORSDOF 2
ENDMDL
MODEL 5
REMARK VINA RESULT:      -4.1      1.525      2.346
REMARK  2 active torsions:
REMARK  status: ('A' for Active; 'I' for Inactive)
REMARK    1  A    between atoms: C6_6  and  C7_7 
REMARK    2  A    between atoms: C8_8  and  O9_9 
ROOT
HETATM    1  C3  UNL     1     -35.680  15.218  -3.555  1.00 20.00     0.007 C 
HETATM    2  C4  UNL     1     -34.666  14.113  -3.851  1.00 20.00     0.032 C 
HETATM    3  C5  UNL     1     -33.712  16.318  -4.308  1.00 20.00     0.036 C 
HETATM    4  C7  UNL     1     -34.846  16.471  -3.296  1.00 20.00    -0.008 C 
HETATM    5  C8  UNL     1     -33.391  14.824  -4.313  1.00 20.00     0.118 C 
ENDROOT
BRANCH   4   6
HETATM    6  C6  UNL     1     -34.337  16.543  -1.858  1.00 20.00    -0.010 A 
HETATM    7  C1  UNL     1     -34.241  17.866  -1.153  1.00 20.00     0.005 A 
HETATM    8  C2  UNL     1     -35.283  16.866  -0.736  1.00 20.00     0.005 A 
ENDBRANCH   4   6
BRANCH   5   9
HETATM    9  O9  UNL     1     -33.014  14.414  -5.617  1.00 20.00    -0.396 OA
HETATM   10  H23 UNL     1     -33.440  15.030  -6.234  1.00 20.00     0.210 HD
ENDBRANCH   5   9
TORSDOF 2
ENDMDL
MODEL 6
REMARK VINA RESULT:      -4.1     18.277     19.022
REMARK  2 active torsions:
REMARK  status: ('A' for Active; 'I' for Inactive)
REMARK    1  A    between atoms: C6_6  and  C7_7 
REMARK    2  A    between atoms: C8_8  and  O9_9 
ROOT
HETATM    1  C3  UNL     1     -24.607  16.297  11.270  1.00 20.00     0.007 C 
HETATM    2  C4  UNL     1     -23.282  16.522  11.996  1.00 20.00     0.032 C 
HETATM    3  C5  UNL     1     -23.642  18.233  10.288  1.00 20.00     0.036 C 
HETATM    4  C7  UNL     1     -24.994  17.663  10.707  1.00 20.00    -0.008 C 
HETATM    5  C8  UNL     1     -22.673  17.783  11.379  1.00 20.00     0.118 C 
ENDROOT
BRANCH   4   6
HETATM    6  C6  UNL     1     -25.702  18.537  11.740  1.00 20.00    -0.010 A 
HETATM    7  C1  UNL     1     -26.968  19.263  11.380  1.00 20.00     0.005 A 
HETATM    8  C2  UNL     1     -27.012  18.101  12.332  1.00 20.00     0.005 A 
ENDBRANCH   4   6
BRANCH   5   9
HETATM    9  O9  UNL     1     -21.398  17.520  10.817  1.00 20.00    -0.396 OA
HETATM   10  H23 UNL     1     -20.847  18.295  11.005  1.00 20.00     0.210 HD
ENDBRANCH   5   9
TORSDOF 2
ENDMDL
MODEL 7
REMARK VINA RESULT:      -4.0     10.556     11.342
REMARK  2 active torsions:
REMARK  status: ('A' for Active; 'I' for Inactive)
REMARK    1  A    between atoms: C6_6  and  C7_7 
REMARK    2  A    between atoms: C8_8  and  O9_9 
ROOT
HETATM    1  C3  UNL     1     -32.937   5.483   2.492  1.00 20.00     0.007 C 
HETATM    2  C4  UNL     1     -34.154   5.441   3.415  1.00 20.00     0.032 C 
HETATM    3  C5  UNL     1     -32.727   7.355   3.941  1.00 20.00     0.036 C 
HETATM    4  C7  UNL     1     -32.483   6.942   2.492  1.00 20.00    -0.008 C 
HETATM    5  C8  UNL     1     -34.030   6.661   4.332  1.00 20.00     0.118 C 
ENDROOT
BRANCH   4   6
HETATM    6  C6  UNL     1     -33.273   7.795   1.501  1.00 20.00    -0.010 A 
HETATM    7  C1  UNL     1     -32.810   9.184   1.160  1.00 20.00     0.005 A 
HETATM    8  C2  UNL     1     -32.711   8.087   0.138  1.00 20.00     0.005 A 
ENDBRANCH   4   6
BRANCH   5   9
HETATM    9  O9  UNL     1     -33.985   6.279   5.697  1.00 20.00    -0.396 OA
HETATM   10  H23 UNL     1     -33.228   6.742   6.088  1.00 20.00     0.210 HD
ENDBRANCH   5   9
TORSDOF 2
ENDMDL
MODEL 8
REMARK VINA RESULT:      -3.9      1.083      1.948
REMARK  2 active torsions:
REMARK  status: ('A' for Active; 'I' for Inactive)
REMARK    1  A    between atoms: C6_6  and  C7_7 
REMARK    2  A    between atoms: C8_8  and  O9_9 
ROOT
HETATM    1  C3  UNL     1     -36.279  16.424  -4.632  1.00 20.00     0.007 C 
HETATM    2  C4  UNL     1     -36.782  15.028  -4.999  1.00 20.00     0.032 C 
HETATM    3  C5  UNL     1     -34.459  15.330  -5.700  1.00 20.00     0.036 C 
HETATM    4  C7  UNL     1     -34.759  16.297  -4.557  1.00 20.00    -0.008 C 
HETATM    5  C8  UNL     1     -35.601  14.317  -5.665  1.00 20.00     0.118 C 
ENDROOT
BRANCH   4   6
HETATM    6  C6  UNL     1     -34.287  15.764  -3.205  1.00 20.00    -0.010 A 
HETATM    7  C1  UNL     1     -33.583  16.672  -2.236  1.00 20.00     0.005 A 
HETATM    8  C2  UNL     1     -34.976  16.193  -1.940  1.00 20.00     0.005 A 
ENDBRANCH   4   6
BRANCH   5   9
HETATM    9  O9  UNL     1     -35.923  13.904  -6.983  1.00 20.00    -0.396 OA
HETATM   10  H23 UNL     1     -36.512  14.582  -7.349  1.00 20.00     0.210 HD
ENDBRANCH   5   9
TORSDOF 2
ENDMDL
MODEL 9
REMARK VINA RESULT:      -3.9     11.982     12.767
REMARK  2 active torsions:
REMARK  status: ('A' for Active; 'I' for Inactive)
REMARK    1  A    between atoms: C6_6  and  C7_7 
REMARK    2  A    between atoms: C8_8  and  O9_9 
ROOT
HETATM    1  C3  UNL     1     -33.939   7.343   5.263  1.00 20.00     0.007 C 
HETATM    2  C4  UNL     1     -33.741   6.099   6.127  1.00 20.00     0.032 C 
HETATM    3  C5  UNL     1     -35.053   5.575   4.131  1.00 20.00     0.036 C 
HETATM    4  C7  UNL     1     -34.209   6.817   3.855  1.00 20.00    -0.008 C 
HETATM    5  C8  UNL     1     -34.438   4.955   5.384  1.00 20.00     0.118 C 
ENDROOT
BRANCH   4   6
HETATM    6  C6  UNL     1     -32.921   6.491   3.100  1.00 20.00    -0.010 A 
HETATM    7  C1  UNL     1     -32.517   7.305   1.903  1.00 20.00     0.005 A 
HETATM    8  C2  UNL     1     -31.740   7.416   3.184  1.00 20.00     0.005 A 
ENDBRANCH   4   6
BRANCH   5   9
HETATM    9  O9  UNL     1     -35.452   4.365   6.180  1.00 20.00    -0.396 OA
HETATM   10  H23 UNL     1     -35.054   3.588   6.604  1.00 20.00     0.210 HD
ENDBRANCH   5   9
TORSDOF 2
ENDMDL
