MODEL 1
REMARK VINA RESULT:      -5.2      0.000      0.000
REMARK  1 active torsions:
REMARK  status: ('A' for Active; 'I' for Inactive)
REMARK    1  A    between atoms: C8_8  and  C9_9 
ROOT
HETATM    1  C1  UNL     1     -23.939  15.944  12.091  1.00 20.00     0.002 C 
HETATM    2  C2  UNL     1     -23.041  17.179  11.993  1.00 20.00     0.005 C 
HETATM    3  C3  UNL     1     -25.430  16.253  11.937  1.00 20.00     0.020 C 
HETATM    4  C5  UNL     1     -24.981  18.622  11.179  1.00 20.00     0.025 C 
HETATM    5  C8  UNL     1     -23.517  18.192  10.946  1.00 20.00    -0.007 C 
HETATM    6  C10 UNL     1     -25.733  17.729  12.173  1.00 20.00     0.082 C 
HETATM    7 CL12 UNL     1     -27.491  18.027  12.050  1.00 20.00    -0.125 Cl
ENDROOT
BRANCH   5   8
HETATM    8  C9  UNL     1     -23.323  17.658   9.540  1.00 20.00     0.015 C 
HETATM    9  C4  UNL     1     -21.878  17.405   9.166  1.00 20.00     0.033 C 
HETATM   10  C6  UNL     1     -21.954  17.375   7.654  1.00 20.00     0.168 C 
HETATM   11  O11 UNL     1     -23.012  18.268   7.273  1.00 20.00    -0.391 OA
HETATM   12  C7  UNL     1     -23.748  18.629   8.452  1.00 20.00     0.172 C 
ENDBRANCH   5   8
TORSDOF 1
ENDMDL
MODEL 2
REMARK VINA RESULT:      -4.9      2.268      3.252
REMARK  1 active torsions:
REMARK  status: ('A' for Active; 'I' for Inactive)
REMARK    1  A    between atoms: C8_8  and  C9_9 
ROOT
HETATM    1  C1  UNL     1     -22.762  17.313   8.986  1.00 20.00     0.002 C 
HETATM    2  C2  UNL     1     -22.998  18.817   8.847  1.00 20.00     0.005 C 
HETATM    3  C3  UNL     1     -23.688  16.635   9.999  1.00 20.00     0.020 C 
HETATM    4  C5  UNL     1     -25.150  18.686  10.211  1.00 20.00     0.025 C 
HETATM    5  C8  UNL     1     -24.479  19.208   8.923  1.00 20.00    -0.007 C 
HETATM    6  C10 UNL     1     -24.315  17.640  10.959  1.00 20.00     0.082 C 
HETATM    7 CL12 UNL     1     -25.331  16.796  12.162  1.00 20.00    -0.125 Cl
ENDROOT
BRANCH   5   8
HETATM    8  C9  UNL     1     -25.231  18.745   7.690  1.00 20.00     0.015 C 
HETATM    9  C4  UNL     1     -24.664  19.263   6.386  1.00 20.00     0.033 C 
HETATM   10  C6  UNL     1     -25.837  19.075   5.446  1.00 20.00     0.168 C 
HETATM   11  O11 UNL     1     -27.028  19.240   6.231  1.00 20.00    -0.391 OA
HETATM   12  C7  UNL     1     -26.661  19.253   7.618  1.00 20.00     0.172 C 
ENDBRANCH   5   8
TORSDOF 1
ENDMDL
MODEL 3
REMARK VINA RESULT:      -4.5     13.622     14.922
REMARK  1 active torsions:
REMARK  status: ('A' for Active; 'I' for Inactive)
REMARK    1  A    between atoms: C8_8  and  C9_9 
ROOT
HETATM    1  C1  UNL     1     -31.154  18.526  -0.447  1.00 20.00     0.002 C 
HETATM    2  C2  UNL     1     -32.189  19.093  -1.420  1.00 20.00     0.005 C 
HETATM    3  C3  UNL     1     -31.733  18.156   0.921  1.00 20.00     0.020 C 
HETATM    4  C5  UNL     1     -34.113  18.436   0.120  1.00 20.00     0.025 C 
HETATM    5  C8  UNL     1     -33.556  18.407  -1.318  1.00 20.00    -0.007 C 
HETATM    6  C10 UNL     1     -33.074  18.835   1.174  1.00 20.00     0.082 C 
HETATM    7 CL12 UNL     1     -33.675  18.428   2.807  1.00 20.00    -0.125 Cl
ENDROOT
BRANCH   5   8
HETATM    8  C9  UNL     1     -33.497  16.988  -1.851  1.00 20.00     0.015 C 
HETATM    9  C4  UNL     1     -33.100  16.888  -3.308  1.00 20.00     0.033 C 
HETATM   10  C6  UNL     1     -33.594  15.502  -3.666  1.00 20.00     0.168 C 
HETATM   11  O11 UNL     1     -34.755  15.254  -2.859  1.00 20.00    -0.391 OA
HETATM   12  C7  UNL     1     -34.840  16.279  -1.858  1.00 20.00     0.172 C 
ENDBRANCH   5   8
TORSDOF 1
ENDMDL
MODEL 4
REMARK VINA RESULT:      -4.4     16.119     17.496
REMARK  1 active torsions:
REMARK  status: ('A' for Active; 'I' for Inactive)
REMARK    1  A    between atoms: C8_8  and  C9_9 
ROOT
HETATM    1  C1  UNL     1     -34.128  14.441  -3.787  1.00 20.00     0.002 C 
HETATM    2  C2  UNL     1     -35.007  15.464  -3.066  1.00 20.00     0.005 C 
HETATM    3  C3  UNL     1     -33.749  14.850  -5.213  1.00 20.00     0.020 C 
HETATM    4  C5  UNL     1     -34.626  17.199  -4.898  1.00 20.00     0.025 C 
HETATM    5  C8  UNL     1     -34.629  16.916  -3.381  1.00 20.00    -0.007 C 
HETATM    6  C10 UNL     1     -34.674  15.932  -5.759  1.00 20.00     0.082 C 
HETATM    7 CL12 UNL     1     -34.236  16.325  -7.447  1.00 20.00    -0.125 Cl
ENDROOT
BRANCH   5   8
HETATM    8  C9  UNL     1     -33.297  17.283  -2.755  1.00 20.00     0.015 C 
HETATM    9  C4  UNL     1     -33.372  17.602  -1.278  1.00 20.00     0.033 C 
HETATM   10  C6  UNL     1     -32.086  18.374  -1.067  1.00 20.00     0.168 C 
HETATM   11  O11 UNL     1     -31.810  19.066  -2.294  1.00 20.00    -0.391 OA
HETATM   12  C7  UNL     1     -32.691  18.561  -3.309  1.00 20.00     0.172 C 
ENDBRANCH   5   8
TORSDOF 1
ENDMDL
MODEL 5
REMARK VINA RESULT:      -4.4     16.636     17.948
REMARK  1 active torsions:
REMARK  status: ('A' for Active; 'I' for Inactive)
REMARK    1  A    between atoms: C8_8  and  C9_9 
ROOT
HETATM    1  C1  UNL     1     -33.882  14.889  -5.705  1.00 20.00     0.002 C 
HETATM    2  C2  UNL     1     -33.218  14.684  -4.342  1.00 20.00     0.005 C 
HETATM    3  C3  UNL     1     -35.409  14.972  -5.640  1.00 20.00     0.020 C 
HETATM    4  C5  UNL     1     -35.409  15.140  -3.118  1.00 20.00     0.025 C 
HETATM    5  C8  UNL     1     -33.903  15.461  -3.212  1.00 20.00    -0.007 C 
HETATM    6  C10 UNL     1     -35.956  14.392  -4.340  1.00 20.00     0.082 C 
HETATM    7 CL12 UNL     1     -37.742  14.449  -4.341  1.00 20.00    -0.125 Cl
ENDROOT
BRANCH   5   8
HETATM    8  C9  UNL     1     -33.672  16.953  -3.355  1.00 20.00     0.015 C 
HETATM    9  C4  UNL     1     -32.769  17.546  -2.295  1.00 20.00     0.033 C 
HETATM   10  C6  UNL     1     -33.116  19.017  -2.384  1.00 20.00     0.168 C 
HETATM   11  O11 UNL     1     -34.496  19.095  -2.775  1.00 20.00    -0.391 OA
HETATM   12  C7  UNL     1     -34.928  17.788  -3.179  1.00 20.00     0.172 C 
ENDBRANCH   5   8
TORSDOF 1
ENDMDL
MODEL 6
REMARK VINA RESULT:      -4.3     16.548     17.810
REMARK  1 active torsions:
REMARK  status: ('A' for Active; 'I' for Inactive)
REMARK    1  A    between atoms: C8_8  and  C9_9 
ROOT
HETATM    1  C1  UNL     1     -35.769  17.311  -2.016  1.00 20.00     0.002 C 
HETATM    2  C2  UNL     1     -35.166  15.909  -1.921  1.00 20.00     0.005 C 
HETATM    3  C3  UNL     1     -34.752  18.396  -2.383  1.00 20.00     0.020 C 
HETATM    4  C5  UNL     1     -32.972  16.697  -2.958  1.00 20.00     0.025 C 
HETATM    5  C8  UNL     1     -34.094  15.638  -2.983  1.00 20.00    -0.007 C 
HETATM    6  C10 UNL     1     -33.319  17.940  -2.132  1.00 20.00     0.082 C 
HETATM    7 CL12 UNL     1     -32.175  19.261  -2.509  1.00 20.00    -0.125 Cl
ENDROOT
BRANCH   5   8
HETATM    8  C9  UNL     1     -34.708  15.527  -4.365  1.00 20.00     0.015 C 
HETATM    9  C4  UNL     1     -35.857  14.546  -4.457  1.00 20.00     0.033 C 
HETATM   10  C6  UNL     1     -35.920  14.286  -5.948  1.00 20.00     0.168 C 
HETATM   11  O11 UNL     1     -34.580  14.407  -6.447  1.00 20.00    -0.391 OA
HETATM   12  C7  UNL     1     -33.759  14.976  -5.415  1.00 20.00     0.172 C 
ENDBRANCH   5   8
TORSDOF 1
ENDMDL
MODEL 7
REMARK VINA RESULT:      -4.3     14.518     15.814
REMARK  1 active torsions:
REMARK  status: ('A' for Active; 'I' for Inactive)
REMARK    1  A    between atoms: C8_8  and  C9_9 
ROOT
HETATM    1  C1  UNL     1     -32.128  18.646  -1.668  1.00 20.00     0.002 C 
HETATM    2  C2  UNL     1     -33.480  18.695  -2.382  1.00 20.00     0.005 C 
HETATM    3  C3  UNL     1     -32.225  18.249  -0.193  1.00 20.00     0.020 C 
HETATM    4  C5  UNL     1     -34.650  17.573  -0.412  1.00 20.00     0.025 C 
HETATM    5  C8  UNL     1     -34.439  17.584  -1.940  1.00 20.00    -0.007 C 
HETATM    6  C10 UNL     1     -33.636  18.431   0.355  1.00 20.00     0.082 C 
HETATM    7 CL12 UNL     1     -33.683  18.021   2.094  1.00 20.00    -0.125 Cl
ENDROOT
BRANCH   5   8
HETATM    8  C9  UNL     1     -33.971  16.229  -2.435  1.00 20.00     0.015 C 
HETATM    9  C4  UNL     1     -33.197  16.276  -3.735  1.00 20.00     0.033 C 
HETATM   10  C6  UNL     1     -33.304  14.841  -4.208  1.00 20.00     0.168 C 
HETATM   11  O11 UNL     1     -34.565  14.342  -3.736  1.00 20.00    -0.391 OA
HETATM   12  C7  UNL     1     -35.104  15.283  -2.796  1.00 20.00     0.172 C 
ENDBRANCH   5   8
TORSDOF 1
ENDMDL
MODEL 8
REMARK VINA RESULT:      -4.1     16.829     18.157
REMARK  1 active torsions:
REMARK  status: ('A' for Active; 'I' for Inactive)
REMARK    1  A    between atoms: C8_8  and  C9_9 
ROOT
HETATM    1  C1  UNL     1     -34.912  15.935  -5.953  1.00 20.00     0.002 C 
HETATM    2  C2  UNL     1     -33.992  15.119  -5.043  1.00 20.00     0.005 C 
HETATM    3  C3  UNL     1     -36.396  15.813  -5.598  1.00 20.00     0.020 C 
HETATM    4  C5  UNL     1     -35.898  14.637  -3.417  1.00 20.00     0.025 C 
HETATM    5  C8  UNL     1     -34.440  15.114  -3.577  1.00 20.00    -0.007 C 
HETATM    6  C10 UNL     1     -36.676  14.586  -4.737  1.00 20.00     0.082 C 
HETATM    7 CL12 UNL     1     -38.427  14.449  -4.408  1.00 20.00    -0.125 Cl
ENDROOT
BRANCH   5   8
HETATM    8  C9  UNL     1     -34.239  16.476  -2.939  1.00 20.00     0.015 C 
HETATM    9  C4  UNL     1     -32.794  16.816  -2.643  1.00 20.00     0.033 C 
HETATM   10  C6  UNL     1     -32.944  17.921  -1.618  1.00 20.00     0.168 C 
HETATM   11  O11 UNL     1     -34.146  17.646  -0.883  1.00 20.00    -0.391 OA
HETATM   12  C7  UNL     1     -34.865  16.605  -1.561  1.00 20.00     0.172 C 
ENDBRANCH   5   8
TORSDOF 1
ENDMDL
MODEL 9
REMARK VINA RESULT:      -4.1     17.677     18.999
REMARK  1 active torsions:
REMARK  status: ('A' for Active; 'I' for Inactive)
REMARK    1  A    between atoms: C8_8  and  C9_9 
ROOT
HETATM    1  C1  UNL     1     -33.510  14.572  -4.762  1.00 20.00     0.002 C 
HETATM    2  C2  UNL     1     -34.594  14.083  -3.801  1.00 20.00     0.005 C 
HETATM    3  C3  UNL     1     -34.060  15.124  -6.080  1.00 20.00     0.020 C 
HETATM    4  C5  UNL     1     -36.438  15.119  -5.226  1.00 20.00     0.025 C 
HETATM    5  C8  UNL     1     -35.852  14.960  -3.808  1.00 20.00    -0.007 C 
HETATM    6  C10 UNL     1     -35.490  14.661  -6.339  1.00 20.00     0.082 C 
HETATM    7 CL12 UNL     1     -36.061  15.273  -7.918  1.00 20.00    -0.125 Cl
ENDROOT
BRANCH   5   8
HETATM    8  C9  UNL     1     -35.580  16.311  -3.175  1.00 20.00     0.015 C 
HETATM    9  C4  UNL     1     -35.090  16.239  -1.744  1.00 20.00     0.033 C 
HETATM   10  C6  UNL     1     -35.381  17.641  -1.251  1.00 20.00     0.168 C 
HETATM   11  O11 UNL     1     -36.545  18.097  -1.957  1.00 20.00    -0.391 OA
HETATM   12  C7  UNL     1     -36.819  17.177  -3.024  1.00 20.00     0.172 C 
ENDBRANCH   5   8
TORSDOF 1
ENDMDL
