MODEL 1
REMARK VINA RESULT:      -5.2      0.000      0.000
REMARK  1 active torsions:
REMARK  status: ('A' for Active; 'I' for Inactive)
REMARK    1  A    between atoms: C5_5  and  C8_8 
ROOT
HETATM    1  C1  UNL     1     -33.769   4.356   3.434  1.00 20.00     0.007 C 
HETATM    2  C2  UNL     1     -33.131   5.058   2.233  1.00 20.00     0.041 C 
HETATM    3  C3  UNL     1     -33.840   6.717   3.922  1.00 20.00     0.045 C 
HETATM    4  C4  UNL     1     -32.561   7.595   1.782  1.00 20.00     0.207 A 
HETATM    5  C5  UNL     1     -34.680   5.433   4.038  1.00 20.00    -0.012 C 
HETATM    6  C6  UNL     1     -33.025   6.481   2.685  1.00 20.00     0.083 A 
HETATM    7  O9  UNL     1     -31.687   6.996   2.747  1.00 20.00    -0.375 OA
ENDROOT
BRANCH   5   8
HETATM    8  C8  UNL     1     -35.103   5.122   5.463  1.00 20.00     0.000 C 
HETATM    9  C7  UNL     1     -34.473   6.054   6.450  1.00 20.00     0.005 C 
ENDBRANCH   5   8
TORSDOF 1
ENDMDL
MODEL 2
REMARK VINA RESULT:      -4.7      1.668      3.785
REMARK  1 active torsions:
REMARK  status: ('A' for Active; 'I' for Inactive)
REMARK    1  A    between atoms: C5_5  and  C8_8 
ROOT
HETATM    1  C1  UNL     1     -33.129   5.584   2.151  1.00 20.00     0.007 C 
HETATM    2  C2  UNL     1     -33.770   4.611   3.145  1.00 20.00     0.041 C 
HETATM    3  C3  UNL     1     -33.713   6.894   4.090  1.00 20.00     0.045 C 
HETATM    4  C4  UNL     1     -34.898   4.997   5.499  1.00 20.00     0.207 A 
HETATM    5  C5  UNL     1     -32.599   6.713   3.044  1.00 20.00    -0.012 C 
HETATM    6  C6  UNL     1     -34.284   5.514   4.223  1.00 20.00     0.083 A 
HETATM    7  O9  UNL     1     -35.706   5.474   4.415  1.00 20.00    -0.375 OA
ENDROOT
BRANCH   5   8
HETATM    8  C8  UNL     1     -32.290   7.985   2.274  1.00 20.00     0.000 C 
HETATM    9  C7  UNL     1     -32.603   7.847   0.817  1.00 20.00     0.005 C 
ENDBRANCH   5   8
TORSDOF 1
ENDMDL
MODEL 3
REMARK VINA RESULT:      -4.3     16.798     17.291
REMARK  1 active torsions:
REMARK  status: ('A' for Active; 'I' for Inactive)
REMARK    1  A    between atoms: C5_5  and  C8_8 
ROOT
HETATM    1  C1  UNL     1     -23.013  17.980  12.149  1.00 20.00     0.007 C 
HETATM    2  C2  UNL     1     -22.018  17.724  11.014  1.00 20.00     0.041 C 
HETATM    3  C3  UNL     1     -24.294  18.049  10.108  1.00 20.00     0.045 C 
HETATM    4  C4  UNL     1     -22.310  17.733   8.391  1.00 20.00     0.207 A 
HETATM    5  C5  UNL     1     -24.357  17.537  11.557  1.00 20.00    -0.012 C 
HETATM    6  C6  UNL     1     -22.832  17.979   9.783  1.00 20.00     0.083 A 
HETATM    7  O9  UNL     1     -22.354  19.050   8.956  1.00 20.00    -0.375 OA
ENDROOT
BRANCH   5   8
HETATM    8  C8  UNL     1     -25.551  18.071  12.329  1.00 20.00     0.000 C 
HETATM    9  C7  UNL     1     -26.173  19.251  11.652  1.00 20.00     0.005 C 
ENDBRANCH   5   8
TORSDOF 1
ENDMDL
MODEL 4
REMARK VINA RESULT:      -4.2     11.812     12.315
REMARK  1 active torsions:
REMARK  status: ('A' for Active; 'I' for Inactive)
REMARK    1  A    between atoms: C5_5  and  C8_8 
ROOT
HETATM    1  C1  UNL     1     -33.165  15.759  -3.554  1.00 20.00     0.007 C 
HETATM    2  C2  UNL     1     -33.736  14.553  -4.303  1.00 20.00     0.041 C 
HETATM    3  C3  UNL     1     -35.524  15.716  -3.056  1.00 20.00     0.045 C 
HETATM    4  C4  UNL     1     -36.208  13.668  -4.581  1.00 20.00     0.207 A 
HETATM    5  C5  UNL     1     -34.154  15.969  -2.401  1.00 20.00    -0.012 C 
HETATM    6  C6  UNL     1     -35.214  14.703  -4.117  1.00 20.00     0.083 A 
HETATM    7  O9  UNL     1     -35.962  14.865  -5.330  1.00 20.00    -0.375 OA
ENDROOT
BRANCH   5   8
HETATM    8  C8  UNL     1     -34.041  17.342  -1.762  1.00 20.00     0.000 C 
HETATM    9  C7  UNL     1     -32.631  17.844  -1.759  1.00 20.00     0.005 C 
ENDBRANCH   5   8
TORSDOF 1
ENDMDL
MODEL 5
REMARK VINA RESULT:      -4.2     16.220     17.133
REMARK  1 active torsions:
REMARK  status: ('A' for Active; 'I' for Inactive)
REMARK    1  A    between atoms: C5_5  and  C8_8 
ROOT
HETATM    1  C1  UNL     1     -23.119  18.005   8.482  1.00 20.00     0.007 C 
HETATM    2  C2  UNL     1     -22.265  17.766   9.729  1.00 20.00     0.041 C 
HETATM    3  C3  UNL     1     -24.557  18.430  10.371  1.00 20.00     0.045 C 
HETATM    4  C4  UNL     1     -22.865  17.796  12.300  1.00 20.00     0.207 A 
HETATM    5  C5  UNL     1     -24.209  18.967   8.971  1.00 20.00    -0.012 C 
HETATM    6  C6  UNL     1     -23.259  17.848  10.846  1.00 20.00     0.083 A 
HETATM    7  O9  UNL     1     -23.394  16.649  11.623  1.00 20.00    -0.375 OA
ENDROOT
BRANCH   5   8
HETATM    8  C8  UNL     1     -25.408  19.030   8.040  1.00 20.00     0.000 C 
HETATM    9  C7  UNL     1     -25.001  19.263   6.619  1.00 20.00     0.005 C 
ENDBRANCH   5   8
TORSDOF 1
ENDMDL
MODEL 6
REMARK VINA RESULT:      -4.2     11.694     12.436
REMARK  1 active torsions:
REMARK  status: ('A' for Active; 'I' for Inactive)
REMARK    1  A    between atoms: C5_5  and  C8_8 
ROOT
HETATM    1  C1  UNL     1     -35.072  15.940  -2.070  1.00 20.00     0.007 C 
HETATM    2  C2  UNL     1     -35.314  15.202  -3.388  1.00 20.00     0.041 C 
HETATM    3  C3  UNL     1     -33.117  16.331  -3.426  1.00 20.00     0.045 C 
HETATM    4  C4  UNL     1     -33.778  14.837  -5.503  1.00 20.00     0.207 A 
HETATM    5  C5  UNL     1     -34.073  17.041  -2.451  1.00 20.00    -0.012 C 
HETATM    6  C6  UNL     1     -33.997  15.316  -4.091  1.00 20.00     0.083 A 
HETATM    7  O9  UNL     1     -33.354  14.065  -4.373  1.00 20.00    -0.375 OA
ENDROOT
BRANCH   5   8
HETATM    8  C8  UNL     1     -33.365  17.643  -1.250  1.00 20.00     0.000 C 
HETATM    9  C7  UNL     1     -32.098  18.339  -1.638  1.00 20.00     0.005 C 
ENDBRANCH   5   8
TORSDOF 1
ENDMDL
MODEL 7
REMARK VINA RESULT:      -4.1     11.733     12.372
REMARK  1 active torsions:
REMARK  status: ('A' for Active; 'I' for Inactive)
REMARK    1  A    between atoms: C5_5  and  C8_8 
ROOT
HETATM    1  C1  UNL     1     -34.500  14.224  -4.057  1.00 20.00     0.007 C 
HETATM    2  C2  UNL     1     -35.889  13.660  -4.365  1.00 20.00     0.041 C 
HETATM    3  C3  UNL     1     -36.072  15.963  -3.489  1.00 20.00     0.045 C 
HETATM    4  C4  UNL     1     -38.290  14.752  -4.263  1.00 20.00     0.207 A 
HETATM    5  C5  UNL     1     -34.775  15.297  -2.995  1.00 20.00    -0.012 C 
HETATM    6  C6  UNL     1     -36.787  14.844  -4.185  1.00 20.00     0.083 A 
HETATM    7  O9  UNL     1     -37.508  15.239  -5.361  1.00 20.00    -0.375 OA
ENDROOT
BRANCH   5   8
HETATM    8  C8  UNL     1     -33.626  16.276  -2.828  1.00 20.00     0.000 C 
HETATM    9  C7  UNL     1     -33.857  17.223  -1.693  1.00 20.00     0.005 C 
ENDBRANCH   5   8
TORSDOF 1
ENDMDL
MODEL 8
REMARK VINA RESULT:      -4.0     11.802     12.533
REMARK  1 active torsions:
REMARK  status: ('A' for Active; 'I' for Inactive)
REMARK    1  A    between atoms: C5_5  and  C8_8 
ROOT
HETATM    1  C1  UNL     1     -35.371  16.023  -2.452  1.00 20.00     0.007 C 
HETATM    2  C2  UNL     1     -34.680  16.918  -1.420  1.00 20.00     0.041 C 
HETATM    3  C3  UNL     1     -33.130  16.379  -3.268  1.00 20.00     0.045 C 
HETATM    4  C4  UNL     1     -32.289  18.036  -1.388  1.00 20.00     0.207 A 
HETATM    5  C5  UNL     1     -34.207  15.289  -3.129  1.00 20.00    -0.012 C 
HETATM    6  C6  UNL     1     -33.380  17.260  -2.080  1.00 20.00     0.083 A 
HETATM    7  O9  UNL     1     -33.177  18.659  -2.324  1.00 20.00    -0.375 OA
ENDROOT
BRANCH   5   8
HETATM    8  C8  UNL     1     -34.593  14.658  -4.455  1.00 20.00     0.000 C 
HETATM    9  C7  UNL     1     -35.814  13.801  -4.334  1.00 20.00     0.005 C 
ENDBRANCH   5   8
TORSDOF 1
ENDMDL
MODEL 9
REMARK VINA RESULT:      -3.9      9.126      9.767
REMARK  1 active torsions:
REMARK  status: ('A' for Active; 'I' for Inactive)
REMARK    1  A    between atoms: C5_5  and  C8_8 
ROOT
HETATM    1  C1  UNL     1     -42.431   5.846   0.421  1.00 20.00     0.007 C 
HETATM    2  C2  UNL     1     -42.371   7.213   1.106  1.00 20.00     0.041 C 
HETATM    3  C3  UNL     1     -41.243   7.301  -1.091  1.00 20.00     0.045 C 
HETATM    4  C4  UNL     1     -41.447   9.547   0.288  1.00 20.00     0.207 A 
HETATM    5  C5  UNL     1     -41.229   5.867  -0.532  1.00 20.00    -0.012 C 
HETATM    6  C6  UNL     1     -41.809   8.104   0.042  1.00 20.00     0.083 A 
HETATM    7  O9  UNL     1     -42.670   9.178  -0.362  1.00 20.00    -0.375 OA
ENDROOT
BRANCH   5   8
HETATM    8  C8  UNL     1     -41.309   4.803  -1.614  1.00 20.00     0.000 C 
HETATM    9  C7  UNL     1     -42.724   4.445  -1.944  1.00 20.00     0.005 C 
ENDBRANCH   5   8
TORSDOF 1
ENDMDL
