MODEL 1
REMARK VINA RESULT:      -4.5      0.000      0.000
REMARK  4 active torsions:
REMARK  status: ('A' for Active; 'I' for Inactive)
REMARK    1  A    between atoms: C4_4  and  C8_8 
REMARK    2  A    between atoms: C5_5  and  C9_9 
REMARK    3  A    between atoms: C5_5  and  O11_11 
REMARK    4  A    between atoms: C9_9  and  C10_10 
ROOT
HETATM    1  C1  UNL     1     -34.078  14.927  -5.556  1.00 20.00     0.007 C 
HETATM    2  C2  UNL     1     -35.559  14.676  -5.862  1.00 20.00     0.038 C 
HETATM    3  C3  UNL     1     -35.351  14.839  -3.487  1.00 20.00     0.042 C 
HETATM    4  C4  UNL     1     -33.921  14.812  -4.034  1.00 20.00    -0.012 C 
HETATM    5  C5  UNL     1     -36.153  14.118  -4.569  1.00 20.00     0.058 C 
ENDROOT
BRANCH   5   6
HETATM    6  C9  UNL     1     -37.651  14.339  -4.446  1.00 20.00     0.037 C 
BRANCH   6   7
HETATM    7  C10 UNL     1     -37.981  15.809  -4.191  1.00 20.00    -0.002 C 
HETATM    8  C7  UNL     1     -38.812  16.396  -5.320  1.00 20.00     0.005 C 
ENDBRANCH   6   7
ENDBRANCH   5   6
BRANCH   5   9
HETATM    9  O11 UNL     1     -35.884  12.719  -4.485  1.00 20.00    -0.390 OA
HETATM   10  H31 UNL     1     -36.029  12.467  -3.560  1.00 20.00     0.210 HD
ENDBRANCH   5   9
BRANCH   4  11
HETATM   11  C8  UNL     1     -33.039  15.898  -3.439  1.00 20.00     0.000 C 
HETATM   12  C6  UNL     1     -33.729  16.636  -2.335  1.00 20.00     0.005 C 
ENDBRANCH   4  11
TORSDOF 4
ENDMDL
MODEL 2
REMARK VINA RESULT:      -4.4      1.529      2.126
REMARK  4 active torsions:
REMARK  status: ('A' for Active; 'I' for Inactive)
REMARK    1  A    between atoms: C4_4  and  C8_8 
REMARK    2  A    between atoms: C5_5  and  C9_9 
REMARK    3  A    between atoms: C5_5  and  O11_11 
REMARK    4  A    between atoms: C9_9  and  C10_10 
ROOT
HETATM    1  C1  UNL     1     -33.238  15.706  -3.623  1.00 20.00     0.007 C 
HETATM    2  C2  UNL     1     -33.759  15.062  -4.914  1.00 20.00     0.038 C 
HETATM    3  C3  UNL     1     -35.607  15.201  -3.404  1.00 20.00     0.042 C 
HETATM    4  C4  UNL     1     -34.369  15.591  -2.591  1.00 20.00    -0.012 C 
HETATM    5  C5  UNL     1     -35.034  14.320  -4.512  1.00 20.00     0.058 C 
ENDROOT
BRANCH   5   6
HETATM    6  C9  UNL     1     -36.001  14.110  -5.666  1.00 20.00     0.037 C 
BRANCH   6   7
HETATM    7  C10 UNL     1     -35.596  14.929  -6.890  1.00 20.00    -0.002 C 
HETATM    8  C7  UNL     1     -36.575  16.062  -7.151  1.00 20.00     0.005 C 
ENDBRANCH   6   7
ENDBRANCH   5   6
BRANCH   5   9
HETATM    9  O11 UNL     1     -34.692  13.049  -3.960  1.00 20.00    -0.390 OA
HETATM   10  H31 UNL     1     -34.002  12.678  -4.532  1.00 20.00     0.210 HD
ENDBRANCH   5   9
BRANCH   4  11
HETATM   11  C8  UNL     1     -34.569  16.860  -1.778  1.00 20.00     0.000 C 
HETATM   12  C6  UNL     1     -33.292  17.618  -1.604  1.00 20.00     0.005 C 
ENDBRANCH   4  11
TORSDOF 4
ENDMDL
MODEL 3
REMARK VINA RESULT:      -4.4      1.467      2.262
REMARK  4 active torsions:
REMARK  status: ('A' for Active; 'I' for Inactive)
REMARK    1  A    between atoms: C4_4  and  C8_8 
REMARK    2  A    between atoms: C5_5  and  C9_9 
REMARK    3  A    between atoms: C5_5  and  O11_11 
REMARK    4  A    between atoms: C9_9  and  C10_10 
ROOT
HETATM    1  C1  UNL     1     -33.813  17.373  -4.448  1.00 20.00     0.007 C 
HETATM    2  C2  UNL     1     -34.624  16.602  -5.497  1.00 20.00     0.038 C 
HETATM    3  C3  UNL     1     -34.354  15.154  -3.615  1.00 20.00     0.042 C 
HETATM    4  C4  UNL     1     -33.460  16.367  -3.344  1.00 20.00    -0.012 C 
HETATM    5  C5  UNL     1     -34.453  15.126  -5.139  1.00 20.00     0.058 C 
ENDROOT
BRANCH   5   6
HETATM    6  C9  UNL     1     -35.582  14.245  -5.646  1.00 20.00     0.037 C 
BRANCH   6   7
HETATM    7  C10 UNL     1     -36.476  13.768  -4.503  1.00 20.00    -0.002 C 
HETATM    8  C7  UNL     1     -37.751  14.589  -4.413  1.00 20.00     0.005 C 
ENDBRANCH   6   7
ENDBRANCH   5   6
BRANCH   5   9
HETATM    9  O11 UNL     1     -33.219  14.646  -5.672  1.00 20.00    -0.390 OA
HETATM   10  H31 UNL     1     -33.449  13.980  -6.338  1.00 20.00     0.210 HD
ENDBRANCH   5   9
BRANCH   4  11
HETATM   11  C8  UNL     1     -33.634  16.930  -1.943  1.00 20.00     0.000 C 
HETATM   12  C6  UNL     1     -35.008  16.679  -1.407  1.00 20.00     0.005 C 
ENDBRANCH   4  11
TORSDOF 4
ENDMDL
MODEL 4
REMARK VINA RESULT:      -4.3     10.709     12.333
REMARK  4 active torsions:
REMARK  status: ('A' for Active; 'I' for Inactive)
REMARK    1  A    between atoms: C4_4  and  C8_8 
REMARK    2  A    between atoms: C5_5  and  C9_9 
REMARK    3  A    between atoms: C5_5  and  O11_11 
REMARK    4  A    between atoms: C9_9  and  C10_10 
ROOT
HETATM    1  C1  UNL     1     -41.112   6.637   0.004  1.00 20.00     0.007 C 
HETATM    2  C2  UNL     1     -41.234   5.435  -0.940  1.00 20.00     0.038 C 
HETATM    3  C3  UNL     1     -43.414   6.395  -0.742  1.00 20.00     0.042 C 
HETATM    4  C4  UNL     1     -42.543   7.109   0.296  1.00 20.00    -0.012 C 
HETATM    5  C5  UNL     1     -42.713   5.049  -0.919  1.00 20.00     0.058 C 
ENDROOT
BRANCH   5   6
HETATM    6  C9  UNL     1     -43.162   4.303  -2.164  1.00 20.00     0.037 C 
BRANCH   6   7
HETATM    7  C10 UNL     1     -42.019   3.493  -2.773  1.00 20.00    -0.002 C 
HETATM    8  C7  UNL     1     -42.527   2.220  -3.430  1.00 20.00     0.005 C 
ENDBRANCH   6   7
ENDBRANCH   5   6
BRANCH   5   9
HETATM    9  O11 UNL     1     -42.978   4.238   0.225  1.00 20.00    -0.390 OA
HETATM   10  H31 UNL     1     -42.115   3.972   0.578  1.00 20.00     0.210 HD
ENDBRANCH   5   9
BRANCH   4  11
HETATM   11  C8  UNL     1     -42.695   8.621   0.256  1.00 20.00     0.000 C 
HETATM   12  C6  UNL     1     -41.369   9.314   0.217  1.00 20.00     0.005 C 
ENDBRANCH   4  11
TORSDOF 4
ENDMDL
MODEL 5
REMARK VINA RESULT:      -4.2      1.663      3.976
REMARK  4 active torsions:
REMARK  status: ('A' for Active; 'I' for Inactive)
REMARK    1  A    between atoms: C4_4  and  C8_8 
REMARK    2  A    between atoms: C5_5  and  C9_9 
REMARK    3  A    between atoms: C5_5  and  O11_11 
REMARK    4  A    between atoms: C9_9  and  C10_10 
ROOT
HETATM    1  C1  UNL     1     -35.970  14.010  -5.289  1.00 20.00     0.007 C 
HETATM    2  C2  UNL     1     -35.189  14.284  -3.998  1.00 20.00     0.038 C 
HETATM    3  C3  UNL     1     -34.300  15.735  -5.677  1.00 20.00     0.042 C 
HETATM    4  C4  UNL     1     -35.253  14.782  -6.405  1.00 20.00    -0.012 C 
HETATM    5  C5  UNL     1     -33.880  14.935  -4.445  1.00 20.00     0.058 C 
ENDROOT
BRANCH   5   6
HETATM    6  C9  UNL     1     -33.233  15.793  -3.371  1.00 20.00     0.037 C 
BRANCH   6   7
HETATM    7  C10 UNL     1     -34.250  16.232  -2.319  1.00 20.00    -0.002 C 
HETATM    8  C7  UNL     1     -33.762  17.447  -1.547  1.00 20.00     0.005 C 
ENDBRANCH   6   7
ENDBRANCH   5   6
BRANCH   5   9
HETATM    9  O11 UNL     1     -32.956  13.923  -4.846  1.00 20.00    -0.390 OA
HETATM   10  H31 UNL     1     -33.454  13.092  -4.868  1.00 20.00     0.210 HD
ENDBRANCH   5   9
BRANCH   4  11
HETATM   11  C8  UNL     1     -36.207  15.501  -7.345  1.00 20.00     0.000 C 
HETATM   12  C6  UNL     1     -36.888  16.652  -6.675  1.00 20.00     0.005 C 
ENDBRANCH   4  11
TORSDOF 4
ENDMDL
MODEL 6
REMARK VINA RESULT:      -4.2      2.151      3.720
REMARK  4 active torsions:
REMARK  status: ('A' for Active; 'I' for Inactive)
REMARK    1  A    between atoms: C4_4  and  C8_8 
REMARK    2  A    between atoms: C5_5  and  C9_9 
REMARK    3  A    between atoms: C5_5  and  O11_11 
REMARK    4  A    between atoms: C9_9  and  C10_10 
ROOT
HETATM    1  C1  UNL     1     -34.513  17.138  -1.322  1.00 20.00     0.007 C 
HETATM    2  C2  UNL     1     -34.951  15.941  -2.174  1.00 20.00     0.038 C 
HETATM    3  C3  UNL     1     -32.863  16.703  -3.055  1.00 20.00     0.042 C 
HETATM    4  C4  UNL     1     -33.294  17.751  -2.025  1.00 20.00    -0.012 C 
HETATM    5  C5  UNL     1     -34.187  16.078  -3.491  1.00 20.00     0.058 C 
ENDROOT
BRANCH   5   6
HETATM    6  C9  UNL     1     -34.010  14.761  -4.228  1.00 20.00     0.037 C 
BRANCH   6   7
HETATM    7  C10 UNL     1     -35.103  13.761  -3.855  1.00 20.00    -0.002 C 
HETATM    8  C7  UNL     1     -36.240  13.779  -4.863  1.00 20.00     0.005 C 
ENDBRANCH   6   7
ENDBRANCH   5   6
BRANCH   5   9
HETATM    9  O11 UNL     1     -34.870  16.996  -4.345  1.00 20.00    -0.390 OA
HETATM   10  H31 UNL     1     -35.787  16.684  -4.404  1.00 20.00     0.210 HD
ENDBRANCH   5   9
BRANCH   4  11
HETATM   11  C8  UNL     1     -32.178  18.132  -1.065  1.00 20.00     0.000 C 
HETATM   12  C6  UNL     1     -32.705  18.500   0.286  1.00 20.00     0.005 C 
ENDBRANCH   4  11
TORSDOF 4
ENDMDL
MODEL 7
REMARK VINA RESULT:      -4.0     11.105     12.106
REMARK  4 active torsions:
REMARK  status: ('A' for Active; 'I' for Inactive)
REMARK    1  A    between atoms: C4_4  and  C8_8 
REMARK    2  A    between atoms: C5_5  and  C9_9 
REMARK    3  A    between atoms: C5_5  and  O11_11 
REMARK    4  A    between atoms: C9_9  and  C10_10 
ROOT
HETATM    1  C1  UNL     1     -33.823   4.155   3.625  1.00 20.00     0.007 C 
HETATM    2  C2  UNL     1     -32.784   4.798   2.698  1.00 20.00     0.038 C 
HETATM    3  C3  UNL     1     -33.946   6.577   3.792  1.00 20.00     0.042 C 
HETATM    4  C4  UNL     1     -34.703   5.296   4.152  1.00 20.00    -0.012 C 
HETATM    5  C5  UNL     1     -33.277   6.226   2.465  1.00 20.00     0.058 C 
ENDROOT
BRANCH   5   6
HETATM    6  C9  UNL     1     -32.169   7.193   2.082  1.00 20.00     0.037 C 
BRANCH   6   7
HETATM    7  C10 UNL     1     -32.426   7.825   0.716  1.00 20.00    -0.002 C 
HETATM    8  C7  UNL     1     -32.902   9.262   0.848  1.00 20.00     0.005 C 
ENDBRANCH   6   7
ENDBRANCH   5   6
BRANCH   5   9
HETATM    9  O11 UNL     1     -34.266   6.227   1.436  1.00 20.00    -0.390 OA
HETATM   10  H31 UNL     1     -34.056   6.976   0.856  1.00 20.00     0.210 HD
ENDBRANCH   5   9
BRANCH   4  11
HETATM   11  C8  UNL     1     -35.004   5.183   5.638  1.00 20.00     0.000 C 
HETATM   12  C6  UNL     1     -34.350   6.275   6.424  1.00 20.00     0.005 C 
ENDBRANCH   4  11
TORSDOF 4
ENDMDL
MODEL 8
REMARK VINA RESULT:      -4.0      2.399      4.868
REMARK  4 active torsions:
REMARK  status: ('A' for Active; 'I' for Inactive)
REMARK    1  A    between atoms: C4_4  and  C8_8 
REMARK    2  A    between atoms: C5_5  and  C9_9 
REMARK    3  A    between atoms: C5_5  and  O11_11 
REMARK    4  A    between atoms: C9_9  and  C10_10 
ROOT
HETATM    1  C1  UNL     1     -36.185  16.346  -3.614  1.00 20.00     0.007 C 
HETATM    2  C2  UNL     1     -35.789  17.636  -2.886  1.00 20.00     0.038 C 
HETATM    3  C3  UNL     1     -34.132  15.997  -2.358  1.00 20.00     0.042 C 
HETATM    4  C4  UNL     1     -35.244  15.248  -3.098  1.00 20.00    -0.012 C 
HETATM    5  C5  UNL     1     -34.860  17.196  -1.755  1.00 20.00     0.058 C 
ENDROOT
BRANCH   5   6
HETATM    6  C9  UNL     1     -33.916  18.292  -1.287  1.00 20.00     0.037 C 
BRANCH   6   7
HETATM    7  C10 UNL     1     -32.471  17.992  -1.682  1.00 20.00    -0.002 C 
HETATM    8  C7  UNL     1     -31.499  18.397  -0.587  1.00 20.00     0.005 C 
ENDBRANCH   6   7
ENDBRANCH   5   6
BRANCH   5   9
HETATM    9  O11 UNL     1     -35.638  16.752  -0.643  1.00 20.00    -0.390 OA
HETATM   10  H31 UNL     1     -35.777  15.801  -0.770  1.00 20.00     0.210 HD
ENDBRANCH   5   9
BRANCH   4  11
HETATM   11  C8  UNL     1     -34.718  14.344  -4.201  1.00 20.00     0.000 C 
HETATM   12  C6  UNL     1     -33.273  14.603  -4.493  1.00 20.00     0.005 C 
ENDBRANCH   4  11
TORSDOF 4
ENDMDL
MODEL 9
REMARK VINA RESULT:      -3.9      1.416      4.057
REMARK  4 active torsions:
REMARK  status: ('A' for Active; 'I' for Inactive)
REMARK    1  A    between atoms: C4_4  and  C8_8 
REMARK    2  A    between atoms: C5_5  and  C9_9 
REMARK    3  A    between atoms: C5_5  and  O11_11 
REMARK    4  A    between atoms: C9_9  and  C10_10 
ROOT
HETATM    1  C1  UNL     1     -36.118  13.781  -4.558  1.00 20.00     0.007 C 
HETATM    2  C2  UNL     1     -34.727  13.906  -3.925  1.00 20.00     0.038 C 
HETATM    3  C3  UNL     1     -35.431  16.113  -4.511  1.00 20.00     0.042 C 
HETATM    4  C4  UNL     1     -36.464  15.165  -5.125  1.00 20.00    -0.012 C 
HETATM    5  C5  UNL     1     -34.178  15.246  -4.411  1.00 20.00     0.058 C 
ENDROOT
BRANCH   5   6
HETATM    6  C9  UNL     1     -33.118  15.835  -3.494  1.00 20.00     0.037 C 
BRANCH   6   7
HETATM    7  C10 UNL     1     -33.748  16.593  -2.327  1.00 20.00    -0.002 C 
HETATM    8  C7  UNL     1     -32.819  17.675  -1.801  1.00 20.00     0.005 C 
ENDBRANCH   6   7
ENDBRANCH   5   6
BRANCH   5   9
HETATM    9  O11 UNL     1     -33.621  15.089  -5.717  1.00 20.00    -0.390 OA
HETATM   10  H31 UNL     1     -34.148  15.648  -6.308  1.00 20.00     0.210 HD
ENDBRANCH   5   9
BRANCH   4  11
HETATM   11  C8  UNL     1     -37.897  15.587  -4.843  1.00 20.00     0.000 C 
HETATM   12  C6  UNL     1     -37.963  16.730  -3.880  1.00 20.00     0.005 C 
ENDBRANCH   4  11
TORSDOF 4
ENDMDL
