MODEL 1
REMARK VINA RESULT:      -4.8      0.000      0.000
REMARK  2 active torsions:
REMARK  status: ('A' for Active; 'I' for Inactive)
REMARK    1  A    between atoms: C8_8  and  C10_10 
REMARK    2  A    between atoms: C9_9  and  C10_10 
ROOT
HETATM    1  C1  UNL     1     -34.334  17.792  -0.654  1.00 20.00     0.012 C 
HETATM    2  C2  UNL     1     -33.728  17.322  -1.578  1.00 20.00    -0.117 C 
HETATM    3  C9  UNL     1     -32.982  16.751  -2.707  1.00 20.00     0.093 C 
ENDROOT
BRANCH   3   4
HETATM    4  C10 UNL     1     -33.753  15.593  -3.312  1.00 20.00     0.017 C 
BRANCH   4   5
HETATM    5  C8  UNL     1     -35.109  16.064  -3.848  1.00 20.00    -0.007 C 
HETATM    6  C5  UNL     1     -36.155  14.950  -3.762  1.00 20.00     0.082 C 
HETATM    7  C3  UNL     1     -35.942  13.905  -4.836  1.00 20.00     0.127 C 
HETATM    8  C4  UNL     1     -35.786  14.414  -6.251  1.00 20.00     0.078 C 
HETATM    9  O11 UNL     1     -35.994  12.702  -4.586  1.00 20.00    -0.298 OA
HETATM   10  C6  UNL     1     -34.737  15.514  -6.312  1.00 20.00     0.008 C 
HETATM   11  C7  UNL     1     -34.999  16.610  -5.281  1.00 20.00     0.005 C 
ENDBRANCH   4   5
ENDBRANCH   3   4
TORSDOF 2
ENDMDL
MODEL 2
REMARK VINA RESULT:      -4.6      3.126      5.910
REMARK  2 active torsions:
REMARK  status: ('A' for Active; 'I' for Inactive)
REMARK    1  A    between atoms: C8_8  and  C10_10 
REMARK    2  A    between atoms: C9_9  and  C10_10 
ROOT
HETATM    1  C1  UNL     1     -34.813  14.072  -4.076  1.00 20.00     0.012 C 
HETATM    2  C2  UNL     1     -34.805  14.983  -3.294  1.00 20.00    -0.117 C 
HETATM    3  C9  UNL     1     -34.800  16.096  -2.336  1.00 20.00     0.093 C 
ENDROOT
BRANCH   3   4
HETATM    4  C10 UNL     1     -33.429  16.743  -2.292  1.00 20.00     0.017 C 
BRANCH   4   5
HETATM    5  C8  UNL     1     -33.544  18.239  -1.981  1.00 20.00    -0.007 C 
HETATM    6  C5  UNL     1     -32.162  18.878  -1.822  1.00 20.00     0.082 C 
HETATM    7  C3  UNL     1     -31.531  18.513  -0.495  1.00 20.00     0.127 C 
HETATM    8  C4  UNL     1     -32.384  18.717   0.736  1.00 20.00     0.078 C 
HETATM    9  O11 UNL     1     -30.354  18.165  -0.415  1.00 20.00    -0.298 OA
HETATM   10  C6  UNL     1     -33.747  18.067   0.558  1.00 20.00     0.008 C 
HETATM   11  C7  UNL     1     -34.419  18.500  -0.744  1.00 20.00     0.005 C 
ENDBRANCH   4   5
ENDBRANCH   3   4
TORSDOF 2
ENDMDL
MODEL 3
REMARK VINA RESULT:      -4.6      1.688      2.464
REMARK  2 active torsions:
REMARK  status: ('A' for Active; 'I' for Inactive)
REMARK    1  A    between atoms: C8_8  and  C10_10 
REMARK    2  A    between atoms: C9_9  and  C10_10 
ROOT
HETATM    1  C1  UNL     1     -31.429  18.165  -0.750  1.00 20.00     0.012 C 
HETATM    2  C2  UNL     1     -32.347  18.266  -1.517  1.00 20.00    -0.117 C 
HETATM    3  C9  UNL     1     -33.472  18.393  -2.453  1.00 20.00     0.093 C 
ENDROOT
BRANCH   3   4
HETATM    4  C10 UNL     1     -33.340  17.377  -3.572  1.00 20.00     0.017 C 
BRANCH   4   5
HETATM    5  C8  UNL     1     -33.464  15.951  -3.027  1.00 20.00    -0.007 C 
HETATM    6  C5  UNL     1     -33.074  14.918  -4.089  1.00 20.00     0.082 C 
HETATM    7  C3  UNL     1     -34.160  14.758  -5.131  1.00 20.00     0.127 C 
HETATM    8  C4  UNL     1     -35.561  14.524  -4.615  1.00 20.00     0.078 C 
HETATM    9  O11 UNL     1     -33.900  14.719  -6.333  1.00 20.00    -0.298 OA
HETATM   10  C6  UNL     1     -35.928  15.566  -3.569  1.00 20.00     0.008 C 
HETATM   11  C7  UNL     1     -34.869  15.670  -2.472  1.00 20.00     0.005 C 
ENDBRANCH   4   5
ENDBRANCH   3   4
TORSDOF 2
ENDMDL
MODEL 4
REMARK VINA RESULT:      -4.6     17.806     18.858
REMARK  2 active torsions:
REMARK  status: ('A' for Active; 'I' for Inactive)
REMARK    1  A    between atoms: C8_8  and  C10_10 
REMARK    2  A    between atoms: C9_9  and  C10_10 
ROOT
HETATM    1  C1  UNL     1     -28.345  17.301  12.207  1.00 20.00     0.012 C 
HETATM    2  C2  UNL     1     -27.556  18.176  11.974  1.00 20.00    -0.117 C 
HETATM    3  C9  UNL     1     -26.595  19.249  11.687  1.00 20.00     0.093 C 
ENDROOT
BRANCH   3   4
HETATM    4  C10 UNL     1     -25.186  18.790  12.010  1.00 20.00     0.017 C 
BRANCH   4   5
HETATM    5  C8  UNL     1     -24.809  17.564  11.172  1.00 20.00    -0.007 C 
HETATM    6  C5  UNL     1     -23.587  16.851  11.756  1.00 20.00     0.082 C 
HETATM    7  C3  UNL     1     -22.310  17.610  11.464  1.00 20.00     0.127 C 
HETATM    8  C4  UNL     1     -22.082  18.019  10.027  1.00 20.00     0.078 C 
HETATM    9  O11 UNL     1     -21.457  17.795  12.331  1.00 20.00    -0.298 OA
HETATM   10  C6  UNL     1     -23.306  18.733   9.472  1.00 20.00     0.008 C 
HETATM   11  C7  UNL     1     -24.585  17.927   9.696  1.00 20.00     0.005 C 
ENDBRANCH   4   5
ENDBRANCH   3   4
TORSDOF 2
ENDMDL
MODEL 5
REMARK VINA RESULT:      -4.5     11.732     12.660
REMARK  2 active torsions:
REMARK  status: ('A' for Active; 'I' for Inactive)
REMARK    1  A    between atoms: C8_8  and  C10_10 
REMARK    2  A    between atoms: C9_9  and  C10_10 
ROOT
HETATM    1  C1  UNL     1     -32.863   8.453   0.360  1.00 20.00     0.012 C 
HETATM    2  C2  UNL     1     -32.565   7.977   1.422  1.00 20.00    -0.117 C 
HETATM    3  C9  UNL     1     -32.200   7.400   2.722  1.00 20.00     0.093 C 
ENDROOT
BRANCH   3   4
HETATM    4  C10 UNL     1     -32.615   5.943   2.783  1.00 20.00     0.017 C 
BRANCH   4   5
HETATM    5  C8  UNL     1     -34.115   5.817   3.067  1.00 20.00    -0.007 C 
HETATM    6  C5  UNL     1     -34.568   6.842   4.111  1.00 20.00     0.082 C 
HETATM    7  C3  UNL     1     -34.133   6.443   5.505  1.00 20.00     0.127 C 
HETATM    8  C4  UNL     1     -34.459   5.031   5.934  1.00 20.00     0.078 C 
HETATM    9  O11 UNL     1     -33.633   7.255   6.283  1.00 20.00    -0.298 OA
HETATM   10  C6  UNL     1     -33.993   4.031   4.886  1.00 20.00     0.008 C 
HETATM   11  C7  UNL     1     -34.500   4.391   3.491  1.00 20.00     0.005 C 
ENDBRANCH   4   5
ENDBRANCH   3   4
TORSDOF 2
ENDMDL
MODEL 6
REMARK VINA RESULT:      -4.4      1.528      1.969
REMARK  2 active torsions:
REMARK  status: ('A' for Active; 'I' for Inactive)
REMARK    1  A    between atoms: C8_8  and  C10_10 
REMARK    2  A    between atoms: C9_9  and  C10_10 
ROOT
HETATM    1  C1  UNL     1     -32.435  18.099  -1.734  1.00 20.00     0.012 C 
HETATM    2  C2  UNL     1     -33.563  17.751  -1.516  1.00 20.00    -0.117 C 
HETATM    3  C9  UNL     1     -34.944  17.330  -1.248  1.00 20.00     0.093 C 
ENDROOT
BRANCH   3   4
HETATM    4  C10 UNL     1     -35.229  16.004  -1.927  1.00 20.00     0.017 C 
BRANCH   4   5
HETATM    5  C8  UNL     1     -35.089  16.131  -3.447  1.00 20.00    -0.007 C 
HETATM    6  C5  UNL     1     -36.445  15.980  -4.141  1.00 20.00     0.082 C 
HETATM    7  C3  UNL     1     -36.897  14.536  -4.169  1.00 20.00     0.127 C 
HETATM    8  C4  UNL     1     -35.895  13.526  -4.679  1.00 20.00     0.078 C 
HETATM    9  O11 UNL     1     -38.050  14.215  -3.886  1.00 20.00    -0.298 OA
HETATM   10  C6  UNL     1     -34.559  13.690  -3.970  1.00 20.00     0.008 C 
HETATM   11  C7  UNL     1     -34.065  15.135  -4.013  1.00 20.00     0.005 C 
ENDBRANCH   4   5
ENDBRANCH   3   4
TORSDOF 2
ENDMDL
MODEL 7
REMARK VINA RESULT:      -4.3     17.925     18.786
REMARK  2 active torsions:
REMARK  status: ('A' for Active; 'I' for Inactive)
REMARK    1  A    between atoms: C8_8  and  C10_10 
REMARK    2  A    between atoms: C9_9  and  C10_10 
ROOT
HETATM    1  C1  UNL     1     -21.481  17.081   7.614  1.00 20.00     0.012 C 
HETATM    2  C2  UNL     1     -21.405  17.625   8.682  1.00 20.00    -0.117 C 
HETATM    3  C9  UNL     1     -21.309  18.293   9.987  1.00 20.00     0.093 C 
ENDROOT
BRANCH   3   4
HETATM    4  C10 UNL     1     -22.374  17.761  10.927  1.00 20.00     0.017 C 
BRANCH   4   5
HETATM    5  C8  UNL     1     -23.621  17.332  10.148  1.00 20.00    -0.007 C 
HETATM    6  C5  UNL     1     -24.749  18.356  10.303  1.00 20.00     0.082 C 
HETATM    7  C3  UNL     1     -25.402  18.260  11.665  1.00 20.00     0.127 C 
HETATM    8  C4  UNL     1     -25.836  16.881  12.109  1.00 20.00     0.078 C 
HETATM    9  O11 UNL     1     -25.657  19.262  12.331  1.00 20.00    -0.298 OA
HETATM   10  C6  UNL     1     -24.698  15.884  11.954  1.00 20.00     0.008 C 
HETATM   11  C7  UNL     1     -24.092  15.926  10.552  1.00 20.00     0.005 C 
ENDBRANCH   4   5
ENDBRANCH   3   4
TORSDOF 2
ENDMDL
MODEL 8
REMARK VINA RESULT:      -4.3      1.541      2.094
REMARK  2 active torsions:
REMARK  status: ('A' for Active; 'I' for Inactive)
REMARK    1  A    between atoms: C8_8  and  C10_10 
REMARK    2  A    between atoms: C9_9  and  C10_10 
ROOT
HETATM    1  C1  UNL     1     -32.970  18.357   0.022  1.00 20.00     0.012 C 
HETATM    2  C2  UNL     1     -34.025  17.922  -0.354  1.00 20.00    -0.117 C 
HETATM    3  C9  UNL     1     -35.317  17.395  -0.810  1.00 20.00     0.093 C 
ENDROOT
BRANCH   3   4
HETATM    4  C10 UNL     1     -35.108  16.139  -1.635  1.00 20.00     0.017 C 
BRANCH   4   5
HETATM    5  C8  UNL     1     -35.139  16.462  -3.133  1.00 20.00    -0.007 C 
HETATM    6  C5  UNL     1     -35.684  15.281  -3.941  1.00 20.00     0.082 C 
HETATM    7  C3  UNL     1     -34.659  14.173  -4.064  1.00 20.00     0.127 C 
HETATM    8  C4  UNL     1     -33.280  14.579  -4.531  1.00 20.00     0.078 C 
HETATM    9  O11 UNL     1     -34.961  12.994  -3.891  1.00 20.00    -0.298 OA
HETATM   10  C6  UNL     1     -32.757  15.747  -3.709  1.00 20.00     0.008 C 
HETATM   11  C7  UNL     1     -33.760  16.899  -3.653  1.00 20.00     0.005 C 
ENDBRANCH   4   5
ENDBRANCH   3   4
TORSDOF 2
ENDMDL
MODEL 9
REMARK VINA RESULT:      -4.3      1.658      2.076
REMARK  2 active torsions:
REMARK  status: ('A' for Active; 'I' for Inactive)
REMARK    1  A    between atoms: C8_8  and  C10_10 
REMARK    2  A    between atoms: C9_9  and  C10_10 
ROOT
HETATM    1  C1  UNL     1     -32.791  17.639  -1.921  1.00 20.00     0.012 C 
HETATM    2  C2  UNL     1     -33.775  16.950  -1.928  1.00 20.00    -0.117 C 
HETATM    3  C9  UNL     1     -34.976  16.105  -1.931  1.00 20.00     0.093 C 
ENDROOT
BRANCH   3   4
HETATM    4  C10 UNL     1     -35.791  16.359  -3.186  1.00 20.00     0.017 C 
BRANCH   4   5
HETATM    5  C8  UNL     1     -36.023  15.054  -3.955  1.00 20.00    -0.007 C 
HETATM    6  C5  UNL     1     -34.803  14.134  -3.862  1.00 20.00     0.082 C 
HETATM    7  C3  UNL     1     -33.676  14.615  -4.751  1.00 20.00     0.127 C 
HETATM    8  C4  UNL     1     -34.035  14.922  -6.187  1.00 20.00     0.078 C 
HETATM    9  O11 UNL     1     -32.513  14.657  -4.353  1.00 20.00    -0.298 OA
HETATM   10  C6  UNL     1     -35.243  15.844  -6.253  1.00 20.00     0.008 C 
HETATM   11  C7  UNL     1     -36.409  15.315  -5.419  1.00 20.00     0.005 C 
ENDBRANCH   4   5
ENDBRANCH   3   4
TORSDOF 2
ENDMDL
