MODEL 1
REMARK VINA RESULT:      -5.8      0.000      0.000
REMARK  1 active torsions:
REMARK  status: ('A' for Active; 'I' for Inactive)
REMARK    1  A    between atoms: C9_9  and  C10_10 
ROOT
HETATM    1  C1  UNL     1     -33.298   9.223   0.251  1.00 20.00     0.012 C 
HETATM    2  C2  UNL     1     -32.777   8.356   0.898  1.00 20.00    -0.117 C 
HETATM    3  C10 UNL     1     -32.126   7.302   1.676  1.00 20.00     0.098 C 
ENDROOT
BRANCH   3   4
HETATM    4  C9  UNL     1     -33.111   6.671   2.666  1.00 20.00     0.004 C 
HETATM    5  C5  UNL     1     -32.751   7.081   4.100  1.00 20.00     0.083 C 
HETATM    6  C3  UNL     1     -33.784   6.714   5.153  1.00 20.00     0.127 C 
HETATM    7  C4  UNL     1     -35.141   6.218   4.704  1.00 20.00     0.078 C 
HETATM    8  O11 UNL     1     -33.526   6.843   6.351  1.00 20.00    -0.298 OA
HETATM    9  C6  UNL     1     -35.113   4.813   4.107  1.00 20.00     0.007 C 
HETATM   10  C7  UNL     1     -33.764   4.320   3.588  1.00 20.00     0.001 C 
HETATM   11  C8  UNL     1     -33.147   5.147   2.459  1.00 20.00     0.006 C 
ENDBRANCH   3   4
TORSDOF 1
ENDMDL
MODEL 2
REMARK VINA RESULT:      -5.1     10.758     11.795
REMARK  1 active torsions:
REMARK  status: ('A' for Active; 'I' for Inactive)
REMARK    1  A    between atoms: C9_9  and  C10_10 
ROOT
HETATM    1  C1  UNL     1     -32.574  18.102  -1.360  1.00 20.00     0.012 C 
HETATM    2  C2  UNL     1     -33.551  17.431  -1.550  1.00 20.00    -0.117 C 
HETATM    3  C10 UNL     1     -34.748  16.618  -1.764  1.00 20.00     0.098 C 
ENDROOT
BRANCH   3   4
HETATM    4  C9  UNL     1     -34.694  15.920  -3.127  1.00 20.00     0.004 C 
HETATM    5  C5  UNL     1     -35.537  14.638  -3.095  1.00 20.00     0.083 C 
HETATM    6  C3  UNL     1     -35.755  13.978  -4.447  1.00 20.00     0.127 C 
HETATM    7  C4  UNL     1     -35.357  14.728  -5.699  1.00 20.00     0.078 C 
HETATM    8  O11 UNL     1     -36.271  12.861  -4.519  1.00 20.00    -0.298 OA
HETATM    9  C6  UNL     1     -33.847  14.839  -5.893  1.00 20.00     0.007 C 
HETATM   10  C7  UNL     1     -32.985  14.663  -4.645  1.00 20.00     0.001 C 
HETATM   11  C8  UNL     1     -33.228  15.675  -3.525  1.00 20.00     0.006 C 
ENDBRANCH   3   4
TORSDOF 1
ENDMDL
MODEL 3
REMARK VINA RESULT:      -5.1     10.785     12.075
REMARK  1 active torsions:
REMARK  status: ('A' for Active; 'I' for Inactive)
REMARK    1  A    between atoms: C9_9  and  C10_10 
ROOT
HETATM    1  C1  UNL     1     -33.615  17.994  -1.013  1.00 20.00     0.012 C 
HETATM    2  C2  UNL     1     -33.414  17.240  -1.926  1.00 20.00    -0.117 C 
HETATM    3  C10 UNL     1     -33.152  16.323  -3.035  1.00 20.00     0.098 C 
ENDROOT
BRANCH   3   4
HETATM    4  C9  UNL     1     -34.463  15.867  -3.685  1.00 20.00     0.004 C 
HETATM    5  C5  UNL     1     -34.464  14.342  -3.853  1.00 20.00     0.083 C 
HETATM    6  C3  UNL     1     -35.797  13.741  -4.269  1.00 20.00     0.127 C 
HETATM    7  C4  UNL     1     -37.031  14.615  -4.246  1.00 20.00     0.078 C 
HETATM    8  O11 UNL     1     -35.871  12.554  -4.595  1.00 20.00    -0.298 OA
HETATM    9  C6  UNL     1     -37.056  15.669  -5.350  1.00 20.00     0.007 C 
HETATM   10  C7  UNL     1     -35.710  16.039  -5.969  1.00 20.00     0.001 C 
HETATM   11  C8  UNL     1     -34.677  16.625  -5.006  1.00 20.00     0.006 C 
ENDBRANCH   3   4
TORSDOF 1
ENDMDL
MODEL 4
REMARK VINA RESULT:      -4.9     11.208     12.424
REMARK  1 active torsions:
REMARK  status: ('A' for Active; 'I' for Inactive)
REMARK    1  A    between atoms: C9_9  and  C10_10 
ROOT
HETATM    1  C1  UNL     1     -33.096  17.456  -1.991  1.00 20.00     0.012 C 
HETATM    2  C2  UNL     1     -33.188  16.534  -2.755  1.00 20.00    -0.117 C 
HETATM    3  C10 UNL     1     -33.284  15.405  -3.680  1.00 20.00     0.098 C 
ENDROOT
BRANCH   3   4
HETATM    4  C9  UNL     1     -34.576  15.485  -4.501  1.00 20.00     0.004 C 
HETATM    5  C5  UNL     1     -35.601  14.475  -3.969  1.00 20.00     0.083 C 
HETATM    6  C3  UNL     1     -37.001  14.616  -4.544  1.00 20.00     0.127 C 
HETATM    7  C4  UNL     1     -37.331  15.837  -5.374  1.00 20.00     0.078 C 
HETATM    8  O11 UNL     1     -37.858  13.759  -4.316  1.00 20.00    -0.298 OA
HETATM    9  C6  UNL     1     -36.665  15.843  -6.747  1.00 20.00     0.007 C 
HETATM   10  C7  UNL     1     -35.430  14.960  -6.909  1.00 20.00     0.001 C 
HETATM   11  C8  UNL     1     -34.252  15.294  -5.993  1.00 20.00     0.006 C 
ENDBRANCH   3   4
TORSDOF 1
ENDMDL
MODEL 5
REMARK VINA RESULT:      -4.8     10.718     11.787
REMARK  1 active torsions:
REMARK  status: ('A' for Active; 'I' for Inactive)
REMARK    1  A    between atoms: C9_9  and  C10_10 
ROOT
HETATM    1  C1  UNL     1     -35.836  17.378   0.722  1.00 20.00     0.012 C 
HETATM    2  C2  UNL     1     -35.110  17.250  -0.225  1.00 20.00    -0.117 C 
HETATM    3  C10 UNL     1     -34.213  17.106  -1.372  1.00 20.00     0.098 C 
ENDROOT
BRANCH   3   4
HETATM    4  C9  UNL     1     -34.766  16.080  -2.368  1.00 20.00     0.004 C 
HETATM    5  C5  UNL     1     -33.700  15.738  -3.416  1.00 20.00     0.083 C 
HETATM    6  C3  UNL     1     -34.039  14.564  -4.320  1.00 20.00     0.127 C 
HETATM    7  C4  UNL     1     -35.233  13.700  -3.978  1.00 20.00     0.078 C 
HETATM    8  O11 UNL     1     -33.337  14.307  -5.300  1.00 20.00    -0.298 OA
HETATM    9  C6  UNL     1     -36.575  14.389  -4.213  1.00 20.00     0.007 C 
HETATM   10  C7  UNL     1     -36.559  15.915  -4.255  1.00 20.00     0.001 C 
HETATM   11  C8  UNL     1     -36.075  16.608  -2.981  1.00 20.00     0.006 C 
ENDBRANCH   3   4
TORSDOF 1
ENDMDL
MODEL 6
REMARK VINA RESULT:      -4.7     11.166     12.227
REMARK  1 active torsions:
REMARK  status: ('A' for Active; 'I' for Inactive)
REMARK    1  A    between atoms: C9_9  and  C10_10 
ROOT
HETATM    1  C1  UNL     1     -36.255  13.693  -4.502  1.00 20.00     0.012 C 
HETATM    2  C2  UNL     1     -35.209  14.208  -4.219  1.00 20.00    -0.117 C 
HETATM    3  C10 UNL     1     -33.924  14.822  -3.881  1.00 20.00     0.098 C 
ENDROOT
BRANCH   3   4
HETATM    4  C9  UNL     1     -34.133  16.171  -3.184  1.00 20.00     0.004 C 
HETATM    5  C5  UNL     1     -32.777  16.816  -2.871  1.00 20.00     0.083 C 
HETATM    6  C3  UNL     1     -32.846  18.257  -2.393  1.00 20.00     0.127 C 
HETATM    7  C4  UNL     1     -34.161  18.999  -2.492  1.00 20.00     0.078 C 
HETATM    8  O11 UNL     1     -31.839  18.818  -1.955  1.00 20.00    -0.298 OA
HETATM    9  C6  UNL     1     -35.211  18.519  -1.492  1.00 20.00     0.007 C 
HETATM   10  C7  UNL     1     -35.016  17.117  -0.919  1.00 20.00     0.001 C 
HETATM   11  C8  UNL     1     -35.017  15.978  -1.939  1.00 20.00     0.006 C 
ENDBRANCH   3   4
TORSDOF 1
ENDMDL
MODEL 7
REMARK VINA RESULT:      -4.7     15.859     16.584
REMARK  1 active torsions:
REMARK  status: ('A' for Active; 'I' for Inactive)
REMARK    1  A    between atoms: C9_9  and  C10_10 
ROOT
HETATM    1  C1  UNL     1     -21.297  17.022   7.172  1.00 20.00     0.012 C 
HETATM    2  C2  UNL     1     -21.320  17.518   8.266  1.00 20.00    -0.117 C 
HETATM    3  C10 UNL     1     -21.331  18.122   9.598  1.00 20.00     0.098 C 
ENDROOT
BRANCH   3   4
HETATM    4  C9  UNL     1     -22.767  18.286  10.108  1.00 20.00     0.004 C 
HETATM    5  C5  UNL     1     -23.315  16.934  10.579  1.00 20.00     0.083 C 
HETATM    6  C3  UNL     1     -24.640  16.999  11.322  1.00 20.00     0.127 C 
HETATM    7  C4  UNL     1     -25.175  18.351  11.743  1.00 20.00     0.078 C 
HETATM    8  O11 UNL     1     -25.253  15.966  11.597  1.00 20.00    -0.298 OA
HETATM    9  C6  UNL     1     -25.679  19.200  10.579  1.00 20.00     0.007 C 
HETATM   10  C7  UNL     1     -25.145  18.842   9.194  1.00 20.00     0.001 C 
HETATM   11  C8  UNL     1     -23.630  18.948   9.020  1.00 20.00     0.006 C 
ENDBRANCH   3   4
TORSDOF 1
ENDMDL
MODEL 8
REMARK VINA RESULT:      -4.6     11.354     12.716
REMARK  1 active torsions:
REMARK  status: ('A' for Active; 'I' for Inactive)
REMARK    1  A    between atoms: C9_9  and  C10_10 
ROOT
HETATM    1  C1  UNL     1     -30.766  18.106   0.975  1.00 20.00     0.012 C 
HETATM    2  C2  UNL     1     -31.259  18.473  -0.057  1.00 20.00    -0.117 C 
HETATM    3  C10 UNL     1     -31.851  18.935  -1.312  1.00 20.00     0.098 C 
ENDROOT
BRANCH   3   4
HETATM    4  C9  UNL     1     -32.749  17.852  -1.921  1.00 20.00     0.004 C 
HETATM    5  C5  UNL     1     -33.082  18.202  -3.377  1.00 20.00     0.083 C 
HETATM    6  C3  UNL     1     -33.769  17.098  -4.163  1.00 20.00     0.127 C 
HETATM    7  C4  UNL     1     -33.849  15.712  -3.561  1.00 20.00     0.078 C 
HETATM    8  O11 UNL     1     -34.231  17.325  -5.283  1.00 20.00    -0.298 OA
HETATM    9  C6  UNL     1     -34.820  15.609  -2.387  1.00 20.00     0.007 C 
HETATM   10  C7  UNL     1     -35.170  16.915  -1.676  1.00 20.00     0.001 C 
HETATM   11  C8  UNL     1     -33.996  17.659  -1.040  1.00 20.00     0.006 C 
ENDBRANCH   3   4
TORSDOF 1
ENDMDL
MODEL 9
REMARK VINA RESULT:      -4.6     11.005     12.022
REMARK  1 active torsions:
REMARK  status: ('A' for Active; 'I' for Inactive)
REMARK    1  A    between atoms: C9_9  and  C10_10 
ROOT
HETATM    1  C1  UNL     1     -34.167  15.143  -6.342  1.00 20.00     0.012 C 
HETATM    2  C2  UNL     1     -34.345  14.763  -5.216  1.00 20.00    -0.117 C 
HETATM    3  C10 UNL     1     -34.564  14.283  -3.852  1.00 20.00     0.098 C 
ENDROOT
BRANCH   3   4
HETATM    4  C9  UNL     1     -34.512  15.444  -2.853  1.00 20.00     0.004 C 
HETATM    5  C5  UNL     1     -35.775  16.306  -2.983  1.00 20.00     0.083 C 
HETATM    6  C3  UNL     1     -35.956  17.350  -1.893  1.00 20.00     0.127 C 
HETATM    7  C4  UNL     1     -35.055  17.304  -0.679  1.00 20.00     0.078 C 
HETATM    8  O11 UNL     1     -36.840  18.204  -1.989  1.00 20.00    -0.298 OA
HETATM    9  C6  UNL     1     -33.615  17.720  -0.969  1.00 20.00     0.007 C 
HETATM   10  C7  UNL     1     -33.159  17.632  -2.424  1.00 20.00     0.001 C 
HETATM   11  C8  UNL     1     -33.209  16.238  -3.050  1.00 20.00     0.006 C 
ENDBRANCH   3   4
TORSDOF 1
ENDMDL
