MODEL 1
REMARK VINA RESULT:      -5.8      0.000      0.000
REMARK  3 active torsions:
REMARK  status: ('A' for Active; 'I' for Inactive)
REMARK    1  A    between atoms: C6_6  and  C9_9 
REMARK    2  A    between atoms: C7_7  and  O10_10 
REMARK    3  A    between atoms: C8_8  and  C9_9 
ROOT
HETATM    1  C1  UNL     1     -32.928   9.117   0.613  1.00 20.00     0.012 C 
HETATM    2  C2  UNL     1     -32.648   8.185   1.316  1.00 20.00    -0.117 C 
HETATM    3  C8  UNL     1     -32.305   7.043   2.173  1.00 20.00     0.093 C 
ENDROOT
BRANCH   3   4
HETATM    4  C9  UNL     1     -32.435   7.421   3.639  1.00 20.00     0.017 C 
BRANCH   4   5
HETATM    5  C6  UNL     1     -33.745   6.918   4.220  1.00 20.00    -0.011 C 
HETATM    6  C3  UNL     1     -33.619   6.464   5.672  1.00 20.00     0.007 C 
HETATM    7  C4  UNL     1     -34.846   5.581   5.855  1.00 20.00     0.032 C 
HETATM    8  C7  UNL     1     -34.907   4.786   4.555  1.00 20.00     0.118 C 
HETATM    9  C5  UNL     1     -34.308   5.696   3.478  1.00 20.00     0.036 C 
BRANCH   8  10
HETATM   10  O10 UNL     1     -34.098   3.620   4.667  1.00 20.00    -0.396 OA
HETATM   11  H24 UNL     1     -34.582   3.000   5.236  1.00 20.00     0.210 HD
ENDBRANCH   8  10
ENDBRANCH   4   5
ENDBRANCH   3   4
TORSDOF 3
ENDMDL
MODEL 2
REMARK VINA RESULT:      -5.2      1.230      1.753
REMARK  3 active torsions:
REMARK  status: ('A' for Active; 'I' for Inactive)
REMARK    1  A    between atoms: C6_6  and  C9_9 
REMARK    2  A    between atoms: C7_7  and  O10_10 
REMARK    3  A    between atoms: C8_8  and  C9_9 
ROOT
HETATM    1  C1  UNL     1     -33.340   9.200  -0.073  1.00 20.00     0.012 C 
HETATM    2  C2  UNL     1     -32.855   8.387   0.665  1.00 20.00    -0.117 C 
HETATM    3  C8  UNL     1     -32.259   7.390   1.565  1.00 20.00     0.093 C 
ENDROOT
BRANCH   3   4
HETATM    4  C9  UNL     1     -32.729   7.615   2.992  1.00 20.00     0.017 C 
BRANCH   4   5
HETATM    5  C6  UNL     1     -32.996   6.295   3.694  1.00 20.00    -0.011 C 
HETATM    6  C3  UNL     1     -33.458   5.195   2.743  1.00 20.00     0.007 C 
HETATM    7  C4  UNL     1     -34.114   4.193   3.681  1.00 20.00     0.032 C 
HETATM    8  C7  UNL     1     -34.893   5.074   4.652  1.00 20.00     0.118 C 
HETATM    9  C5  UNL     1     -34.105   6.384   4.754  1.00 20.00     0.036 C 
BRANCH   8  10
HETATM   10  O10 UNL     1     -36.181   5.357   4.115  1.00 20.00    -0.396 OA
HETATM   11  H24 UNL     1     -36.750   4.607   4.350  1.00 20.00     0.210 HD
ENDBRANCH   8  10
ENDBRANCH   4   5
ENDBRANCH   3   4
TORSDOF 3
ENDMDL
MODEL 3
REMARK VINA RESULT:      -4.5     11.144     12.202
REMARK  3 active torsions:
REMARK  status: ('A' for Active; 'I' for Inactive)
REMARK    1  A    between atoms: C6_6  and  C9_9 
REMARK    2  A    between atoms: C7_7  and  O10_10 
REMARK    3  A    between atoms: C8_8  and  C9_9 
ROOT
HETATM    1  C1  UNL     1     -35.140  16.964  -0.814  1.00 20.00     0.012 C 
HETATM    2  C2  UNL     1     -34.257  16.973  -1.626  1.00 20.00    -0.117 C 
HETATM    3  C8  UNL     1     -33.174  16.988  -2.619  1.00 20.00     0.093 C 
ENDROOT
BRANCH   3   4
HETATM    4  C9  UNL     1     -33.235  15.745  -3.490  1.00 20.00     0.017 C 
BRANCH   4   5
HETATM    5  C6  UNL     1     -34.673  15.345  -3.772  1.00 20.00    -0.011 C 
HETATM    6  C3  UNL     1     -34.870  13.833  -3.842  1.00 20.00     0.007 C 
HETATM    7  C4  UNL     1     -36.186  13.700  -4.596  1.00 20.00     0.032 C 
HETATM    8  C7  UNL     1     -36.072  14.751  -5.695  1.00 20.00     0.118 C 
HETATM    9  C5  UNL     1     -35.196  15.868  -5.119  1.00 20.00     0.036 C 
BRANCH   8  10
HETATM   10  O10 UNL     1     -35.411  14.192  -6.826  1.00 20.00    -0.396 OA
HETATM   11  H24 UNL     1     -34.459  14.284  -6.664  1.00 20.00     0.210 HD
ENDBRANCH   8  10
ENDBRANCH   4   5
ENDBRANCH   3   4
TORSDOF 3
ENDMDL
MODEL 4
REMARK VINA RESULT:      -4.5     10.902     12.085
REMARK  3 active torsions:
REMARK  status: ('A' for Active; 'I' for Inactive)
REMARK    1  A    between atoms: C6_6  and  C9_9 
REMARK    2  A    between atoms: C7_7  and  O10_10 
REMARK    3  A    between atoms: C8_8  and  C9_9 
ROOT
HETATM    1  C1  UNL     1     -32.462  18.144  -1.426  1.00 20.00     0.012 C 
HETATM    2  C2  UNL     1     -33.099  17.270  -1.946  1.00 20.00    -0.117 C 
HETATM    3  C8  UNL     1     -33.883  16.202  -2.580  1.00 20.00     0.093 C 
ENDROOT
BRANCH   3   4
HETATM    4  C9  UNL     1     -33.105  15.584  -3.730  1.00 20.00     0.017 C 
BRANCH   4   5
HETATM    5  C6  UNL     1     -34.014  14.757  -4.623  1.00 20.00    -0.011 C 
HETATM    6  C3  UNL     1     -34.982  15.606  -5.441  1.00 20.00     0.007 C 
HETATM    7  C4  UNL     1     -36.059  14.605  -5.833  1.00 20.00     0.032 C 
HETATM    8  C7  UNL     1     -36.266  13.791  -4.560  1.00 20.00     0.118 C 
HETATM    9  C5  UNL     1     -34.914  13.787  -3.840  1.00 20.00     0.036 C 
BRANCH   8  10
HETATM   10  O10 UNL     1     -37.224  14.438  -3.727  1.00 20.00    -0.396 OA
HETATM   11  H24 UNL     1     -37.895  14.815  -4.318  1.00 20.00     0.210 HD
ENDBRANCH   8  10
ENDBRANCH   4   5
ENDBRANCH   3   4
TORSDOF 3
ENDMDL
MODEL 5
REMARK VINA RESULT:      -4.4     11.662     12.327
REMARK  3 active torsions:
REMARK  status: ('A' for Active; 'I' for Inactive)
REMARK    1  A    between atoms: C6_6  and  C9_9 
REMARK    2  A    between atoms: C7_7  and  O10_10 
REMARK    3  A    between atoms: C8_8  and  C9_9 
ROOT
HETATM    1  C1  UNL     1     -31.012  18.308   0.084  1.00 20.00     0.012 C 
HETATM    2  C2  UNL     1     -31.699  18.270  -0.900  1.00 20.00    -0.117 C 
HETATM    3  C8  UNL     1     -32.536  18.226  -2.106  1.00 20.00     0.093 C 
ENDROOT
BRANCH   3   4
HETATM    4  C9  UNL     1     -33.882  17.594  -1.795  1.00 20.00     0.017 C 
BRANCH   4   5
HETATM    5  C6  UNL     1     -33.951  16.169  -2.318  1.00 20.00    -0.011 C 
HETATM    6  C3  UNL     1     -33.112  15.953  -3.574  1.00 20.00     0.007 C 
HETATM    7  C4  UNL     1     -33.710  14.684  -4.163  1.00 20.00     0.032 C 
HETATM    8  C7  UNL     1     -35.212  14.881  -3.978  1.00 20.00     0.118 C 
HETATM    9  C5  UNL     1     -35.370  15.738  -2.718  1.00 20.00     0.036 C 
BRANCH   8  10
HETATM   10  O10 UNL     1     -35.741  15.600  -5.088  1.00 20.00    -0.396 OA
HETATM   11  H24 UNL     1     -34.983  15.867  -5.632  1.00 20.00     0.210 HD
ENDBRANCH   8  10
ENDBRANCH   4   5
ENDBRANCH   3   4
TORSDOF 3
ENDMDL
MODEL 6
REMARK VINA RESULT:      -4.3     11.694     12.618
REMARK  3 active torsions:
REMARK  status: ('A' for Active; 'I' for Inactive)
REMARK    1  A    between atoms: C6_6  and  C9_9 
REMARK    2  A    between atoms: C7_7  and  O10_10 
REMARK    3  A    between atoms: C8_8  and  C9_9 
ROOT
HETATM    1  C1  UNL     1     -32.540  18.269  -1.168  1.00 20.00     0.012 C 
HETATM    2  C2  UNL     1     -32.827  17.392  -1.934  1.00 20.00    -0.117 C 
HETATM    3  C8  UNL     1     -33.174  16.317  -2.874  1.00 20.00     0.093 C 
ENDROOT
BRANCH   3   4
HETATM    4  C9  UNL     1     -34.621  15.894  -2.686  1.00 20.00     0.017 C 
BRANCH   4   5
HETATM    5  C6  UNL     1     -35.299  15.655  -4.024  1.00 20.00    -0.011 C 
HETATM    6  C3  UNL     1     -35.487  14.175  -4.343  1.00 20.00     0.007 C 
HETATM    7  C4  UNL     1     -35.695  14.180  -5.850  1.00 20.00     0.032 C 
HETATM    8  C7  UNL     1     -34.668  15.192  -6.346  1.00 20.00     0.118 C 
HETATM    9  C5  UNL     1     -34.504  16.212  -5.215  1.00 20.00     0.036 C 
BRANCH   8  10
HETATM   10  O10 UNL     1     -33.418  14.543  -6.559  1.00 20.00    -0.396 OA
HETATM   11  H24 UNL     1     -33.536  13.960  -7.327  1.00 20.00     0.210 HD
ENDBRANCH   8  10
ENDBRANCH   4   5
ENDBRANCH   3   4
TORSDOF 3
ENDMDL
MODEL 7
REMARK VINA RESULT:      -4.2     11.493     12.581
REMARK  3 active torsions:
REMARK  status: ('A' for Active; 'I' for Inactive)
REMARK    1  A    between atoms: C6_6  and  C9_9 
REMARK    2  A    between atoms: C7_7  and  O10_10 
REMARK    3  A    between atoms: C8_8  and  C9_9 
ROOT
HETATM    1  C1  UNL     1     -36.980  16.596  -6.798  1.00 20.00     0.012 C 
HETATM    2  C2  UNL     1     -36.324  15.650  -6.458  1.00 20.00    -0.117 C 
HETATM    3  C8  UNL     1     -35.519  14.493  -6.045  1.00 20.00     0.093 C 
ENDROOT
BRANCH   3   4
HETATM    4  C9  UNL     1     -35.927  14.031  -4.656  1.00 20.00     0.017 C 
BRANCH   4   5
HETATM    5  C6  UNL     1     -34.926  14.493  -3.611  1.00 20.00    -0.011 C 
HETATM    6  C3  UNL     1     -35.377  15.745  -2.864  1.00 20.00     0.007 C 
HETATM    7  C4  UNL     1     -34.076  16.276  -2.281  1.00 20.00     0.032 C 
HETATM    8  C7  UNL     1     -33.076  16.089  -3.418  1.00 20.00     0.118 C 
HETATM    9  C5  UNL     1     -33.558  14.865  -4.203  1.00 20.00     0.036 C 
BRANCH   8  10
HETATM   10  O10 UNL     1     -33.109  17.224  -4.278  1.00 20.00    -0.396 OA
HETATM   11  H24 UNL     1     -33.709  17.001  -5.008  1.00 20.00     0.210 HD
ENDBRANCH   8  10
ENDBRANCH   4   5
ENDBRANCH   3   4
TORSDOF 3
ENDMDL
MODEL 8
REMARK VINA RESULT:      -4.0     11.298     12.108
REMARK  3 active torsions:
REMARK  status: ('A' for Active; 'I' for Inactive)
REMARK    1  A    between atoms: C6_6  and  C9_9 
REMARK    2  A    between atoms: C7_7  and  O10_10 
REMARK    3  A    between atoms: C8_8  and  C9_9 
ROOT
HETATM    1  C1  UNL     1     -36.302  17.856   0.930  1.00 20.00     0.012 C 
HETATM    2  C2  UNL     1     -35.625  17.694  -0.048  1.00 20.00    -0.117 C 
HETATM    3  C8  UNL     1     -34.795  17.499  -1.244  1.00 20.00     0.093 C 
ENDROOT
BRANCH   3   4
HETATM    4  C9  UNL     1     -34.970  16.092  -1.789  1.00 20.00     0.017 C 
BRANCH   4   5
HETATM    5  C6  UNL     1     -34.658  16.038  -3.275  1.00 20.00    -0.011 C 
HETATM    6  C3  UNL     1     -35.512  15.022  -4.028  1.00 20.00     0.007 C 
HETATM    7  C4  UNL     1     -34.715  14.794  -5.305  1.00 20.00     0.032 C 
HETATM    8  C7  UNL     1     -33.272  14.727  -4.814  1.00 20.00     0.118 C 
HETATM    9  C5  UNL     1     -33.208  15.626  -3.575  1.00 20.00     0.036 C 
BRANCH   8  10
HETATM   10  O10 UNL     1     -32.960  13.393  -4.425  1.00 20.00    -0.396 OA
HETATM   11  H24 UNL     1     -32.005  13.281  -4.562  1.00 20.00     0.210 HD
ENDBRANCH   8  10
ENDBRANCH   4   5
ENDBRANCH   3   4
TORSDOF 3
ENDMDL
MODEL 9
REMARK VINA RESULT:      -4.0     11.578     12.226
REMARK  3 active torsions:
REMARK  status: ('A' for Active; 'I' for Inactive)
REMARK    1  A    between atoms: C6_6  and  C9_9 
REMARK    2  A    between atoms: C7_7  and  O10_10 
REMARK    3  A    between atoms: C8_8  and  C9_9 
ROOT
HETATM    1  C1  UNL     1     -34.640  17.939   1.357  1.00 20.00     0.012 C 
HETATM    2  C2  UNL     1     -34.450  17.779   0.183  1.00 20.00    -0.117 C 
HETATM    3  C8  UNL     1     -34.214  17.586  -1.254  1.00 20.00     0.093 C 
ENDROOT
BRANCH   3   4
HETATM    4  C9  UNL     1     -35.299  16.710  -1.857  1.00 20.00     0.017 C 
BRANCH   4   5
HETATM    5  C6  UNL     1     -34.698  15.535  -2.609  1.00 20.00    -0.011 C 
HETATM    6  C3  UNL     1     -33.367  15.870  -3.276  1.00 20.00     0.007 C 
HETATM    7  C4  UNL     1     -33.230  14.775  -4.323  1.00 20.00     0.032 C 
HETATM    8  C7  UNL     1     -34.638  14.654  -4.896  1.00 20.00     0.118 C 
HETATM    9  C5  UNL     1     -35.589  15.027  -3.754  1.00 20.00     0.036 C 
BRANCH   8  10
HETATM   10  O10 UNL     1     -34.808  15.592  -5.954  1.00 20.00    -0.396 OA
HETATM   11  H24 UNL     1     -34.641  16.470  -5.575  1.00 20.00     0.210 HD
ENDBRANCH   8  10
ENDBRANCH   4   5
ENDBRANCH   3   4
TORSDOF 3
ENDMDL
