MODEL 1
REMARK VINA RESULT:      -4.8      0.000      0.000
REMARK  6 active torsions:
REMARK  status: ('A' for Active; 'I' for Inactive)
REMARK    1  A    between atoms: C2_2  and  C7_7 
REMARK    2  A    between atoms: C5_5  and  C10_10 
REMARK    3  A    between atoms: C7_7  and  C8_8 
REMARK    4  A    between atoms: C8_8  and  C9_9 
REMARK    5  A    between atoms: C9_9  and  C10_10 
REMARK    6  A    between atoms: C10_10  and  O11_11 
ROOT
HETATM    1  C1  UNL     1     -32.788   8.208   1.081  1.00 20.00    -0.111 C 
HETATM    2  C2  UNL     1     -32.681   7.367   1.929  1.00 20.00    -0.107 C 
HETATM    3  C6  UNL     1     -32.918   9.233   0.046  1.00 20.00     0.112 C 
ENDROOT
BRANCH   2   4
HETATM    4  C7  UNL     1     -32.552   6.334   2.967  1.00 20.00     0.094 C 
BRANCH   4   5
HETATM    5  C8  UNL     1     -33.178   5.015   2.513  1.00 20.00     0.014 C 
BRANCH   5   6
HETATM    6  C9  UNL     1     -34.079   4.426   3.600  1.00 20.00     0.033 C 
BRANCH   6   7
HETATM    7  C10 UNL     1     -35.046   5.448   4.209  1.00 20.00     0.122 C 
BRANCH   7   8
HETATM    8  C5  UNL     1     -34.918   5.566   5.699  1.00 20.00     0.014 A 
HETATM    9  C3  UNL     1     -33.608   5.267   6.374  1.00 20.00     0.007 A 
HETATM   10  C4  UNL     1     -34.112   6.682   6.304  1.00 20.00     0.007 A 
ENDBRANCH   7   8
BRANCH   7  11
HETATM   11  O11 UNL     1     -36.371   5.021   3.890  1.00 20.00    -0.395 OA
HETATM   12  H27 UNL     1     -36.303   4.510   3.070  1.00 20.00     0.210 HD
ENDBRANCH   7  11
ENDBRANCH   6   7
ENDBRANCH   5   6
ENDBRANCH   4   5
ENDBRANCH   2   4
TORSDOF 6
ENDMDL
MODEL 2
REMARK VINA RESULT:      -4.6     11.344     12.100
REMARK  6 active torsions:
REMARK  status: ('A' for Active; 'I' for Inactive)
REMARK    1  A    between atoms: C2_2  and  C7_7 
REMARK    2  A    between atoms: C5_5  and  C10_10 
REMARK    3  A    between atoms: C7_7  and  C8_8 
REMARK    4  A    between atoms: C8_8  and  C9_9 
REMARK    5  A    between atoms: C9_9  and  C10_10 
REMARK    6  A    between atoms: C10_10  and  O11_11 
ROOT
HETATM    1  C1  UNL     1     -34.689  16.625  -1.585  1.00 20.00    -0.111 C 
HETATM    2  C2  UNL     1     -34.034  16.225  -2.508  1.00 20.00    -0.107 C 
HETATM    3  C6  UNL     1     -35.486  17.113  -0.460  1.00 20.00     0.112 C 
ENDROOT
BRANCH   2   4
HETATM    4  C7  UNL     1     -33.230  15.733  -3.636  1.00 20.00     0.094 C 
BRANCH   4   5
HETATM    5  C8  UNL     1     -33.799  14.426  -4.190  1.00 20.00     0.014 C 
BRANCH   5   6
HETATM    6  C9  UNL     1     -34.863  14.694  -5.256  1.00 20.00     0.033 C 
BRANCH   6   7
HETATM    7  C10 UNL     1     -36.177  13.944  -5.008  1.00 20.00     0.122 C 
BRANCH   7   8
HETATM    8  C5  UNL     1     -37.048  14.605  -3.981  1.00 20.00     0.014 A 
HETATM    9  C3  UNL     1     -37.481  16.033  -4.159  1.00 20.00     0.007 A 
HETATM   10  C4  UNL     1     -38.484  14.921  -4.298  1.00 20.00     0.007 A 
ENDBRANCH   7   8
BRANCH   7  11
HETATM   11  O11 UNL     1     -35.837  12.634  -4.554  1.00 20.00    -0.395 OA
HETATM   12  H27 UNL     1     -35.133  12.316  -5.139  1.00 20.00     0.210 HD
ENDBRANCH   7  11
ENDBRANCH   6   7
ENDBRANCH   5   6
ENDBRANCH   4   5
ENDBRANCH   2   4
TORSDOF 6
ENDMDL
MODEL 3
REMARK VINA RESULT:      -4.3     11.415     12.960
REMARK  6 active torsions:
REMARK  status: ('A' for Active; 'I' for Inactive)
REMARK    1  A    between atoms: C2_2  and  C7_7 
REMARK    2  A    between atoms: C5_5  and  C10_10 
REMARK    3  A    between atoms: C7_7  and  C8_8 
REMARK    4  A    between atoms: C8_8  and  C9_9 
REMARK    5  A    between atoms: C9_9  and  C10_10 
REMARK    6  A    between atoms: C10_10  and  O11_11 
ROOT
HETATM    1  C1  UNL     1     -32.010  18.128  -1.126  1.00 20.00    -0.111 C 
HETATM    2  C2  UNL     1     -32.610  17.576  -2.006  1.00 20.00    -0.107 C 
HETATM    3  C6  UNL     1     -31.278  18.802  -0.054  1.00 20.00     0.112 C 
ENDROOT
BRANCH   2   4
HETATM    4  C7  UNL     1     -33.346  16.901  -3.085  1.00 20.00     0.094 C 
BRANCH   4   5
HETATM    5  C8  UNL     1     -34.360  15.905  -2.522  1.00 20.00     0.014 C 
BRANCH   5   6
HETATM    6  C9  UNL     1     -34.622  14.764  -3.506  1.00 20.00     0.033 C 
BRANCH   6   7
HETATM    7  C10 UNL     1     -33.652  14.749  -4.693  1.00 20.00     0.122 C 
BRANCH   7   8
HETATM    8  C5  UNL     1     -34.344  14.821  -6.022  1.00 20.00     0.014 A 
HETATM    9  C3  UNL     1     -35.597  15.637  -6.182  1.00 20.00     0.007 A 
HETATM   10  C4  UNL     1     -34.315  16.094  -6.822  1.00 20.00     0.007 A 
ENDBRANCH   7   8
BRANCH   7  11
HETATM   11  O11 UNL     1     -32.914  13.528  -4.621  1.00 20.00    -0.395 OA
HETATM   12  H27 UNL     1     -33.214  13.075  -3.820  1.00 20.00     0.210 HD
ENDBRANCH   7  11
ENDBRANCH   6   7
ENDBRANCH   5   6
ENDBRANCH   4   5
ENDBRANCH   2   4
TORSDOF 6
ENDMDL
MODEL 4
REMARK VINA RESULT:      -4.2     11.639     12.563
REMARK  6 active torsions:
REMARK  status: ('A' for Active; 'I' for Inactive)
REMARK    1  A    between atoms: C2_2  and  C7_7 
REMARK    2  A    between atoms: C5_5  and  C10_10 
REMARK    3  A    between atoms: C7_7  and  C8_8 
REMARK    4  A    between atoms: C8_8  and  C9_9 
REMARK    5  A    between atoms: C9_9  and  C10_10 
REMARK    6  A    between atoms: C10_10  and  O11_11 
ROOT
HETATM    1  C1  UNL     1     -38.543  14.942  -4.145  1.00 20.00    -0.111 C 
HETATM    2  C2  UNL     1     -37.503  14.440  -4.469  1.00 20.00    -0.107 C 
HETATM    3  C6  UNL     1     -39.811  15.556  -3.750  1.00 20.00     0.112 C 
ENDROOT
BRANCH   2   4
HETATM    4  C7  UNL     1     -36.227  13.826  -4.864  1.00 20.00     0.094 C 
BRANCH   4   5
HETATM    5  C8  UNL     1     -35.622  14.542  -6.073  1.00 20.00     0.014 C 
BRANCH   5   6
HETATM    6  C9  UNL     1     -34.173  14.950  -5.807  1.00 20.00     0.033 C 
BRANCH   6   7
HETATM    7  C10 UNL     1     -33.677  14.561  -4.410  1.00 20.00     0.122 C 
BRANCH   7   8
HETATM    8  C5  UNL     1     -33.362  15.746  -3.544  1.00 20.00     0.014 A 
HETATM    9  C3  UNL     1     -34.248  16.960  -3.569  1.00 20.00     0.007 A 
HETATM   10  C4  UNL     1     -34.229  16.068  -2.359  1.00 20.00     0.007 A 
ENDBRANCH   7   8
BRANCH   7  11
HETATM   11  O11 UNL     1     -32.490  13.785  -4.582  1.00 20.00    -0.395 OA
HETATM   12  H27 UNL     1     -31.794  14.236  -4.081  1.00 20.00     0.210 HD
ENDBRANCH   7  11
ENDBRANCH   6   7
ENDBRANCH   5   6
ENDBRANCH   4   5
ENDBRANCH   2   4
TORSDOF 6
ENDMDL
MODEL 5
REMARK VINA RESULT:      -4.2     11.261     13.054
REMARK  6 active torsions:
REMARK  status: ('A' for Active; 'I' for Inactive)
REMARK    1  A    between atoms: C2_2  and  C7_7 
REMARK    2  A    between atoms: C5_5  and  C10_10 
REMARK    3  A    between atoms: C7_7  and  C8_8 
REMARK    4  A    between atoms: C8_8  and  C9_9 
REMARK    5  A    between atoms: C9_9  and  C10_10 
REMARK    6  A    between atoms: C10_10  and  O11_11 
ROOT
HETATM    1  C1  UNL     1     -33.108  16.703  -2.674  1.00 20.00    -0.111 C 
HETATM    2  C2  UNL     1     -33.354  15.785  -3.408  1.00 20.00    -0.107 C 
HETATM    3  C6  UNL     1     -32.809  17.822  -1.781  1.00 20.00     0.112 C 
ENDROOT
BRANCH   2   4
HETATM    4  C7  UNL     1     -33.656  14.663  -4.307  1.00 20.00     0.094 C 
BRANCH   4   5
HETATM    5  C8  UNL     1     -34.892  13.896  -3.835  1.00 20.00     0.014 C 
BRANCH   5   6
HETATM    6  C9  UNL     1     -36.014  13.960  -4.873  1.00 20.00     0.033 C 
BRANCH   6   7
HETATM    7  C10 UNL     1     -35.644  14.768  -6.121  1.00 20.00     0.122 C 
BRANCH   7   8
HETATM    8  C5  UNL     1     -36.444  16.028  -6.267  1.00 20.00     0.014 A 
HETATM    9  C3  UNL     1     -36.747  16.878  -5.064  1.00 20.00     0.007 A 
HETATM   10  C4  UNL     1     -35.781  17.369  -6.107  1.00 20.00     0.007 A 
ENDBRANCH   7   8
BRANCH   7  11
HETATM   11  O11 UNL     1     -35.885  13.932  -7.254  1.00 20.00    -0.395 OA
HETATM   12  H27 UNL     1     -35.095  13.992  -7.811  1.00 20.00     0.210 HD
ENDBRANCH   7  11
ENDBRANCH   6   7
ENDBRANCH   5   6
ENDBRANCH   4   5
ENDBRANCH   2   4
TORSDOF 6
ENDMDL
MODEL 6
REMARK VINA RESULT:      -4.1     15.530     16.163
REMARK  6 active torsions:
REMARK  status: ('A' for Active; 'I' for Inactive)
REMARK    1  A    between atoms: C2_2  and  C7_7 
REMARK    2  A    between atoms: C5_5  and  C10_10 
REMARK    3  A    between atoms: C7_7  and  C8_8 
REMARK    4  A    between atoms: C8_8  and  C9_9 
REMARK    5  A    between atoms: C9_9  and  C10_10 
REMARK    6  A    between atoms: C10_10  and  O11_11 
ROOT
HETATM    1  C1  UNL     1     -24.873  19.245   4.768  1.00 20.00    -0.111 C 
HETATM    2  C2  UNL     1     -24.803  19.229   5.966  1.00 20.00    -0.107 C 
HETATM    3  C6  UNL     1     -24.959  19.263   3.308  1.00 20.00     0.112 C 
ENDROOT
BRANCH   2   4
HETATM    4  C7  UNL     1     -24.719  19.208   7.433  1.00 20.00     0.094 C 
BRANCH   4   5
HETATM    5  C8  UNL     1     -23.397  18.596   7.900  1.00 20.00     0.014 C 
BRANCH   5   6
HETATM    6  C9  UNL     1     -23.394  18.370   9.412  1.00 20.00     0.033 C 
BRANCH   6   7
HETATM    7  C10 UNL     1     -23.777  16.941   9.816  1.00 20.00     0.122 C 
BRANCH   7   8
HETATM    8  C5  UNL     1     -23.865  16.751  11.301  1.00 20.00     0.014 A 
HETATM    9  C3  UNL     1     -24.561  17.772  12.156  1.00 20.00     0.007 A 
HETATM   10  C4  UNL     1     -25.183  16.420  11.945  1.00 20.00     0.007 A 
ENDBRANCH   7   8
BRANCH   7  11
HETATM   11  O11 UNL     1     -22.770  16.071   9.296  1.00 20.00    -0.395 OA
HETATM   12  H27 UNL     1     -22.773  16.193   8.335  1.00 20.00     0.210 HD
ENDBRANCH   7  11
ENDBRANCH   6   7
ENDBRANCH   5   6
ENDBRANCH   4   5
ENDBRANCH   2   4
TORSDOF 6
ENDMDL
MODEL 7
REMARK VINA RESULT:      -4.1     11.536     12.603
REMARK  6 active torsions:
REMARK  status: ('A' for Active; 'I' for Inactive)
REMARK    1  A    between atoms: C2_2  and  C7_7 
REMARK    2  A    between atoms: C5_5  and  C10_10 
REMARK    3  A    between atoms: C7_7  and  C8_8 
REMARK    4  A    between atoms: C8_8  and  C9_9 
REMARK    5  A    between atoms: C9_9  and  C10_10 
REMARK    6  A    between atoms: C10_10  and  O11_11 
ROOT
HETATM    1  C1  UNL     1     -33.914  15.732  -3.061  1.00 20.00    -0.111 C 
HETATM    2  C2  UNL     1     -33.705  16.645  -2.311  1.00 20.00    -0.107 C 
HETATM    3  C6  UNL     1     -34.169  14.618  -3.975  1.00 20.00     0.112 C 
ENDROOT
BRANCH   2   4
HETATM    4  C7  UNL     1     -33.448  17.762  -1.391  1.00 20.00     0.094 C 
BRANCH   4   5
HETATM    5  C8  UNL     1     -31.962  18.124  -1.365  1.00 20.00     0.014 C 
BRANCH   5   6
HETATM    6  C9  UNL     1     -31.649  19.098  -0.229  1.00 20.00     0.033 C 
BRANCH   6   7
HETATM    7  C10 UNL     1     -31.148  18.407   1.045  1.00 20.00     0.122 C 
BRANCH   7   8
HETATM    8  C5  UNL     1     -32.014  18.676   2.241  1.00 20.00     0.014 A 
HETATM    9  C3  UNL     1     -33.473  18.312   2.218  1.00 20.00     0.007 A 
HETATM   10  C4  UNL     1     -32.518  17.535   3.081  1.00 20.00     0.007 A 
ENDBRANCH   7   8
BRANCH   7  11
HETATM   11  O11 UNL     1     -29.834  18.901   1.306  1.00 20.00    -0.395 OA
HETATM   12  H27 UNL     1     -29.515  19.282   0.474  1.00 20.00     0.210 HD
ENDBRANCH   7  11
ENDBRANCH   6   7
ENDBRANCH   5   6
ENDBRANCH   4   5
ENDBRANCH   2   4
TORSDOF 6
ENDMDL
MODEL 8
REMARK VINA RESULT:      -4.1     11.402     13.367
REMARK  6 active torsions:
REMARK  status: ('A' for Active; 'I' for Inactive)
REMARK    1  A    between atoms: C2_2  and  C7_7 
REMARK    2  A    between atoms: C5_5  and  C10_10 
REMARK    3  A    between atoms: C7_7  and  C8_8 
REMARK    4  A    between atoms: C8_8  and  C9_9 
REMARK    5  A    between atoms: C9_9  and  C10_10 
REMARK    6  A    between atoms: C10_10  and  O11_11 
ROOT
HETATM    1  C1  UNL     1     -33.356  17.029  -2.109  1.00 20.00    -0.111 C 
HETATM    2  C2  UNL     1     -34.184  16.252  -2.497  1.00 20.00    -0.107 C 
HETATM    3  C6  UNL     1     -32.346  17.977  -1.637  1.00 20.00     0.112 C 
ENDROOT
BRANCH   2   4
HETATM    4  C7  UNL     1     -35.198  15.302  -2.975  1.00 20.00     0.094 C 
BRANCH   4   5
HETATM    5  C8  UNL     1     -34.574  14.237  -3.878  1.00 20.00     0.014 C 
BRANCH   5   6
HETATM    6  C9  UNL     1     -33.694  14.872  -4.956  1.00 20.00     0.033 C 
BRANCH   6   7
HETATM    7  C10 UNL     1     -34.402  15.027  -6.307  1.00 20.00     0.122 C 
BRANCH   7   8
HETATM    8  C5  UNL     1     -35.028  16.378  -6.493  1.00 20.00     0.014 A 
HETATM    9  C3  UNL     1     -34.351  17.608  -5.956  1.00 20.00     0.007 A 
HETATM   10  C4  UNL     1     -34.414  17.372  -7.439  1.00 20.00     0.007 A 
ENDBRANCH   7   8
BRANCH   7  11
HETATM   11  O11 UNL     1     -35.424  14.031  -6.367  1.00 20.00    -0.395 OA
HETATM   12  H27 UNL     1     -36.224  14.479  -6.680  1.00 20.00     0.210 HD
ENDBRANCH   7  11
ENDBRANCH   6   7
ENDBRANCH   5   6
ENDBRANCH   4   5
ENDBRANCH   2   4
TORSDOF 6
ENDMDL
MODEL 9
REMARK VINA RESULT:      -4.0     11.786     12.887
REMARK  6 active torsions:
REMARK  status: ('A' for Active; 'I' for Inactive)
REMARK    1  A    between atoms: C2_2  and  C7_7 
REMARK    2  A    between atoms: C5_5  and  C10_10 
REMARK    3  A    between atoms: C7_7  and  C8_8 
REMARK    4  A    between atoms: C8_8  and  C9_9 
REMARK    5  A    between atoms: C9_9  and  C10_10 
REMARK    6  A    between atoms: C10_10  and  O11_11 
ROOT
HETATM    1  C1  UNL     1     -36.690  17.461  -2.616  1.00 20.00    -0.111 C 
HETATM    2  C2  UNL     1     -35.667  16.892  -2.354  1.00 20.00    -0.107 C 
HETATM    3  C6  UNL     1     -37.937  18.155  -2.935  1.00 20.00     0.112 C 
ENDROOT
BRANCH   2   4
HETATM    4  C7  UNL     1     -34.412  16.196  -2.036  1.00 20.00     0.094 C 
BRANCH   4   5
HETATM    5  C8  UNL     1     -33.472  16.175  -3.242  1.00 20.00     0.014 C 
BRANCH   5   6
HETATM    6  C9  UNL     1     -33.638  14.889  -4.052  1.00 20.00     0.033 C 
BRANCH   6   7
HETATM    7  C10 UNL     1     -34.158  15.126  -5.474  1.00 20.00     0.122 C 
BRANCH   7   8
HETATM    8  C5  UNL     1     -35.475  14.458  -5.740  1.00 20.00     0.014 A 
HETATM    9  C3  UNL     1     -36.358  14.041  -4.598  1.00 20.00     0.007 A 
HETATM   10  C4  UNL     1     -36.762  15.191  -5.479  1.00 20.00     0.007 A 
ENDBRANCH   7   8
BRANCH   7  11
HETATM   11  O11 UNL     1     -33.182  14.602  -6.375  1.00 20.00    -0.395 OA
HETATM   12  H27 UNL     1     -33.642  13.953  -6.928  1.00 20.00     0.210 HD
ENDBRANCH   7  11
ENDBRANCH   6   7
ENDBRANCH   5   6
ENDBRANCH   4   5
ENDBRANCH   2   4
TORSDOF 6
ENDMDL
