MODEL 1
REMARK VINA RESULT:      -4.6      0.000      0.000
REMARK  1 active torsions:
REMARK  status: ('A' for Active; 'I' for Inactive)
REMARK    1  A    between atoms: C8_8  and  C10_10 
ROOT
HETATM    1  C1  UNL     1     -35.879  17.376   0.585  1.00 20.00     0.012 C 
HETATM    2  C2  UNL     1     -35.050  17.363  -0.284  1.00 20.00    -0.117 C 
HETATM    3  C10 UNL     1     -34.032  17.362  -1.334  1.00 20.00     0.097 C 
ENDROOT
BRANCH   3   4
HETATM    4  C8  UNL     1     -34.278  16.219  -2.328  1.00 20.00    -0.002 C 
HETATM    5  C5  UNL     1     -33.099  16.159  -3.313  1.00 20.00     0.005 C 
HETATM    6  C3  UNL     1     -33.030  14.909  -4.187  1.00 20.00     0.000 C 
HETATM    7  C4  UNL     1     -34.272  14.624  -5.028  1.00 20.00     0.001 C 
HETATM    8  C6  UNL     1     -35.443  14.108  -4.194  1.00 20.00     0.016 C 
HETATM    9  C9  UNL     1     -36.305  15.186  -3.545  1.00 20.00     0.058 C 
HETATM   10  C7  UNL     1     -35.613  16.458  -3.056  1.00 20.00     0.021 C 
HETATM   11 BR11 UNL     1     -37.722  15.723  -4.811  1.00 20.00    -0.091 Br
ENDBRANCH   3   4
TORSDOF 1
ENDMDL
MODEL 2
REMARK VINA RESULT:      -4.5      0.885      1.551
REMARK  1 active torsions:
REMARK  status: ('A' for Active; 'I' for Inactive)
REMARK    1  A    between atoms: C8_8  and  C10_10 
ROOT
HETATM    1  C1  UNL     1     -31.733  18.294  -0.912  1.00 20.00     0.012 C 
HETATM    2  C2  UNL     1     -32.865  17.917  -1.056  1.00 20.00    -0.117 C 
HETATM    3  C10 UNL     1     -34.248  17.470  -1.217  1.00 20.00     0.097 C 
ENDROOT
BRANCH   3   4
HETATM    4  C8  UNL     1     -34.332  16.315  -2.225  1.00 20.00    -0.002 C 
HETATM    5  C5  UNL     1     -33.114  16.389  -3.162  1.00 20.00     0.005 C 
HETATM    6  C3  UNL     1     -32.878  15.161  -4.037  1.00 20.00     0.000 C 
HETATM    7  C4  UNL     1     -34.049  14.754  -4.930  1.00 20.00     0.001 C 
HETATM    8  C6  UNL     1     -35.191  14.110  -4.147  1.00 20.00     0.016 C 
HETATM    9  C9  UNL     1     -36.188  15.086  -3.529  1.00 20.00     0.058 C 
HETATM   10  C7  UNL     1     -35.653  16.419  -3.005  1.00 20.00     0.021 C 
HETATM   11 BR11 UNL     1     -37.602  15.482  -4.849  1.00 20.00    -0.091 Br
ENDBRANCH   3   4
TORSDOF 1
ENDMDL
MODEL 3
REMARK VINA RESULT:      -4.4     15.866     17.480
REMARK  1 active torsions:
REMARK  status: ('A' for Active; 'I' for Inactive)
REMARK    1  A    between atoms: C8_8  and  C10_10 
ROOT
HETATM    1  C1  UNL     1     -26.639  19.263   7.638  1.00 20.00     0.012 C 
HETATM    2  C2  UNL     1     -25.465  19.028   7.722  1.00 20.00    -0.117 C 
HETATM    3  C10 UNL     1     -24.033  18.741   7.805  1.00 20.00     0.097 C 
ENDROOT
BRANCH   3   4
HETATM    4  C8  UNL     1     -23.589  18.607   9.268  1.00 20.00    -0.002 C 
HETATM    5  C5  UNL     1     -22.154  18.054   9.300  1.00 20.00     0.005 C 
HETATM    6  C3  UNL     1     -21.448  18.128  10.651  1.00 20.00     0.000 C 
HETATM    7  C4  UNL     1     -22.169  17.443  11.810  1.00 20.00     0.001 C 
HETATM    8  C6  UNL     1     -23.392  18.224  12.286  1.00 20.00     0.016 C 
HETATM    9  C9  UNL     1     -24.679  17.953  11.513  1.00 20.00     0.058 C 
HETATM   10  C7  UNL     1     -24.569  17.684  10.012  1.00 20.00     0.021 C 
HETATM   11 BR11 UNL     1     -25.608  16.415  12.332  1.00 20.00    -0.091 Br
ENDBRANCH   3   4
TORSDOF 1
ENDMDL
MODEL 4
REMARK VINA RESULT:      -4.3      1.172      1.507
REMARK  1 active torsions:
REMARK  status: ('A' for Active; 'I' for Inactive)
REMARK    1  A    between atoms: C8_8  and  C10_10 
ROOT
HETATM    1  C1  UNL     1     -35.450  17.241   0.533  1.00 20.00     0.012 C 
HETATM    2  C2  UNL     1     -35.005  17.063  -0.569  1.00 20.00    -0.117 C 
HETATM    3  C10 UNL     1     -34.450  16.859  -1.907  1.00 20.00     0.097 C 
ENDROOT
BRANCH   3   4
HETATM    4  C8  UNL     1     -35.309  15.870  -2.706  1.00 20.00    -0.002 C 
HETATM    5  C5  UNL     1     -34.378  14.903  -3.456  1.00 20.00     0.005 C 
HETATM    6  C3  UNL     1     -35.052  13.677  -4.068  1.00 20.00     0.000 C 
HETATM    7  C4  UNL     1     -36.194  13.970  -5.039  1.00 20.00     0.001 C 
HETATM    8  C6  UNL     1     -37.460  14.447  -4.331  1.00 20.00     0.016 C 
HETATM    9  C9  UNL     1     -37.518  15.943  -4.037  1.00 20.00     0.058 C 
HETATM   10  C7  UNL     1     -36.213  16.652  -3.675  1.00 20.00     0.021 C 
HETATM   11 BR11 UNL     1     -38.296  16.874  -5.595  1.00 20.00    -0.091 Br
ENDBRANCH   3   4
TORSDOF 1
ENDMDL
MODEL 5
REMARK VINA RESULT:      -4.3      2.259      4.251
REMARK  1 active torsions:
REMARK  status: ('A' for Active; 'I' for Inactive)
REMARK    1  A    between atoms: C8_8  and  C10_10 
ROOT
HETATM    1  C1  UNL     1     -37.091  14.387  -4.314  1.00 20.00     0.012 C 
HETATM    2  C2  UNL     1     -35.972  14.602  -3.934  1.00 20.00    -0.117 C 
HETATM    3  C10 UNL     1     -34.604  14.844  -3.475  1.00 20.00     0.097 C 
ENDROOT
BRANCH   3   4
HETATM    4  C8  UNL     1     -34.468  16.260  -2.899  1.00 20.00    -0.002 C 
HETATM    5  C5  UNL     1     -32.980  16.650  -2.895  1.00 20.00     0.005 C 
HETATM    6  C3  UNL     1     -32.684  18.124  -2.630  1.00 20.00     0.000 C 
HETATM    7  C4  UNL     1     -33.250  18.685  -1.327  1.00 20.00     0.001 C 
HETATM    8  C6  UNL     1     -34.762  18.888  -1.382  1.00 20.00     0.016 C 
HETATM    9  C9  UNL     1     -35.597  17.656  -1.046  1.00 20.00     0.058 C 
HETATM   10  C7  UNL     1     -35.065  16.291  -1.481  1.00 20.00     0.021 C 
HETATM   11 BR11 UNL     1     -35.892  17.592   0.905  1.00 20.00    -0.091 Br
ENDBRANCH   3   4
TORSDOF 1
ENDMDL
MODEL 6
REMARK VINA RESULT:      -4.3      1.691      2.720
REMARK  1 active torsions:
REMARK  status: ('A' for Active; 'I' for Inactive)
REMARK    1  A    between atoms: C8_8  and  C10_10 
ROOT
HETATM    1  C1  UNL     1     -33.315  18.093   2.699  1.00 20.00     0.012 C 
HETATM    2  C2  UNL     1     -34.077  17.967   1.780  1.00 20.00    -0.117 C 
HETATM    3  C10 UNL     1     -35.020  17.817   0.672  1.00 20.00     0.097 C 
ENDROOT
BRANCH   3   4
HETATM    4  C8  UNL     1     -34.297  17.350  -0.598  1.00 20.00    -0.002 C 
HETATM    5  C5  UNL     1     -33.561  18.550  -1.218  1.00 20.00     0.005 C 
HETATM    6  C3  UNL     1     -32.557  18.214  -2.317  1.00 20.00     0.000 C 
HETATM    7  C4  UNL     1     -33.116  17.430  -3.503  1.00 20.00     0.001 C 
HETATM    8  C6  UNL     1     -33.395  15.968  -3.162  1.00 20.00     0.016 C 
HETATM    9  C9  UNL     1     -34.755  15.696  -2.525  1.00 20.00     0.058 C 
HETATM   10  C7  UNL     1     -35.323  16.750  -1.574  1.00 20.00     0.021 C 
HETATM   11 BR11 UNL     1     -36.085  15.394  -3.953  1.00 20.00    -0.091 Br
ENDBRANCH   3   4
TORSDOF 1
ENDMDL
MODEL 7
REMARK VINA RESULT:      -4.1      2.041      2.611
REMARK  1 active torsions:
REMARK  status: ('A' for Active; 'I' for Inactive)
REMARK    1  A    between atoms: C8_8  and  C10_10 
ROOT
HETATM    1  C1  UNL     1     -35.024  17.420  -0.519  1.00 20.00     0.012 C 
HETATM    2  C2  UNL     1     -34.448  16.911  -1.441  1.00 20.00    -0.117 C 
HETATM    3  C10 UNL     1     -33.729  16.294  -2.556  1.00 20.00     0.097 C 
ENDROOT
BRANCH   3   4
HETATM    4  C8  UNL     1     -34.699  15.908  -3.681  1.00 20.00    -0.002 C 
HETATM    5  C5  UNL     1     -34.869  14.379  -3.683  1.00 20.00     0.005 C 
HETATM    6  C3  UNL     1     -36.013  13.843  -4.539  1.00 20.00     0.000 C 
HETATM    7  C4  UNL     1     -35.978  14.246  -6.012  1.00 20.00     0.001 C 
HETATM    8  C6  UNL     1     -36.356  15.709  -6.232  1.00 20.00     0.016 C 
HETATM    9  C9  UNL     1     -35.212  16.707  -6.079  1.00 20.00     0.058 C 
HETATM   10  C7  UNL     1     -34.146  16.418  -5.023  1.00 20.00     0.021 C 
HETATM   11 BR11 UNL     1     -34.298  16.905  -7.818  1.00 20.00    -0.091 Br
ENDBRANCH   3   4
TORSDOF 1
ENDMDL
MODEL 8
REMARK VINA RESULT:      -4.1      3.445      5.721
REMARK  1 active torsions:
REMARK  status: ('A' for Active; 'I' for Inactive)
REMARK    1  A    between atoms: C8_8  and  C10_10 
ROOT
HETATM    1  C1  UNL     1     -33.264  16.252  -3.148  1.00 20.00     0.012 C 
HETATM    2  C2  UNL     1     -32.903  17.357  -2.848  1.00 20.00    -0.117 C 
HETATM    3  C10 UNL     1     -32.460  18.708  -2.500  1.00 20.00     0.097 C 
ENDROOT
BRANCH   3   4
HETATM    4  C8  UNL     1     -32.382  18.879  -0.977  1.00 20.00    -0.002 C 
HETATM    5  C5  UNL     1     -31.165  18.096  -0.454  1.00 20.00     0.005 C 
HETATM    6  C3  UNL     1     -30.764  18.386   0.989  1.00 20.00     0.000 C 
HETATM    7  C4  UNL     1     -31.858  18.172   2.033  1.00 20.00     0.001 C 
HETATM    8  C6  UNL     1     -32.926  19.263   1.998  1.00 20.00     0.016 C 
HETATM    9  C9  UNL     1     -34.047  19.044   0.986  1.00 20.00     0.058 C 
HETATM   10  C7  UNL     1     -33.692  18.379  -0.343  1.00 20.00     0.021 C 
HETATM   11 BR11 UNL     1     -35.474  17.972   1.832  1.00 20.00    -0.091 Br
ENDBRANCH   3   4
TORSDOF 1
ENDMDL
MODEL 9
REMARK VINA RESULT:      -4.0      2.377      4.817
REMARK  1 active torsions:
REMARK  status: ('A' for Active; 'I' for Inactive)
REMARK    1  A    between atoms: C8_8  and  C10_10 
ROOT
HETATM    1  C1  UNL     1     -34.018  15.197  -6.913  1.00 20.00     0.012 C 
HETATM    2  C2  UNL     1     -33.701  14.874  -5.801  1.00 20.00    -0.117 C 
HETATM    3  C10 UNL     1     -33.304  14.466  -4.454  1.00 20.00     0.097 C 
ENDROOT
BRANCH   3   4
HETATM    4  C8  UNL     1     -33.933  15.387  -3.399  1.00 20.00    -0.002 C 
HETATM    5  C5  UNL     1     -35.377  15.707  -3.822  1.00 20.00     0.005 C 
HETATM    6  C3  UNL     1     -36.246  16.368  -2.756  1.00 20.00     0.000 C 
HETATM    7  C4  UNL     1     -35.699  17.671  -2.175  1.00 20.00     0.001 C 
HETATM    8  C6  UNL     1     -34.522  17.444  -1.229  1.00 20.00     0.016 C 
HETATM    9  C9  UNL     1     -33.157  17.338  -1.901  1.00 20.00     0.058 C 
HETATM   10  C7  UNL     1     -33.084  16.663  -3.271  1.00 20.00     0.021 C 
HETATM   11 BR11 UNL     1     -32.387  19.148  -2.081  1.00 20.00    -0.091 Br
ENDBRANCH   3   4
TORSDOF 1
ENDMDL
