MODEL 1
REMARK VINA RESULT:      -4.5      0.000      0.000
REMARK  2 active torsions:
REMARK  status: ('A' for Active; 'I' for Inactive)
REMARK    1  A    between atoms: C7_7  and  C10_10 
REMARK    2  A    between atoms: C9_9  and  C10_10 
ROOT
HETATM    1  C2  UNL     1     -33.161  16.360  -3.267  1.00 20.00     0.006 C 
HETATM    2  C3  UNL     1     -34.153  15.214  -3.422  1.00 20.00     0.020 C 
HETATM    3  C5  UNL     1     -34.958  16.550  -1.603  1.00 20.00     0.025 C 
HETATM    4  C7  UNL     1     -33.521  17.004  -1.921  1.00 20.00    -0.011 C 
HETATM    5  C8  UNL     1     -35.440  15.765  -2.821  1.00 20.00     0.082 C 
HETATM    6 CL12 UNL     1     -36.268  16.848  -3.977  1.00 20.00    -0.125 Cl
ENDROOT
BRANCH   4   7
HETATM    7  C10 UNL     1     -33.371  18.519  -1.949  1.00 20.00     0.036 C 
BRANCH   7   8
HETATM    8  C9  UNL     1     -32.525  19.023  -0.796  1.00 20.00     0.121 C 
HETATM    9  C4  UNL     1     -31.246  18.230  -0.590  1.00 20.00     0.034 C 
HETATM   10  C1  UNL     1     -30.978  18.467   0.875  1.00 20.00     0.029 C 
HETATM   11  C6  UNL     1     -32.376  18.444   1.457  1.00 20.00     0.168 C 
HETATM   12  O11 UNL     1     -33.264  18.919   0.433  1.00 20.00    -0.386 OA
ENDBRANCH   7   8
ENDBRANCH   4   7
TORSDOF 2
ENDMDL
MODEL 2
REMARK VINA RESULT:      -4.4      3.249      5.672
REMARK  2 active torsions:
REMARK  status: ('A' for Active; 'I' for Inactive)
REMARK    1  A    between atoms: C7_7  and  C10_10 
REMARK    2  A    between atoms: C9_9  and  C10_10 
ROOT
HETATM    1  C2  UNL     1     -35.248  16.317  -1.910  1.00 20.00     0.006 C 
HETATM    2  C3  UNL     1     -34.337  17.310  -1.201  1.00 20.00     0.020 C 
HETATM    3  C5  UNL     1     -33.047  16.390  -2.999  1.00 20.00     0.025 C 
HETATM    4  C7  UNL     1     -34.314  15.529  -2.838  1.00 20.00    -0.011 C 
HETATM    5  C8  UNL     1     -33.326  17.703  -2.271  1.00 20.00     0.082 C 
HETATM    6 CL12 UNL     1     -34.025  18.906  -3.393  1.00 20.00    -0.125 Cl
ENDROOT
BRANCH   4   7
HETATM    7  C10 UNL     1     -34.973  15.191  -4.168  1.00 20.00     0.036 C 
BRANCH   7   8
HETATM    8  C9  UNL     1     -34.192  15.748  -5.342  1.00 20.00     0.121 C 
HETATM    9  C4  UNL     1     -34.984  16.734  -6.184  1.00 20.00     0.034 C 
HETATM   10  C1  UNL     1     -34.297  16.608  -7.520  1.00 20.00     0.029 C 
HETATM   11  C6  UNL     1     -33.996  15.125  -7.580  1.00 20.00     0.168 C 
HETATM   12  O11 UNL     1     -33.811  14.681  -6.227  1.00 20.00    -0.386 OA
ENDBRANCH   7   8
ENDBRANCH   4   7
TORSDOF 2
ENDMDL
MODEL 3
REMARK VINA RESULT:      -4.2      1.775      2.630
REMARK  2 active torsions:
REMARK  status: ('A' for Active; 'I' for Inactive)
REMARK    1  A    between atoms: C7_7  and  C10_10 
REMARK    2  A    between atoms: C9_9  and  C10_10 
ROOT
HETATM    1  C2  UNL     1     -35.151  16.291  -4.707  1.00 20.00     0.006 C 
HETATM    2  C3  UNL     1     -35.576  15.296  -5.778  1.00 20.00     0.020 C 
HETATM    3  C5  UNL     1     -35.023  13.994  -3.844  1.00 20.00     0.025 C 
HETATM    4  C7  UNL     1     -34.513  15.429  -3.609  1.00 20.00    -0.011 C 
HETATM    5  C8  UNL     1     -36.036  14.081  -4.983  1.00 20.00     0.082 C 
HETATM    6 CL12 UNL     1     -37.685  14.332  -4.339  1.00 20.00    -0.125 Cl
ENDROOT
BRANCH   4   7
HETATM    7  C10 UNL     1     -34.827  15.947  -2.212  1.00 20.00     0.036 C 
BRANCH   7   8
HETATM    8  C9  UNL     1     -34.210  17.310  -1.965  1.00 20.00     0.121 C 
HETATM    9  C4  UNL     1     -32.715  17.356  -2.233  1.00 20.00     0.034 C 
HETATM   10  C1  UNL     1     -32.285  18.493  -1.341  1.00 20.00     0.029 C 
HETATM   11  C6  UNL     1     -33.165  18.288  -0.125  1.00 20.00     0.168 C 
HETATM   12  O11 UNL     1     -34.382  17.682  -0.587  1.00 20.00    -0.386 OA
ENDBRANCH   7   8
ENDBRANCH   4   7
TORSDOF 2
ENDMDL
MODEL 4
REMARK VINA RESULT:      -4.2      2.947      5.328
REMARK  2 active torsions:
REMARK  status: ('A' for Active; 'I' for Inactive)
REMARK    1  A    between atoms: C7_7  and  C10_10 
REMARK    2  A    between atoms: C9_9  and  C10_10 
ROOT
HETATM    1  C2  UNL     1     -34.401  16.759  -1.742  1.00 20.00     0.006 C 
HETATM    2  C3  UNL     1     -34.559  18.243  -1.436  1.00 20.00     0.020 C 
HETATM    3  C5  UNL     1     -32.909  18.093  -3.167  1.00 20.00     0.025 C 
HETATM    4  C7  UNL     1     -33.138  16.675  -2.609  1.00 20.00    -0.011 C 
HETATM    5  C8  UNL     1     -34.106  18.928  -2.718  1.00 20.00     0.082 C 
HETATM    6 CL12 UNL     1     -35.399  18.884  -3.952  1.00 20.00    -0.125 Cl
ENDROOT
BRANCH   4   7
HETATM    7  C10 UNL     1     -33.257  15.621  -3.701  1.00 20.00     0.036 C 
BRANCH   7   8
HETATM    8  C9  UNL     1     -34.704  15.310  -4.030  1.00 20.00     0.121 C 
HETATM    9  C4  UNL     1     -35.056  13.839  -3.889  1.00 20.00     0.034 C 
HETATM   10  C1  UNL     1     -36.220  13.716  -4.839  1.00 20.00     0.029 C 
HETATM   11  C6  UNL     1     -35.798  14.628  -5.972  1.00 20.00     0.168 C 
HETATM   12  O11 UNL     1     -34.981  15.659  -5.397  1.00 20.00    -0.386 OA
ENDBRANCH   7   8
ENDBRANCH   4   7
TORSDOF 2
ENDMDL
MODEL 5
REMARK VINA RESULT:      -4.2      2.003      2.424
REMARK  2 active torsions:
REMARK  status: ('A' for Active; 'I' for Inactive)
REMARK    1  A    between atoms: C7_7  and  C10_10 
REMARK    2  A    between atoms: C9_9  and  C10_10 
ROOT
HETATM    1  C2  UNL     1     -33.039  16.092  -3.603  1.00 20.00     0.006 C 
HETATM    2  C3  UNL     1     -33.138  14.683  -4.171  1.00 20.00     0.020 C 
HETATM    3  C5  UNL     1     -35.218  15.099  -3.056  1.00 20.00     0.025 C 
HETATM    4  C7  UNL     1     -34.232  16.209  -2.645  1.00 20.00    -0.011 C 
HETATM    5  C8  UNL     1     -34.638  14.454  -4.312  1.00 20.00     0.082 C 
HETATM    6 CL12 UNL     1     -35.267  15.259  -5.779  1.00 20.00    -0.125 Cl
ENDROOT
BRANCH   4   7
HETATM    7  C10 UNL     1     -34.858  17.597  -2.670  1.00 20.00     0.036 C 
BRANCH   7   8
HETATM    8  C9  UNL     1     -34.994  18.179  -1.277  1.00 20.00     0.121 C 
HETATM    9  C4  UNL     1     -33.740  18.030  -0.433  1.00 20.00     0.034 C 
HETATM   10  C1  UNL     1     -34.313  18.055   0.962  1.00 20.00     0.029 C 
HETATM   11  C6  UNL     1     -35.602  17.280   0.785  1.00 20.00     0.168 C 
HETATM   12  O11 UNL     1     -36.041  17.501  -0.563  1.00 20.00    -0.386 OA
ENDBRANCH   7   8
ENDBRANCH   4   7
TORSDOF 2
ENDMDL
MODEL 6
REMARK VINA RESULT:      -4.2      2.184      3.182
REMARK  2 active torsions:
REMARK  status: ('A' for Active; 'I' for Inactive)
REMARK    1  A    between atoms: C7_7  and  C10_10 
REMARK    2  A    between atoms: C9_9  and  C10_10 
ROOT
HETATM    1  C2  UNL     1     -34.880  13.885  -3.860  1.00 20.00     0.006 C 
HETATM    2  C3  UNL     1     -36.209  13.696  -4.579  1.00 20.00     0.020 C 
HETATM    3  C5  UNL     1     -35.823  16.060  -4.508  1.00 20.00     0.025 C 
HETATM    4  C7  UNL     1     -34.816  15.388  -3.555  1.00 20.00    -0.011 C 
HETATM    5  C8  UNL     1     -36.348  14.956  -5.423  1.00 20.00     0.082 C 
HETATM    6 CL12 UNL     1     -35.352  14.841  -6.903  1.00 20.00    -0.125 Cl
ENDROOT
BRANCH   4   7
HETATM    7  C10 UNL     1     -33.406  15.946  -3.695  1.00 20.00     0.036 C 
BRANCH   7   8
HETATM    8  C9  UNL     1     -33.031  16.830  -2.522  1.00 20.00     0.121 C 
HETATM    9  C4  UNL     1     -34.161  17.031  -1.527  1.00 20.00     0.034 C 
HETATM   10  C1  UNL     1     -33.787  18.355  -0.910  1.00 20.00     0.029 C 
HETATM   11  C6  UNL     1     -33.242  19.113  -2.102  1.00 20.00     0.168 C 
HETATM   12  O11 UNL     1     -32.674  18.141  -2.993  1.00 20.00    -0.386 OA
ENDBRANCH   7   8
ENDBRANCH   4   7
TORSDOF 2
ENDMDL
MODEL 7
REMARK VINA RESULT:      -4.2      3.220      6.046
REMARK  2 active torsions:
REMARK  status: ('A' for Active; 'I' for Inactive)
REMARK    1  A    between atoms: C7_7  and  C10_10 
REMARK    2  A    between atoms: C9_9  and  C10_10 
ROOT
HETATM    1  C2  UNL     1     -35.101  15.871  -2.331  1.00 20.00     0.006 C 
HETATM    2  C3  UNL     1     -33.857  16.712  -2.075  1.00 20.00     0.020 C 
HETATM    3  C5  UNL     1     -33.354  15.342  -3.975  1.00 20.00     0.025 C 
HETATM    4  C7  UNL     1     -34.645  14.801  -3.332  1.00 20.00    -0.011 C 
HETATM    5  C8  UNL     1     -33.164  16.756  -3.430  1.00 20.00     0.082 C 
HETATM    6 CL12 UNL     1     -33.944  17.952  -4.505  1.00 20.00    -0.125 Cl
ENDROOT
BRANCH   4   7
HETATM    7  C10 UNL     1     -35.723  14.471  -4.355  1.00 20.00     0.036 C 
BRANCH   7   8
HETATM    8  C9  UNL     1     -36.896  15.428  -4.266  1.00 20.00     0.121 C 
HETATM    9  C4  UNL     1     -38.247  14.734  -4.277  1.00 20.00     0.034 C 
HETATM   10  C1  UNL     1     -39.138  15.819  -4.825  1.00 20.00     0.029 C 
HETATM   11  C6  UNL     1     -38.242  16.468  -5.860  1.00 20.00     0.168 C 
HETATM   12  O11 UNL     1     -36.891  16.313  -5.399  1.00 20.00    -0.386 OA
ENDBRANCH   7   8
ENDBRANCH   4   7
TORSDOF 2
ENDMDL
MODEL 8
REMARK VINA RESULT:      -3.9      3.182      5.415
REMARK  2 active torsions:
REMARK  status: ('A' for Active; 'I' for Inactive)
REMARK    1  A    between atoms: C7_7  and  C10_10 
REMARK    2  A    between atoms: C9_9  and  C10_10 
ROOT
HETATM    1  C2  UNL     1     -34.206  18.284  -3.193  1.00 20.00     0.006 C 
HETATM    2  C3  UNL     1     -34.750  19.071  -2.007  1.00 20.00     0.020 C 
HETATM    3  C5  UNL     1     -34.911  16.758  -1.400  1.00 20.00     0.025 C 
HETATM    4  C7  UNL     1     -34.609  16.830  -2.909  1.00 20.00    -0.011 C 
HETATM    5  C8  UNL     1     -34.556  18.128  -0.826  1.00 20.00     0.082 C 
HETATM    6 CL12 UNL     1     -32.858  18.152  -0.267  1.00 20.00    -0.125 Cl
ENDROOT
BRANCH   4   7
HETATM    7  C10 UNL     1     -33.539  15.840  -3.347  1.00 20.00     0.036 C 
BRANCH   7   8
HETATM    8  C9  UNL     1     -34.067  14.855  -4.372  1.00 20.00     0.121 C 
HETATM    9  C4  UNL     1     -34.794  15.517  -5.530  1.00 20.00     0.034 C 
HETATM   10  C1  UNL     1     -35.715  14.411  -5.979  1.00 20.00     0.029 C 
HETATM   11  C6  UNL     1     -36.117  13.784  -4.660  1.00 20.00     0.168 C 
HETATM   12  O11 UNL     1     -35.018  13.970  -3.755  1.00 20.00    -0.386 OA
ENDBRANCH   7   8
ENDBRANCH   4   7
TORSDOF 2
ENDMDL
MODEL 9
REMARK VINA RESULT:      -3.9      3.476      6.011
REMARK  2 active torsions:
REMARK  status: ('A' for Active; 'I' for Inactive)
REMARK    1  A    between atoms: C7_7  and  C10_10 
REMARK    2  A    between atoms: C9_9  and  C10_10 
ROOT
HETATM    1  C2  UNL     1     -33.060  16.096  -3.112  1.00 20.00     0.006 C 
HETATM    2  C3  UNL     1     -33.078  17.417  -2.353  1.00 20.00     0.020 C 
HETATM    3  C5  UNL     1     -35.169  17.291  -3.518  1.00 20.00     0.025 C 
HETATM    4  C7  UNL     1     -34.249  16.190  -4.079  1.00 20.00    -0.011 C 
HETATM    5  C8  UNL     1     -34.562  17.717  -2.183  1.00 20.00     0.082 C 
HETATM    6 CL12 UNL     1     -35.254  16.756  -0.844  1.00 20.00    -0.125 Cl
ENDROOT
BRANCH   4   7
HETATM    7  C10 UNL     1     -34.960  14.854  -4.249  1.00 20.00     0.036 C 
BRANCH   7   8
HETATM    8  C9  UNL     1     -35.315  14.585  -5.698  1.00 20.00     0.121 C 
HETATM    9  C4  UNL     1     -34.306  15.148  -6.684  1.00 20.00     0.034 C 
HETATM   10  C1  UNL     1     -35.159  15.332  -7.914  1.00 20.00     0.029 C 
HETATM   11  C6  UNL     1     -36.472  15.797  -7.318  1.00 20.00     0.168 C 
HETATM   12  O11 UNL     1     -36.574  15.203  -6.016  1.00 20.00    -0.386 OA
ENDBRANCH   7   8
ENDBRANCH   4   7
TORSDOF 2
ENDMDL
