MODEL 1
REMARK VINA RESULT:      -5.1      0.000      0.000
REMARK  1 active torsions:
REMARK  status: ('A' for Active; 'I' for Inactive)
REMARK    1  A    between atoms: C4_4  and  C9_9 
ROOT
HETATM    1  C1  UNL     1     -35.076  16.077  -1.953  1.00 20.00     0.052 A 
HETATM    2  C2  UNL     1     -32.972  16.893  -2.703  1.00 20.00     0.123 A 
HETATM    3  C3  UNL     1     -33.905  17.803  -0.811  1.00 20.00     0.158 A 
HETATM    4  C4  UNL     1     -34.039  16.027  -2.878  1.00 20.00    -0.034 A 
HETATM    5  C5  UNL     1     -35.016  16.980  -0.897  1.00 20.00     0.134 A 
HETATM    6  N11 UNL     1     -32.878  17.783  -1.689  1.00 20.00    -0.269 NA
HETATM    7  F12 UNL     1     -35.998  17.049   0.009  1.00 20.00    -0.205 F 
ENDROOT
BRANCH   4   8
HETATM    8  C9  UNL     1     -34.077  15.057  -4.038  1.00 20.00     0.021 C 
HETATM    9  C6  UNL     1     -35.136  13.942  -3.904  1.00 20.00     0.011 C 
HETATM   10  C7  UNL     1     -36.074  14.112  -5.095  1.00 20.00     0.021 C 
HETATM   11  C10 UNL     1     -35.174  14.718  -6.160  1.00 20.00     0.083 C 
HETATM   12  C8  UNL     1     -34.375  15.754  -5.380  1.00 20.00     0.029 C 
HETATM   13 CL13 UNL     1     -36.095  15.438  -7.488  1.00 20.00    -0.125 Cl
ENDBRANCH   4   8
TORSDOF 1
ENDMDL
MODEL 2
REMARK VINA RESULT:      -5.1      3.641      5.351
REMARK  1 active torsions:
REMARK  status: ('A' for Active; 'I' for Inactive)
REMARK    1  A    between atoms: C4_4  and  C9_9 
ROOT
HETATM    1  C1  UNL     1     -33.939  15.302  -5.165  1.00 20.00     0.052 A 
HETATM    2  C2  UNL     1     -36.062  14.818  -4.209  1.00 20.00     0.123 A 
HETATM    3  C3  UNL     1     -35.763  14.501  -6.465  1.00 20.00     0.158 A 
HETATM    4  C4  UNL     1     -34.757  15.252  -4.042  1.00 20.00    -0.034 A 
HETATM    5  C5  UNL     1     -34.444  14.920  -6.404  1.00 20.00     0.134 A 
HETATM    6  N11 UNL     1     -36.587  14.439  -5.396  1.00 20.00    -0.269 NA
HETATM    7  F12 UNL     1     -33.679  14.956  -7.501  1.00 20.00    -0.205 F 
ENDROOT
BRANCH   4   8
HETATM    8  C9  UNL     1     -34.237  15.661  -2.682  1.00 20.00     0.021 C 
HETATM    9  C6  UNL     1     -33.058  16.658  -2.722  1.00 20.00     0.011 C 
HETATM   10  C7  UNL     1     -33.543  17.907  -1.992  1.00 20.00     0.021 C 
HETATM   11  C10 UNL     1     -34.546  17.356  -0.991  1.00 20.00     0.083 C 
HETATM   12  C8  UNL     1     -35.319  16.333  -1.814  1.00 20.00     0.029 C 
HETATM   13 CL13 UNL     1     -35.594  18.617  -0.326  1.00 20.00    -0.125 Cl
ENDBRANCH   4   8
TORSDOF 1
ENDMDL
MODEL 3
REMARK VINA RESULT:      -5.1      1.867      2.208
REMARK  1 active torsions:
REMARK  status: ('A' for Active; 'I' for Inactive)
REMARK    1  A    between atoms: C4_4  and  C9_9 
ROOT
HETATM    1  C1  UNL     1     -33.070  16.950  -2.335  1.00 20.00     0.052 A 
HETATM    2  C2  UNL     1     -35.141  16.655  -1.205  1.00 20.00     0.123 A 
HETATM    3  C3  UNL     1     -33.661  18.226  -0.417  1.00 20.00     0.158 A 
HETATM    4  C4  UNL     1     -34.290  16.292  -2.236  1.00 20.00    -0.034 A 
HETATM    5  C5  UNL     1     -32.741  17.937  -1.412  1.00 20.00     0.134 A 
HETATM    6  N11 UNL     1     -34.857  17.609  -0.290  1.00 20.00    -0.269 NA
HETATM    7  F12 UNL     1     -31.574  18.588  -1.483  1.00 20.00    -0.205 F 
ENDROOT
BRANCH   4   8
HETATM    8  C9  UNL     1     -34.676  15.214  -3.224  1.00 20.00     0.021 C 
HETATM    9  C6  UNL     1     -36.074  15.396  -3.855  1.00 20.00     0.011 C 
HETATM   10  C7  UNL     1     -35.839  15.527  -5.357  1.00 20.00     0.021 C 
HETATM   11  C10 UNL     1     -34.575  14.713  -5.583  1.00 20.00     0.083 C 
HETATM   12  C8  UNL     1     -33.694  15.121  -4.409  1.00 20.00     0.029 C 
HETATM   13 CL13 UNL     1     -33.821  15.061  -7.145  1.00 20.00    -0.125 Cl
ENDBRANCH   4   8
TORSDOF 1
ENDMDL
MODEL 4
REMARK VINA RESULT:      -5.1      3.552      5.225
REMARK  1 active torsions:
REMARK  status: ('A' for Active; 'I' for Inactive)
REMARK    1  A    between atoms: C4_4  and  C9_9 
ROOT
HETATM    1  C1  UNL     1     -35.292  15.459  -2.910  1.00 20.00     0.052 A 
HETATM    2  C2  UNL     1     -33.061  16.231  -3.198  1.00 20.00     0.123 A 
HETATM    3  C3  UNL     1     -33.736  14.345  -4.322  1.00 20.00     0.158 A 
HETATM    4  C4  UNL     1     -34.304  16.389  -2.606  1.00 20.00    -0.034 A 
HETATM    5  C5  UNL     1     -35.011  14.414  -3.784  1.00 20.00     0.134 A 
HETATM    6  N11 UNL     1     -32.751  15.229  -4.051  1.00 20.00    -0.269 NA
HETATM    7  F12 UNL     1     -35.943  13.506  -4.096  1.00 20.00    -0.205 F 
ENDROOT
BRANCH   4   8
HETATM    8  C9  UNL     1     -34.579  17.536  -1.659  1.00 20.00     0.021 C 
HETATM    9  C6  UNL     1     -35.753  17.292  -0.685  1.00 20.00     0.011 C 
HETATM   10  C7  UNL     1     -35.153  17.370   0.716  1.00 20.00     0.021 C 
HETATM   11  C10 UNL     1     -33.987  18.330   0.541  1.00 20.00     0.083 C 
HETATM   12  C8  UNL     1     -33.365  17.872  -0.771  1.00 20.00     0.029 C 
HETATM   13 CL13 UNL     1     -32.846  18.253   1.891  1.00 20.00    -0.125 Cl
ENDBRANCH   4   8
TORSDOF 1
ENDMDL
MODEL 5
REMARK VINA RESULT:      -5.1      3.817      5.715
REMARK  1 active torsions:
REMARK  status: ('A' for Active; 'I' for Inactive)
REMARK    1  A    between atoms: C4_4  and  C9_9 
ROOT
HETATM    1  C1  UNL     1     -33.028  16.301  -3.077  1.00 20.00     0.052 A 
HETATM    2  C2  UNL     1     -35.248  16.439  -2.234  1.00 20.00     0.123 A 
HETATM    3  C3  UNL     1     -34.727  14.765  -3.719  1.00 20.00     0.158 A 
HETATM    4  C4  UNL     1     -33.957  16.942  -2.266  1.00 20.00    -0.034 A 
HETATM    5  C5  UNL     1     -33.412  15.190  -3.821  1.00 20.00     0.134 A 
HETATM    6  N11 UNL     1     -35.657  15.363  -2.943  1.00 20.00    -0.269 NA
HETATM    7  F12 UNL     1     -32.539  14.552  -4.609  1.00 20.00    -0.205 F 
ENDROOT
BRANCH   4   8
HETATM    8  C9  UNL     1     -33.571  18.153  -1.446  1.00 20.00     0.021 C 
HETATM    9  C6  UNL     1     -34.304  18.267  -0.092  1.00 20.00     0.011 C 
HETATM   10  C7  UNL     1     -33.214  18.230   0.976  1.00 20.00     0.021 C 
HETATM   11  C10 UNL     1     -32.013  18.834   0.267  1.00 20.00     0.083 C 
HETATM   12  C8  UNL     1     -32.067  18.181  -1.108  1.00 20.00     0.029 C 
HETATM   13 CL13 UNL     1     -30.495  18.500   1.112  1.00 20.00    -0.125 Cl
ENDBRANCH   4   8
TORSDOF 1
ENDMDL
MODEL 6
REMARK VINA RESULT:      -5.0      3.281      4.951
REMARK  1 active torsions:
REMARK  status: ('A' for Active; 'I' for Inactive)
REMARK    1  A    between atoms: C4_4  and  C9_9 
ROOT
HETATM    1  C1  UNL     1     -36.061  15.005  -3.504  1.00 20.00     0.052 A 
HETATM    2  C2  UNL     1     -34.084  15.052  -4.825  1.00 20.00     0.123 A 
HETATM    3  C3  UNL     1     -35.994  14.142  -5.720  1.00 20.00     0.158 A 
HETATM    4  C4  UNL     1     -34.719  15.344  -3.629  1.00 20.00    -0.034 A 
HETATM    5  C5  UNL     1     -36.719  14.391  -4.565  1.00 20.00     0.134 A 
HETATM    6  N11 UNL     1     -34.689  14.458  -5.877  1.00 20.00    -0.269 NA
HETATM    7  F12 UNL     1     -38.010  14.054  -4.474  1.00 20.00    -0.205 F 
ENDROOT
BRANCH   4   8
HETATM    8  C9  UNL     1     -33.976  16.011  -2.492  1.00 20.00     0.021 C 
HETATM    9  C6  UNL     1     -33.026  17.147  -2.930  1.00 20.00     0.011 C 
HETATM   10  C7  UNL     1     -33.535  18.407  -2.235  1.00 20.00     0.021 C 
HETATM   11  C10 UNL     1     -34.170  17.869  -0.963  1.00 20.00     0.083 C 
HETATM   12  C8  UNL     1     -34.927  16.642  -1.455  1.00 20.00     0.029 C 
HETATM   13 CL13 UNL     1     -35.235  19.052  -0.191  1.00 20.00    -0.125 Cl
ENDBRANCH   4   8
TORSDOF 1
ENDMDL
MODEL 7
REMARK VINA RESULT:      -4.9      3.538      4.803
REMARK  1 active torsions:
REMARK  status: ('A' for Active; 'I' for Inactive)
REMARK    1  A    between atoms: C4_4  and  C9_9 
ROOT
HETATM    1  C1  UNL     1     -36.893  16.432  -3.461  1.00 20.00     0.052 A 
HETATM    2  C2  UNL     1     -36.345  14.178  -3.987  1.00 20.00     0.123 A 
HETATM    3  C3  UNL     1     -38.438  14.964  -4.516  1.00 20.00     0.158 A 
HETATM    4  C4  UNL     1     -35.965  15.397  -3.449  1.00 20.00    -0.034 A 
HETATM    5  C5  UNL     1     -38.156  16.219  -4.003  1.00 20.00     0.134 A 
HETATM    6  N11 UNL     1     -37.562  13.934  -4.522  1.00 20.00    -0.269 NA
HETATM    7  F12 UNL     1     -39.069  17.197  -4.029  1.00 20.00    -0.205 F 
ENDROOT
BRANCH   4   8
HETATM    8  C9  UNL     1     -34.583  15.597  -2.866  1.00 20.00     0.021 C 
HETATM    9  C6  UNL     1     -33.517  16.045  -3.889  1.00 20.00     0.011 C 
HETATM   10  C7  UNL     1     -33.013  17.400  -3.400  1.00 20.00     0.021 C 
HETATM   11  C10 UNL     1     -33.192  17.311  -1.892  1.00 20.00     0.083 C 
HETATM   12  C8  UNL     1     -34.561  16.660  -1.750  1.00 20.00     0.029 C 
HETATM   13 CL13 UNL     1     -33.116  18.898  -1.113  1.00 20.00    -0.125 Cl
ENDBRANCH   4   8
TORSDOF 1
ENDMDL
MODEL 8
REMARK VINA RESULT:      -4.9      3.504      5.288
REMARK  1 active torsions:
REMARK  status: ('A' for Active; 'I' for Inactive)
REMARK    1  A    between atoms: C4_4  and  C9_9 
ROOT
HETATM    1  C1  UNL     1     -35.214  16.111  -2.640  1.00 20.00     0.052 A 
HETATM    2  C2  UNL     1     -32.937  16.066  -3.324  1.00 20.00     0.123 A 
HETATM    3  C3  UNL     1     -34.364  14.449  -4.113  1.00 20.00     0.158 A 
HETATM    4  C4  UNL     1     -33.943  16.672  -2.588  1.00 20.00    -0.034 A 
HETATM    5  C5  UNL     1     -35.437  14.978  -3.414  1.00 20.00     0.134 A 
HETATM    6  N11 UNL     1     -33.116  14.965  -4.087  1.00 20.00    -0.269 NA
HETATM    7  F12 UNL     1     -36.651  14.418  -3.484  1.00 20.00    -0.205 F 
ENDROOT
BRANCH   4   8
HETATM    8  C9  UNL     1     -33.668  17.903  -1.754  1.00 20.00     0.021 C 
HETATM    9  C6  UNL     1     -34.471  17.975  -0.437  1.00 20.00     0.011 C 
HETATM   10  C7  UNL     1     -33.433  18.003   0.682  1.00 20.00     0.021 C 
HETATM   11  C10 UNL     1     -32.237  18.677   0.029  1.00 20.00     0.083 C 
HETATM   12  C8  UNL     1     -32.187  18.021  -1.345  1.00 20.00     0.029 C 
HETATM   13 CL13 UNL     1     -30.745  18.434   0.947  1.00 20.00    -0.125 Cl
ENDBRANCH   4   8
TORSDOF 1
ENDMDL
MODEL 9
REMARK VINA RESULT:      -4.9      1.545      2.052
REMARK  1 active torsions:
REMARK  status: ('A' for Active; 'I' for Inactive)
REMARK    1  A    between atoms: C4_4  and  C9_9 
ROOT
HETATM    1  C1  UNL     1     -35.263  16.902  -0.851  1.00 20.00     0.052 A 
HETATM    2  C2  UNL     1     -33.153  17.904  -1.294  1.00 20.00     0.123 A 
HETATM    3  C3  UNL     1     -34.048  18.089   0.814  1.00 20.00     0.158 A 
HETATM    4  C4  UNL     1     -34.237  17.172  -1.749  1.00 20.00    -0.034 A 
HETATM    5  C5  UNL     1     -35.175  17.365   0.458  1.00 20.00     0.134 A 
HETATM    6  N11 UNL     1     -33.032  18.371  -0.031  1.00 20.00    -0.269 NA
HETATM    7  F12 UNL     1     -36.146  17.119   1.344  1.00 20.00    -0.205 F 
ENDROOT
BRANCH   4   8
HETATM    8  C9  UNL     1     -34.305  16.682  -3.178  1.00 20.00     0.021 C 
HETATM    9  C6  UNL     1     -33.147  15.746  -3.588  1.00 20.00     0.011 C 
HETATM   10  C7  UNL     1     -33.800  14.423  -3.980  1.00 20.00     0.021 C 
HETATM   11  C10 UNL     1     -35.167  14.850  -4.491  1.00 20.00     0.083 C 
HETATM   12  C8  UNL     1     -35.598  15.897  -3.473  1.00 20.00     0.029 C 
HETATM   13 CL13 UNL     1     -36.301  13.496  -4.587  1.00 20.00    -0.125 Cl
ENDBRANCH   4   8
TORSDOF 1
ENDMDL
