MODEL 1
REMARK VINA RESULT:      -4.6      0.000      0.000
REMARK  2 active torsions:
REMARK  status: ('A' for Active; 'I' for Inactive)
REMARK    1  A    between atoms: C2_2  and  C10_10 
REMARK    2  A    between atoms: C7_7  and  C10_10 
ROOT
HETATM    1  C1  UNL     1     -35.156  17.041  -0.585  1.00 20.00    -0.111 C 
HETATM    2  C2  UNL     1     -34.519  16.723  -1.552  1.00 20.00    -0.107 C 
HETATM    3  C9  UNL     1     -35.933  17.430   0.591  1.00 20.00     0.112 C 
ENDROOT
BRANCH   2   4
HETATM    4  C10 UNL     1     -33.734  16.341  -2.728  1.00 20.00     0.098 C 
BRANCH   4   5
HETATM    5  C7  UNL     1     -34.307  15.085  -3.386  1.00 20.00    -0.002 C 
HETATM    6  C4  UNL     1     -35.829  15.204  -3.547  1.00 20.00     0.005 C 
HETATM    7  C3  UNL     1     -36.366  14.183  -4.538  1.00 20.00     0.002 C 
HETATM    8  C5  UNL     1     -35.764  14.332  -5.938  1.00 20.00     0.020 C 
HETATM    9  C8  UNL     1     -34.386  15.004  -5.973  1.00 20.00     0.082 C 
HETATM   10  C6  UNL     1     -33.579  14.737  -4.701  1.00 20.00     0.025 C 
HETATM   11 CL11 UNL     1     -34.549  16.767  -6.256  1.00 20.00    -0.125 Cl
ENDBRANCH   4   5
ENDBRANCH   2   4
TORSDOF 2
ENDMDL
MODEL 2
REMARK VINA RESULT:      -4.4      1.367      1.817
REMARK  2 active torsions:
REMARK  status: ('A' for Active; 'I' for Inactive)
REMARK    1  A    between atoms: C2_2  and  C10_10 
REMARK    2  A    between atoms: C7_7  and  C10_10 
ROOT
HETATM    1  C1  UNL     1     -33.054  17.641  -1.602  1.00 20.00    -0.111 C 
HETATM    2  C2  UNL     1     -34.017  16.954  -1.813  1.00 20.00    -0.107 C 
HETATM    3  C9  UNL     1     -31.882  18.475  -1.345  1.00 20.00     0.112 C 
ENDROOT
BRANCH   2   4
HETATM    4  C10 UNL     1     -35.192  16.116  -2.061  1.00 20.00     0.098 C 
BRANCH   4   5
HETATM    5  C7  UNL     1     -34.913  15.090  -3.161  1.00 20.00    -0.002 C 
HETATM    6  C4  UNL     1     -36.218  14.667  -3.850  1.00 20.00     0.005 C 
HETATM    7  C3  UNL     1     -35.949  13.980  -5.180  1.00 20.00     0.002 C 
HETATM    8  C5  UNL     1     -35.198  14.871  -6.173  1.00 20.00     0.020 C 
HETATM    9  C8  UNL     1     -34.356  15.978  -5.529  1.00 20.00     0.082 C 
HETATM   10  C6  UNL     1     -33.833  15.578  -4.148  1.00 20.00     0.025 C 
HETATM   11 CL11 UNL     1     -35.289  17.506  -5.430  1.00 20.00    -0.125 Cl
ENDBRANCH   4   5
ENDBRANCH   2   4
TORSDOF 2
ENDMDL
MODEL 3
REMARK VINA RESULT:      -4.4      1.961      2.259
REMARK  2 active torsions:
REMARK  status: ('A' for Active; 'I' for Inactive)
REMARK    1  A    between atoms: C2_2  and  C10_10 
REMARK    2  A    between atoms: C7_7  and  C10_10 
ROOT
HETATM    1  C1  UNL     1     -31.821  18.274  -0.698  1.00 20.00    -0.111 C 
HETATM    2  C2  UNL     1     -32.297  17.935  -1.747  1.00 20.00    -0.107 C 
HETATM    3  C9  UNL     1     -31.243  18.688   0.579  1.00 20.00     0.112 C 
ENDROOT
BRANCH   2   4
HETATM    4  C10 UNL     1     -32.868  17.523  -3.031  1.00 20.00     0.098 C 
BRANCH   4   5
HETATM    5  C7  UNL     1     -33.435  16.105  -2.951  1.00 20.00    -0.002 C 
HETATM    6  C4  UNL     1     -34.963  16.140  -2.808  1.00 20.00     0.005 C 
HETATM    7  C3  UNL     1     -35.583  14.788  -3.128  1.00 20.00     0.002 C 
HETATM    8  C5  UNL     1     -35.287  14.315  -4.554  1.00 20.00     0.020 C 
HETATM    9  C8  UNL     1     -34.016  14.907  -5.172  1.00 20.00     0.082 C 
HETATM   10  C6  UNL     1     -32.951  15.221  -4.119  1.00 20.00     0.025 C 
HETATM   11 CL11 UNL     1     -34.401  16.371  -6.132  1.00 20.00    -0.125 Cl
ENDBRANCH   4   5
ENDBRANCH   2   4
TORSDOF 2
ENDMDL
MODEL 4
REMARK VINA RESULT:      -4.3      1.204      1.276
REMARK  2 active torsions:
REMARK  status: ('A' for Active; 'I' for Inactive)
REMARK    1  A    between atoms: C2_2  and  C10_10 
REMARK    2  A    between atoms: C7_7  and  C10_10 
ROOT
HETATM    1  C1  UNL     1     -34.790  16.968  -1.174  1.00 20.00    -0.111 C 
HETATM    2  C2  UNL     1     -34.050  16.668  -2.071  1.00 20.00    -0.107 C 
HETATM    3  C9  UNL     1     -35.690  17.334  -0.081  1.00 20.00     0.112 C 
ENDROOT
BRANCH   2   4
HETATM    4  C10 UNL     1     -33.150  16.291  -3.163  1.00 20.00     0.098 C 
BRANCH   4   5
HETATM    5  C7  UNL     1     -33.823  15.296  -4.110  1.00 20.00    -0.002 C 
HETATM    6  C4  UNL     1     -34.978  14.573  -3.404  1.00 20.00     0.005 C 
HETATM    7  C3  UNL     1     -35.903  13.894  -4.402  1.00 20.00     0.002 C 
HETATM    8  C5  UNL     1     -36.539  14.874  -5.392  1.00 20.00     0.020 C 
HETATM    9  C8  UNL     1     -35.743  16.165  -5.614  1.00 20.00     0.082 C 
HETATM   10  C6  UNL     1     -34.238  15.954  -5.442  1.00 20.00     0.025 C 
HETATM   11 CL11 UNL     1     -36.324  17.463  -4.522  1.00 20.00    -0.125 Cl
ENDBRANCH   4   5
ENDBRANCH   2   4
TORSDOF 2
ENDMDL
MODEL 5
REMARK VINA RESULT:      -4.2      2.055      2.675
REMARK  2 active torsions:
REMARK  status: ('A' for Active; 'I' for Inactive)
REMARK    1  A    between atoms: C2_2  and  C10_10 
REMARK    2  A    between atoms: C7_7  and  C10_10 
ROOT
HETATM    1  C1  UNL     1     -32.668  17.765  -1.624  1.00 20.00    -0.111 C 
HETATM    2  C2  UNL     1     -33.340  16.918  -2.148  1.00 20.00    -0.107 C 
HETATM    3  C9  UNL     1     -31.852  18.797  -0.987  1.00 20.00     0.112 C 
ENDROOT
BRANCH   2   4
HETATM    4  C10 UNL     1     -34.151  15.884  -2.794  1.00 20.00     0.098 C 
BRANCH   4   5
HETATM    5  C7  UNL     1     -34.233  16.113  -4.304  1.00 20.00    -0.002 C 
HETATM    6  C4  UNL     1     -33.618  14.931  -5.065  1.00 20.00     0.005 C 
HETATM    7  C3  UNL     1     -34.035  14.931  -6.527  1.00 20.00     0.002 C 
HETATM    8  C5  UNL     1     -35.552  14.833  -6.717  1.00 20.00     0.020 C 
HETATM    9  C8  UNL     1     -36.378  15.339  -5.530  1.00 20.00     0.082 C 
HETATM   10  C6  UNL     1     -35.667  16.453  -4.761  1.00 20.00     0.025 C 
HETATM   11 CL11 UNL     1     -36.800  13.986  -4.430  1.00 20.00    -0.125 Cl
ENDBRANCH   4   5
ENDBRANCH   2   4
TORSDOF 2
ENDMDL
MODEL 6
REMARK VINA RESULT:      -4.2     11.942     13.950
REMARK  2 active torsions:
REMARK  status: ('A' for Active; 'I' for Inactive)
REMARK    1  A    between atoms: C2_2  and  C10_10 
REMARK    2  A    between atoms: C7_7  and  C10_10 
ROOT
HETATM    1  C1  UNL     1     -42.432   2.629  -3.365  1.00 20.00    -0.111 C 
HETATM    2  C2  UNL     1     -42.871   3.511  -2.679  1.00 20.00    -0.107 C 
HETATM    3  C9  UNL     1     -41.896   1.555  -4.200  1.00 20.00     0.112 C 
ENDROOT
BRANCH   2   4
HETATM    4  C10 UNL     1     -43.416   4.587  -1.849  1.00 20.00     0.098 C 
BRANCH   4   5
HETATM    5  C7  UNL     1     -42.385   5.700  -1.645  1.00 20.00    -0.002 C 
HETATM    6  C4  UNL     1     -43.082   7.052  -1.440  1.00 20.00     0.005 C 
HETATM    7  C3  UNL     1     -42.135   8.082  -0.845  1.00 20.00     0.002 C 
HETATM    8  C5  UNL     1     -41.576   7.665   0.519  1.00 20.00     0.020 C 
HETATM    9  C8  UNL     1     -41.554   6.152   0.765  1.00 20.00     0.082 C 
HETATM   10  C6  UNL     1     -41.376   5.357  -0.530  1.00 20.00     0.025 C 
HETATM   11 CL11 UNL     1     -43.038   5.629   1.625  1.00 20.00    -0.125 Cl
ENDBRANCH   4   5
ENDBRANCH   2   4
TORSDOF 2
ENDMDL
MODEL 7
REMARK VINA RESULT:      -4.1      1.312      2.016
REMARK  2 active torsions:
REMARK  status: ('A' for Active; 'I' for Inactive)
REMARK    1  A    between atoms: C2_2  and  C10_10 
REMARK    2  A    between atoms: C7_7  and  C10_10 
ROOT
HETATM    1  C1  UNL     1     -34.477  17.811   0.862  1.00 20.00    -0.111 C 
HETATM    2  C2  UNL     1     -34.951  17.501  -0.197  1.00 20.00    -0.107 C 
HETATM    3  C9  UNL     1     -33.901  18.189   2.152  1.00 20.00     0.112 C 
ENDROOT
BRANCH   2   4
HETATM    4  C10 UNL     1     -35.523  17.131  -1.493  1.00 20.00     0.098 C 
BRANCH   4   5
HETATM    5  C7  UNL     1     -34.768  15.951  -2.110  1.00 20.00    -0.002 C 
HETATM    6  C4  UNL     1     -35.664  15.196  -3.102  1.00 20.00     0.005 C 
HETATM    7  C3  UNL     1     -34.846  14.293  -4.013  1.00 20.00     0.002 C 
HETATM    8  C5  UNL     1     -33.815  15.058  -4.847  1.00 20.00     0.020 C 
HETATM    9  C8  UNL     1     -33.367  16.393  -4.242  1.00 20.00     0.082 C 
HETATM   10  C6  UNL     1     -33.415  16.380  -2.713  1.00 20.00     0.025 C 
HETATM   11 CL11 UNL     1     -34.350  17.745  -4.891  1.00 20.00    -0.125 Cl
ENDBRANCH   4   5
ENDBRANCH   2   4
TORSDOF 2
ENDMDL
MODEL 8
REMARK VINA RESULT:      -4.1      1.648      4.675
REMARK  2 active torsions:
REMARK  status: ('A' for Active; 'I' for Inactive)
REMARK    1  A    between atoms: C2_2  and  C10_10 
REMARK    2  A    between atoms: C7_7  and  C10_10 
ROOT
HETATM    1  C1  UNL     1     -34.370  15.114  -6.473  1.00 20.00    -0.111 C 
HETATM    2  C2  UNL     1     -34.745  14.790  -5.379  1.00 20.00    -0.107 C 
HETATM    3  C9  UNL     1     -33.914  15.510  -7.804  1.00 20.00     0.112 C 
ENDROOT
BRANCH   2   4
HETATM    4  C10 UNL     1     -35.211  14.397  -4.047  1.00 20.00     0.098 C 
BRANCH   4   5
HETATM    5  C7  UNL     1     -34.593  15.284  -2.965  1.00 20.00    -0.002 C 
HETATM    6  C4  UNL     1     -33.280  15.906  -3.460  1.00 20.00     0.005 C 
HETATM    7  C3  UNL     1     -32.858  17.081  -2.591  1.00 20.00     0.002 C 
HETATM    8  C5  UNL     1     -33.894  18.209  -2.564  1.00 20.00     0.020 C 
HETATM    9  C8  UNL     1     -35.329  17.764  -2.867  1.00 20.00     0.082 C 
HETATM   10  C6  UNL     1     -35.596  16.325  -2.425  1.00 20.00     0.025 C 
HETATM   11 CL11 UNL     1     -35.699  17.966  -4.611  1.00 20.00    -0.125 Cl
ENDBRANCH   4   5
ENDBRANCH   2   4
TORSDOF 2
ENDMDL
MODEL 9
REMARK VINA RESULT:      -4.1      2.949      3.908
REMARK  2 active torsions:
REMARK  status: ('A' for Active; 'I' for Inactive)
REMARK    1  A    between atoms: C2_2  and  C10_10 
REMARK    2  A    between atoms: C7_7  and  C10_10 
ROOT
HETATM    1  C1  UNL     1     -31.626  18.519  -0.672  1.00 20.00    -0.111 C 
HETATM    2  C2  UNL     1     -32.221  18.822  -1.671  1.00 20.00    -0.107 C 
HETATM    3  C9  UNL     1     -30.904  18.150   0.544  1.00 20.00     0.112 C 
ENDROOT
BRANCH   2   4
HETATM    4  C10 UNL     1     -32.949  19.200  -2.884  1.00 20.00     0.098 C 
BRANCH   4   5
HETATM    5  C7  UNL     1     -33.629  17.985  -3.517  1.00 20.00    -0.002 C 
HETATM    6  C4  UNL     1     -32.927  16.688  -3.089  1.00 20.00     0.005 C 
HETATM    7  C3  UNL     1     -33.796  15.469  -3.360  1.00 20.00     0.002 C 
HETATM    8  C5  UNL     1     -35.134  15.510  -2.615  1.00 20.00     0.020 C 
HETATM    9  C8  UNL     1     -35.620  16.917  -2.251  1.00 20.00     0.082 C 
HETATM   10  C6  UNL     1     -35.150  17.970  -3.256  1.00 20.00     0.025 C 
HETATM   11 CL11 UNL     1     -35.103  17.356  -0.591  1.00 20.00    -0.125 Cl
ENDBRANCH   4   5
ENDBRANCH   2   4
TORSDOF 2
ENDMDL
