MODEL 1
REMARK VINA RESULT:      -5.1      0.000      0.000
REMARK  3 active torsions:
REMARK  status: ('A' for Active; 'I' for Inactive)
REMARK    1  A    between atoms: C1_1  and  C3_3 
REMARK    2  A    between atoms: C2_2  and  C7_7 
REMARK    3  A    between atoms: C7_7  and  C8_8 
ROOT
HETATM    1  C1  UNL     1     -33.068   7.828   1.515  1.00 20.00     0.005 C 
HETATM    2  C2  UNL     1     -33.104   6.971   2.356  1.00 20.00    -0.090 C 
ENDROOT
BRANCH   2   3
HETATM    3  C7  UNL     1     -33.151   5.916   3.389  1.00 20.00     0.065 C 
HETATM    4  C4  UNL     1     -33.286   4.545   2.722  1.00 20.00     0.024 C 
BRANCH   3   5
HETATM    5  C8  UNL     1     -34.263   6.157   4.443  1.00 20.00    -0.007 C 
HETATM    6  C5  UNL     1     -35.024   4.892   4.853  1.00 20.00     0.011 C 
HETATM    7  C6  UNL     1     -33.715   6.861   5.690  1.00 20.00     0.011 C 
ENDBRANCH   3   5
ENDBRANCH   2   3
BRANCH   1   8
HETATM    8  C3  UNL     1     -33.021   8.929   0.440  1.00 20.00     0.258 C 
HETATM    9  O9  UNL     1     -33.504   8.621  -0.688  1.00 20.00    -0.637 OA
HETATM   10  O10 UNL     1     -32.505  10.028   0.796  1.00 20.00    -0.637 OA
ENDBRANCH   1   8
TORSDOF 3
ENDMDL
MODEL 2
REMARK VINA RESULT:      -4.8     10.598     11.368
REMARK  3 active torsions:
REMARK  status: ('A' for Active; 'I' for Inactive)
REMARK    1  A    between atoms: C1_1  and  C3_3 
REMARK    2  A    between atoms: C2_2  and  C7_7 
REMARK    3  A    between atoms: C7_7  and  C8_8 
ROOT
HETATM    1  C1  UNL     1     -35.721  14.802  -3.788  1.00 20.00     0.005 C 
HETATM    2  C2  UNL     1     -35.069  15.441  -3.008  1.00 20.00    -0.090 C 
ENDROOT
BRANCH   2   3
HETATM    3  C7  UNL     1     -34.267  16.223  -2.045  1.00 20.00     0.065 C 
HETATM    4  C4  UNL     1     -35.186  17.128  -1.221  1.00 20.00     0.024 C 
BRANCH   3   5
HETATM    5  C8  UNL     1     -33.126  17.023  -2.725  1.00 20.00    -0.007 C 
HETATM    6  C5  UNL     1     -33.571  17.835  -3.946  1.00 20.00     0.011 C 
HETATM    7  C6  UNL     1     -32.406  17.938  -1.726  1.00 20.00     0.011 C 
ENDBRANCH   3   5
ENDBRANCH   2   3
BRANCH   1   8
HETATM    8  C3  UNL     1     -36.559  13.988  -4.791  1.00 20.00     0.258 C 
HETATM    9  O9  UNL     1     -35.985  13.690  -5.878  1.00 20.00    -0.637 OA
HETATM   10  O10 UNL     1     -37.735  13.701  -4.424  1.00 20.00    -0.637 OA
ENDBRANCH   1   8
TORSDOF 3
ENDMDL
MODEL 3
REMARK VINA RESULT:      -4.7     10.268     11.013
REMARK  3 active torsions:
REMARK  status: ('A' for Active; 'I' for Inactive)
REMARK    1  A    between atoms: C1_1  and  C3_3 
REMARK    2  A    between atoms: C2_2  and  C7_7 
REMARK    3  A    between atoms: C7_7  and  C8_8 
ROOT
HETATM    1  C1  UNL     1     -35.775  14.871  -3.672  1.00 20.00     0.005 C 
HETATM    2  C2  UNL     1     -35.199  15.789  -3.154  1.00 20.00    -0.090 C 
ENDROOT
BRANCH   2   3
HETATM    3  C7  UNL     1     -34.487  16.916  -2.519  1.00 20.00     0.065 C 
HETATM    4  C4  UNL     1     -32.977  16.739  -2.693  1.00 20.00     0.024 C 
BRANCH   3   5
HETATM    5  C8  UNL     1     -34.879  17.111  -1.030  1.00 20.00    -0.007 C 
HETATM    6  C5  UNL     1     -33.898  17.977  -0.233  1.00 20.00     0.011 C 
HETATM    7  C6  UNL     1     -36.300  17.670  -0.889  1.00 20.00     0.011 C 
ENDBRANCH   3   5
ENDBRANCH   2   3
BRANCH   1   8
HETATM    8  C3  UNL     1     -36.516  13.694  -4.333  1.00 20.00     0.258 C 
HETATM    9  O9  UNL     1     -37.758  13.854  -4.515  1.00 20.00    -0.637 OA
HETATM   10  O10 UNL     1     -35.807  12.688  -4.625  1.00 20.00    -0.637 OA
ENDBRANCH   1   8
TORSDOF 3
ENDMDL
MODEL 4
REMARK VINA RESULT:      -4.5     10.337     11.163
REMARK  3 active torsions:
REMARK  status: ('A' for Active; 'I' for Inactive)
REMARK    1  A    between atoms: C1_1  and  C3_3 
REMARK    2  A    between atoms: C2_2  and  C7_7 
REMARK    3  A    between atoms: C7_7  and  C8_8 
ROOT
HETATM    1  C1  UNL     1     -35.688  14.809  -3.590  1.00 20.00     0.005 C 
HETATM    2  C2  UNL     1     -35.321  15.582  -2.747  1.00 20.00    -0.090 C 
ENDROOT
BRANCH   2   3
HETATM    3  C7  UNL     1     -34.871  16.536  -1.713  1.00 20.00     0.065 C 
HETATM    4  C4  UNL     1     -36.051  17.395  -1.254  1.00 20.00     0.024 C 
BRANCH   3   5
HETATM    5  C8  UNL     1     -33.671  17.402  -2.178  1.00 20.00    -0.007 C 
HETATM    6  C5  UNL     1     -32.855  18.009  -1.032  1.00 20.00     0.011 C 
HETATM    7  C6  UNL     1     -32.745  16.624  -3.121  1.00 20.00     0.011 C 
ENDBRANCH   3   5
ENDBRANCH   2   3
BRANCH   1   8
HETATM    8  C3  UNL     1     -36.154  13.814  -4.669  1.00 20.00     0.258 C 
HETATM    9  O9  UNL     1     -36.786  14.313  -5.645  1.00 20.00    -0.637 OA
HETATM   10  O10 UNL     1     -35.856  12.601  -4.469  1.00 20.00    -0.637 OA
ENDBRANCH   1   8
TORSDOF 3
ENDMDL
MODEL 5
REMARK VINA RESULT:      -4.4     15.177     16.152
REMARK  3 active torsions:
REMARK  status: ('A' for Active; 'I' for Inactive)
REMARK    1  A    between atoms: C1_1  and  C3_3 
REMARK    2  A    between atoms: C2_2  and  C7_7 
REMARK    3  A    between atoms: C7_7  and  C8_8 
ROOT
HETATM    1  C1  UNL     1     -24.289  18.553   9.141  1.00 20.00     0.005 C 
HETATM    2  C2  UNL     1     -24.115  18.348  10.312  1.00 20.00    -0.090 C 
ENDROOT
BRANCH   2   3
HETATM    3  C7  UNL     1     -23.905  18.098  11.753  1.00 20.00     0.065 C 
HETATM    4  C4  UNL     1     -22.448  17.700  12.001  1.00 20.00     0.024 C 
BRANCH   3   5
HETATM    5  C8  UNL     1     -24.896  17.055  12.331  1.00 20.00    -0.007 C 
HETATM    6  C5  UNL     1     -26.365  17.487  12.274  1.00 20.00     0.011 C 
HETATM    7  C6  UNL     1     -24.730  15.686  11.660  1.00 20.00     0.011 C 
ENDBRANCH   3   5
ENDBRANCH   2   3
BRANCH   1   8
HETATM    8  C3  UNL     1     -24.506  18.815   7.640  1.00 20.00     0.258 C 
HETATM    9  O9  UNL     1     -23.492  18.661   6.899  1.00 20.00    -0.637 OA
HETATM   10  O10 UNL     1     -25.676  19.157   7.301  1.00 20.00    -0.637 OA
ENDBRANCH   1   8
TORSDOF 3
ENDMDL
MODEL 6
REMARK VINA RESULT:      -4.3     10.307     11.514
REMARK  3 active torsions:
REMARK  status: ('A' for Active; 'I' for Inactive)
REMARK    1  A    between atoms: C1_1  and  C3_3 
REMARK    2  A    between atoms: C2_2  and  C7_7 
REMARK    3  A    between atoms: C7_7  and  C8_8 
ROOT
HETATM    1  C1  UNL     1     -35.454  14.837  -3.693  1.00 20.00     0.005 C 
HETATM    2  C2  UNL     1     -34.980  15.624  -2.920  1.00 20.00    -0.090 C 
ENDROOT
BRANCH   2   3
HETATM    3  C7  UNL     1     -34.400  16.597  -1.971  1.00 20.00     0.065 C 
HETATM    4  C4  UNL     1     -35.321  16.749  -0.759  1.00 20.00     0.024 C 
BRANCH   3   5
HETATM    5  C8  UNL     1     -34.082  17.964  -2.632  1.00 20.00    -0.007 C 
HETATM    6  C5  UNL     1     -32.927  17.921  -3.637  1.00 20.00     0.011 C 
HETATM    7  C6  UNL     1     -35.325  18.572  -3.294  1.00 20.00     0.011 C 
ENDBRANCH   3   5
ENDBRANCH   2   3
BRANCH   1   8
HETATM    8  C3  UNL     1     -36.057  13.824  -4.684  1.00 20.00     0.258 C 
HETATM    9  O9  UNL     1     -36.528  14.311  -5.752  1.00 20.00    -0.637 OA
HETATM   10  O10 UNL     1     -36.019  12.611  -4.328  1.00 20.00    -0.637 OA
ENDBRANCH   1   8
TORSDOF 3
ENDMDL
MODEL 7
REMARK VINA RESULT:      -4.2     15.542     16.134
REMARK  3 active torsions:
REMARK  status: ('A' for Active; 'I' for Inactive)
REMARK    1  A    between atoms: C1_1  and  C3_3 
REMARK    2  A    between atoms: C2_2  and  C7_7 
REMARK    3  A    between atoms: C7_7  and  C8_8 
ROOT
HETATM    1  C1  UNL     1     -23.341  17.475   9.489  1.00 20.00     0.005 C 
HETATM    2  C2  UNL     1     -23.911  17.408  10.544  1.00 20.00    -0.090 C 
ENDROOT
BRANCH   2   3
HETATM    3  C7  UNL     1     -24.614  17.321  11.840  1.00 20.00     0.065 C 
HETATM    4  C4  UNL     1     -25.119  15.894  12.061  1.00 20.00     0.024 C 
BRANCH   3   5
HETATM    5  C8  UNL     1     -25.754  18.365  11.975  1.00 20.00    -0.007 C 
HETATM    6  C5  UNL     1     -25.932  19.261  10.745  1.00 20.00     0.011 C 
HETATM    7  C6  UNL     1     -27.089  17.699  12.332  1.00 20.00     0.011 C 
ENDBRANCH   3   5
ENDBRANCH   2   3
BRANCH   1   8
HETATM    8  C3  UNL     1     -22.611  17.565   8.137  1.00 20.00     0.258 C 
HETATM    9  O9  UNL     1     -23.069  18.413   7.317  1.00 20.00    -0.637 OA
HETATM   10  O10 UNL     1     -21.627  16.784   7.985  1.00 20.00    -0.637 OA
ENDBRANCH   1   8
TORSDOF 3
ENDMDL
MODEL 8
REMARK VINA RESULT:      -4.1     10.423     11.612
REMARK  3 active torsions:
REMARK  status: ('A' for Active; 'I' for Inactive)
REMARK    1  A    between atoms: C1_1  and  C3_3 
REMARK    2  A    between atoms: C2_2  and  C7_7 
REMARK    3  A    between atoms: C7_7  and  C8_8 
ROOT
HETATM    1  C1  UNL     1     -36.164  15.180  -4.097  1.00 20.00     0.005 C 
HETATM    2  C2  UNL     1     -35.704  16.259  -3.843  1.00 20.00    -0.090 C 
ENDROOT
BRANCH   2   3
HETATM    3  C7  UNL     1     -35.135  17.586  -3.528  1.00 20.00     0.065 C 
HETATM    4  C4  UNL     1     -34.330  18.101  -4.723  1.00 20.00     0.024 C 
BRANCH   3   5
HETATM    5  C8  UNL     1     -34.296  17.584  -2.224  1.00 20.00    -0.007 C 
HETATM    6  C5  UNL     1     -35.027  17.002  -1.009  1.00 20.00     0.011 C 
HETATM    7  C6  UNL     1     -32.955  16.865  -2.417  1.00 20.00     0.011 C 
ENDBRANCH   3   5
ENDBRANCH   2   3
BRANCH   1   8
HETATM    8  C3  UNL     1     -36.759  13.798  -4.424  1.00 20.00     0.258 C 
HETATM    9  O9  UNL     1     -38.022  13.731  -4.447  1.00 20.00    -0.637 OA
HETATM   10  O10 UNL     1     -35.924  12.871  -4.636  1.00 20.00    -0.637 OA
ENDBRANCH   1   8
TORSDOF 3
ENDMDL
MODEL 9
REMARK VINA RESULT:      -4.1     10.170     10.949
REMARK  3 active torsions:
REMARK  status: ('A' for Active; 'I' for Inactive)
REMARK    1  A    between atoms: C1_1  and  C3_3 
REMARK    2  A    between atoms: C2_2  and  C7_7 
REMARK    3  A    between atoms: C7_7  and  C8_8 
ROOT
HETATM    1  C1  UNL     1     -34.064  15.495  -3.290  1.00 20.00     0.005 C 
HETATM    2  C2  UNL     1     -34.038  16.431  -2.537  1.00 20.00    -0.090 C 
ENDROOT
BRANCH   2   3
HETATM    3  C7  UNL     1     -34.004  17.580  -1.609  1.00 20.00     0.065 C 
HETATM    4  C4  UNL     1     -32.553  17.936  -1.279  1.00 20.00     0.024 C 
BRANCH   3   5
HETATM    5  C8  UNL     1     -34.845  17.340  -0.328  1.00 20.00    -0.007 C 
HETATM    6  C5  UNL     1     -34.294  18.033   0.923  1.00 20.00     0.011 C 
HETATM    7  C6  UNL     1     -36.313  17.734  -0.536  1.00 20.00     0.011 C 
ENDBRANCH   3   5
ENDBRANCH   2   3
BRANCH   1   8
HETATM    8  C3  UNL     1     -34.102  14.298  -4.257  1.00 20.00     0.258 C 
HETATM    9  O9  UNL     1     -34.800  13.310  -3.886  1.00 20.00    -0.637 OA
HETATM   10  O10 UNL     1     -33.433  14.425  -5.322  1.00 20.00    -0.637 OA
ENDBRANCH   1   8
TORSDOF 3
ENDMDL
