MODEL 1
REMARK VINA RESULT:      -3.6      0.000      0.000
REMARK  1 active torsions:
REMARK  status: ('A' for Active; 'I' for Inactive)
REMARK    1  A    between atoms: C4_4  and  S6_6 
ROOT
HETATM    1  C1  UNL     1     -33.797   6.531   5.410  1.00 20.00     0.043 C 
HETATM    2  C2  UNL     1     -34.828   5.553   5.932  1.00 20.00     0.168 C 
HETATM    3  C3  UNL     1     -34.290   4.945   3.745  1.00 20.00     0.182 C 
HETATM    4  C4  UNL     1     -34.014   6.428   3.917  1.00 20.00     0.070 C 
HETATM    5  O5  UNL     1     -34.942   4.512   4.952  1.00 20.00    -0.390 OA
ENDROOT
BRANCH   4   6
HETATM    6  S6  UNL     1     -32.601   7.008   2.950  1.00 20.00    -0.175 SA
HETATM    7  H14 UNL     1     -31.815   5.959   3.223  1.00 20.00     0.102 HD
ENDBRANCH   4   6
TORSDOF 1
ENDMDL
MODEL 2
REMARK VINA RESULT:      -3.1      2.433      3.094
REMARK  1 active torsions:
REMARK  status: ('A' for Active; 'I' for Inactive)
REMARK    1  A    between atoms: C4_4  and  S6_6 
ROOT
HETATM    1  C1  UNL     1     -33.960   4.405   3.596  1.00 20.00     0.043 C 
HETATM    2  C2  UNL     1     -33.346   4.972   2.333  1.00 20.00     0.168 C 
HETATM    3  C3  UNL     1     -33.443   6.675   3.924  1.00 20.00     0.182 C 
HETATM    4  C4  UNL     1     -34.516   5.652   4.245  1.00 20.00     0.070 C 
HETATM    5  O5  UNL     1     -32.882   6.290   2.656  1.00 20.00    -0.390 OA
ENDROOT
BRANCH   4   6
HETATM    6  S6  UNL     1     -34.813   5.461   6.018  1.00 20.00    -0.175 SA
HETATM    7  H14 UNL     1     -34.513   4.157   6.062  1.00 20.00     0.102 HD
ENDBRANCH   4   6
TORSDOF 1
ENDMDL
MODEL 3
REMARK VINA RESULT:      -3.0     16.928     17.187
REMARK  1 active torsions:
REMARK  status: ('A' for Active; 'I' for Inactive)
REMARK    1  A    between atoms: C4_4  and  S6_6 
ROOT
HETATM    1  C1  UNL     1     -24.485  18.703   9.064  1.00 20.00     0.043 C 
HETATM    2  C2  UNL     1     -24.329  18.971   7.582  1.00 20.00     0.168 C 
HETATM    3  C3  UNL     1     -22.445  17.807   8.313  1.00 20.00     0.182 C 
HETATM    4  C4  UNL     1     -23.044  18.548   9.494  1.00 20.00     0.070 C 
HETATM    5  O5  UNL     1     -23.172  18.242   7.150  1.00 20.00    -0.390 OA
ENDROOT
BRANCH   4   6
HETATM    6  S6  UNL     1     -22.858  17.664  11.061  1.00 20.00    -0.175 SA
HETATM    7  H14 UNL     1     -23.758  18.394  11.730  1.00 20.00     0.102 HD
ENDBRANCH   4   6
TORSDOF 1
ENDMDL
MODEL 4
REMARK VINA RESULT:      -2.9      1.232      1.969
REMARK  1 active torsions:
REMARK  status: ('A' for Active; 'I' for Inactive)
REMARK    1  A    between atoms: C4_4  and  S6_6 
ROOT
HETATM    1  C1  UNL     1     -33.648   4.993   2.643  1.00 20.00     0.043 C 
HETATM    2  C2  UNL     1     -34.289   4.408   3.884  1.00 20.00     0.168 C 
HETATM    3  C3  UNL     1     -33.939   6.685   4.250  1.00 20.00     0.182 C 
HETATM    4  C4  UNL     1     -32.942   6.203   3.213  1.00 20.00     0.070 C 
HETATM    5  O5  UNL     1     -34.612   5.512   4.741  1.00 20.00    -0.390 OA
ENDROOT
BRANCH   4   6
HETATM    6  S6  UNL     1     -32.550   7.453   1.965  1.00 20.00    -0.175 SA
HETATM    7  H14 UNL     1     -32.143   6.584   1.033  1.00 20.00     0.102 HD
ENDBRANCH   4   6
TORSDOF 1
ENDMDL
MODEL 5
REMARK VINA RESULT:      -2.9     17.058     17.338
REMARK  1 active torsions:
REMARK  status: ('A' for Active; 'I' for Inactive)
REMARK    1  A    between atoms: C4_4  and  S6_6 
ROOT
HETATM    1  C1  UNL     1     -21.337  17.252   8.974  1.00 20.00     0.043 C 
HETATM    2  C2  UNL     1     -21.483  17.304   7.467  1.00 20.00     0.168 C 
HETATM    3  C3  UNL     1     -23.419  18.194   8.417  1.00 20.00     0.182 C 
HETATM    4  C4  UNL     1     -22.784  17.243   9.415  1.00 20.00     0.070 C 
HETATM    5  O5  UNL     1     -22.675  18.055   7.194  1.00 20.00    -0.390 OA
ENDROOT
BRANCH   4   6
HETATM    6  S6  UNL     1     -23.008  17.757  11.134  1.00 20.00    -0.175 SA
HETATM    7  H14 UNL     1     -24.025  16.925  11.388  1.00 20.00     0.102 HD
ENDBRANCH   4   6
TORSDOF 1
ENDMDL
MODEL 6
REMARK VINA RESULT:      -2.8     16.674     17.340
REMARK  1 active torsions:
REMARK  status: ('A' for Active; 'I' for Inactive)
REMARK    1  A    between atoms: C4_4  and  S6_6 
ROOT
HETATM    1  C1  UNL     1     -23.888  17.000  10.210  1.00 20.00     0.043 C 
HETATM    2  C2  UNL     1     -22.500  17.571  10.013  1.00 20.00     0.168 C 
HETATM    3  C3  UNL     1     -23.041  17.737  12.276  1.00 20.00     0.182 C 
HETATM    4  C4  UNL     1     -24.327  17.708  11.472  1.00 20.00     0.070 C 
HETATM    5  O5  UNL     1     -21.968  17.823  11.321  1.00 20.00    -0.390 OA
ENDROOT
BRANCH   4   6
HETATM    6  S6  UNL     1     -25.683  16.869  12.325  1.00 20.00    -0.175 SA
HETATM    7  H14 UNL     1     -26.407  16.636  11.224  1.00 20.00     0.102 HD
ENDBRANCH   4   6
TORSDOF 1
ENDMDL
MODEL 7
REMARK VINA RESULT:      -2.8     12.288     12.586
REMARK  1 active torsions:
REMARK  status: ('A' for Active; 'I' for Inactive)
REMARK    1  A    between atoms: C4_4  and  S6_6 
ROOT
HETATM    1  C1  UNL     1     -35.144  15.650  -2.929  1.00 20.00     0.043 C 
HETATM    2  C2  UNL     1     -33.752  16.140  -2.588  1.00 20.00     0.168 C 
HETATM    3  C3  UNL     1     -33.604  14.785  -4.481  1.00 20.00     0.182 C 
HETATM    4  C4  UNL     1     -34.836  14.382  -3.694  1.00 20.00     0.070 C 
HETATM    5  O5  UNL     1     -32.898  15.740  -3.669  1.00 20.00    -0.390 OA
ENDROOT
BRANCH   4   6
HETATM    6  S6  UNL     1     -36.204  13.831  -4.741  1.00 20.00    -0.175 SA
HETATM    7  H14 UNL     1     -36.457  15.034  -5.270  1.00 20.00     0.102 HD
ENDBRANCH   4   6
TORSDOF 1
ENDMDL
MODEL 8
REMARK VINA RESULT:      -2.8     16.337     16.914
REMARK  1 active torsions:
REMARK  status: ('A' for Active; 'I' for Inactive)
REMARK    1  A    between atoms: C4_4  and  S6_6 
ROOT
HETATM    1  C1  UNL     1     -23.478  18.703   8.905  1.00 20.00     0.043 C 
HETATM    2  C2  UNL     1     -22.379  17.812   8.366  1.00 20.00     0.168 C 
HETATM    3  C3  UNL     1     -23.534  16.629  10.011  1.00 20.00     0.182 C 
HETATM    4  C4  UNL     1     -23.695  18.114  10.281  1.00 20.00     0.070 C 
HETATM    5  O5  UNL     1     -22.585  16.512   8.937  1.00 20.00    -0.390 OA
ENDROOT
BRANCH   4   6
HETATM    6  S6  UNL     1     -25.300  18.540  10.995  1.00 20.00    -0.175 SA
HETATM    7  H14 UNL     1     -25.898  18.803   9.827  1.00 20.00     0.102 HD
ENDBRANCH   4   6
TORSDOF 1
ENDMDL
MODEL 9
REMARK VINA RESULT:      -2.7      9.505      9.791
REMARK  1 active torsions:
REMARK  status: ('A' for Active; 'I' for Inactive)
REMARK    1  A    between atoms: C4_4  and  S6_6 
ROOT
HETATM    1  C1  UNL     1     -41.194   7.271   0.364  1.00 20.00     0.043 C 
HETATM    2  C2  UNL     1     -41.314   8.725  -0.042  1.00 20.00     0.168 C 
HETATM    3  C3  UNL     1     -43.417   7.984   0.643  1.00 20.00     0.182 C 
HETATM    4  C4  UNL     1     -42.614   6.787   0.169  1.00 20.00     0.070 C 
HETATM    5  O5  UNL     1     -42.633   9.149   0.329  1.00 20.00    -0.390 OA
ENDROOT
BRANCH   4   6
HETATM    6  S6  UNL     1     -42.983   5.272   1.084  1.00 20.00    -0.175 SA
HETATM    7  H14 UNL     1     -43.683   5.872   2.054  1.00 20.00     0.102 HD
ENDBRANCH   4   6
TORSDOF 1
ENDMDL
