MODEL 1
REMARK VINA RESULT:      -4.7      0.000      0.000
REMARK  0 active torsions:
REMARK  status: ('A' for Active; 'I' for Inactive)
ROOT
HETATM    1  C1  UNL     1     -32.745   6.789   2.237  1.00 20.00     0.088 C 
HETATM    2  C2  UNL     1     -34.068   5.811   3.995  1.00 20.00    -0.044 C 
HETATM    3  C3  UNL     1     -33.550   5.747   2.765  1.00 20.00     0.098 C 
HETATM    4  C4  UNL     1     -34.922   4.775   4.638  1.00 20.00     0.063 C 
HETATM    5  C5  UNL     1     -33.817   6.897   4.986  1.00 20.00     0.202 C 
HETATM    6  C6  UNL     1     -34.629   5.045   6.099  1.00 20.00     0.172 C 
HETATM    7  N7  UNL     1     -32.086   7.639   1.801  1.00 20.00    -0.192 NA
HETATM    8  O8  UNL     1     -34.463   6.467   6.199  1.00 20.00    -0.387 OA
ENDROOT
TORSDOF 0
ENDMDL
MODEL 2
REMARK VINA RESULT:      -4.4     12.007     12.293
REMARK  0 active torsions:
REMARK  status: ('A' for Active; 'I' for Inactive)
ROOT
HETATM    1  C1  UNL     1     -36.929  14.147  -4.453  1.00 20.00     0.088 C 
HETATM    2  C2  UNL     1     -34.744  14.930  -3.811  1.00 20.00    -0.044 C 
HETATM    3  C3  UNL     1     -35.533  14.277  -4.670  1.00 20.00     0.098 C 
HETATM    4  C4  UNL     1     -33.274  15.120  -3.947  1.00 20.00     0.063 C 
HETATM    5  C5  UNL     1     -35.204  15.664  -2.598  1.00 20.00     0.202 C 
HETATM    6  C6  UNL     1     -33.087  16.396  -3.153  1.00 20.00     0.172 C 
HETATM    7  N7  UNL     1     -38.071  14.040  -4.281  1.00 20.00    -0.192 NA
HETATM    8  O8  UNL     1     -34.032  16.318  -2.076  1.00 20.00    -0.387 OA
ENDROOT
TORSDOF 0
ENDMDL
MODEL 3
REMARK VINA RESULT:      -4.3     15.949     16.781
REMARK  0 active torsions:
REMARK  status: ('A' for Active; 'I' for Inactive)
ROOT
HETATM    1  C1  UNL     1     -21.785  17.344   8.360  1.00 20.00     0.088 C 
HETATM    2  C2  UNL     1     -22.746  17.454  10.566  1.00 20.00    -0.044 C 
HETATM    3  C3  UNL     1     -21.790  17.807   9.702  1.00 20.00     0.098 C 
HETATM    4  C4  UNL     1     -22.840  17.883  11.988  1.00 20.00     0.063 C 
HETATM    5  C5  UNL     1     -23.946  16.630  10.242  1.00 20.00     0.202 C 
HETATM    6  C6  UNL     1     -24.333  17.767  12.213  1.00 20.00     0.172 C 
HETATM    7  N7  UNL     1     -21.778  16.969   7.262  1.00 20.00    -0.192 NA
HETATM    8  O8  UNL     1     -24.749  16.634  11.437  1.00 20.00    -0.387 OA
ENDROOT
TORSDOF 0
ENDMDL
MODEL 4
REMARK VINA RESULT:      -4.0     15.645     16.078
REMARK  0 active torsions:
REMARK  status: ('A' for Active; 'I' for Inactive)
ROOT
HETATM    1  C1  UNL     1     -23.943  18.656   8.199  1.00 20.00     0.088 C 
HETATM    2  C2  UNL     1     -24.579  17.969  10.418  1.00 20.00    -0.044 C 
HETATM    3  C3  UNL     1     -24.580  18.886   9.446  1.00 20.00     0.098 C 
HETATM    4  C4  UNL     1     -25.216  18.113  11.755  1.00 20.00     0.063 C 
HETATM    5  C5  UNL     1     -24.011  16.594  10.312  1.00 20.00     0.202 C 
HETATM    6  C6  UNL     1     -25.474  16.660  12.095  1.00 20.00     0.172 C 
HETATM    7  N7  UNL     1     -23.424  18.472   7.178  1.00 20.00    -0.192 NA
HETATM    8  O8  UNL     1     -24.367  15.935  11.541  1.00 20.00    -0.387 OA
ENDROOT
TORSDOF 0
ENDMDL
MODEL 5
REMARK VINA RESULT:      -3.9     16.682     17.294
REMARK  0 active torsions:
REMARK  status: ('A' for Active; 'I' for Inactive)
ROOT
HETATM    1  C1  UNL     1     -24.370  18.095  11.418  1.00 20.00     0.088 C 
HETATM    2  C2  UNL     1     -22.679  17.995   9.706  1.00 20.00    -0.044 C 
HETATM    3  C3  UNL     1     -23.031  17.899  10.992  1.00 20.00     0.098 C 
HETATM    4  C4  UNL     1     -21.307  17.808   9.160  1.00 20.00     0.063 C 
HETATM    5  C5  UNL     1     -23.612  18.226   8.566  1.00 20.00     0.202 C 
HETATM    6  C6  UNL     1     -21.630  17.375   7.745  1.00 20.00     0.172 C 
HETATM    7  N7  UNL     1     -25.464  18.254  11.770  1.00 20.00    -0.192 NA
HETATM    8  O8  UNL     1     -22.805  18.112   7.380  1.00 20.00    -0.387 OA
ENDROOT
TORSDOF 0
ENDMDL
MODEL 6
REMARK VINA RESULT:      -3.8      9.738     10.057
REMARK  0 active torsions:
REMARK  status: ('A' for Active; 'I' for Inactive)
ROOT
HETATM    1  C1  UNL     1     -41.373   9.118   0.290  1.00 20.00     0.088 C 
HETATM    2  C2  UNL     1     -41.832   6.933  -0.612  1.00 20.00    -0.044 C 
HETATM    3  C3  UNL     1     -41.166   7.715   0.243  1.00 20.00     0.098 C 
HETATM    4  C4  UNL     1     -41.687   5.457  -0.739  1.00 20.00     0.063 C 
HETATM    5  C5  UNL     1     -42.908   7.382  -1.542  1.00 20.00     0.202 C 
HETATM    6  C6  UNL     1     -43.050   5.093  -1.290  1.00 20.00     0.172 C 
HETATM    7  N7  UNL     1     -41.540  10.266   0.332  1.00 20.00    -0.192 NA
HETATM    8  O8  UNL     1     -43.417   6.181  -2.149  1.00 20.00    -0.387 OA
ENDROOT
TORSDOF 0
ENDMDL
MODEL 7
REMARK VINA RESULT:      -3.8     12.135     12.615
REMARK  0 active torsions:
REMARK  status: ('A' for Active; 'I' for Inactive)
ROOT
HETATM    1  C1  UNL     1     -33.706  16.566  -2.361  1.00 20.00     0.088 C 
HETATM    2  C2  UNL     1     -34.867  15.023  -3.801  1.00 20.00    -0.044 C 
HETATM    3  C3  UNL     1     -34.771  15.669  -2.635  1.00 20.00     0.098 C 
HETATM    4  C4  UNL     1     -35.940  14.065  -4.183  1.00 20.00     0.063 C 
HETATM    5  C5  UNL     1     -33.959  15.205  -4.970  1.00 20.00     0.202 C 
HETATM    6  C6  UNL     1     -35.911  14.207  -5.691  1.00 20.00     0.172 C 
HETATM    7  N7  UNL     1     -32.838  17.300  -2.133  1.00 20.00    -0.192 NA
HETATM    8  O8  UNL     1     -34.532  14.415  -6.028  1.00 20.00    -0.387 OA
ENDROOT
TORSDOF 0
ENDMDL
MODEL 8
REMARK VINA RESULT:      -3.7     12.044     12.597
REMARK  0 active torsions:
REMARK  status: ('A' for Active; 'I' for Inactive)
ROOT
HETATM    1  C1  UNL     1     -32.745  17.840  -1.722  1.00 20.00     0.088 C 
HETATM    2  C2  UNL     1     -34.035  16.062  -2.710  1.00 20.00    -0.044 C 
HETATM    3  C3  UNL     1     -33.938  17.083  -1.853  1.00 20.00     0.098 C 
HETATM    4  C4  UNL     1     -35.237  15.210  -2.920  1.00 20.00     0.063 C 
HETATM    5  C5  UNL     1     -32.983  15.640  -3.678  1.00 20.00     0.202 C 
HETATM    6  C6  UNL     1     -35.007  14.757  -4.347  1.00 20.00     0.172 C 
HETATM    7  N7  UNL     1     -31.772  18.462  -1.614  1.00 20.00    -0.192 NA
HETATM    8  O8  UNL     1     -33.587  14.604  -4.475  1.00 20.00    -0.387 OA
ENDROOT
TORSDOF 0
ENDMDL
MODEL 9
REMARK VINA RESULT:      -3.6     12.022     12.986
REMARK  0 active torsions:
REMARK  status: ('A' for Active; 'I' for Inactive)
ROOT
HETATM    1  C1  UNL     1     -35.610  13.853  -4.358  1.00 20.00     0.088 C 
HETATM    2  C2  UNL     1     -34.406  15.770  -3.535  1.00 20.00    -0.044 C 
HETATM    3  C3  UNL     1     -34.585  14.446  -3.576  1.00 20.00     0.098 C 
HETATM    4  C4  UNL     1     -33.365  16.486  -2.749  1.00 20.00     0.063 C 
HETATM    5  C5  UNL     1     -35.165  16.772  -4.336  1.00 20.00     0.202 C 
HETATM    6  C6  UNL     1     -33.218  17.748  -3.573  1.00 20.00     0.172 C 
HETATM    7  N7  UNL     1     -36.447  13.364  -4.996  1.00 20.00    -0.192 NA
HETATM    8  O8  UNL     1     -34.534  18.038  -4.066  1.00 20.00    -0.387 OA
ENDROOT
TORSDOF 0
ENDMDL
