MODEL 1
REMARK VINA RESULT:      -3.8      0.000      0.000
REMARK  3 active torsions:
REMARK  status: ('A' for Active; 'I' for Inactive)
REMARK    1  A    between atoms: C4_4  and  C7_7 
REMARK    2  A    between atoms: C8_8  and  C9_9 
REMARK    3  A    between atoms: C8_8  and  N10_10 
ROOT
HETATM    1  C1  UNL     1     -35.304  13.634  -4.202  1.00 20.00     0.032 C 
HETATM    2  C2  UNL     1     -36.057  14.319  -5.335  1.00 20.00     0.038 C 
HETATM    3  C3  UNL     1     -33.995  14.396  -4.069  1.00 20.00     0.273 C 
HETATM    4  C4  UNL     1     -35.165  15.476  -5.786  1.00 20.00     0.236 C 
HETATM    5  N10 UNL     1     -34.224  15.714  -4.675  1.00 20.00     0.094 N 
ENDROOT
BRANCH   5   6
HETATM    6  C8  UNL     1     -34.785  16.651  -3.698  1.00 20.00     0.277 C 
BRANCH   6   7
HETATM    7  C9  UNL     1     -34.148  16.479  -2.314  1.00 20.00     0.006 C 
HETATM    8  C5  UNL     1     -32.922  17.373  -2.124  1.00 20.00     0.011 C 
HETATM    9  C6  UNL     1     -35.157  16.700  -1.185  1.00 20.00     0.011 C 
ENDBRANCH   6   7
ENDBRANCH   5   6
BRANCH   4  10
HETATM   10  C7  UNL     1     -34.389  15.129  -7.060  1.00 20.00     0.150 C 
HETATM   11 CL11 UNL     1     -33.923  16.610  -7.917  1.00 20.00    -0.128 Cl
ENDBRANCH   4  10
TORSDOF 3
ENDMDL
MODEL 2
REMARK VINA RESULT:      -3.8      1.933      2.700
REMARK  3 active torsions:
REMARK  status: ('A' for Active; 'I' for Inactive)
REMARK    1  A    between atoms: C4_4  and  C7_7 
REMARK    2  A    between atoms: C8_8  and  C9_9 
REMARK    3  A    between atoms: C8_8  and  N10_10 
ROOT
HETATM    1  C1  UNL     1     -34.426  17.153  -7.084  1.00 20.00     0.032 C 
HETATM    2  C2  UNL     1     -34.057  15.676  -7.115  1.00 20.00     0.038 C 
HETATM    3  C3  UNL     1     -35.141  17.362  -5.759  1.00 20.00     0.273 C 
HETATM    4  C4  UNL     1     -34.543  15.098  -5.785  1.00 20.00     0.236 C 
HETATM    5  N10 UNL     1     -34.724  16.255  -4.887  1.00 20.00     0.094 N 
ENDROOT
BRANCH   5   6
HETATM    6  C8  UNL     1     -33.480  16.580  -4.185  1.00 20.00     0.277 C 
BRANCH   6   7
HETATM    7  C9  UNL     1     -33.593  16.322  -2.678  1.00 20.00     0.006 C 
HETATM    8  C5  UNL     1     -33.063  17.492  -1.847  1.00 20.00     0.011 C 
HETATM    9  C6  UNL     1     -35.021  15.967  -2.261  1.00 20.00     0.011 C 
ENDBRANCH   6   7
ENDBRANCH   5   6
BRANCH   4  10
HETATM   10  C7  UNL     1     -35.869  14.350  -5.944  1.00 20.00     0.150 C 
HETATM   11 CL11 UNL     1     -36.209  13.389  -4.492  1.00 20.00    -0.128 Cl
ENDBRANCH   4  10
TORSDOF 3
ENDMDL
MODEL 3
REMARK VINA RESULT:      -3.7      1.285      1.943
REMARK  3 active torsions:
REMARK  status: ('A' for Active; 'I' for Inactive)
REMARK    1  A    between atoms: C4_4  and  C7_7 
REMARK    2  A    between atoms: C8_8  and  C9_9 
REMARK    3  A    between atoms: C8_8  and  N10_10 
ROOT
HETATM    1  C1  UNL     1     -37.579  14.456  -4.451  1.00 20.00     0.032 C 
HETATM    2  C2  UNL     1     -37.290  15.931  -4.698  1.00 20.00     0.038 C 
HETATM    3  C3  UNL     1     -36.273  13.735  -4.745  1.00 20.00     0.273 C 
HETATM    4  C4  UNL     1     -35.814  16.005  -5.090  1.00 20.00     0.236 C 
HETATM    5  N10 UNL     1     -35.210  14.742  -4.623  1.00 20.00     0.094 N 
ENDROOT
BRANCH   5   6
HETATM    6  C8  UNL     1     -34.752  14.856  -3.236  1.00 20.00     0.277 C 
BRANCH   6   7
HETATM    7  C9  UNL     1     -34.438  16.308  -2.857  1.00 20.00     0.006 C 
HETATM    8  C5  UNL     1     -34.999  16.685  -1.485  1.00 20.00     0.011 C 
HETATM    9  C6  UNL     1     -32.940  16.609  -2.929  1.00 20.00     0.011 C 
ENDBRANCH   6   7
ENDBRANCH   5   6
BRANCH   4  10
HETATM   10  C7  UNL     1     -35.636  16.139  -6.605  1.00 20.00     0.150 C 
HETATM   11 CL11 UNL     1     -34.100  15.408  -7.109  1.00 20.00    -0.128 Cl
ENDBRANCH   4  10
TORSDOF 3
ENDMDL
MODEL 4
REMARK VINA RESULT:      -3.7      1.984      2.657
REMARK  3 active torsions:
REMARK  status: ('A' for Active; 'I' for Inactive)
REMARK    1  A    between atoms: C4_4  and  C7_7 
REMARK    2  A    between atoms: C8_8  and  C9_9 
REMARK    3  A    between atoms: C8_8  and  N10_10 
ROOT
HETATM    1  C1  UNL     1     -34.550  16.152  -6.640  1.00 20.00     0.032 C 
HETATM    2  C2  UNL     1     -34.123  14.993  -5.748  1.00 20.00     0.038 C 
HETATM    3  C3  UNL     1     -35.819  16.700  -6.008  1.00 20.00     0.273 C 
HETATM    4  C4  UNL     1     -35.146  14.944  -4.613  1.00 20.00     0.236 C 
HETATM    5  N10 UNL     1     -35.800  16.267  -4.604  1.00 20.00     0.094 N 
ENDROOT
BRANCH   5   6
HETATM    6  C8  UNL     1     -35.060  17.218  -3.771  1.00 20.00     0.277 C 
BRANCH   6   7
HETATM    7  C9  UNL     1     -34.385  16.527  -2.580  1.00 20.00     0.006 C 
HETATM    8  C5  UNL     1     -32.956  17.024  -2.353  1.00 20.00     0.011 C 
HETATM    9  C6  UNL     1     -35.211  16.655  -1.299  1.00 20.00     0.011 C 
ENDBRANCH   6   7
ENDBRANCH   5   6
BRANCH   4  10
HETATM   10  C7  UNL     1     -36.190  13.848  -4.839  1.00 20.00     0.150 C 
HETATM   11 CL11 UNL     1     -37.782  14.392  -4.277  1.00 20.00    -0.128 Cl
ENDBRANCH   4  10
TORSDOF 3
ENDMDL
MODEL 5
REMARK VINA RESULT:      -3.6      2.464      4.488
REMARK  3 active torsions:
REMARK  status: ('A' for Active; 'I' for Inactive)
REMARK    1  A    between atoms: C4_4  and  C7_7 
REMARK    2  A    between atoms: C8_8  and  C9_9 
REMARK    3  A    between atoms: C8_8  and  N10_10 
ROOT
HETATM    1  C1  UNL     1     -35.993  16.592  -3.065  1.00 20.00     0.032 C 
HETATM    2  C2  UNL     1     -34.951  16.020  -2.113  1.00 20.00     0.038 C 
HETATM    3  C3  UNL     1     -35.203  17.166  -4.230  1.00 20.00     0.273 C 
HETATM    4  C4  UNL     1     -33.599  16.254  -2.788  1.00 20.00     0.236 C 
HETATM    5  N10 UNL     1     -33.897  16.492  -4.213  1.00 20.00     0.094 N 
ENDROOT
BRANCH   5   6
HETATM    6  C8  UNL     1     -33.948  15.233  -4.961  1.00 20.00     0.277 C 
BRANCH   6   7
HETATM    7  C9  UNL     1     -34.722  15.383  -6.275  1.00 20.00     0.006 C 
HETATM    8  C5  UNL     1     -33.817  15.253  -7.502  1.00 20.00     0.011 C 
HETATM    9  C6  UNL     1     -35.896  14.406  -6.366  1.00 20.00     0.011 C 
ENDBRANCH   6   7
ENDBRANCH   5   6
BRANCH   4  10
HETATM   10  C7  UNL     1     -32.875  17.467  -2.198  1.00 20.00     0.150 C 
HETATM   11 CL11 UNL     1     -33.608  17.925  -0.649  1.00 20.00    -0.128 Cl
ENDBRANCH   4  10
TORSDOF 3
ENDMDL
MODEL 6
REMARK VINA RESULT:      -3.6      1.669      2.355
REMARK  3 active torsions:
REMARK  status: ('A' for Active; 'I' for Inactive)
REMARK    1  A    between atoms: C4_4  and  C7_7 
REMARK    2  A    between atoms: C8_8  and  C9_9 
REMARK    3  A    between atoms: C8_8  and  N10_10 
ROOT
HETATM    1  C1  UNL     1     -38.145  14.722  -4.289  1.00 20.00     0.032 C 
HETATM    2  C2  UNL     1     -38.000  16.164  -4.758  1.00 20.00     0.038 C 
HETATM    3  C3  UNL     1     -36.786  14.083  -4.523  1.00 20.00     0.273 C 
HETATM    4  C4  UNL     1     -36.547  16.309  -5.210  1.00 20.00     0.236 C 
HETATM    5  N10 UNL     1     -35.818  15.187  -4.587  1.00 20.00     0.094 N 
ENDROOT
BRANCH   5   6
HETATM    6  C8  UNL     1     -35.340  15.544  -3.249  1.00 20.00     0.277 C 
BRANCH   6   7
HETATM    7  C9  UNL     1     -33.809  15.544  -3.172  1.00 20.00     0.006 C 
HETATM    8  C5  UNL     1     -33.173  14.686  -4.267  1.00 20.00     0.011 C 
HETATM    9  C6  UNL     1     -33.232  16.960  -3.193  1.00 20.00     0.011 C 
ENDBRANCH   6   7
ENDBRANCH   5   6
BRANCH   4  10
HETATM   10  C7  UNL     1     -36.418  16.232  -6.734  1.00 20.00     0.150 C 
HETATM   11 CL11 UNL     1     -34.748  15.844  -7.189  1.00 20.00    -0.128 Cl
ENDBRANCH   4  10
TORSDOF 3
ENDMDL
MODEL 7
REMARK VINA RESULT:      -3.5      1.649      2.035
REMARK  3 active torsions:
REMARK  status: ('A' for Active; 'I' for Inactive)
REMARK    1  A    between atoms: C4_4  and  C7_7 
REMARK    2  A    between atoms: C8_8  and  C9_9 
REMARK    3  A    between atoms: C8_8  and  N10_10 
ROOT
HETATM    1  C1  UNL     1     -35.631  14.783  -6.825  1.00 20.00     0.032 C 
HETATM    2  C2  UNL     1     -36.630  15.858  -6.414  1.00 20.00     0.038 C 
HETATM    3  C3  UNL     1     -34.331  15.154  -6.131  1.00 20.00     0.273 C 
HETATM    4  C4  UNL     1     -35.871  16.788  -5.467  1.00 20.00     0.236 C 
HETATM    5  N10 UNL     1     -34.699  16.021  -5.003  1.00 20.00     0.094 N 
ENDROOT
BRANCH   5   6
HETATM    6  C8  UNL     1     -35.022  15.227  -3.815  1.00 20.00     0.277 C 
BRANCH   6   7
HETATM    7  C9  UNL     1     -34.336  15.777  -2.559  1.00 20.00     0.006 C 
HETATM    8  C5  UNL     1     -33.049  16.536  -2.885  1.00 20.00     0.011 C 
HETATM    9  C6  UNL     1     -35.278  16.646  -1.724  1.00 20.00     0.011 C 
ENDBRANCH   6   7
ENDBRANCH   5   6
BRANCH   4  10
HETATM   10  C7  UNL     1     -35.411  18.065  -6.175  1.00 20.00     0.150 C 
HETATM   11 CL11 UNL     1     -33.975  18.729  -5.372  1.00 20.00    -0.128 Cl
ENDBRANCH   4  10
TORSDOF 3
ENDMDL
MODEL 8
REMARK VINA RESULT:      -3.5      1.702      2.407
REMARK  3 active torsions:
REMARK  status: ('A' for Active; 'I' for Inactive)
REMARK    1  A    between atoms: C4_4  and  C7_7 
REMARK    2  A    between atoms: C8_8  and  C9_9 
REMARK    3  A    between atoms: C8_8  and  N10_10 
ROOT
HETATM    1  C1  UNL     1     -33.318  14.808  -4.090  1.00 20.00     0.032 C 
HETATM    2  C2  UNL     1     -34.634  14.042  -4.082  1.00 20.00     0.038 C 
HETATM    3  C3  UNL     1     -33.696  16.263  -3.867  1.00 20.00     0.273 C 
HETATM    4  C4  UNL     1     -35.720  15.086  -3.817  1.00 20.00     0.236 C 
HETATM    5  N10 UNL     1     -35.024  16.251  -3.238  1.00 20.00     0.094 N 
ENDROOT
BRANCH   5   6
HETATM    6  C8  UNL     1     -34.913  16.132  -1.782  1.00 20.00     0.277 C 
BRANCH   6   7
HETATM    7  C9  UNL     1     -34.982  17.500  -1.092  1.00 20.00     0.006 C 
HETATM    8  C5  UNL     1     -35.857  17.474   0.163  1.00 20.00     0.011 C 
HETATM    9  C6  UNL     1     -33.592  18.052  -0.769  1.00 20.00     0.011 C 
ENDBRANCH   6   7
ENDBRANCH   5   6
BRANCH   4  10
HETATM   10  C7  UNL     1     -36.438  15.496  -5.105  1.00 20.00     0.150 C 
HETATM   11 CL11 UNL     1     -35.846  14.530  -6.470  1.00 20.00    -0.128 Cl
ENDBRANCH   4  10
TORSDOF 3
ENDMDL
MODEL 9
REMARK VINA RESULT:      -3.5      1.477      4.022
REMARK  3 active torsions:
REMARK  status: ('A' for Active; 'I' for Inactive)
REMARK    1  A    between atoms: C4_4  and  C7_7 
REMARK    2  A    between atoms: C8_8  and  C9_9 
REMARK    3  A    between atoms: C8_8  and  N10_10 
ROOT
HETATM    1  C1  UNL     1     -35.008  15.910  -2.215  1.00 20.00     0.032 C 
HETATM    2  C2  UNL     1     -33.610  16.281  -2.692  1.00 20.00     0.038 C 
HETATM    3  C3  UNL     1     -35.930  16.227  -3.382  1.00 20.00     0.273 C 
HETATM    4  C4  UNL     1     -33.778  16.765  -4.133  1.00 20.00     0.236 C 
HETATM    5  N10 UNL     1     -35.082  16.243  -4.582  1.00 20.00     0.094 N 
ENDROOT
BRANCH   5   6
HETATM    6  C8  UNL     1     -34.949  14.897  -5.147  1.00 20.00     0.277 C 
BRANCH   6   7
HETATM    7  C9  UNL     1     -35.179  14.891  -6.663  1.00 20.00     0.006 C 
HETATM    8  C5  UNL     1     -36.311  15.830  -7.083  1.00 20.00     0.011 C 
HETATM    9  C6  UNL     1     -33.900  15.207  -7.440  1.00 20.00     0.011 C 
ENDBRANCH   6   7
ENDBRANCH   5   6
BRANCH   4  10
HETATM   10  C7  UNL     1     -33.769  18.293  -4.222  1.00 20.00     0.150 C 
HETATM   11 CL11 UNL     1     -34.352  18.818  -5.813  1.00 20.00    -0.128 Cl
ENDBRANCH   4  10
TORSDOF 3
ENDMDL
