MODEL 1
REMARK VINA RESULT:      -3.9      0.000      0.000
REMARK  2 active torsions:
REMARK  status: ('A' for Active; 'I' for Inactive)
REMARK    1  A    between atoms: C6_6  and  C8_8 
REMARK    2  A    between atoms: C8_8  and  N9_9 
ROOT
HETATM    1  C3  UNL     1     -35.905  14.436  -6.001  1.00 20.00     0.052 C 
HETATM    2  C4  UNL     1     -36.024  13.740  -4.646  1.00 20.00     0.274 C 
HETATM    3  C5  UNL     1     -33.900  14.685  -4.685  1.00 20.00     0.292 C 
HETATM    4  C7  UNL     1     -34.592  15.207  -5.936  1.00 20.00     0.112 C 
HETATM    5  N9  UNL     1     -34.996  14.323  -3.771  1.00 20.00     0.090 N 
HETATM    6 CL10 UNL     1     -33.599  14.983  -7.387  1.00 20.00    -0.123 Cl
ENDROOT
BRANCH   5   7
HETATM    7  C8  UNL     1     -35.509  15.488  -3.049  1.00 20.00     0.277 C 
BRANCH   7   8
HETATM    8  C6  UNL     1     -34.446  16.111  -2.209  1.00 20.00     0.014 A 
HETATM    9  C1  UNL     1     -34.142  17.577  -2.335  1.00 20.00     0.007 A 
HETATM   10  C2  UNL     1     -34.814  17.053  -1.097  1.00 20.00     0.007 A 
ENDBRANCH   7   8
ENDBRANCH   5   7
TORSDOF 2
ENDMDL
MODEL 2
REMARK VINA RESULT:      -3.9     10.957     11.676
REMARK  2 active torsions:
REMARK  status: ('A' for Active; 'I' for Inactive)
REMARK    1  A    between atoms: C6_6  and  C8_8 
REMARK    2  A    between atoms: C8_8  and  N9_9 
ROOT
HETATM    1  C3  UNL     1     -33.405   7.168   4.988  1.00 20.00     0.052 C 
HETATM    2  C4  UNL     1     -32.312   7.209   3.923  1.00 20.00     0.274 C 
HETATM    3  C5  UNL     1     -33.643   5.379   3.390  1.00 20.00     0.292 C 
HETATM    4  C7  UNL     1     -34.373   6.088   4.521  1.00 20.00     0.112 C 
HETATM    5  N9  UNL     1     -32.792   6.415   2.782  1.00 20.00     0.090 N 
HETATM    6 CL10 UNL     1     -34.829   4.972   5.821  1.00 20.00    -0.123 Cl
ENDROOT
BRANCH   5   7
HETATM    7  C8  UNL     1     -33.537   7.243   1.833  1.00 20.00     0.277 C 
BRANCH   7   8
HETATM    8  C6  UNL     1     -32.619   8.101   1.031  1.00 20.00     0.014 A 
HETATM    9  C1  UNL     1     -33.052   8.632  -0.307  1.00 20.00     0.007 A 
HETATM   10  C2  UNL     1     -32.908   9.566   0.861  1.00 20.00     0.007 A 
ENDBRANCH   7   8
ENDBRANCH   5   7
TORSDOF 2
ENDMDL
MODEL 3
REMARK VINA RESULT:      -3.7     17.842     18.707
REMARK  2 active torsions:
REMARK  status: ('A' for Active; 'I' for Inactive)
REMARK    1  A    between atoms: C6_6  and  C8_8 
REMARK    2  A    between atoms: C8_8  and  N9_9 
ROOT
HETATM    1  C3  UNL     1     -25.365  17.008  12.304  1.00 20.00     0.052 C 
HETATM    2  C4  UNL     1     -24.593  16.287  11.200  1.00 20.00     0.274 C 
HETATM    3  C5  UNL     1     -25.116  18.383  10.339  1.00 20.00     0.292 C 
HETATM    4  C7  UNL     1     -25.533  18.436  11.802  1.00 20.00     0.112 C 
HETATM    5  N9  UNL     1     -24.101  17.319  10.276  1.00 20.00     0.090 N 
HETATM    6 CL10 UNL     1     -27.189  19.037  11.999  1.00 20.00    -0.123 Cl
ENDROOT
BRANCH   5   7
HETATM    7  C8  UNL     1     -22.779  17.805  10.674  1.00 20.00     0.277 C 
BRANCH   7   8
HETATM    8  C6  UNL     1     -21.961  18.176   9.483  1.00 20.00     0.014 A 
HETATM    9  C1  UNL     1     -21.293  17.111   8.660  1.00 20.00     0.007 A 
HETATM   10  C2  UNL     1     -22.460  17.873   8.098  1.00 20.00     0.007 A 
ENDBRANCH   7   8
ENDBRANCH   5   7
TORSDOF 2
ENDMDL
MODEL 4
REMARK VINA RESULT:      -3.6     18.136     18.887
REMARK  2 active torsions:
REMARK  status: ('A' for Active; 'I' for Inactive)
REMARK    1  A    between atoms: C6_6  and  C8_8 
REMARK    2  A    between atoms: C8_8  and  N9_9 
ROOT
HETATM    1  C3  UNL     1     -23.673  16.566   9.988  1.00 20.00     0.052 C 
HETATM    2  C4  UNL     1     -24.022  16.297  11.450  1.00 20.00     0.274 C 
HETATM    3  C5  UNL     1     -22.351  17.914  11.488  1.00 20.00     0.292 C 
HETATM    4  C7  UNL     1     -22.720  17.755  10.020  1.00 20.00     0.112 C 
HETATM    5  N9  UNL     1     -23.535  17.447  12.227  1.00 20.00     0.090 N 
HETATM    6 CL10 UNL     1     -21.293  17.513   8.998  1.00 20.00    -0.123 Cl
ENDROOT
BRANCH   5   7
HETATM    7  C8  UNL     1     -24.556  18.491  12.332  1.00 20.00     0.277 C 
BRANCH   7   8
HETATM    8  C6  UNL     1     -25.781  18.124  11.565  1.00 20.00     0.014 A 
HETATM    9  C1  UNL     1     -27.122  18.102  12.243  1.00 20.00     0.007 A 
HETATM   10  C2  UNL     1     -26.808  19.170  11.233  1.00 20.00     0.007 A 
ENDBRANCH   7   8
ENDBRANCH   5   7
TORSDOF 2
ENDMDL
MODEL 5
REMARK VINA RESULT:      -3.6     17.105     18.148
REMARK  2 active torsions:
REMARK  status: ('A' for Active; 'I' for Inactive)
REMARK    1  A    between atoms: C6_6  and  C8_8 
REMARK    2  A    between atoms: C8_8  and  N9_9 
ROOT
HETATM    1  C3  UNL     1     -23.404  18.621   8.068  1.00 20.00     0.052 C 
HETATM    2  C4  UNL     1     -24.573  18.161   8.937  1.00 20.00     0.274 C 
HETATM    3  C5  UNL     1     -22.819  16.712   9.419  1.00 20.00     0.292 C 
HETATM    4  C7  UNL     1     -22.214  17.789   8.532  1.00 20.00     0.112 C 
HETATM    5  N9  UNL     1     -24.007  17.341  10.019  1.00 20.00     0.090 N 
HETATM    6 CL10 UNL     1     -21.297  17.100   7.181  1.00 20.00    -0.123 Cl
ENDROOT
BRANCH   5   7
HETATM    7  C8  UNL     1     -23.661  18.158  11.182  1.00 20.00     0.277 C 
BRANCH   7   8
HETATM    8  C6  UNL     1     -24.565  17.867  12.332  1.00 20.00     0.014 A 
HETATM    9  C1  UNL     1     -25.983  18.366  12.327  1.00 20.00     0.007 A 
HETATM   10  C2  UNL     1     -25.703  16.898  12.173  1.00 20.00     0.007 A 
ENDBRANCH   7   8
ENDBRANCH   5   7
TORSDOF 2
ENDMDL
MODEL 6
REMARK VINA RESULT:      -3.6      0.966      1.169
REMARK  2 active torsions:
REMARK  status: ('A' for Active; 'I' for Inactive)
REMARK    1  A    between atoms: C6_6  and  C8_8 
REMARK    2  A    between atoms: C8_8  and  N9_9 
ROOT
HETATM    1  C3  UNL     1     -35.689  15.465  -5.337  1.00 20.00     0.052 C 
HETATM    2  C4  UNL     1     -35.725  14.755  -3.986  1.00 20.00     0.274 C 
HETATM    3  C5  UNL     1     -33.501  14.708  -4.663  1.00 20.00     0.292 C 
HETATM    4  C7  UNL     1     -34.209  15.595  -5.677  1.00 20.00     0.112 C 
HETATM    5  N9  UNL     1     -34.351  14.757  -3.462  1.00 20.00     0.090 N 
HETATM    6 CL10 UNL     1     -33.848  15.117  -7.345  1.00 20.00    -0.123 Cl
ENDROOT
BRANCH   5   7
HETATM    7  C8  UNL     1     -34.088  15.951  -2.657  1.00 20.00     0.277 C 
BRANCH   7   8
HETATM    8  C6  UNL     1     -35.253  16.279  -1.786  1.00 20.00     0.014 A 
HETATM    9  C1  UNL     1     -35.065  17.119  -0.554  1.00 20.00     0.007 A 
HETATM   10  C2  UNL     1     -35.794  17.681  -1.742  1.00 20.00     0.007 A 
ENDBRANCH   7   8
ENDBRANCH   5   7
TORSDOF 2
ENDMDL
MODEL 7
REMARK VINA RESULT:      -3.5      2.867      4.008
REMARK  2 active torsions:
REMARK  status: ('A' for Active; 'I' for Inactive)
REMARK    1  A    between atoms: C6_6  and  C8_8 
REMARK    2  A    between atoms: C8_8  and  N9_9 
ROOT
HETATM    1  C3  UNL     1     -33.233  16.021  -3.411  1.00 20.00     0.052 C 
HETATM    2  C4  UNL     1     -33.058  17.531  -3.267  1.00 20.00     0.274 C 
HETATM    3  C5  UNL     1     -35.182  17.061  -2.446  1.00 20.00     0.292 C 
HETATM    4  C7  UNL     1     -34.543  15.704  -2.698  1.00 20.00     0.112 C 
HETATM    5  N9  UNL     1     -34.050  17.987  -2.281  1.00 20.00     0.090 N 
HETATM    6 CL10 UNL     1     -35.595  14.639  -3.648  1.00 20.00    -0.123 Cl
ENDROOT
BRANCH   5   7
HETATM    7  C8  UNL     1     -33.508  17.947  -0.922  1.00 20.00     0.277 C 
BRANCH   7   8
HETATM    8  C6  UNL     1     -32.293  18.803  -0.803  1.00 20.00     0.014 A 
HETATM    9  C1  UNL     1     -31.788  19.218   0.551  1.00 20.00     0.007 A 
HETATM   10  C2  UNL     1     -31.011  18.228  -0.269  1.00 20.00     0.007 A 
ENDBRANCH   7   8
ENDBRANCH   5   7
TORSDOF 2
ENDMDL
MODEL 8
REMARK VINA RESULT:      -3.4     15.402     17.282
REMARK  2 active torsions:
REMARK  status: ('A' for Active; 'I' for Inactive)
REMARK    1  A    between atoms: C6_6  and  C8_8 
REMARK    2  A    between atoms: C8_8  and  N9_9 
ROOT
HETATM    1  C3  UNL     1     -24.574  17.855  10.896  1.00 20.00     0.052 C 
HETATM    2  C4  UNL     1     -25.165  19.040  10.136  1.00 20.00     0.274 C 
HETATM    3  C5  UNL     1     -22.973  18.838   9.387  1.00 20.00     0.292 C 
HETATM    4  C7  UNL     1     -23.210  17.616  10.262  1.00 20.00     0.112 C 
HETATM    5  N9  UNL     1     -24.315  19.259   8.955  1.00 20.00     0.090 N 
HETATM    6 CL10 UNL     1     -21.926  17.401  11.465  1.00 20.00    -0.123 Cl
ENDROOT
BRANCH   5   7
HETATM    7  C8  UNL     1     -24.786  18.482   7.808  1.00 20.00     0.277 C 
BRANCH   7   8
HETATM    8  C6  UNL     1     -25.792  19.248   7.017  1.00 20.00     0.014 A 
HETATM    9  C1  UNL     1     -25.724  19.262   5.515  1.00 20.00     0.007 A 
HETATM   10  C2  UNL     1     -26.832  18.522   6.210  1.00 20.00     0.007 A 
ENDBRANCH   7   8
ENDBRANCH   5   7
TORSDOF 2
ENDMDL
MODEL 9
REMARK VINA RESULT:      -3.4      2.127      2.716
REMARK  2 active torsions:
REMARK  status: ('A' for Active; 'I' for Inactive)
REMARK    1  A    between atoms: C6_6  and  C8_8 
REMARK    2  A    between atoms: C8_8  and  N9_9 
ROOT
HETATM    1  C3  UNL     1     -34.918  13.938  -4.139  1.00 20.00     0.052 C 
HETATM    2  C4  UNL     1     -33.699  14.695  -4.661  1.00 20.00     0.274 C 
HETATM    3  C5  UNL     1     -35.268  16.324  -4.123  1.00 20.00     0.292 C 
HETATM    4  C7  UNL     1     -35.859  15.016  -3.614  1.00 20.00     0.112 C 
HETATM    5  N9  UNL     1     -33.818  16.082  -4.187  1.00 20.00     0.090 N 
HETATM    6 CL10 UNL     1     -37.530  14.786  -4.159  1.00 20.00    -0.123 Cl
ENDROOT
BRANCH   5   7
HETATM    7  C8  UNL     1     -33.179  16.256  -2.882  1.00 20.00     0.277 C 
BRANCH   7   8
HETATM    8  C6  UNL     1     -33.304  17.664  -2.406  1.00 20.00     0.014 A 
HETATM    9  C1  UNL     1     -33.619  17.951  -0.965  1.00 20.00     0.007 A 
HETATM   10  C2  UNL     1     -32.252  18.256  -1.510  1.00 20.00     0.007 A 
ENDBRANCH   7   8
ENDBRANCH   5   7
TORSDOF 2
ENDMDL
