MODEL 1
REMARK VINA RESULT:      -4.4      0.000      0.000
REMARK  3 active torsions:
REMARK  status: ('A' for Active; 'I' for Inactive)
REMARK    1  A    between atoms: C4_4  and  C6_6 
REMARK    2  A    between atoms: C7_7  and  C8_8 
REMARK    3  A    between atoms: C8_8  and  N9_9 
ROOT
HETATM    1  C1  UNL     1     -34.048   4.180   3.503  1.00 20.00     0.032 C 
HETATM    2  C2  UNL     1     -35.004   5.259   4.000  1.00 20.00     0.038 C 
HETATM    3  C3  UNL     1     -32.942   4.925   2.764  1.00 20.00     0.273 C 
HETATM    4  C4  UNL     1     -34.229   6.567   3.860  1.00 20.00     0.236 C 
HETATM    5  N9  UNL     1     -33.440   6.295   2.653  1.00 20.00     0.094 N 
ENDROOT
BRANCH   5   6
HETATM    6  C8  UNL     1     -32.395   7.257   2.355  1.00 20.00     0.272 C 
BRANCH   6   7
HETATM    7  C7  UNL     1     -32.442   7.738   0.909  1.00 20.00     0.026 C 
HETATM    8  C5  UNL     1     -32.941   9.170   0.782  1.00 20.00     0.007 C 
ENDBRANCH   6   7
ENDBRANCH   5   6
BRANCH   4   9
HETATM    9  C6  UNL     1     -33.430   6.885   5.128  1.00 20.00     0.150 C 
HETATM   10 CL10 UNL     1     -34.357   6.424   6.568  1.00 20.00    -0.128 Cl
ENDBRANCH   4   9
TORSDOF 3
ENDMDL
MODEL 2
REMARK VINA RESULT:      -3.8     15.912     16.628
REMARK  3 active torsions:
REMARK  status: ('A' for Active; 'I' for Inactive)
REMARK    1  A    between atoms: C4_4  and  C6_6 
REMARK    2  A    between atoms: C7_7  and  C8_8 
REMARK    3  A    between atoms: C8_8  and  N9_9 
ROOT
HETATM    1  C1  UNL     1     -22.870  16.778   9.171  1.00 20.00     0.032 C 
HETATM    2  C2  UNL     1     -22.731  18.236   8.746  1.00 20.00     0.038 C 
HETATM    3  C3  UNL     1     -23.815  16.791  10.367  1.00 20.00     0.273 C 
HETATM    4  C4  UNL     1     -23.871  18.964   9.457  1.00 20.00     0.236 C 
HETATM    5  N9  UNL     1     -23.945  18.205  10.711  1.00 20.00     0.094 N 
ENDROOT
BRANCH   5   6
HETATM    6  C8  UNL     1     -25.100  18.483  11.546  1.00 20.00     0.272 C 
BRANCH   6   7
HETATM    7  C7  UNL     1     -25.793  17.211  12.021  1.00 20.00     0.026 C 
HETATM    8  C5  UNL     1     -27.268  17.425  12.330  1.00 20.00     0.007 C 
ENDBRANCH   6   7
ENDBRANCH   5   6
BRANCH   4   9
HETATM    9  C6  UNL     1     -25.144  18.980   8.606  1.00 20.00     0.150 C 
HETATM   10 CL10 UNL     1     -24.730  19.143   6.889  1.00 20.00    -0.128 Cl
ENDBRANCH   4   9
TORSDOF 3
ENDMDL
MODEL 3
REMARK VINA RESULT:      -3.7     16.148     16.905
REMARK  3 active torsions:
REMARK  status: ('A' for Active; 'I' for Inactive)
REMARK    1  A    between atoms: C4_4  and  C6_6 
REMARK    2  A    between atoms: C7_7  and  C8_8 
REMARK    3  A    between atoms: C8_8  and  N9_9 
ROOT
HETATM    1  C1  UNL     1     -23.551  17.947   9.141  1.00 20.00     0.032 C 
HETATM    2  C2  UNL     1     -23.391  16.827  10.164  1.00 20.00     0.038 C 
HETATM    3  C3  UNL     1     -24.657  18.842   9.688  1.00 20.00     0.273 C 
HETATM    4  C4  UNL     1     -24.124  17.322  11.408  1.00 20.00     0.236 C 
HETATM    5  N9  UNL     1     -25.223  18.081  10.800  1.00 20.00     0.094 N 
ENDROOT
BRANCH   5   6
HETATM    6  C8  UNL     1     -26.002  18.900  11.712  1.00 20.00     0.272 C 
BRANCH   6   7
HETATM    7  C7  UNL     1     -27.172  18.138  12.322  1.00 20.00     0.026 C 
HETATM    8  C5  UNL     1     -28.511  18.531  11.713  1.00 20.00     0.007 C 
ENDBRANCH   6   7
ENDBRANCH   5   6
BRANCH   4   9
HETATM    9  C6  UNL     1     -23.192  18.113  12.332  1.00 20.00     0.150 C 
HETATM   10 CL10 UNL     1     -21.500  17.728  11.969  1.00 20.00    -0.128 Cl
ENDBRANCH   4   9
TORSDOF 3
ENDMDL
MODEL 4
REMARK VINA RESULT:      -3.6     11.798     12.713
REMARK  3 active torsions:
REMARK  status: ('A' for Active; 'I' for Inactive)
REMARK    1  A    between atoms: C4_4  and  C6_6 
REMARK    2  A    between atoms: C7_7  and  C8_8 
REMARK    3  A    between atoms: C8_8  and  N9_9 
ROOT
HETATM    1  C1  UNL     1     -35.097  16.194  -1.927  1.00 20.00     0.032 C 
HETATM    2  C2  UNL     1     -34.097  15.753  -2.991  1.00 20.00     0.038 C 
HETATM    3  C3  UNL     1     -34.424  17.346  -1.189  1.00 20.00     0.273 C 
HETATM    4  C4  UNL     1     -33.078  16.888  -3.068  1.00 20.00     0.236 C 
HETATM    5  N9  UNL     1     -33.044  17.326  -1.667  1.00 20.00     0.094 N 
ENDROOT
BRANCH   5   6
HETATM    6  C8  UNL     1     -32.337  18.569  -1.415  1.00 20.00     0.272 C 
BRANCH   6   7
HETATM    7  C7  UNL     1     -31.145  18.381  -0.483  1.00 20.00     0.026 C 
HETATM    8  C5  UNL     1     -31.539  18.410   0.987  1.00 20.00     0.007 C 
ENDBRANCH   6   7
ENDBRANCH   5   6
BRANCH   4   9
HETATM    9  C6  UNL     1     -33.493  17.947  -4.093  1.00 20.00     0.150 C 
HETATM   10 CL10 UNL     1     -34.436  17.201  -5.397  1.00 20.00    -0.128 Cl
ENDBRANCH   4   9
TORSDOF 3
ENDMDL
MODEL 5
REMARK VINA RESULT:      -3.5     10.950     12.007
REMARK  3 active torsions:
REMARK  status: ('A' for Active; 'I' for Inactive)
REMARK    1  A    between atoms: C4_4  and  C6_6 
REMARK    2  A    between atoms: C7_7  and  C8_8 
REMARK    3  A    between atoms: C8_8  and  N9_9 
ROOT
HETATM    1  C1  UNL     1     -33.310  17.618  -1.474  1.00 20.00     0.032 C 
HETATM    2  C2  UNL     1     -34.711  17.224  -1.017  1.00 20.00     0.038 C 
HETATM    3  C3  UNL     1     -33.034  16.774  -2.713  1.00 20.00     0.273 C 
HETATM    4  C4  UNL     1     -35.314  16.471  -2.201  1.00 20.00     0.236 C 
HETATM    5  N9  UNL     1     -34.124  15.801  -2.739  1.00 20.00     0.094 N 
ENDROOT
BRANCH   5   6
HETATM    6  C8  UNL     1     -34.291  15.170  -4.036  1.00 20.00     0.272 C 
BRANCH   6   7
HETATM    7  C7  UNL     1     -34.927  13.788  -3.932  1.00 20.00     0.026 C 
HETATM    8  C5  UNL     1     -36.258  13.696  -4.665  1.00 20.00     0.007 C 
ENDBRANCH   6   7
ENDBRANCH   5   6
BRANCH   4   9
HETATM    9  C6  UNL     1     -36.042  17.420  -3.158  1.00 20.00     0.150 C 
HETATM   10 CL10 UNL     1     -37.688  16.835  -3.466  1.00 20.00    -0.128 Cl
ENDBRANCH   4   9
TORSDOF 3
ENDMDL
MODEL 6
REMARK VINA RESULT:      -3.5     11.885     12.303
REMARK  3 active torsions:
REMARK  status: ('A' for Active; 'I' for Inactive)
REMARK    1  A    between atoms: C4_4  and  C6_6 
REMARK    2  A    between atoms: C7_7  and  C8_8 
REMARK    3  A    between atoms: C8_8  and  N9_9 
ROOT
HETATM    1  C1  UNL     1     -36.899  14.759  -4.078  1.00 20.00     0.032 C 
HETATM    2  C2  UNL     1     -36.064  13.957  -5.072  1.00 20.00     0.038 C 
HETATM    3  C3  UNL     1     -35.894  15.549  -3.248  1.00 20.00     0.273 C 
HETATM    4  C4  UNL     1     -34.677  14.594  -5.026  1.00 20.00     0.236 C 
HETATM    5  N9  UNL     1     -34.597  14.983  -3.613  1.00 20.00     0.094 N 
ENDROOT
BRANCH   5   6
HETATM    6  C8  UNL     1     -33.482  15.844  -3.260  1.00 20.00     0.272 C 
BRANCH   6   7
HETATM    7  C7  UNL     1     -33.827  16.809  -2.132  1.00 20.00     0.026 C 
HETATM    8  C5  UNL     1     -32.680  17.750  -1.791  1.00 20.00     0.007 C 
ENDBRANCH   6   7
ENDBRANCH   5   6
BRANCH   4   9
HETATM    9  C6  UNL     1     -34.547  15.731  -6.044  1.00 20.00     0.150 C 
HETATM   10 CL10 UNL     1     -33.779  15.139  -7.529  1.00 20.00    -0.128 Cl
ENDBRANCH   4   9
TORSDOF 3
ENDMDL
MODEL 7
REMARK VINA RESULT:      -3.5     11.326     12.023
REMARK  3 active torsions:
REMARK  status: ('A' for Active; 'I' for Inactive)
REMARK    1  A    between atoms: C4_4  and  C6_6 
REMARK    2  A    between atoms: C7_7  and  C8_8 
REMARK    3  A    between atoms: C8_8  and  N9_9 
ROOT
HETATM    1  C1  UNL     1     -33.477  17.143  -2.031  1.00 20.00     0.032 C 
HETATM    2  C2  UNL     1     -34.866  16.827  -1.487  1.00 20.00     0.038 C 
HETATM    3  C3  UNL     1     -33.242  16.141  -3.155  1.00 20.00     0.273 C 
HETATM    4  C4  UNL     1     -35.508  15.931  -2.544  1.00 20.00     0.236 C 
HETATM    5  N9  UNL     1     -34.339  15.184  -3.023  1.00 20.00     0.094 N 
ENDROOT
BRANCH   5   6
HETATM    6  C8  UNL     1     -34.548  14.389  -4.220  1.00 20.00     0.272 C 
BRANCH   6   7
HETATM    7  C7  UNL     1     -33.644  14.821  -5.369  1.00 20.00     0.026 C 
HETATM    8  C5  UNL     1     -34.424  15.188  -6.624  1.00 20.00     0.007 C 
ENDBRANCH   6   7
ENDBRANCH   5   6
BRANCH   4   9
HETATM    9  C6  UNL     1     -36.258  16.752  -3.597  1.00 20.00     0.150 C 
HETATM   10 CL10 UNL     1     -37.785  15.956  -4.021  1.00 20.00    -0.128 Cl
ENDBRANCH   4   9
TORSDOF 3
ENDMDL
MODEL 8
REMARK VINA RESULT:      -3.4     11.478     12.158
REMARK  3 active torsions:
REMARK  status: ('A' for Active; 'I' for Inactive)
REMARK    1  A    between atoms: C4_4  and  C6_6 
REMARK    2  A    between atoms: C7_7  and  C8_8 
REMARK    3  A    between atoms: C8_8  and  N9_9 
ROOT
HETATM    1  C1  UNL     1     -33.012  14.700  -4.413  1.00 20.00     0.032 C 
HETATM    2  C2  UNL     1     -34.143  14.954  -5.404  1.00 20.00     0.038 C 
HETATM    3  C3  UNL     1     -33.121  15.813  -3.377  1.00 20.00     0.273 C 
HETATM    4  C4  UNL     1     -35.063  15.952  -4.704  1.00 20.00     0.236 C 
HETATM    5  N9  UNL     1     -34.088  16.747  -3.949  1.00 20.00     0.094 N 
ENDROOT
BRANCH   5   6
HETATM    6  C8  UNL     1     -34.647  17.659  -2.967  1.00 20.00     0.272 C 
BRANCH   6   7
HETATM    7  C7  UNL     1     -34.167  17.355  -1.552  1.00 20.00     0.026 C 
HETATM    8  C5  UNL     1     -35.306  16.989  -0.611  1.00 20.00     0.007 C 
ENDBRANCH   6   7
ENDBRANCH   5   6
BRANCH   4   9
HETATM    9  C6  UNL     1     -36.136  15.239  -3.874  1.00 20.00     0.150 C 
HETATM   10 CL10 UNL     1     -36.433  13.615  -4.523  1.00 20.00    -0.128 Cl
ENDBRANCH   4   9
TORSDOF 3
ENDMDL
MODEL 9
REMARK VINA RESULT:      -3.4     11.479     12.470
REMARK  3 active torsions:
REMARK  status: ('A' for Active; 'I' for Inactive)
REMARK    1  A    between atoms: C4_4  and  C6_6 
REMARK    2  A    between atoms: C7_7  and  C8_8 
REMARK    3  A    between atoms: C8_8  and  N9_9 
ROOT
HETATM    1  C1  UNL     1     -35.313  15.194  -7.146  1.00 20.00     0.032 C 
HETATM    2  C2  UNL     1     -36.458  15.884  -6.412  1.00 20.00     0.038 C 
HETATM    3  C3  UNL     1     -34.286  14.856  -6.072  1.00 20.00     0.273 C 
HETATM    4  C4  UNL     1     -36.219  15.579  -4.934  1.00 20.00     0.236 C 
HETATM    5  N9  UNL     1     -34.752  15.572  -4.887  1.00 20.00     0.094 N 
ENDROOT
BRANCH   5   6
HETATM    6  C8  UNL     1     -34.166  15.073  -3.655  1.00 20.00     0.272 C 
BRANCH   6   7
HETATM    7  C7  UNL     1     -33.879  16.188  -2.655  1.00 20.00     0.026 C 
HETATM    8  C5  UNL     1     -35.014  16.395  -1.663  1.00 20.00     0.007 C 
ENDBRANCH   6   7
ENDBRANCH   5   6
BRANCH   4   9
HETATM    9  C6  UNL     1     -36.912  14.281  -4.510  1.00 20.00     0.150 C 
HETATM   10 CL10 UNL     1     -38.635  14.575  -4.215  1.00 20.00    -0.128 Cl
ENDBRANCH   4   9
TORSDOF 3
ENDMDL
