MODEL 1
REMARK VINA RESULT:      -4.0      0.000      0.000
REMARK  3 active torsions:
REMARK  status: ('A' for Active; 'I' for Inactive)
REMARK    1  A    between atoms: C1_1  and  C4_4 
REMARK       I    between atoms: C1_1  and  N7_7 
REMARK    2  A    between atoms: C5_5  and  C6_6 
REMARK    3  A    between atoms: C5_5  and  N7_7 
ROOT
HETATM    1  C1  UNL     1     -33.684   6.040   3.828  1.00 20.00     0.219 C 
HETATM    2  C3  UNL     1     -31.839   7.732   3.844  1.00 20.00     0.152 C 
HETATM    3  N7  UNL     1     -32.799   6.883   3.149  1.00 20.00    -0.355 N 
HETATM    4  O8  UNL     1     -34.102   4.976   3.361  1.00 20.00    -0.273 OA
ENDROOT
BRANCH   3   5
HETATM    5  C5  UNL     1     -32.770   6.977   1.691  1.00 20.00     0.140 C 
BRANCH   5   6
HETATM    6  C6  UNL     1     -32.612   8.407   1.201  1.00 20.00     0.134 C 
HETATM    7 CL9  UNL     1     -33.460   8.659  -0.345  1.00 20.00    -0.129 Cl
ENDBRANCH   5   6
ENDBRANCH   3   5
BRANCH   1   8
HETATM    8  C4  UNL     1     -34.124   6.500   5.210  1.00 20.00     0.098 C 
HETATM    9  C2  UNL     1     -34.779   5.391   6.017  1.00 20.00     0.014 C 
ENDBRANCH   1   8
TORSDOF 3
ENDMDL
MODEL 2
REMARK VINA RESULT:      -3.9      3.073      4.639
REMARK  3 active torsions:
REMARK  status: ('A' for Active; 'I' for Inactive)
REMARK    1  A    between atoms: C1_1  and  C4_4 
REMARK       I    between atoms: C1_1  and  N7_7 
REMARK    2  A    between atoms: C5_5  and  C6_6 
REMARK    3  A    between atoms: C5_5  and  N7_7 
ROOT
HETATM    1  C1  UNL     1     -32.317   7.290   2.676  1.00 20.00     0.219 C 
HETATM    2  C3  UNL     1     -33.623   5.177   2.363  1.00 20.00     0.152 C 
HETATM    3  N7  UNL     1     -33.262   6.363   3.129  1.00 20.00    -0.355 N 
HETATM    4  O8  UNL     1     -31.605   7.959   3.431  1.00 20.00    -0.273 OA
ENDROOT
BRANCH   3   5
HETATM    5  C5  UNL     1     -33.958   6.515   4.405  1.00 20.00     0.140 C 
BRANCH   5   6
HETATM    6  C6  UNL     1     -34.961   5.402   4.659  1.00 20.00     0.134 C 
HETATM    7 CL9  UNL     1     -34.850   4.799   6.331  1.00 20.00    -0.129 Cl
ENDBRANCH   5   6
ENDBRANCH   3   5
BRANCH   1   8
HETATM    8  C4  UNL     1     -32.199   7.446   1.167  1.00 20.00     0.098 C 
HETATM    9  C2  UNL     1     -32.853   8.719   0.656  1.00 20.00     0.014 C 
ENDBRANCH   1   8
TORSDOF 3
ENDMDL
MODEL 3
REMARK VINA RESULT:      -3.7     15.856     16.570
REMARK  3 active torsions:
REMARK  status: ('A' for Active; 'I' for Inactive)
REMARK    1  A    between atoms: C1_1  and  C4_4 
REMARK       I    between atoms: C1_1  and  N7_7 
REMARK    2  A    between atoms: C5_5  and  C6_6 
REMARK    3  A    between atoms: C5_5  and  N7_7 
ROOT
HETATM    1  C1  UNL     1     -23.549  17.921  11.316  1.00 20.00     0.219 C 
HETATM    2  C3  UNL     1     -24.590  18.758   9.199  1.00 20.00     0.152 C 
HETATM    3  N7  UNL     1     -23.432  18.386  10.002  1.00 20.00    -0.355 N 
HETATM    4  O8  UNL     1     -22.684  18.098  12.179  1.00 20.00    -0.273 OA
ENDROOT
BRANCH   3   5
HETATM    5  C5  UNL     1     -22.140  18.534   9.336  1.00 20.00     0.140 C 
BRANCH   5   6
HETATM    6  C6  UNL     1     -21.567  17.206   8.871  1.00 20.00     0.134 C 
HETATM    7 CL9  UNL     1     -21.334  17.183   7.105  1.00 20.00    -0.129 Cl
ENDBRANCH   5   6
ENDBRANCH   3   5
BRANCH   1   8
HETATM    8  C4  UNL     1     -24.826  17.163  11.649  1.00 20.00     0.098 C 
HETATM    9  C2  UNL     1     -24.617  15.658  11.708  1.00 20.00     0.014 C 
ENDBRANCH   1   8
TORSDOF 3
ENDMDL
MODEL 4
REMARK VINA RESULT:      -3.6      1.439      1.773
REMARK  3 active torsions:
REMARK  status: ('A' for Active; 'I' for Inactive)
REMARK    1  A    between atoms: C1_1  and  C4_4 
REMARK       I    between atoms: C1_1  and  N7_7 
REMARK    2  A    between atoms: C5_5  and  C6_6 
REMARK    3  A    between atoms: C5_5  and  N7_7 
ROOT
HETATM    1  C1  UNL     1     -34.138   6.143   4.100  1.00 20.00     0.219 C 
HETATM    2  C3  UNL     1     -33.204   4.917   2.128  1.00 20.00     0.152 C 
HETATM    3  N7  UNL     1     -33.257   6.071   3.016  1.00 20.00    -0.355 N 
HETATM    4  O8  UNL     1     -34.603   7.203   4.528  1.00 20.00    -0.273 OA
ENDROOT
BRANCH   3   5
HETATM    5  C5  UNL     1     -32.325   7.148   2.692  1.00 20.00     0.140 C 
BRANCH   5   6
HETATM    6  C6  UNL     1     -32.376   7.544   1.226  1.00 20.00     0.134 C 
HETATM    7 CL9  UNL     1     -33.023   9.192   1.022  1.00 20.00    -0.129 Cl
ENDBRANCH   5   6
ENDBRANCH   3   5
BRANCH   1   8
HETATM    8  C4  UNL     1     -34.510   4.819   4.752  1.00 20.00     0.098 C 
HETATM    9  C2  UNL     1     -34.824   4.962   6.233  1.00 20.00     0.014 C 
ENDBRANCH   1   8
TORSDOF 3
ENDMDL
MODEL 5
REMARK VINA RESULT:      -3.6     11.203     11.766
REMARK  3 active torsions:
REMARK  status: ('A' for Active; 'I' for Inactive)
REMARK    1  A    between atoms: C1_1  and  C4_4 
REMARK       I    between atoms: C1_1  and  N7_7 
REMARK    2  A    between atoms: C5_5  and  C6_6 
REMARK    3  A    between atoms: C5_5  and  N7_7 
ROOT
HETATM    1  C1  UNL     1     -33.622  15.006  -4.441  1.00 20.00     0.219 C 
HETATM    2  C3  UNL     1     -34.780  16.800  -5.747  1.00 20.00     0.152 C 
HETATM    3  N7  UNL     1     -34.621  15.412  -5.332  1.00 20.00    -0.355 N 
HETATM    4  O8  UNL     1     -33.106  13.884  -4.464  1.00 20.00    -0.273 OA
ENDROOT
BRANCH   3   5
HETATM    5  C5  UNL     1     -35.581  14.475  -5.910  1.00 20.00     0.140 C 
BRANCH   5   6
HETATM    6  C6  UNL     1     -36.417  13.769  -4.856  1.00 20.00     0.134 C 
HETATM    7 CL9  UNL     1     -37.666  14.850  -4.188  1.00 20.00    -0.129 Cl
ENDBRANCH   5   6
ENDBRANCH   3   5
BRANCH   1   8
HETATM    8  C4  UNL     1     -33.181  16.035  -3.410  1.00 20.00     0.098 C 
HETATM    9  C2  UNL     1     -34.183  16.199  -2.280  1.00 20.00     0.014 C 
ENDBRANCH   1   8
TORSDOF 3
ENDMDL
MODEL 6
REMARK VINA RESULT:      -3.5      9.454      9.867
REMARK  3 active torsions:
REMARK  status: ('A' for Active; 'I' for Inactive)
REMARK    1  A    between atoms: C1_1  and  C4_4 
REMARK       I    between atoms: C1_1  and  N7_7 
REMARK    2  A    between atoms: C5_5  and  C6_6 
REMARK    3  A    between atoms: C5_5  and  N7_7 
ROOT
HETATM    1  C1  UNL     1     -41.802   5.263  -0.961  1.00 20.00     0.219 C 
HETATM    2  C3  UNL     1     -43.242   5.797   1.016  1.00 20.00     0.152 C 
HETATM    3  N7  UNL     1     -42.089   6.049   0.159  1.00 20.00    -0.355 N 
HETATM    4  O8  UNL     1     -40.656   5.070  -1.380  1.00 20.00    -0.273 OA
ENDROOT
BRANCH   3   5
HETATM    5  C5  UNL     1     -41.257   7.183   0.554  1.00 20.00     0.140 C 
BRANCH   5   6
HETATM    6  C6  UNL     1     -41.346   8.342  -0.426  1.00 20.00     0.134 C 
HETATM    7 CL9  UNL     1     -41.230   9.910   0.413  1.00 20.00    -0.129 Cl
ENDBRANCH   5   6
ENDBRANCH   3   5
BRANCH   1   8
HETATM    8  C4  UNL     1     -42.995   4.635  -1.666  1.00 20.00     0.098 C 
HETATM    9  C2  UNL     1     -42.593   3.533  -2.633  1.00 20.00     0.014 C 
ENDBRANCH   1   8
TORSDOF 3
ENDMDL
MODEL 7
REMARK VINA RESULT:      -3.4     11.189     12.430
REMARK  3 active torsions:
REMARK  status: ('A' for Active; 'I' for Inactive)
REMARK    1  A    between atoms: C1_1  and  C4_4 
REMARK       I    between atoms: C1_1  and  N7_7 
REMARK    2  A    between atoms: C5_5  and  C6_6 
REMARK    3  A    between atoms: C5_5  and  N7_7 
ROOT
HETATM    1  C1  UNL     1     -35.808  14.641  -5.773  1.00 20.00     0.219 C 
HETATM    2  C3  UNL     1     -36.105  16.987  -4.950  1.00 20.00     0.152 C 
HETATM    3  N7  UNL     1     -35.855  15.568  -4.726  1.00 20.00    -0.355 N 
HETATM    4  O8  UNL     1     -36.130  13.456  -5.645  1.00 20.00    -0.273 OA
ENDROOT
BRANCH   3   5
HETATM    5  C5  UNL     1     -35.655  15.185  -3.331  1.00 20.00     0.140 C 
BRANCH   5   6
HETATM    6  C6  UNL     1     -34.442  15.857  -2.709  1.00 20.00     0.134 C 
HETATM    7 CL9  UNL     1     -32.971  15.556  -3.668  1.00 20.00    -0.129 Cl
ENDBRANCH   5   6
ENDBRANCH   3   5
BRANCH   1   8
HETATM    8  C4  UNL     1     -35.331  15.169  -7.118  1.00 20.00     0.098 C 
HETATM    9  C2  UNL     1     -33.817  15.146  -7.253  1.00 20.00     0.014 C 
ENDBRANCH   1   8
TORSDOF 3
ENDMDL
MODEL 8
REMARK VINA RESULT:      -3.3     10.309     10.711
REMARK  3 active torsions:
REMARK  status: ('A' for Active; 'I' for Inactive)
REMARK    1  A    between atoms: C1_1  and  C4_4 
REMARK       I    between atoms: C1_1  and  N7_7 
REMARK    2  A    between atoms: C5_5  and  C6_6 
REMARK    3  A    between atoms: C5_5  and  N7_7 
ROOT
HETATM    1  C1  UNL     1     -42.465   7.274  -1.145  1.00 20.00     0.219 C 
HETATM    2  C3  UNL     1     -42.329   5.591   0.704  1.00 20.00     0.152 C 
HETATM    3  N7  UNL     1     -42.727   5.996  -0.639  1.00 20.00    -0.355 N 
HETATM    4  O8  UNL     1     -43.185   7.836  -1.976  1.00 20.00    -0.273 OA
ENDROOT
BRANCH   3   5
HETATM    5  C5  UNL     1     -43.417   4.972  -1.418  1.00 20.00     0.140 C 
BRANCH   5   6
HETATM    6  C6  UNL     1     -42.464   4.129  -2.249  1.00 20.00     0.134 C 
HETATM    7 CL9  UNL     1     -43.165   2.532  -2.617  1.00 20.00    -0.129 Cl
ENDBRANCH   5   6
ENDBRANCH   3   5
BRANCH   1   8
HETATM    8  C4  UNL     1     -41.218   7.965  -0.614  1.00 20.00     0.098 C 
HETATM    9  C2  UNL     1     -41.537   9.213   0.194  1.00 20.00     0.014 C 
ENDBRANCH   1   8
TORSDOF 3
ENDMDL
MODEL 9
REMARK VINA RESULT:      -3.3     10.745     11.842
REMARK  3 active torsions:
REMARK  status: ('A' for Active; 'I' for Inactive)
REMARK    1  A    between atoms: C1_1  and  C4_4 
REMARK       I    between atoms: C1_1  and  N7_7 
REMARK    2  A    between atoms: C5_5  and  C6_6 
REMARK    3  A    between atoms: C5_5  and  N7_7 
ROOT
HETATM    1  C1  UNL     1     -37.101  14.738  -4.232  1.00 20.00     0.219 C 
HETATM    2  C3  UNL     1     -35.536  16.133  -2.864  1.00 20.00     0.152 C 
HETATM    3  N7  UNL     1     -35.834  14.965  -3.684  1.00 20.00    -0.355 N 
HETATM    4  O8  UNL     1     -37.555  13.611  -4.449  1.00 20.00    -0.273 OA
ENDROOT
BRANCH   3   5
HETATM    5  C5  UNL     1     -34.715  14.050  -3.892  1.00 20.00     0.140 C 
BRANCH   5   6
HETATM    6  C6  UNL     1     -33.578  14.686  -4.674  1.00 20.00     0.134 C 
HETATM    7 CL9  UNL     1     -34.055  15.016  -6.358  1.00 20.00    -0.129 Cl
ENDBRANCH   5   6
ENDBRANCH   3   5
BRANCH   1   8
HETATM    8  C4  UNL     1     -37.922  15.976  -4.563  1.00 20.00     0.098 C 
HETATM    9  C2  UNL     1     -37.649  16.505  -5.961  1.00 20.00     0.014 C 
ENDBRANCH   1   8
TORSDOF 3
ENDMDL
