MODEL 1
REMARK VINA RESULT:      -3.9      0.000      0.000
REMARK  1 active torsions:
REMARK  status: ('A' for Active; 'I' for Inactive)
REMARK    1  A    between atoms: C8_8  and  N9_9 
ROOT
HETATM    1  C1  UNL     1     -33.115  15.862  -3.489  1.00 20.00     0.050 C 
HETATM    2  C2  UNL     1     -35.591  15.902  -3.045  1.00 20.00     0.050 C 
HETATM    3  C3  UNL     1     -33.342  14.650  -4.398  1.00 20.00     0.274 C 
HETATM    4  C4  UNL     1     -35.730  14.688  -3.970  1.00 20.00     0.274 C 
HETATM    5  C5  UNL     1     -34.199  15.947  -2.417  1.00 20.00     0.085 C 
HETATM    6  N9  UNL     1     -34.682  14.590  -4.995  1.00 20.00     0.092 N 
HETATM    7 CL10 UNL     1     -34.003  17.437  -1.456  1.00 20.00    -0.125 Cl
ENDROOT
BRANCH   6   8
HETATM    8  C8  UNL     1     -34.859  15.573  -6.062  1.00 20.00     0.215 C 
HETATM    9  C6  UNL     1     -36.315  15.573  -6.504  1.00 20.00     0.042 C 
HETATM   10  C7  UNL     1     -33.921  15.226  -7.210  1.00 20.00     0.042 C 
ENDBRANCH   6   8
TORSDOF 1
ENDMDL
MODEL 2
REMARK VINA RESULT:      -3.8      2.426      4.175
REMARK  1 active torsions:
REMARK  status: ('A' for Active; 'I' for Inactive)
REMARK    1  A    between atoms: C8_8  and  N9_9 
ROOT
HETATM    1  C1  UNL     1     -36.431  14.890  -5.244  1.00 20.00     0.050 C 
HETATM    2  C2  UNL     1     -34.100  15.154  -6.151  1.00 20.00     0.050 C 
HETATM    3  C3  UNL     1     -35.821  14.283  -3.976  1.00 20.00     0.274 C 
HETATM    4  C4  UNL     1     -33.572  14.537  -4.851  1.00 20.00     0.274 C 
HETATM    5  C5  UNL     1     -35.517  14.666  -6.446  1.00 20.00     0.085 C 
HETATM    6  N9  UNL     1     -34.453  14.734  -3.692  1.00 20.00     0.092 N 
HETATM    7 CL10 UNL     1     -36.170  15.499  -7.882  1.00 20.00    -0.125 Cl
ENDROOT
BRANCH   6   8
HETATM    8  C8  UNL     1     -34.415  16.108  -3.195  1.00 20.00     0.215 C 
HETATM    9  C6  UNL     1     -32.964  16.537  -3.029  1.00 20.00     0.042 C 
HETATM   10  C7  UNL     1     -35.177  16.177  -1.880  1.00 20.00     0.042 C 
ENDBRANCH   6   8
TORSDOF 1
ENDMDL
MODEL 3
REMARK VINA RESULT:      -3.7      3.126      4.636
REMARK  1 active torsions:
REMARK  status: ('A' for Active; 'I' for Inactive)
REMARK    1  A    between atoms: C8_8  and  N9_9 
ROOT
HETATM    1  C1  UNL     1     -33.896  18.155   0.279  1.00 20.00     0.050 C 
HETATM    2  C2  UNL     1     -31.685  18.221  -0.918  1.00 20.00     0.050 C 
HETATM    3  C3  UNL     1     -34.584  18.369  -1.073  1.00 20.00     0.274 C 
HETATM    4  C4  UNL     1     -32.451  18.433  -2.228  1.00 20.00     0.274 C 
HETATM    5  C5  UNL     1     -32.488  18.745   0.271  1.00 20.00     0.085 C 
HETATM    6  N9  UNL     1     -33.813  17.882  -2.224  1.00 20.00     0.092 N 
HETATM    7 CL10 UNL     1     -31.650  18.365   1.799  1.00 20.00    -0.125 Cl
ENDROOT
BRANCH   6   8
HETATM    8  C8  UNL     1     -33.820  16.423  -2.318  1.00 20.00     0.215 C 
HETATM    9  C6  UNL     1     -33.084  16.002  -3.581  1.00 20.00     0.042 C 
HETATM   10  C7  UNL     1     -35.262  15.937  -2.317  1.00 20.00     0.042 C 
ENDBRANCH   6   8
TORSDOF 1
ENDMDL
MODEL 4
REMARK VINA RESULT:      -3.6      1.958      3.023
REMARK  1 active torsions:
REMARK  status: ('A' for Active; 'I' for Inactive)
REMARK    1  A    between atoms: C8_8  and  N9_9 
ROOT
HETATM    1  C1  UNL     1     -35.488  16.885  -1.618  1.00 20.00     0.050 C 
HETATM    2  C2  UNL     1     -33.079  17.346  -2.173  1.00 20.00     0.050 C 
HETATM    3  C3  UNL     1     -35.753  16.702  -3.116  1.00 20.00     0.274 C 
HETATM    4  C4  UNL     1     -33.428  17.148  -3.652  1.00 20.00     0.274 C 
HETATM    5  C5  UNL     1     -34.301  17.816  -1.386  1.00 20.00     0.085 C 
HETATM    6  N9  UNL     1     -34.580  16.265  -3.885  1.00 20.00     0.092 N 
HETATM    7 CL10 UNL     1     -33.918  17.906   0.353  1.00 20.00    -0.125 Cl
ENDROOT
BRANCH   6   8
HETATM    8  C8  UNL     1     -34.256  14.860  -3.650  1.00 20.00     0.215 C 
HETATM    9  C6  UNL     1     -33.000  14.500  -4.431  1.00 20.00     0.042 C 
HETATM   10  C7  UNL     1     -35.444  14.005  -4.067  1.00 20.00     0.042 C 
ENDBRANCH   6   8
TORSDOF 1
ENDMDL
MODEL 5
REMARK VINA RESULT:      -3.6      2.906      4.633
REMARK  1 active torsions:
REMARK  status: ('A' for Active; 'I' for Inactive)
REMARK    1  A    between atoms: C8_8  and  N9_9 
ROOT
HETATM    1  C1  UNL     1     -33.112  16.255  -3.588  1.00 20.00     0.050 C 
HETATM    2  C2  UNL     1     -35.302  16.161  -2.353  1.00 20.00     0.050 C 
HETATM    3  C3  UNL     1     -33.081  17.764  -3.328  1.00 20.00     0.274 C 
HETATM    4  C4  UNL     1     -35.193  17.674  -2.137  1.00 20.00     0.274 C 
HETATM    5  C5  UNL     1     -34.549  15.739  -3.613  1.00 20.00     0.085 C 
HETATM    6  N9  UNL     1     -33.815  18.183  -2.127  1.00 20.00     0.092 N 
HETATM    7 CL10 UNL     1     -34.564  13.962  -3.775  1.00 20.00    -0.125 Cl
ENDROOT
BRANCH   6   8
HETATM    8  C8  UNL     1     -33.107  17.836  -0.896  1.00 20.00     0.215 C 
HETATM    9  C6  UNL     1     -33.898  18.353   0.297  1.00 20.00     0.042 C 
HETATM   10  C7  UNL     1     -31.709  18.435  -0.947  1.00 20.00     0.042 C 
ENDBRANCH   6   8
TORSDOF 1
ENDMDL
MODEL 6
REMARK VINA RESULT:      -3.5      4.383      6.407
REMARK  1 active torsions:
REMARK  status: ('A' for Active; 'I' for Inactive)
REMARK    1  A    between atoms: C8_8  and  N9_9 
ROOT
HETATM    1  C1  UNL     1     -32.791  17.637  -1.765  1.00 20.00     0.050 C 
HETATM    2  C2  UNL     1     -34.755  17.559  -0.196  1.00 20.00     0.050 C 
HETATM    3  C3  UNL     1     -32.371  18.955  -1.104  1.00 20.00     0.274 C 
HETATM    4  C4  UNL     1     -34.267  18.879   0.409  1.00 20.00     0.274 C 
HETATM    5  C5  UNL     1     -34.298  17.427  -1.647  1.00 20.00     0.085 C 
HETATM    6  N9  UNL     1     -32.818  19.098   0.287  1.00 20.00     0.092 N 
HETATM    7 CL10 UNL     1     -34.751  15.828  -2.295  1.00 20.00    -0.125 Cl
ENDROOT
BRANCH   6   8
HETATM    8  C8  UNL     1     -32.053  18.256   1.204  1.00 20.00     0.215 C 
HETATM    9  C6  UNL     1     -32.595  18.435   2.615  1.00 20.00     0.042 C 
HETATM   10  C7  UNL     1     -30.583  18.640   1.113  1.00 20.00     0.042 C 
ENDBRANCH   6   8
TORSDOF 1
ENDMDL
MODEL 7
REMARK VINA RESULT:      -3.4      2.387      4.091
REMARK  1 active torsions:
REMARK  status: ('A' for Active; 'I' for Inactive)
REMARK    1  A    between atoms: C8_8  and  N9_9 
ROOT
HETATM    1  C1  UNL     1     -36.068  15.667  -6.098  1.00 20.00     0.050 C 
HETATM    2  C2  UNL     1     -33.932  14.818  -5.077  1.00 20.00     0.050 C 
HETATM    3  C3  UNL     1     -36.806  15.189  -4.843  1.00 20.00     0.274 C 
HETATM    4  C4  UNL     1     -34.745  14.369  -3.859  1.00 20.00     0.274 C 
HETATM    5  C5  UNL     1     -34.804  14.844  -6.331  1.00 20.00     0.085 C 
HETATM    6  N9  UNL     1     -35.972  15.146  -3.635  1.00 20.00     0.092 N 
HETATM    7 CL10 UNL     1     -33.884  15.501  -7.710  1.00 20.00    -0.125 Cl
ENDROOT
BRANCH   6   8
HETATM    8  C8  UNL     1     -35.693  16.480  -3.107  1.00 20.00     0.215 C 
HETATM    9  C6  UNL     1     -34.981  16.347  -1.768  1.00 20.00     0.042 C 
HETATM   10  C7  UNL     1     -37.004  17.241  -2.975  1.00 20.00     0.042 C 
ENDBRANCH   6   8
TORSDOF 1
ENDMDL
MODEL 8
REMARK VINA RESULT:      -3.4      1.624      2.587
REMARK  1 active torsions:
REMARK  status: ('A' for Active; 'I' for Inactive)
REMARK    1  A    between atoms: C8_8  and  N9_9 
ROOT
HETATM    1  C1  UNL     1     -34.314  16.636  -1.918  1.00 20.00     0.050 C 
HETATM    2  C2  UNL     1     -33.199  17.892  -3.790  1.00 20.00     0.050 C 
HETATM    3  C3  UNL     1     -35.495  16.371  -2.857  1.00 20.00     0.274 C 
HETATM    4  C4  UNL     1     -34.420  17.583  -4.664  1.00 20.00     0.274 C 
HETATM    5  C5  UNL     1     -33.584  17.918  -2.312  1.00 20.00     0.085 C 
HETATM    6  N9  UNL     1     -35.138  16.359  -4.282  1.00 20.00     0.092 N 
HETATM    7 CL10 UNL     1     -32.132  18.138  -1.300  1.00 20.00    -0.125 Cl
ENDROOT
BRANCH   6   8
HETATM    8  C8  UNL     1     -34.411  15.150  -4.661  1.00 20.00     0.215 C 
HETATM    9  C6  UNL     1     -34.232  15.129  -6.173  1.00 20.00     0.042 C 
HETATM   10  C7  UNL     1     -35.184  13.936  -4.168  1.00 20.00     0.042 C 
ENDBRANCH   6   8
TORSDOF 1
ENDMDL
MODEL 9
REMARK VINA RESULT:      -3.4      1.352      2.085
REMARK  1 active torsions:
REMARK  status: ('A' for Active; 'I' for Inactive)
REMARK    1  A    between atoms: C8_8  and  N9_9 
ROOT
HETATM    1  C1  UNL     1     -34.038  17.162  -4.513  1.00 20.00     0.050 C 
HETATM    2  C2  UNL     1     -34.486  15.350  -2.827  1.00 20.00     0.050 C 
HETATM    3  C3  UNL     1     -34.579  16.225  -5.598  1.00 20.00     0.274 C 
HETATM    4  C4  UNL     1     -35.011  14.477  -3.972  1.00 20.00     0.274 C 
HETATM    5  C5  UNL     1     -33.467  16.364  -3.343  1.00 20.00     0.085 C 
HETATM    6  N9  UNL     1     -35.548  15.236  -5.109  1.00 20.00     0.092 N 
HETATM    7 CL10 UNL     1     -32.971  17.464  -2.029  1.00 20.00    -0.125 Cl
ENDROOT
BRANCH   6   8
HETATM    8  C8  UNL     1     -36.848  15.834  -4.811  1.00 20.00     0.215 C 
HETATM    9  C6  UNL     1     -37.795  14.749  -4.321  1.00 20.00     0.042 C 
HETATM   10  C7  UNL     1     -37.374  16.518  -6.064  1.00 20.00     0.042 C 
ENDBRANCH   6   8
TORSDOF 1
ENDMDL
