MODEL 1
REMARK VINA RESULT:      -4.5      0.000      0.000
REMARK  2 active torsions:
REMARK  status: ('A' for Active; 'I' for Inactive)
REMARK    1  A    between atoms: C3_3  and  C6_6 
REMARK    2  A    between atoms: C5_5  and  C6_6 
ROOT
HETATM    1  C6  UNL     1     -34.049   6.534   4.021  1.00 20.00     0.086 C 
HETATM    2 CL7  UNL     1     -33.435   7.220   5.557  1.00 20.00    -0.125 Cl
ENDROOT
BRANCH   1   3
HETATM    3  C3  UNL     1     -32.897   6.409   3.067  1.00 20.00     0.004 A 
HETATM    4  C1  UNL     1     -32.717   7.411   1.961  1.00 20.00     0.006 A 
HETATM    5  C2  UNL     1     -31.760   7.392   3.120  1.00 20.00     0.006 A 
ENDBRANCH   1   3
BRANCH   1   6
HETATM    6  C5  UNL     1     -34.734   5.183   4.256  1.00 20.00     0.016 C 
HETATM    7  C4  UNL     1     -34.890   4.829   5.728  1.00 20.00     0.006 C 
ENDBRANCH   1   6
TORSDOF 2
ENDMDL
MODEL 2
REMARK VINA RESULT:      -4.3      1.770      1.934
REMARK  2 active torsions:
REMARK  status: ('A' for Active; 'I' for Inactive)
REMARK    1  A    between atoms: C3_3  and  C6_6 
REMARK    2  A    between atoms: C5_5  and  C6_6 
ROOT
HETATM    1  C6  UNL     1     -33.513   5.417   3.642  1.00 20.00     0.086 C 
HETATM    2 CL7  UNL     1     -33.349   4.462   2.137  1.00 20.00    -0.125 Cl
ENDROOT
BRANCH   1   3
HETATM    3  C3  UNL     1     -33.298   6.864   3.308  1.00 20.00     0.004 A 
HETATM    4  C1  UNL     1     -31.935   7.482   3.458  1.00 20.00     0.006 A 
HETATM    5  C2  UNL     1     -32.509   7.251   2.088  1.00 20.00     0.006 A 
ENDBRANCH   1   3
BRANCH   1   6
HETATM    6  C5  UNL     1     -34.882   5.187   4.293  1.00 20.00     0.016 C 
HETATM    7  C4  UNL     1     -34.863   5.319   5.809  1.00 20.00     0.006 C 
ENDBRANCH   1   6
TORSDOF 2
ENDMDL
MODEL 3
REMARK VINA RESULT:      -4.2      1.768      3.770
REMARK  2 active torsions:
REMARK  status: ('A' for Active; 'I' for Inactive)
REMARK    1  A    between atoms: C3_3  and  C6_6 
REMARK    2  A    between atoms: C5_5  and  C6_6 
ROOT
HETATM    1  C6  UNL     1     -33.606   6.301   3.529  1.00 20.00     0.086 C 
HETATM    2 CL7  UNL     1     -33.633   4.793   2.565  1.00 20.00    -0.125 Cl
ENDROOT
BRANCH   1   3
HETATM    3  C3  UNL     1     -33.564   5.931   4.983  1.00 20.00     0.004 A 
HETATM    4  C1  UNL     1     -34.312   6.755   5.995  1.00 20.00     0.006 A 
HETATM    5  C2  UNL     1     -34.787   5.370   5.656  1.00 20.00     0.006 A 
ENDBRANCH   1   3
BRANCH   1   6
HETATM    6  C5  UNL     1     -32.413   7.182   3.139  1.00 20.00     0.016 C 
HETATM    7  C4  UNL     1     -32.451   7.649   1.691  1.00 20.00     0.006 C 
ENDBRANCH   1   6
TORSDOF 2
ENDMDL
MODEL 4
REMARK VINA RESULT:      -3.8      1.112      3.455
REMARK  2 active torsions:
REMARK  status: ('A' for Active; 'I' for Inactive)
REMARK    1  A    between atoms: C3_3  and  C6_6 
REMARK    2  A    between atoms: C5_5  and  C6_6 
ROOT
HETATM    1  C6  UNL     1     -32.959   6.423   3.744  1.00 20.00     0.086 C 
HETATM    2 CL7  UNL     1     -32.068   7.850   4.355  1.00 20.00    -0.125 Cl
ENDROOT
BRANCH   1   3
HETATM    3  C3  UNL     1     -34.301   6.381   4.417  1.00 20.00     0.004 A 
HETATM    4  C1  UNL     1     -34.864   5.074   4.903  1.00 20.00     0.006 A 
HETATM    5  C2  UNL     1     -34.400   6.107   5.892  1.00 20.00     0.006 A 
ENDBRANCH   1   3
BRANCH   1   6
HETATM    6  C5  UNL     1     -33.097   6.471   2.218  1.00 20.00     0.016 C 
HETATM    7  C4  UNL     1     -32.472   7.710   1.591  1.00 20.00     0.006 C 
ENDBRANCH   1   6
TORSDOF 2
ENDMDL
MODEL 5
REMARK VINA RESULT:      -3.8      0.891      3.292
REMARK  2 active torsions:
REMARK  status: ('A' for Active; 'I' for Inactive)
REMARK    1  A    between atoms: C3_3  and  C6_6 
REMARK    2  A    between atoms: C5_5  and  C6_6 
ROOT
HETATM    1  C6  UNL     1     -33.088   6.457   4.420  1.00 20.00     0.086 C 
HETATM    2 CL7  UNL     1     -33.744   7.179   5.920  1.00 20.00    -0.125 Cl
ENDROOT
BRANCH   1   3
HETATM    3  C3  UNL     1     -34.199   5.726   3.723  1.00 20.00     0.004 A 
HETATM    4  C1  UNL     1     -34.313   4.231   3.841  1.00 20.00     0.006 A 
HETATM    5  C2  UNL     1     -35.320   5.117   4.519  1.00 20.00     0.006 A 
ENDBRANCH   1   3
BRANCH   1   6
HETATM    6  C5  UNL     1     -32.469   7.530   3.517  1.00 20.00     0.016 C 
HETATM    7  C4  UNL     1     -32.529   7.187   2.035  1.00 20.00     0.006 C 
ENDBRANCH   1   6
TORSDOF 2
ENDMDL
MODEL 6
REMARK VINA RESULT:      -3.7      1.577      3.124
REMARK  2 active torsions:
REMARK  status: ('A' for Active; 'I' for Inactive)
REMARK    1  A    between atoms: C3_3  and  C6_6 
REMARK    2  A    between atoms: C5_5  and  C6_6 
ROOT
HETATM    1  C6  UNL     1     -32.989   6.236   3.788  1.00 20.00     0.086 C 
HETATM    2 CL7  UNL     1     -32.009   7.734   3.753  1.00 20.00    -0.125 Cl
ENDROOT
BRANCH   1   3
HETATM    3  C3  UNL     1     -34.233   6.505   4.584  1.00 20.00     0.004 A 
HETATM    4  C1  UNL     1     -34.814   5.433   5.465  1.00 20.00     0.006 A 
HETATM    5  C2  UNL     1     -34.160   6.639   6.080  1.00 20.00     0.006 A 
ENDBRANCH   1   3
BRANCH   1   6
HETATM    6  C5  UNL     1     -33.320   5.761   2.369  1.00 20.00     0.016 C 
HETATM    7  C4  UNL     1     -33.178   4.257   2.182  1.00 20.00     0.006 C 
ENDBRANCH   1   6
TORSDOF 2
ENDMDL
MODEL 7
REMARK VINA RESULT:      -3.5     15.744     16.585
REMARK  2 active torsions:
REMARK  status: ('A' for Active; 'I' for Inactive)
REMARK    1  A    between atoms: C3_3  and  C6_6 
REMARK    2  A    between atoms: C5_5  and  C6_6 
ROOT
HETATM    1  C6  UNL     1     -24.440  17.539  10.914  1.00 20.00     0.086 C 
HETATM    2 CL7  UNL     1     -24.647  15.802  11.293  1.00 20.00    -0.125 Cl
ENDROOT
BRANCH   1   3
HETATM    3  C3  UNL     1     -25.246  18.336  11.898  1.00 20.00     0.004 A 
HETATM    4  C1  UNL     1     -26.480  19.069  11.448  1.00 20.00     0.006 A 
HETATM    5  C2  UNL     1     -26.605  17.856  12.327  1.00 20.00     0.006 A 
ENDBRANCH   1   3
BRANCH   1   6
HETATM    6  C5  UNL     1     -22.960  17.937  10.948  1.00 20.00     0.016 C 
HETATM    7  C4  UNL     1     -22.333  17.828  12.331  1.00 20.00     0.006 C 
ENDBRANCH   1   6
TORSDOF 2
ENDMDL
MODEL 8
REMARK VINA RESULT:      -3.5      1.726      2.062
REMARK  2 active torsions:
REMARK  status: ('A' for Active; 'I' for Inactive)
REMARK    1  A    between atoms: C3_3  and  C6_6 
REMARK    2  A    between atoms: C5_5  and  C6_6 
ROOT
HETATM    1  C6  UNL     1     -33.786   6.682   4.034  1.00 20.00     0.086 C 
HETATM    2 CL7  UNL     1     -32.179   7.288   3.530  1.00 20.00    -0.125 Cl
ENDROOT
BRANCH   1   3
HETATM    3  C3  UNL     1     -33.967   5.301   3.474  1.00 20.00     0.004 A 
HETATM    4  C1  UNL     1     -34.095   5.097   1.990  1.00 20.00     0.006 A 
HETATM    5  C2  UNL     1     -32.854   4.644   2.706  1.00 20.00     0.006 A 
ENDBRANCH   1   3
BRANCH   1   6
HETATM    6  C5  UNL     1     -33.924   6.692   5.561  1.00 20.00     0.016 C 
HETATM    7  C4  UNL     1     -34.685   5.493   6.110  1.00 20.00     0.006 C 
ENDBRANCH   1   6
TORSDOF 2
ENDMDL
MODEL 9
REMARK VINA RESULT:      -3.4      1.741      2.587
REMARK  2 active torsions:
REMARK  status: ('A' for Active; 'I' for Inactive)
REMARK    1  A    between atoms: C3_3  and  C6_6 
REMARK    2  A    between atoms: C5_5  and  C6_6 
ROOT
HETATM    1  C6  UNL     1     -32.865   7.250   2.385  1.00 20.00     0.086 C 
HETATM    2 CL7  UNL     1     -31.741   7.668   3.714  1.00 20.00    -0.125 Cl
ENDROOT
BRANCH   1   3
HETATM    3  C3  UNL     1     -32.367   7.897   1.125  1.00 20.00     0.004 A 
HETATM    4  C1  UNL     1     -33.316   8.176  -0.009  1.00 20.00     0.006 A 
HETATM    5  C2  UNL     1     -32.754   9.313   0.798  1.00 20.00     0.006 A 
ENDBRANCH   1   3
BRANCH   1   6
HETATM    6  C5  UNL     1     -32.989   5.731   2.226  1.00 20.00     0.016 C 
HETATM    7  C4  UNL     1     -33.913   5.086   3.250  1.00 20.00     0.006 C 
ENDBRANCH   1   6
TORSDOF 2
ENDMDL
