MODEL 1
REMARK VINA RESULT:      -4.1      0.000      0.000
REMARK  2 active torsions:
REMARK  status: ('A' for Active; 'I' for Inactive)
REMARK    1  A    between atoms: C6_6  and  C7_7 
REMARK    2  A    between atoms: C6_6  and  N8_8 
ROOT
HETATM    1  C1  UNL     1     -25.442  18.846  10.419  1.00 20.00     0.050 C 
HETATM    2  C2  UNL     1     -23.972  18.158  12.332  1.00 20.00     0.050 C 
HETATM    3  C3  UNL     1     -24.697  17.839   9.538  1.00 20.00     0.274 C 
HETATM    4  C4  UNL     1     -23.275  17.173  11.389  1.00 20.00     0.274 C 
HETATM    5  C5  UNL     1     -25.405  18.472  11.901  1.00 20.00     0.085 C 
HETATM    6  N8  UNL     1     -23.315  17.651  10.000  1.00 20.00     0.093 N 
HETATM    7 CL11 UNL     1     -26.474  17.069  12.218  1.00 20.00    -0.125 Cl
ENDROOT
BRANCH   6   8
HETATM    8  C6  UNL     1     -22.601  16.727   9.119  1.00 20.00     0.343 C 
BRANCH   8   9
HETATM    9  C7  UNL     1     -21.401  17.408   8.495  1.00 20.00     0.381 C 
HETATM   10  F9  UNL     1     -21.293  18.676   8.965  1.00 20.00    -0.213 F 
HETATM   11  F10 UNL     1     -21.593  17.509   7.155  1.00 20.00    -0.213 F 
ENDBRANCH   8   9
ENDBRANCH   6   8
TORSDOF 2
ENDMDL
MODEL 2
REMARK VINA RESULT:      -4.1     15.676     16.347
REMARK  2 active torsions:
REMARK  status: ('A' for Active; 'I' for Inactive)
REMARK    1  A    between atoms: C6_6  and  C7_7 
REMARK    2  A    between atoms: C6_6  and  N8_8 
ROOT
HETATM    1  C1  UNL     1     -35.060   5.218   4.092  1.00 20.00     0.050 C 
HETATM    2  C2  UNL     1     -34.266   6.968   5.704  1.00 20.00     0.050 C 
HETATM    3  C3  UNL     1     -33.811   5.489   3.246  1.00 20.00     0.274 C 
HETATM    4  C4  UNL     1     -33.043   7.182   4.806  1.00 20.00     0.274 C 
HETATM    5  C5  UNL     1     -34.859   5.566   5.566  1.00 20.00     0.085 C 
HETATM    6  N8  UNL     1     -33.356   6.877   3.403  1.00 20.00     0.093 N 
HETATM    7 CL11 UNL     1     -33.794   4.359   6.353  1.00 20.00    -0.125 Cl
ENDROOT
BRANCH   6   8
HETATM    8  C6  UNL     1     -32.196   7.135   2.552  1.00 20.00     0.343 C 
BRANCH   8   9
HETATM    9  C7  UNL     1     -32.620   7.811   1.264  1.00 20.00     0.381 C 
HETATM   10  F9  UNL     1     -31.623   7.728   0.348  1.00 20.00    -0.213 F 
HETATM   11  F10 UNL     1     -32.818   9.133   1.499  1.00 20.00    -0.213 F 
ENDBRANCH   8   9
ENDBRANCH   6   8
TORSDOF 2
ENDMDL
MODEL 3
REMARK VINA RESULT:      -4.0     18.016     19.024
REMARK  2 active torsions:
REMARK  status: ('A' for Active; 'I' for Inactive)
REMARK    1  A    between atoms: C6_6  and  C7_7 
REMARK    2  A    between atoms: C6_6  and  N8_8 
ROOT
HETATM    1  C1  UNL     1     -32.932  15.161  -4.054  1.00 20.00     0.050 C 
HETATM    2  C2  UNL     1     -34.426  16.086  -2.264  1.00 20.00     0.050 C 
HETATM    3  C3  UNL     1     -34.185  14.698  -4.804  1.00 20.00     0.274 C 
HETATM    4  C4  UNL     1     -35.631  15.593  -3.071  1.00 20.00     0.274 C 
HETATM    5  C5  UNL     1     -33.201  16.355  -3.138  1.00 20.00     0.085 C 
HETATM    6  N8  UNL     1     -35.284  14.411  -3.871  1.00 20.00     0.093 N 
HETATM    7 CL11 UNL     1     -33.441  17.843  -4.107  1.00 20.00    -0.125 Cl
ENDROOT
BRANCH   6   8
HETATM    8  C6  UNL     1     -36.456  13.920  -4.595  1.00 20.00     0.343 C 
BRANCH   8   9
HETATM    9  C7  UNL     1     -37.626  14.866  -4.418  1.00 20.00     0.381 C 
HETATM   10  F9  UNL     1     -38.776  14.159  -4.286  1.00 20.00    -0.213 F 
HETATM   11  F10 UNL     1     -37.764  15.619  -5.539  1.00 20.00    -0.213 F 
ENDBRANCH   8   9
ENDBRANCH   6   8
TORSDOF 2
ENDMDL
MODEL 4
REMARK VINA RESULT:      -3.9     16.547     17.505
REMARK  2 active torsions:
REMARK  status: ('A' for Active; 'I' for Inactive)
REMARK    1  A    between atoms: C6_6  and  C7_7 
REMARK    2  A    between atoms: C6_6  and  N8_8 
ROOT
HETATM    1  C1  UNL     1     -32.871  17.492  -1.947  1.00 20.00     0.050 C 
HETATM    2  C2  UNL     1     -35.124  16.703  -1.175  1.00 20.00     0.050 C 
HETATM    3  C3  UNL     1     -33.090  16.714  -3.249  1.00 20.00     0.274 C 
HETATM    4  C4  UNL     1     -35.270  15.951  -2.501  1.00 20.00     0.274 C 
HETATM    5  C5  UNL     1     -34.183  17.904  -1.280  1.00 20.00     0.085 C 
HETATM    6  N8  UNL     1     -33.960  15.549  -3.030  1.00 20.00     0.093 N 
HETATM    7 CL11 UNL     1     -34.963  19.229  -2.199  1.00 20.00    -0.125 Cl
ENDROOT
BRANCH   6   8
HETATM    8  C6  UNL     1     -34.118  14.788  -4.268  1.00 20.00     0.343 C 
BRANCH   8   9
HETATM    9  C7  UNL     1     -35.409  13.996  -4.245  1.00 20.00     0.381 C 
HETATM   10  F9  UNL     1     -35.167  12.730  -3.824  1.00 20.00    -0.213 F 
HETATM   11  F10 UNL     1     -35.893  13.896  -5.510  1.00 20.00    -0.213 F 
ENDBRANCH   8   9
ENDBRANCH   6   8
TORSDOF 2
ENDMDL
MODEL 5
REMARK VINA RESULT:      -3.9     15.945     16.670
REMARK  2 active torsions:
REMARK  status: ('A' for Active; 'I' for Inactive)
REMARK    1  A    between atoms: C6_6  and  C7_7 
REMARK    2  A    between atoms: C6_6  and  N8_8 
ROOT
HETATM    1  C1  UNL     1     -34.182   6.068   5.361  1.00 20.00     0.050 C 
HETATM    2  C2  UNL     1     -33.926   4.496   3.423  1.00 20.00     0.050 C 
HETATM    3  C3  UNL     1     -33.541   7.164   4.504  1.00 20.00     0.274 C 
HETATM    4  C4  UNL     1     -33.294   5.643   2.629  1.00 20.00     0.274 C 
HETATM    5  C5  UNL     1     -34.868   4.990   4.522  1.00 20.00     0.085 C 
HETATM    6  N8  UNL     1     -32.613   6.592   3.520  1.00 20.00     0.093 N 
HETATM    7 CL11 UNL     1     -36.383   5.624   3.807  1.00 20.00    -0.125 Cl
ENDROOT
BRANCH   6   8
HETATM    8  C6  UNL     1     -31.970   7.652   2.745  1.00 20.00     0.343 C 
BRANCH   8   9
HETATM    9  C7  UNL     1     -32.595   7.760   1.369  1.00 20.00     0.381 C 
HETATM   10  F9  UNL     1     -31.627   7.742   0.419  1.00 20.00    -0.213 F 
HETATM   11  F10 UNL     1     -33.223   8.958   1.257  1.00 20.00    -0.213 F 
ENDBRANCH   8   9
ENDBRANCH   6   8
TORSDOF 2
ENDMDL
MODEL 6
REMARK VINA RESULT:      -3.9      3.715      4.755
REMARK  2 active torsions:
REMARK  status: ('A' for Active; 'I' for Inactive)
REMARK    1  A    between atoms: C6_6  and  C7_7 
REMARK    2  A    between atoms: C6_6  and  N8_8 
ROOT
HETATM    1  C1  UNL     1     -24.332  18.501   8.526  1.00 20.00     0.050 C 
HETATM    2  C2  UNL     1     -23.410  16.670   9.973  1.00 20.00     0.050 C 
HETATM    3  C3  UNL     1     -24.899  19.157   9.789  1.00 20.00     0.274 C 
HETATM    4  C4  UNL     1     -24.007  17.386  11.188  1.00 20.00     0.274 C 
HETATM    5  C5  UNL     1     -23.114  17.624   8.815  1.00 20.00     0.085 C 
HETATM    6  N8  UNL     1     -25.204  18.152  10.817  1.00 20.00     0.093 N 
HETATM    7 CL11 UNL     1     -21.688  18.641   9.194  1.00 20.00    -0.125 Cl
ENDROOT
BRANCH   6   8
HETATM    8  C6  UNL     1     -25.793  18.787  11.996  1.00 20.00     0.343 C 
BRANCH   8   9
HETATM    9  C7  UNL     1     -27.135  18.166  12.321  1.00 20.00     0.381 C 
HETATM   10  F9  UNL     1     -27.051  16.814  12.235  1.00 20.00    -0.213 F 
HETATM   11  F10 UNL     1     -28.043  18.555  11.390  1.00 20.00    -0.213 F 
ENDBRANCH   8   9
ENDBRANCH   6   8
TORSDOF 2
ENDMDL
MODEL 7
REMARK VINA RESULT:      -3.8     14.742     15.749
REMARK  2 active torsions:
REMARK  status: ('A' for Active; 'I' for Inactive)
REMARK    1  A    between atoms: C6_6  and  C7_7 
REMARK    2  A    between atoms: C6_6  and  N8_8 
ROOT
HETATM    1  C1  UNL     1     -35.164  16.279  -1.541  1.00 20.00     0.050 C 
HETATM    2  C2  UNL     1     -33.498  15.772  -3.347  1.00 20.00     0.050 C 
HETATM    3  C3  UNL     1     -34.472  17.631  -1.339  1.00 20.00     0.274 C 
HETATM    4  C4  UNL     1     -32.861  17.140  -3.086  1.00 20.00     0.274 C 
HETATM    5  C5  UNL     1     -34.975  15.726  -2.953  1.00 20.00     0.085 C 
HETATM    6  N8  UNL     1     -33.047  17.554  -1.689  1.00 20.00     0.093 N 
HETATM    7 CL11 UNL     1     -35.962  16.656  -4.125  1.00 20.00    -0.125 Cl
ENDROOT
BRANCH   6   8
HETATM    8  C6  UNL     1     -32.389  18.837  -1.442  1.00 20.00     0.343 C 
BRANCH   8   9
HETATM    9  C7  UNL     1     -31.439  18.730  -0.268  1.00 20.00     0.381 C 
HETATM   10  F9  UNL     1     -30.497  17.787  -0.519  1.00 20.00    -0.213 F 
HETATM   11  F10 UNL     1     -32.126  18.306   0.824  1.00 20.00    -0.213 F 
ENDBRANCH   8   9
ENDBRANCH   6   8
TORSDOF 2
ENDMDL
MODEL 8
REMARK VINA RESULT:      -3.7     17.623     18.645
REMARK  2 active torsions:
REMARK  status: ('A' for Active; 'I' for Inactive)
REMARK    1  A    between atoms: C6_6  and  C7_7 
REMARK    2  A    between atoms: C6_6  and  N8_8 
ROOT
HETATM    1  C1  UNL     1     -36.169  16.459  -5.747  1.00 20.00     0.050 C 
HETATM    2  C2  UNL     1     -36.013  13.998  -5.287  1.00 20.00     0.050 C 
HETATM    3  C3  UNL     1     -35.410  16.710  -4.440  1.00 20.00     0.274 C 
HETATM    4  C4  UNL     1     -35.258  14.329  -3.996  1.00 20.00     0.274 C 
HETATM    5  C5  UNL     1     -35.867  15.087  -6.350  1.00 20.00     0.085 C 
HETATM    6  N8  UNL     1     -35.662  15.638  -3.467  1.00 20.00     0.093 N 
HETATM    7 CL11 UNL     1     -34.216  15.062  -7.046  1.00 20.00    -0.125 Cl
ENDROOT
BRANCH   6   8
HETATM    8  C6  UNL     1     -34.972  15.917  -2.208  1.00 20.00     0.343 C 
BRANCH   8   9
HETATM    9  C7  UNL     1     -33.758  16.790  -2.448  1.00 20.00     0.381 C 
HETATM   10  F9  UNL     1     -32.722  16.029  -2.884  1.00 20.00    -0.213 F 
HETATM   11  F10 UNL     1     -33.364  17.339  -1.271  1.00 20.00    -0.213 F 
ENDBRANCH   8   9
ENDBRANCH   6   8
TORSDOF 2
ENDMDL
MODEL 9
REMARK VINA RESULT:      -3.7     16.948     17.888
REMARK  2 active torsions:
REMARK  status: ('A' for Active; 'I' for Inactive)
REMARK    1  A    between atoms: C6_6  and  C7_7 
REMARK    2  A    between atoms: C6_6  and  N8_8 
ROOT
HETATM    1  C1  UNL     1     -35.441  18.031  -3.020  1.00 20.00     0.050 C 
HETATM    2  C2  UNL     1     -33.185  17.173  -2.337  1.00 20.00     0.050 C 
HETATM    3  C3  UNL     1     -35.662  16.722  -3.785  1.00 20.00     0.274 C 
HETATM    4  C4  UNL     1     -33.480  15.892  -3.124  1.00 20.00     0.274 C 
HETATM    5  C5  UNL     1     -34.456  17.876  -1.861  1.00 20.00     0.085 C 
HETATM    6  N8  UNL     1     -34.387  16.158  -4.248  1.00 20.00     0.093 N 
HETATM    7 CL11 UNL     1     -35.210  16.961  -0.518  1.00 20.00    -0.125 Cl
ENDROOT
BRANCH   6   8
HETATM    8  C6  UNL     1     -34.618  14.937  -5.020  1.00 20.00     0.343 C 
BRANCH   8   9
HETATM    9  C7  UNL     1     -35.525  13.991  -4.262  1.00 20.00     0.381 C 
HETATM   10  F9  UNL     1     -34.796  12.978  -3.731  1.00 20.00    -0.213 F 
HETATM   11  F10 UNL     1     -36.401  13.422  -5.129  1.00 20.00    -0.213 F 
ENDBRANCH   8   9
ENDBRANCH   6   8
TORSDOF 2
ENDMDL
