MODEL 1
REMARK VINA RESULT:      -4.2      0.000      0.000
REMARK  1 active torsions:
REMARK  status: ('A' for Active; 'I' for Inactive)
REMARK    1  A    between atoms: C1_1  and  C8_8 
REMARK       I    between atoms: C1_1  and  N10_10 
ROOT
HETATM    1  C1  UNL     1     -34.149  16.089  -2.748  1.00 20.00     0.224 C 
HETATM    2  C2  UNL     1     -36.668  15.137  -5.142  1.00 20.00     0.021 C 
HETATM    3  C5  UNL     1     -35.857  14.797  -6.392  1.00 20.00     0.023 C 
HETATM    4  C6  UNL     1     -35.914  14.764  -3.869  1.00 20.00     0.126 C 
HETATM    5  C7  UNL     1     -33.741  15.036  -5.029  1.00 20.00     0.145 C 
HETATM    6  C9  UNL     1     -34.463  15.423  -6.319  1.00 20.00     0.100 C 
HETATM    7  N10 UNL     1     -34.572  15.347  -3.857  1.00 20.00    -0.350 N 
HETATM    8  O11 UNL     1     -33.046  16.617  -2.639  1.00 20.00    -0.273 OA
HETATM    9 CL12 UNL     1     -33.496  14.914  -7.732  1.00 20.00    -0.123 Cl
ENDROOT
BRANCH   1  10
HETATM   10  C8  UNL     1     -35.114  16.244  -1.618  1.00 20.00     0.078 A 
HETATM   11  C3  UNL     1     -34.824  17.266  -0.572  1.00 20.00     0.015 A 
HETATM   12  C4  UNL     1     -35.936  17.487  -1.552  1.00 20.00     0.015 A 
ENDBRANCH   1  10
TORSDOF 1
ENDMDL
MODEL 2
REMARK VINA RESULT:      -4.1      1.641      1.957
REMARK  1 active torsions:
REMARK  status: ('A' for Active; 'I' for Inactive)
REMARK    1  A    between atoms: C1_1  and  C8_8 
REMARK       I    between atoms: C1_1  and  N10_10 
ROOT
HETATM    1  C1  UNL     1     -33.579  17.143  -3.824  1.00 20.00     0.224 C 
HETATM    2  C2  UNL     1     -35.558  14.148  -4.129  1.00 20.00     0.021 C 
HETATM    3  C5  UNL     1     -35.999  14.163  -5.591  1.00 20.00     0.023 C 
HETATM    4  C6  UNL     1     -34.163  14.742  -3.960  1.00 20.00     0.126 C 
HETATM    5  C7  UNL     1     -34.469  16.137  -5.985  1.00 20.00     0.145 C 
HETATM    6  C9  UNL     1     -35.875  15.570  -6.179  1.00 20.00     0.100 C 
HETATM    7  N10 UNL     1     -34.072  16.068  -4.572  1.00 20.00    -0.350 N 
HETATM    8  O11 UNL     1     -33.463  18.292  -4.243  1.00 20.00    -0.273 OA
HETATM    9 CL12 UNL     1     -36.281  15.538  -7.918  1.00 20.00    -0.123 Cl
ENDROOT
BRANCH   1  10
HETATM   10  C8  UNL     1     -33.163  16.867  -2.416  1.00 20.00     0.078 A 
HETATM   11  C3  UNL     1     -32.469  17.945  -1.655  1.00 20.00     0.015 A 
HETATM   12  C4  UNL     1     -33.880  17.570  -1.313  1.00 20.00     0.015 A 
ENDBRANCH   1  10
TORSDOF 1
ENDMDL
MODEL 3
REMARK VINA RESULT:      -4.1      3.004      5.076
REMARK  1 active torsions:
REMARK  status: ('A' for Active; 'I' for Inactive)
REMARK    1  A    between atoms: C1_1  and  C8_8 
REMARK       I    between atoms: C1_1  and  N10_10 
ROOT
HETATM    1  C1  UNL     1     -33.929  15.893  -3.045  1.00 20.00     0.224 C 
HETATM    2  C2  UNL     1     -35.095  17.441  -0.008  1.00 20.00     0.021 C 
HETATM    3  C5  UNL     1     -33.976  18.420   0.342  1.00 20.00     0.023 C 
HETATM    4  C6  UNL     1     -35.268  17.307  -1.518  1.00 20.00     0.126 C 
HETATM    5  C7  UNL     1     -32.890  17.904  -1.882  1.00 20.00     0.145 C 
HETATM    6  C9  UNL     1     -32.679  18.038  -0.374  1.00 20.00     0.100 C 
HETATM    7  N10 UNL     1     -33.999  16.984  -2.171  1.00 20.00    -0.350 N 
HETATM    8  O11 UNL     1     -32.915  15.539  -3.641  1.00 20.00    -0.273 OA
HETATM    9 CL12 UNL     1     -31.422  19.262  -0.044  1.00 20.00    -0.123 Cl
ENDROOT
BRANCH   1  10
HETATM   10  C8  UNL     1     -35.181  15.108  -3.265  1.00 20.00     0.078 A 
HETATM   11  C3  UNL     1     -35.832  15.170  -4.605  1.00 20.00     0.015 A 
HETATM   12  C4  UNL     1     -35.125  13.922  -4.168  1.00 20.00     0.015 A 
ENDBRANCH   1  10
TORSDOF 1
ENDMDL
MODEL 4
REMARK VINA RESULT:      -4.1      4.076      6.263
REMARK  1 active torsions:
REMARK  status: ('A' for Active; 'I' for Inactive)
REMARK    1  A    between atoms: C1_1  and  C8_8 
REMARK       I    between atoms: C1_1  and  N10_10 
ROOT
HETATM    1  C1  UNL     1     -33.385  17.403  -1.728  1.00 20.00     0.224 C 
HETATM    2  C2  UNL     1     -33.719  17.888   1.827  1.00 20.00     0.021 C 
HETATM    3  C5  UNL     1     -32.410  18.576   2.213  1.00 20.00     0.023 C 
HETATM    4  C6  UNL     1     -34.180  18.309   0.434  1.00 20.00     0.126 C 
HETATM    5  C7  UNL     1     -31.841  18.775  -0.242  1.00 20.00     0.145 C 
HETATM    6  C9  UNL     1     -31.344  18.352   1.140  1.00 20.00     0.100 C 
HETATM    7  N10 UNL     1     -33.119  18.120  -0.556  1.00 20.00    -0.350 N 
HETATM    8  O11 UNL     1     -32.567  17.189  -2.619  1.00 20.00    -0.273 OA
HETATM    9 CL12 UNL     1     -29.864  19.261   1.556  1.00 20.00    -0.123 Cl
ENDROOT
BRANCH   1  10
HETATM   10  C8  UNL     1     -34.768  16.863  -1.903  1.00 20.00     0.078 A 
HETATM   11  C3  UNL     1     -35.348  16.826  -3.276  1.00 20.00     0.015 A 
HETATM   12  C4  UNL     1     -34.936  15.554  -2.599  1.00 20.00     0.015 A 
ENDBRANCH   1  10
TORSDOF 1
ENDMDL
MODEL 5
REMARK VINA RESULT:      -4.0      3.150      4.482
REMARK  1 active torsions:
REMARK  status: ('A' for Active; 'I' for Inactive)
REMARK    1  A    between atoms: C1_1  and  C8_8 
REMARK       I    between atoms: C1_1  and  N10_10 
ROOT
HETATM    1  C1  UNL     1     -34.945  17.706   0.686  1.00 20.00     0.224 C 
HETATM    2  C2  UNL     1     -32.543  17.473  -1.989  1.00 20.00     0.021 C 
HETATM    3  C5  UNL     1     -33.270  16.643  -3.045  1.00 20.00     0.023 C 
HETATM    4  C6  UNL     1     -33.510  18.367  -1.219  1.00 20.00     0.126 C 
HETATM    5  C7  UNL     1     -35.373  16.790  -1.649  1.00 20.00     0.145 C 
HETATM    6  C9  UNL     1     -34.429  15.865  -2.419  1.00 20.00     0.100 C 
HETATM    7  N10 UNL     1     -34.626  17.595  -0.672  1.00 20.00    -0.350 N 
HETATM    8  O11 UNL     1     -35.860  17.104   1.242  1.00 20.00    -0.273 OA
HETATM    9 CL12 UNL     1     -35.335  14.998  -3.690  1.00 20.00    -0.123 Cl
ENDROOT
BRANCH   1  10
HETATM   10  C8  UNL     1     -34.110  18.628   1.514  1.00 20.00     0.078 A 
HETATM   11  C3  UNL     1     -34.404  18.738   2.971  1.00 20.00     0.015 A 
HETATM   12  C4  UNL     1     -33.166  18.034   2.504  1.00 20.00     0.015 A 
ENDBRANCH   1  10
TORSDOF 1
ENDMDL
MODEL 6
REMARK VINA RESULT:      -4.0      2.469      3.234
REMARK  1 active torsions:
REMARK  status: ('A' for Active; 'I' for Inactive)
REMARK    1  A    between atoms: C1_1  and  C8_8 
REMARK       I    between atoms: C1_1  and  N10_10 
ROOT
HETATM    1  C1  UNL     1     -33.998  17.427  -1.567  1.00 20.00     0.224 C 
HETATM    2  C2  UNL     1     -33.235  14.962  -4.081  1.00 20.00     0.021 C 
HETATM    3  C5  UNL     1     -34.612  14.518  -4.571  1.00 20.00     0.023 C 
HETATM    4  C6  UNL     1     -33.227  16.440  -3.702  1.00 20.00     0.126 C 
HETATM    5  C7  UNL     1     -35.649  16.360  -3.183  1.00 20.00     0.145 C 
HETATM    6  C9  UNL     1     -35.691  14.876  -3.547  1.00 20.00     0.100 C 
HETATM    7  N10 UNL     1     -34.298  16.751  -2.755  1.00 20.00    -0.350 N 
HETATM    8  O11 UNL     1     -34.821  17.734  -0.710  1.00 20.00    -0.273 OA
HETATM    9 CL12 UNL     1     -37.302  14.456  -4.192  1.00 20.00    -0.123 Cl
ENDROOT
BRANCH   1  10
HETATM   10  C8  UNL     1     -32.571  17.801  -1.333  1.00 20.00     0.078 A 
HETATM   11  C3  UNL     1     -32.203  19.246  -1.346  1.00 20.00     0.015 A 
HETATM   12  C4  UNL     1     -32.217  18.485  -0.055  1.00 20.00     0.015 A 
ENDBRANCH   1  10
TORSDOF 1
ENDMDL
MODEL 7
REMARK VINA RESULT:      -3.9      5.474      7.642
REMARK  1 active torsions:
REMARK  status: ('A' for Active; 'I' for Inactive)
REMARK    1  A    between atoms: C1_1  and  C8_8 
REMARK       I    between atoms: C1_1  and  N10_10 
ROOT
HETATM    1  C1  UNL     1     -31.868  18.513  -0.431  1.00 20.00     0.224 C 
HETATM    2  C2  UNL     1     -34.145  18.501   2.362  1.00 20.00     0.021 C 
HETATM    3  C5  UNL     1     -33.243  18.814   3.554  1.00 20.00     0.023 C 
HETATM    4  C6  UNL     1     -33.677  19.224   1.103  1.00 20.00     0.126 C 
HETATM    5  C7  UNL     1     -31.346  19.263   1.944  1.00 20.00     0.145 C 
HETATM    6  C9  UNL     1     -31.778  18.530   3.214  1.00 20.00     0.100 C 
HETATM    7  N10 UNL     1     -32.262  18.962   0.835  1.00 20.00    -0.350 N 
HETATM    8  O11 UNL     1     -30.711  18.266  -0.757  1.00 20.00    -0.273 OA
HETATM    9 CL12 UNL     1     -30.734  19.015   4.579  1.00 20.00    -0.123 Cl
ENDROOT
BRANCH   1  10
HETATM   10  C8  UNL     1     -32.939  18.326  -1.456  1.00 20.00     0.078 A 
HETATM   11  C3  UNL     1     -32.568  18.420  -2.897  1.00 20.00     0.015 A 
HETATM   12  C4  UNL     1     -32.911  17.092  -2.293  1.00 20.00     0.015 A 
ENDBRANCH   1  10
TORSDOF 1
ENDMDL
MODEL 8
REMARK VINA RESULT:      -3.9      2.947      5.015
REMARK  1 active torsions:
REMARK  status: ('A' for Active; 'I' for Inactive)
REMARK    1  A    between atoms: C1_1  and  C8_8 
REMARK       I    between atoms: C1_1  and  N10_10 
ROOT
HETATM    1  C1  UNL     1     -35.412  15.208  -4.350  1.00 20.00     0.224 C 
HETATM    2  C2  UNL     1     -32.847  17.369  -3.034  1.00 20.00     0.021 C 
HETATM    3  C5  UNL     1     -33.293  17.611  -1.593  1.00 20.00     0.023 C 
HETATM    4  C6  UNL     1     -33.213  15.964  -3.503  1.00 20.00     0.126 C 
HETATM    5  C7  UNL     1     -35.113  15.886  -1.915  1.00 20.00     0.145 C 
HETATM    6  C9  UNL     1     -34.781  17.296  -1.428  1.00 20.00     0.100 C 
HETATM    7  N10 UNL     1     -34.633  15.686  -3.290  1.00 20.00    -0.350 N 
HETATM    8  O11 UNL     1     -36.609  14.944  -4.275  1.00 20.00    -0.273 OA
HETATM    9 CL12 UNL     1     -35.251  17.471   0.286  1.00 20.00    -0.123 Cl
ENDROOT
BRANCH   1  10
HETATM   10  C8  UNL     1     -34.732  15.005  -5.664  1.00 20.00     0.078 A 
HETATM   11  C3  UNL     1     -35.575  14.789  -6.875  1.00 20.00     0.015 A 
HETATM   12  C4  UNL     1     -34.837  16.081  -6.692  1.00 20.00     0.015 A 
ENDBRANCH   1  10
TORSDOF 1
ENDMDL
MODEL 9
REMARK VINA RESULT:      -3.9      2.279      3.190
REMARK  1 active torsions:
REMARK  status: ('A' for Active; 'I' for Inactive)
REMARK    1  A    between atoms: C1_1  and  C8_8 
REMARK       I    between atoms: C1_1  and  N10_10 
ROOT
HETATM    1  C1  UNL     1     -34.909  17.208  -0.994  1.00 20.00     0.224 C 
HETATM    2  C2  UNL     1     -32.812  15.764  -3.543  1.00 20.00     0.021 C 
HETATM    3  C5  UNL     1     -33.774  14.876  -4.330  1.00 20.00     0.023 C 
HETATM    4  C6  UNL     1     -33.508  17.019  -3.025  1.00 20.00     0.126 C 
HETATM    5  C7  UNL     1     -35.690  15.844  -2.995  1.00 20.00     0.145 C 
HETATM    6  C9  UNL     1     -35.024  14.566  -3.504  1.00 20.00     0.100 C 
HETATM    7  N10 UNL     1     -34.721  16.684  -2.277  1.00 20.00    -0.350 N 
HETATM    8  O11 UNL     1     -35.889  16.989  -0.286  1.00 20.00    -0.273 OA
HETATM    9 CL12 UNL     1     -36.183  13.628  -4.487  1.00 20.00    -0.123 Cl
ENDROOT
BRANCH   1  10
HETATM   10  C8  UNL     1     -33.839  18.099  -0.452  1.00 20.00     0.078 A 
HETATM   11  C3  UNL     1     -34.241  19.255   0.400  1.00 20.00     0.015 A 
HETATM   12  C4  UNL     1     -33.564  18.067   1.014  1.00 20.00     0.015 A 
ENDBRANCH   1  10
TORSDOF 1
ENDMDL
