MODEL 1
REMARK VINA RESULT:      -5.0      0.000      0.000
REMARK  1 active torsions:
REMARK  status: ('A' for Active; 'I' for Inactive)
REMARK    1  A    between atoms: C6_6  and  N7_7 
ROOT
HETATM    1  C1  UNL     1     -32.590   7.622   1.954  1.00 20.00     0.158 C 
HETATM    2  N7  UNL     1     -32.408   6.922   2.876  1.00 20.00    -0.268 NA
HETATM    3  S9  UNL     1     -32.803   8.570   0.692  1.00 20.00    -0.055 SA
ENDROOT
BRANCH   2   4
HETATM    4  C6  UNL     1     -33.591   6.682   3.704  1.00 20.00     0.133 C 
HETATM    5  C3  UNL     1     -34.038   5.233   3.532  1.00 20.00     0.032 C 
HETATM    6  C2  UNL     1     -35.138   4.895   4.533  1.00 20.00     0.028 C 
HETATM    7  C4  UNL     1     -34.720   5.284   5.944  1.00 20.00     0.167 C 
HETATM    8  O8  UNL     1     -34.366   6.666   6.005  1.00 20.00    -0.389 OA
HETATM    9  C5  UNL     1     -33.255   6.974   5.162  1.00 20.00     0.195 C 
ENDBRANCH   2   4
TORSDOF 1
ENDMDL
MODEL 2
REMARK VINA RESULT:      -3.9     16.134     16.573
REMARK  1 active torsions:
REMARK  status: ('A' for Active; 'I' for Inactive)
REMARK    1  A    between atoms: C6_6  and  N7_7 
ROOT
HETATM    1  C1  UNL     1     -24.398  18.887   7.463  1.00 20.00     0.158 C 
HETATM    2  N7  UNL     1     -23.349  18.607   7.904  1.00 20.00    -0.268 NA
HETATM    3  S9  UNL     1     -25.810  19.263   6.830  1.00 20.00    -0.055 SA
ENDROOT
BRANCH   2   4
HETATM    4  C6  UNL     1     -23.260  18.682   9.363  1.00 20.00     0.133 C 
HETATM    5  C3  UNL     1     -24.532  18.099   9.973  1.00 20.00     0.032 C 
HETATM    6  C2  UNL     1     -24.385  17.974  11.486  1.00 20.00     0.028 C 
HETATM    7  C4  UNL     1     -23.097  17.245  11.844  1.00 20.00     0.167 C 
HETATM    8  O8  UNL     1     -21.967  17.894  11.262  1.00 20.00    -0.389 OA
HETATM    9  C5  UNL     1     -22.033  17.911   9.835  1.00 20.00     0.195 C 
ENDBRANCH   2   4
TORSDOF 1
ENDMDL
MODEL 3
REMARK VINA RESULT:      -3.8     11.460     12.563
REMARK  1 active torsions:
REMARK  status: ('A' for Active; 'I' for Inactive)
REMARK    1  A    between atoms: C6_6  and  N7_7 
ROOT
HETATM    1  C1  UNL     1     -37.906  14.953  -4.243  1.00 20.00     0.158 C 
HETATM    2  N7  UNL     1     -37.552  13.857  -4.464  1.00 20.00    -0.268 NA
HETATM    3  S9  UNL     1     -38.419  16.427  -3.930  1.00 20.00    -0.055 SA
ENDROOT
BRANCH   2   4
HETATM    4  C6  UNL     1     -36.198  13.752  -5.008  1.00 20.00     0.133 C 
HETATM    5  C3  UNL     1     -35.990  14.846  -6.053  1.00 20.00     0.032 C 
HETATM    6  C2  UNL     1     -34.530  14.893  -6.488  1.00 20.00     0.028 C 
HETATM    7  C4  UNL     1     -33.609  14.966  -5.278  1.00 20.00     0.167 C 
HETATM    8  O8  UNL     1     -33.853  13.877  -4.388  1.00 20.00    -0.389 OA
HETATM    9  C5  UNL     1     -35.186  13.889  -3.876  1.00 20.00     0.195 C 
ENDBRANCH   2   4
TORSDOF 1
ENDMDL
MODEL 4
REMARK VINA RESULT:      -3.7     11.926     12.645
REMARK  1 active torsions:
REMARK  status: ('A' for Active; 'I' for Inactive)
REMARK    1  A    between atoms: C6_6  and  N7_7 
ROOT
HETATM    1  C1  UNL     1     -38.645  14.702  -4.229  1.00 20.00     0.158 C 
HETATM    2  N7  UNL     1     -37.686  14.053  -4.410  1.00 20.00    -0.268 NA
HETATM    3  S9  UNL     1     -39.967  15.554  -3.982  1.00 20.00    -0.055 SA
ENDROOT
BRANCH   2   4
HETATM    4  C6  UNL     1     -36.454  14.821  -4.594  1.00 20.00     0.133 C 
HETATM    5  C3  UNL     1     -35.573  14.661  -3.358  1.00 20.00     0.032 C 
HETATM    6  C2  UNL     1     -34.200  15.277  -3.601  1.00 20.00     0.028 C 
HETATM    7  C4  UNL     1     -33.599  14.758  -4.901  1.00 20.00     0.167 C 
HETATM    8  O8  UNL     1     -34.481  14.996  -5.998  1.00 20.00    -0.389 OA
HETATM    9  C5  UNL     1     -35.730  14.323  -5.840  1.00 20.00     0.195 C 
ENDBRANCH   2   4
TORSDOF 1
ENDMDL
MODEL 5
REMARK VINA RESULT:      -3.7     15.610     16.056
REMARK  1 active torsions:
REMARK  status: ('A' for Active; 'I' for Inactive)
REMARK    1  A    between atoms: C6_6  and  N7_7 
ROOT
HETATM    1  C1  UNL     1     -22.846  17.920   8.716  1.00 20.00     0.158 C 
HETATM    2  N7  UNL     1     -23.858  18.370   9.100  1.00 20.00    -0.268 NA
HETATM    3  S9  UNL     1     -21.478  17.322   8.161  1.00 20.00    -0.055 SA
ENDROOT
BRANCH   2   4
HETATM    4  C6  UNL     1     -24.172  18.063  10.496  1.00 20.00     0.133 C 
HETATM    5  C3  UNL     1     -25.492  18.730  10.872  1.00 20.00     0.032 C 
HETATM    6  C2  UNL     1     -25.950  18.263  12.249  1.00 20.00     0.028 C 
HETATM    7  C4  UNL     1     -25.943  16.743  12.332  1.00 20.00     0.167 C 
HETATM    8  O8  UNL     1     -24.654  16.223  12.006  1.00 20.00    -0.389 OA
HETATM    9  C5  UNL     1     -24.263  16.551  10.672  1.00 20.00     0.195 C 
ENDBRANCH   2   4
TORSDOF 1
ENDMDL
MODEL 6
REMARK VINA RESULT:      -3.6     11.735     12.214
REMARK  1 active torsions:
REMARK  status: ('A' for Active; 'I' for Inactive)
REMARK    1  A    between atoms: C6_6  and  N7_7 
ROOT
HETATM    1  C1  UNL     1     -35.747  14.520  -6.215  1.00 20.00     0.158 C 
HETATM    2  N7  UNL     1     -35.621  13.743  -5.347  1.00 20.00    -0.268 NA
HETATM    3  S9  UNL     1     -35.936  15.550  -7.415  1.00 20.00    -0.055 SA
ENDROOT
BRANCH   2   4
HETATM    4  C6  UNL     1     -34.925  14.256  -4.166  1.00 20.00     0.133 C 
HETATM    5  C3  UNL     1     -33.663  14.993  -4.608  1.00 20.00     0.032 C 
HETATM    6  C2  UNL     1     -33.027  15.712  -3.424  1.00 20.00     0.028 C 
HETATM    7  C4  UNL     1     -34.056  16.564  -2.694  1.00 20.00     0.167 C 
HETATM    8  O8  UNL     1     -35.172  15.772  -2.285  1.00 20.00    -0.389 OA
HETATM    9  C5  UNL     1     -35.853  15.189  -3.397  1.00 20.00     0.195 C 
ENDBRANCH   2   4
TORSDOF 1
ENDMDL
MODEL 7
REMARK VINA RESULT:      -3.5     12.027     12.575
REMARK  1 active torsions:
REMARK  status: ('A' for Active; 'I' for Inactive)
REMARK    1  A    between atoms: C6_6  and  N7_7 
ROOT
HETATM    1  C1  UNL     1     -34.077  14.951  -6.331  1.00 20.00     0.158 C 
HETATM    2  N7  UNL     1     -33.960  14.544  -5.237  1.00 20.00    -0.268 NA
HETATM    3  S9  UNL     1     -34.200  15.496  -7.822  1.00 20.00    -0.055 SA
ENDROOT
BRANCH   2   4
HETATM    4  C6  UNL     1     -35.169  14.642  -4.418  1.00 20.00     0.133 C 
HETATM    5  C3  UNL     1     -35.692  16.076  -4.464  1.00 20.00     0.032 C 
HETATM    6  C2  UNL     1     -37.057  16.165  -3.792  1.00 20.00     0.028 C 
HETATM    7  C4  UNL     1     -38.002  15.109  -4.349  1.00 20.00     0.167 C 
HETATM    8  O8  UNL     1     -37.439  13.804  -4.217  1.00 20.00    -0.389 OA
HETATM    9  C5  UNL     1     -36.217  13.669  -4.944  1.00 20.00     0.195 C 
ENDBRANCH   2   4
TORSDOF 1
ENDMDL
MODEL 8
REMARK VINA RESULT:      -3.5     11.442     11.861
REMARK  1 active torsions:
REMARK  status: ('A' for Active; 'I' for Inactive)
REMARK    1  A    between atoms: C6_6  and  N7_7 
ROOT
HETATM    1  C1  UNL     1     -33.193  17.016  -2.453  1.00 20.00     0.158 C 
HETATM    2  N7  UNL     1     -33.198  16.222  -3.315  1.00 20.00    -0.268 NA
HETATM    3  S9  UNL     1     -33.154  18.109  -1.295  1.00 20.00    -0.055 SA
ENDROOT
BRANCH   2   4
HETATM    4  C6  UNL     1     -34.304  15.265  -3.255  1.00 20.00     0.133 C 
HETATM    5  C3  UNL     1     -35.587  15.951  -3.717  1.00 20.00     0.032 C 
HETATM    6  C2  UNL     1     -36.711  14.932  -3.863  1.00 20.00     0.028 C 
HETATM    7  C4  UNL     1     -36.262  13.753  -4.714  1.00 20.00     0.167 C 
HETATM    8  O8  UNL     1     -35.083  13.156  -4.173  1.00 20.00    -0.389 OA
HETATM    9  C5  UNL     1     -33.984  14.068  -4.143  1.00 20.00     0.195 C 
ENDBRANCH   2   4
TORSDOF 1
ENDMDL
MODEL 9
REMARK VINA RESULT:      -3.5      9.419      9.958
REMARK  1 active torsions:
REMARK  status: ('A' for Active; 'I' for Inactive)
REMARK    1  A    between atoms: C6_6  and  N7_7 
ROOT
HETATM    1  C1  UNL     1     -41.956   4.650  -1.717  1.00 20.00     0.158 C 
HETATM    2  N7  UNL     1     -40.991   5.120  -1.245  1.00 20.00    -0.268 NA
HETATM    3  S9  UNL     1     -43.245   3.989  -2.378  1.00 20.00    -0.055 SA
ENDROOT
BRANCH   2   4
HETATM    4  C6  UNL     1     -41.240   6.238  -0.334  1.00 20.00     0.133 C 
HETATM    5  C3  UNL     1     -41.325   7.532  -1.140  1.00 20.00     0.032 C 
HETATM    6  C2  UNL     1     -41.786   8.682  -0.250  1.00 20.00     0.028 C 
HETATM    7  C4  UNL     1     -43.051   8.303   0.507  1.00 20.00     0.167 C 
HETATM    8  O8  UNL     1     -42.852   7.107   1.261  1.00 20.00    -0.389 OA
HETATM    9  C5  UNL     1     -42.538   5.991   0.427  1.00 20.00     0.195 C 
ENDBRANCH   2   4
TORSDOF 1
ENDMDL
