MODEL 1
REMARK VINA RESULT:      -3.8      0.000      0.000
REMARK  3 active torsions:
REMARK  status: ('A' for Active; 'I' for Inactive)
REMARK    1  A    between atoms: C6_6  and  C7_7 
REMARK    2  A    between atoms: C7_7  and  C8_8 
REMARK    3  A    between atoms: C8_8  and  N9_9 
ROOT
HETATM    1  C1  UNL     1     -23.782  16.868   9.683  1.00 20.00     0.052 C 
HETATM    2  C2  UNL     1     -24.255  16.308  11.022  1.00 20.00     0.274 C 
HETATM    3  C3  UNL     1     -22.523  17.775  11.527  1.00 20.00     0.292 C 
HETATM    4  C4  UNL     1     -22.784  17.964  10.041  1.00 20.00     0.112 C 
HETATM    5  N9  UNL     1     -23.780  17.230  12.065  1.00 20.00     0.089 N 
HETATM    6 CL10 UNL     1     -21.294  17.864   9.087  1.00 20.00    -0.123 Cl
ENDROOT
BRANCH   5   7
HETATM    7  C8  UNL     1     -24.760  18.283  12.332  1.00 20.00     0.272 C 
BRANCH   7   8
HETATM    8  C7  UNL     1     -26.197  17.782  12.231  1.00 20.00     0.030 C 
BRANCH   8   9
HETATM    9  C6  UNL     1     -27.127  18.795  11.559  1.00 20.00    -0.003 C 
HETATM   10  C5  UNL     1     -28.584  18.510  11.886  1.00 20.00     0.005 C 
ENDBRANCH   8   9
ENDBRANCH   7   8
ENDBRANCH   5   7
TORSDOF 3
ENDMDL
MODEL 2
REMARK VINA RESULT:      -3.8     17.698     18.521
REMARK  3 active torsions:
REMARK  status: ('A' for Active; 'I' for Inactive)
REMARK    1  A    between atoms: C6_6  and  C7_7 
REMARK    2  A    between atoms: C7_7  and  C8_8 
REMARK    3  A    between atoms: C8_8  and  N9_9 
ROOT
HETATM    1  C1  UNL     1     -35.855  14.604  -5.813  1.00 20.00     0.052 C 
HETATM    2  C2  UNL     1     -35.843  13.855  -4.483  1.00 20.00     0.274 C 
HETATM    3  C3  UNL     1     -33.678  14.650  -4.781  1.00 20.00     0.292 C 
HETATM    4  C4  UNL     1     -34.491  15.278  -5.902  1.00 20.00     0.112 C 
HETATM    5  N9  UNL     1     -34.664  14.322  -3.738  1.00 20.00     0.089 N 
HETATM    6 CL10 UNL     1     -33.724  15.054  -7.485  1.00 20.00    -0.123 Cl
ENDROOT
BRANCH   5   7
HETATM    7  C8  UNL     1     -34.983  15.483  -2.908  1.00 20.00     0.272 C 
BRANCH   7   8
HETATM    8  C7  UNL     1     -33.747  16.306  -2.557  1.00 20.00     0.030 C 
BRANCH   8   9
HETATM    9  C6  UNL     1     -34.019  17.336  -1.458  1.00 20.00    -0.003 C 
HETATM   10  C5  UNL     1     -35.271  16.987  -0.669  1.00 20.00     0.005 C 
ENDBRANCH   8   9
ENDBRANCH   7   8
ENDBRANCH   5   7
TORSDOF 3
ENDMDL
MODEL 3
REMARK VINA RESULT:      -3.5     18.316     19.296
REMARK  3 active torsions:
REMARK  status: ('A' for Active; 'I' for Inactive)
REMARK    1  A    between atoms: C6_6  and  C7_7 
REMARK    2  A    between atoms: C7_7  and  C8_8 
REMARK    3  A    between atoms: C8_8  and  N9_9 
ROOT
HETATM    1  C1  UNL     1     -37.497  14.538  -4.384  1.00 20.00     0.052 C 
HETATM    2  C2  UNL     1     -36.298  13.668  -4.754  1.00 20.00     0.274 C 
HETATM    3  C3  UNL     1     -35.694  15.844  -5.307  1.00 20.00     0.292 C 
HETATM    4  C4  UNL     1     -37.019  15.973  -4.571  1.00 20.00     0.112 C 
HETATM    5  N9  UNL     1     -35.133  14.561  -4.853  1.00 20.00     0.089 N 
HETATM    6 CL10 UNL     1     -38.182  16.966  -5.466  1.00 20.00    -0.123 Cl
ENDROOT
BRANCH   5   7
HETATM    7  C8  UNL     1     -34.450  14.690  -3.566  1.00 20.00     0.272 C 
BRANCH   7   8
HETATM    8  C7  UNL     1     -33.482  15.869  -3.537  1.00 20.00     0.030 C 
BRANCH   8   9
HETATM    9  C6  UNL     1     -33.649  16.736  -2.286  1.00 20.00    -0.003 C 
HETATM   10  C5  UNL     1     -34.983  16.476  -1.606  1.00 20.00     0.005 C 
ENDBRANCH   8   9
ENDBRANCH   7   8
ENDBRANCH   5   7
TORSDOF 3
ENDMDL
MODEL 4
REMARK VINA RESULT:      -3.5     14.841     15.743
REMARK  3 active torsions:
REMARK  status: ('A' for Active; 'I' for Inactive)
REMARK    1  A    between atoms: C6_6  and  C7_7 
REMARK    2  A    between atoms: C7_7  and  C8_8 
REMARK    3  A    between atoms: C8_8  and  N9_9 
ROOT
HETATM    1  C1  UNL     1     -33.148  16.346  -3.153  1.00 20.00     0.052 C 
HETATM    2  C2  UNL     1     -32.859  17.833  -2.960  1.00 20.00     0.274 C 
HETATM    3  C3  UNL     1     -34.900  17.447  -1.917  1.00 20.00     0.292 C 
HETATM    4  C4  UNL     1     -34.385  16.070  -2.306  1.00 20.00     0.112 C 
HETATM    5  N9  UNL     1     -33.698  18.293  -1.844  1.00 20.00     0.089 N 
HETATM    6 CL10 UNL     1     -35.607  15.124  -3.175  1.00 20.00    -0.123 Cl
ENDROOT
BRANCH   5   7
HETATM    7  C8  UNL     1     -33.008  18.147  -0.562  1.00 20.00     0.272 C 
BRANCH   7   8
HETATM    8  C7  UNL     1     -31.502  18.360  -0.684  1.00 20.00     0.030 C 
BRANCH   8   9
HETATM    9  C6  UNL     1     -30.802  18.400   0.677  1.00 20.00    -0.003 C 
HETATM   10  C5  UNL     1     -31.799  18.263   1.817  1.00 20.00     0.005 C 
ENDBRANCH   8   9
ENDBRANCH   7   8
ENDBRANCH   5   7
TORSDOF 3
ENDMDL
MODEL 5
REMARK VINA RESULT:      -3.4     23.496     24.932
REMARK  3 active torsions:
REMARK  status: ('A' for Active; 'I' for Inactive)
REMARK    1  A    between atoms: C6_6  and  C7_7 
REMARK    2  A    between atoms: C7_7  and  C8_8 
REMARK    3  A    between atoms: C8_8  and  N9_9 
ROOT
HETATM    1  C1  UNL     1     -41.133   6.780   0.270  1.00 20.00     0.052 C 
HETATM    2  C2  UNL     1     -42.223   5.739   0.515  1.00 20.00     0.274 C 
HETATM    3  C3  UNL     1     -43.327   7.648  -0.221  1.00 20.00     0.292 C 
HETATM    4  C4  UNL     1     -41.847   7.954  -0.390  1.00 20.00     0.112 C 
HETATM    5  N9  UNL     1     -43.412   6.178  -0.230  1.00 20.00     0.089 N 
HETATM    6 CL10 UNL     1     -41.404   9.512   0.331  1.00 20.00    -0.123 Cl
ENDROOT
BRANCH   5   7
HETATM    7  C8  UNL     1     -43.417   5.642  -1.591  1.00 20.00     0.272 C 
BRANCH   7   8
HETATM    8  C7  UNL     1     -43.003   4.175  -1.641  1.00 20.00     0.030 C 
BRANCH   8   9
HETATM    9  C6  UNL     1     -43.163   3.566  -3.036  1.00 20.00    -0.003 C 
HETATM   10  C5  UNL     1     -41.931   2.770  -3.437  1.00 20.00     0.005 C 
ENDBRANCH   8   9
ENDBRANCH   7   8
ENDBRANCH   5   7
TORSDOF 3
ENDMDL
MODEL 6
REMARK VINA RESULT:      -3.4     18.139     19.026
REMARK  3 active torsions:
REMARK  status: ('A' for Active; 'I' for Inactive)
REMARK    1  A    between atoms: C6_6  and  C7_7 
REMARK    2  A    between atoms: C7_7  and  C8_8 
REMARK    3  A    between atoms: C8_8  and  N9_9 
ROOT
HETATM    1  C1  UNL     1     -33.089  15.538  -3.792  1.00 20.00     0.052 C 
HETATM    2  C2  UNL     1     -34.026  14.342  -3.944  1.00 20.00     0.274 C 
HETATM    3  C3  UNL     1     -35.173  15.880  -2.630  1.00 20.00     0.292 C 
HETATM    4  C4  UNL     1     -33.921  16.608  -3.096  1.00 20.00     0.112 C 
HETATM    5  N9  UNL     1     -35.381  14.815  -3.625  1.00 20.00     0.089 N 
HETATM    6 CL10 UNL     1     -33.057  17.371  -1.749  1.00 20.00    -0.123 Cl
ENDROOT
BRANCH   5   7
HETATM    7  C8  UNL     1     -36.068  15.312  -4.818  1.00 20.00     0.272 C 
BRANCH   7   8
HETATM    8  C7  UNL     1     -35.844  14.419  -6.034  1.00 20.00     0.030 C 
BRANCH   8   9
HETATM    9  C6  UNL     1     -35.480  15.215  -7.289  1.00 20.00    -0.003 C 
HETATM   10  C5  UNL     1     -33.974  15.282  -7.485  1.00 20.00     0.005 C 
ENDBRANCH   8   9
ENDBRANCH   7   8
ENDBRANCH   5   7
TORSDOF 3
ENDMDL
MODEL 7
REMARK VINA RESULT:      -3.4     17.063     17.906
REMARK  3 active torsions:
REMARK  status: ('A' for Active; 'I' for Inactive)
REMARK    1  A    between atoms: C6_6  and  C7_7 
REMARK    2  A    between atoms: C7_7  and  C8_8 
REMARK    3  A    between atoms: C8_8  and  N9_9 
ROOT
HETATM    1  C1  UNL     1     -33.393  14.755  -4.494  1.00 20.00     0.052 C 
HETATM    2  C2  UNL     1     -33.132  15.893  -3.510  1.00 20.00     0.274 C 
HETATM    3  C3  UNL     1     -34.310  16.843  -5.274  1.00 20.00     0.292 C 
HETATM    4  C4  UNL     1     -34.325  15.347  -5.546  1.00 20.00     0.112 C 
HETATM    5  N9  UNL     1     -34.092  16.962  -3.823  1.00 20.00     0.089 N 
HETATM    6 CL10 UNL     1     -33.813  14.966  -7.199  1.00 20.00    -0.123 Cl
ENDROOT
BRANCH   5   7
HETATM    7  C8  UNL     1     -35.336  16.799  -3.071  1.00 20.00     0.272 C 
BRANCH   7   8
HETATM    8  C7  UNL     1     -35.112  16.154  -1.707  1.00 20.00     0.030 C 
BRANCH   8   9
HETATM    9  C6  UNL     1     -35.338  17.130  -0.551  1.00 20.00    -0.003 C 
HETATM   10  C5  UNL     1     -34.108  17.988  -0.301  1.00 20.00     0.005 C 
ENDBRANCH   8   9
ENDBRANCH   7   8
ENDBRANCH   5   7
TORSDOF 3
ENDMDL
MODEL 8
REMARK VINA RESULT:      -3.4     18.444     19.326
REMARK  3 active torsions:
REMARK  status: ('A' for Active; 'I' for Inactive)
REMARK    1  A    between atoms: C6_6  and  C7_7 
REMARK    2  A    between atoms: C7_7  and  C8_8 
REMARK    3  A    between atoms: C8_8  and  N9_9 
ROOT
HETATM    1  C1  UNL     1     -33.341  15.936  -3.517  1.00 20.00     0.052 C 
HETATM    2  C2  UNL     1     -33.296  14.688  -4.396  1.00 20.00     0.274 C 
HETATM    3  C3  UNL     1     -35.469  14.806  -3.578  1.00 20.00     0.292 C 
HETATM    4  C4  UNL     1     -34.810  16.106  -3.145  1.00 20.00     0.112 C 
HETATM    5  N9  UNL     1     -34.685  14.354  -4.740  1.00 20.00     0.089 N 
HETATM    6 CL10 UNL     1     -35.041  16.425  -1.417  1.00 20.00    -0.123 Cl
ENDROOT
BRANCH   5   7
HETATM    7  C8  UNL     1     -35.105  15.022  -5.972  1.00 20.00     0.272 C 
BRANCH   7   8
HETATM    8  C7  UNL     1     -33.994  15.072  -7.015  1.00 20.00     0.030 C 
BRANCH   8   9
HETATM    9  C6  UNL     1     -33.996  16.377  -7.814  1.00 20.00    -0.003 C 
HETATM   10  C5  UNL     1     -34.403  17.557  -6.947  1.00 20.00     0.005 C 
ENDBRANCH   8   9
ENDBRANCH   7   8
ENDBRANCH   5   7
TORSDOF 3
ENDMDL
MODEL 9
REMARK VINA RESULT:      -3.4     16.361     17.261
REMARK  3 active torsions:
REMARK  status: ('A' for Active; 'I' for Inactive)
REMARK    1  A    between atoms: C6_6  and  C7_7 
REMARK    2  A    between atoms: C7_7  and  C8_8 
REMARK    3  A    between atoms: C8_8  and  N9_9 
ROOT
HETATM    1  C1  UNL     1     -33.799  15.159  -4.330  1.00 20.00     0.052 C 
HETATM    2  C2  UNL     1     -33.802  16.677  -4.165  1.00 20.00     0.274 C 
HETATM    3  C3  UNL     1     -35.771  15.931  -3.178  1.00 20.00     0.292 C 
HETATM    4  C4  UNL     1     -34.990  14.669  -3.516  1.00 20.00     0.112 C 
HETATM    5  N9  UNL     1     -34.753  16.990  -3.088  1.00 20.00     0.089 N 
HETATM    6 CL10 UNL     1     -35.979  13.493  -4.399  1.00 20.00    -0.123 Cl
ENDROOT
BRANCH   5   7
HETATM    7  C8  UNL     1     -34.094  17.002  -1.782  1.00 20.00     0.272 C 
BRANCH   7   8
HETATM    8  C7  UNL     1     -32.735  17.694  -1.821  1.00 20.00     0.030 C 
BRANCH   8   9
HETATM    9  C6  UNL     1     -32.436  18.475  -0.539  1.00 20.00    -0.003 C 
HETATM   10  C5  UNL     1     -30.989  18.299  -0.108  1.00 20.00     0.005 C 
ENDBRANCH   8   9
ENDBRANCH   7   8
ENDBRANCH   5   7
TORSDOF 3
ENDMDL
