MODEL 1
REMARK VINA RESULT:      -4.0      0.000      0.000
REMARK  4 active torsions:
REMARK  status: ('A' for Active; 'I' for Inactive)
REMARK    1  A    between atoms: C4_4  and  C7_7 
REMARK    2  A    between atoms: C8_8  and  C10_10 
REMARK    3  A    between atoms: C9_9  and  C10_10 
REMARK    4  A    between atoms: C9_9  and  N11_11 
ROOT
HETATM    1  C1  UNL     1     -35.330  17.024  -6.545  1.00 20.00     0.035 C 
HETATM    2  C2  UNL     1     -34.421  17.333  -5.374  1.00 20.00     0.235 C 
HETATM    3  C3  UNL     1     -34.411  14.929  -5.850  1.00 20.00     0.240 C 
HETATM    4  C4  UNL     1     -35.710  15.564  -6.338  1.00 20.00     0.027 C 
HETATM    5  N11 UNL     1     -33.642  16.052  -5.176  1.00 20.00    -0.070 N 
HETATM    6  H33 UNL     1     -32.755  16.161  -5.692  1.00 20.00     0.279 HD
ENDROOT
BRANCH   5   7
HETATM    7  C9  UNL     1     -33.281  15.781  -3.750  1.00 20.00     0.239 C 
BRANCH   7   8
HETATM    8  C10 UNL     1     -33.950  16.772  -2.788  1.00 20.00     0.007 C 
HETATM    9  C6  UNL     1     -32.914  17.505  -1.927  1.00 20.00     0.011 C 
BRANCH   8  10
HETATM   10  C8  UNL     1     -35.032  16.154  -1.880  1.00 20.00     0.001 C 
HETATM   11  C5  UNL     1     -35.294  16.952  -0.610  1.00 20.00     0.005 C 
ENDBRANCH   8  10
ENDBRANCH   7   8
ENDBRANCH   5   7
BRANCH   4  12
HETATM   12  C7  UNL     1     -36.845  15.393  -5.329  1.00 20.00     0.121 C 
HETATM   13 CL12 UNL     1     -36.592  13.931  -4.354  1.00 20.00    -0.130 Cl
ENDBRANCH   4  12
TORSDOF 4
ENDMDL
MODEL 2
REMARK VINA RESULT:      -4.0      1.238      2.351
REMARK  4 active torsions:
REMARK  status: ('A' for Active; 'I' for Inactive)
REMARK    1  A    between atoms: C4_4  and  C7_7 
REMARK    2  A    between atoms: C8_8  and  C10_10 
REMARK    3  A    between atoms: C9_9  and  C10_10 
REMARK    4  A    between atoms: C9_9  and  N11_11 
ROOT
HETATM    1  C1  UNL     1     -34.114  15.191  -5.843  1.00 20.00     0.035 C 
HETATM    2  C2  UNL     1     -34.470  16.605  -5.429  1.00 20.00     0.235 C 
HETATM    3  C3  UNL     1     -32.998  15.572  -3.763  1.00 20.00     0.240 C 
HETATM    4  C4  UNL     1     -33.769  14.501  -4.530  1.00 20.00     0.027 C 
HETATM    5  N11 UNL     1     -33.512  16.898  -4.296  1.00 20.00    -0.070 N 
HETATM    6  H33 UNL     1     -32.704  17.389  -4.710  1.00 20.00     0.279 HD
ENDROOT
BRANCH   5   7
HETATM    7  C9  UNL     1     -34.078  17.804  -3.249  1.00 20.00     0.239 C 
BRANCH   7   8
HETATM    8  C10 UNL     1     -33.876  17.246  -1.834  1.00 20.00     0.007 C 
HETATM    9  C6  UNL     1     -35.197  16.752  -1.231  1.00 20.00     0.011 C 
BRANCH   8  10
HETATM   10  C8  UNL     1     -33.191  18.218  -0.853  1.00 20.00     0.001 C 
HETATM   11  C5  UNL     1     -31.672  18.217  -0.951  1.00 20.00     0.005 C 
ENDBRANCH   8  10
ENDBRANCH   7   8
ENDBRANCH   5   7
BRANCH   4  12
HETATM   12  C7  UNL     1     -35.011  14.035  -3.770  1.00 20.00     0.121 C 
HETATM   13 CL12 UNL     1     -36.312  13.622  -4.905  1.00 20.00    -0.130 Cl
ENDBRANCH   4  12
TORSDOF 4
ENDMDL
MODEL 3
REMARK VINA RESULT:      -3.7      1.927      2.905
REMARK  4 active torsions:
REMARK  status: ('A' for Active; 'I' for Inactive)
REMARK    1  A    between atoms: C4_4  and  C7_7 
REMARK    2  A    between atoms: C8_8  and  C10_10 
REMARK    3  A    between atoms: C9_9  and  C10_10 
REMARK    4  A    between atoms: C9_9  and  N11_11 
ROOT
HETATM    1  C1  UNL     1     -36.241  13.851  -5.167  1.00 20.00     0.035 C 
HETATM    2  C2  UNL     1     -36.192  14.517  -3.808  1.00 20.00     0.235 C 
HETATM    3  C3  UNL     1     -36.464  16.196  -5.572  1.00 20.00     0.240 C 
HETATM    4  C4  UNL     1     -35.791  14.945  -6.127  1.00 20.00     0.027 C 
HETATM    5  N11 UNL     1     -36.641  15.934  -4.086  1.00 20.00    -0.070 N 
HETATM    6  H33 UNL     1     -37.654  15.968  -3.894  1.00 20.00     0.279 HD
ENDROOT
BRANCH   5   7
HETATM    7  C9  UNL     1     -35.999  16.954  -3.201  1.00 20.00     0.239 C 
BRANCH   7   8
HETATM    8  C10 UNL     1     -35.011  16.319  -2.212  1.00 20.00     0.007 C 
HETATM    9  C6  UNL     1     -35.208  16.867  -0.793  1.00 20.00     0.011 C 
BRANCH   8  10
HETATM   10  C8  UNL     1     -33.529  16.447  -2.615  1.00 20.00     0.001 C 
HETATM   11  C5  UNL     1     -32.792  17.562  -1.887  1.00 20.00     0.005 C 
ENDBRANCH   8  10
ENDBRANCH   7   8
ENDBRANCH   5   7
BRANCH   4  12
HETATM   12  C7  UNL     1     -34.270  15.087  -6.179  1.00 20.00     0.121 C 
HETATM   13 CL12 UNL     1     -33.716  15.196  -7.862  1.00 20.00    -0.130 Cl
ENDBRANCH   4  12
TORSDOF 4
ENDMDL
MODEL 4
REMARK VINA RESULT:      -3.7      1.926      3.164
REMARK  4 active torsions:
REMARK  status: ('A' for Active; 'I' for Inactive)
REMARK    1  A    between atoms: C4_4  and  C7_7 
REMARK    2  A    between atoms: C8_8  and  C10_10 
REMARK    3  A    between atoms: C9_9  and  C10_10 
REMARK    4  A    between atoms: C9_9  and  N11_11 
ROOT
HETATM    1  C1  UNL     1     -34.364  14.513  -3.937  1.00 20.00     0.035 C 
HETATM    2  C2  UNL     1     -33.218  15.491  -3.776  1.00 20.00     0.235 C 
HETATM    3  C3  UNL     1     -34.990  15.976  -2.153  1.00 20.00     0.240 C 
HETATM    4  C4  UNL     1     -35.565  15.259  -3.370  1.00 20.00     0.027 C 
HETATM    5  N11 UNL     1     -33.517  16.180  -2.463  1.00 20.00    -0.070 N 
HETATM    6  H33 UNL     1     -32.985  15.677  -1.736  1.00 20.00     0.279 HD
ENDROOT
BRANCH   5   7
HETATM    7  C9  UNL     1     -33.071  17.606  -2.416  1.00 20.00     0.239 C 
BRANCH   7   8
HETATM    8  C10 UNL     1     -32.779  18.072  -0.983  1.00 20.00     0.007 C 
HETATM    9  C6  UNL     1     -33.661  19.263  -0.589  1.00 20.00     0.011 C 
BRANCH   8  10
HETATM   10  C8  UNL     1     -31.301  18.410  -0.707  1.00 20.00     0.001 C 
HETATM   11  C5  UNL     1     -30.913  18.303   0.761  1.00 20.00     0.005 C 
ENDBRANCH   8  10
ENDBRANCH   7   8
ENDBRANCH   5   7
BRANCH   4  12
HETATM   12  C7  UNL     1     -36.173  16.236  -4.376  1.00 20.00     0.121 C 
HETATM   13 CL12 UNL     1     -36.340  15.465  -5.966  1.00 20.00    -0.130 Cl
ENDBRANCH   4  12
TORSDOF 4
ENDMDL
MODEL 5
REMARK VINA RESULT:      -3.6      1.629      4.065
REMARK  4 active torsions:
REMARK  status: ('A' for Active; 'I' for Inactive)
REMARK    1  A    between atoms: C4_4  and  C7_7 
REMARK    2  A    between atoms: C8_8  and  C10_10 
REMARK    3  A    between atoms: C9_9  and  C10_10 
REMARK    4  A    between atoms: C9_9  and  N11_11 
ROOT
HETATM    1  C1  UNL     1     -33.609  16.309  -2.654  1.00 20.00     0.035 C 
HETATM    2  C2  UNL     1     -33.686  17.286  -3.810  1.00 20.00     0.235 C 
HETATM    3  C3  UNL     1     -35.914  16.414  -3.280  1.00 20.00     0.240 C 
HETATM    4  C4  UNL     1     -34.838  15.428  -2.838  1.00 20.00     0.027 C 
HETATM    5  N11 UNL     1     -35.167  17.549  -3.959  1.00 20.00    -0.070 N 
HETATM    6  H33 UNL     1     -35.373  18.407  -3.423  1.00 20.00     0.279 HD
ENDROOT
BRANCH   5   7
HETATM    7  C9  UNL     1     -35.594  17.808  -5.369  1.00 20.00     0.239 C 
BRANCH   7   8
HETATM    8  C10 UNL     1     -34.555  17.314  -6.385  1.00 20.00     0.007 C 
HETATM    9  C6  UNL     1     -34.172  18.418  -7.378  1.00 20.00     0.011 C 
BRANCH   8  10
HETATM   10  C8  UNL     1     -34.966  16.044  -7.157  1.00 20.00     0.001 C 
HETATM   11  C5  UNL     1     -33.805  15.102  -7.446  1.00 20.00     0.005 C 
ENDBRANCH   8  10
ENDBRANCH   7   8
ENDBRANCH   5   7
BRANCH   4  12
HETATM   12  C7  UNL     1     -34.616  14.323  -3.871  1.00 20.00     0.121 C 
HETATM   13 CL12 UNL     1     -36.169  13.755  -4.515  1.00 20.00    -0.130 Cl
ENDBRANCH   4  12
TORSDOF 4
ENDMDL
MODEL 6
REMARK VINA RESULT:      -3.6      2.988      4.892
REMARK  4 active torsions:
REMARK  status: ('A' for Active; 'I' for Inactive)
REMARK    1  A    between atoms: C4_4  and  C7_7 
REMARK    2  A    between atoms: C8_8  and  C10_10 
REMARK    3  A    between atoms: C9_9  and  C10_10 
REMARK    4  A    between atoms: C9_9  and  N11_11 
ROOT
HETATM    1  C1  UNL     1     -36.664  18.705  -0.545  1.00 20.00     0.035 C 
HETATM    2  C2  UNL     1     -36.900  18.180  -1.947  1.00 20.00     0.235 C 
HETATM    3  C3  UNL     1     -35.260  16.784  -0.776  1.00 20.00     0.240 C 
HETATM    4  C4  UNL     1     -35.275  18.193  -0.191  1.00 20.00     0.027 C 
HETATM    5  N11 UNL     1     -36.242  16.819  -1.935  1.00 20.00    -0.070 N 
HETATM    6  H33 UNL     1     -36.982  16.132  -1.721  1.00 20.00     0.279 HD
ENDROOT
BRANCH   5   7
HETATM    7  C9  UNL     1     -35.653  16.423  -3.251  1.00 20.00     0.239 C 
BRANCH   7   8
HETATM    8  C10 UNL     1     -34.533  15.386  -3.093  1.00 20.00     0.007 C 
HETATM    9  C6  UNL     1     -33.170  15.966  -3.492  1.00 20.00     0.011 C 
BRANCH   8  10
HETATM   10  C8  UNL     1     -34.772  14.063  -3.848  1.00 20.00     0.001 C 
HETATM   11  C5  UNL     1     -36.180  13.927  -4.411  1.00 20.00     0.005 C 
ENDBRANCH   8  10
ENDBRANCH   7   8
ENDBRANCH   5   7
BRANCH   4  12
HETATM   12  C7  UNL     1     -34.164  19.066  -0.774  1.00 20.00     0.121 C 
HETATM   13 CL12 UNL     1     -32.605  18.222  -0.693  1.00 20.00    -0.130 Cl
ENDBRANCH   4  12
TORSDOF 4
ENDMDL
MODEL 7
REMARK VINA RESULT:      -3.5      1.999      2.719
REMARK  4 active torsions:
REMARK  status: ('A' for Active; 'I' for Inactive)
REMARK    1  A    between atoms: C4_4  and  C7_7 
REMARK    2  A    between atoms: C8_8  and  C10_10 
REMARK    3  A    between atoms: C9_9  and  C10_10 
REMARK    4  A    between atoms: C9_9  and  N11_11 
ROOT
HETATM    1  C1  UNL     1     -36.840  15.931  -6.710  1.00 20.00     0.035 C 
HETATM    2  C2  UNL     1     -35.646  15.096  -6.297  1.00 20.00     0.235 C 
HETATM    3  C3  UNL     1     -37.407  14.967  -4.597  1.00 20.00     0.240 C 
HETATM    4  C4  UNL     1     -37.528  16.263  -5.392  1.00 20.00     0.027 C 
HETATM    5  N11 UNL     1     -36.165  14.278  -5.135  1.00 20.00    -0.070 N 
HETATM    6  H33 UNL     1     -36.469  13.371  -5.522  1.00 20.00     0.279 HD
ENDROOT
BRANCH   5   7
HETATM    7  C9  UNL     1     -35.129  13.980  -4.099  1.00 20.00     0.239 C 
BRANCH   7   8
HETATM    8  C10 UNL     1     -34.127  15.132  -3.937  1.00 20.00     0.007 C 
HETATM    9  C6  UNL     1     -32.692  14.670  -4.217  1.00 20.00     0.011 C 
BRANCH   8  10
HETATM   10  C8  UNL     1     -34.184  15.845  -2.572  1.00 20.00     0.001 C 
HETATM   11  C5  UNL     1     -33.209  17.008  -2.448  1.00 20.00     0.005 C 
ENDBRANCH   8  10
ENDBRANCH   7   8
ENDBRANCH   5   7
BRANCH   4  12
HETATM   12  C7  UNL     1     -36.872  17.441  -4.671  1.00 20.00     0.121 C 
HETATM   13 CL12 UNL     1     -37.403  17.505  -2.979  1.00 20.00    -0.130 Cl
ENDBRANCH   4  12
TORSDOF 4
ENDMDL
MODEL 8
REMARK VINA RESULT:      -3.5      1.777      4.054
REMARK  4 active torsions:
REMARK  status: ('A' for Active; 'I' for Inactive)
REMARK    1  A    between atoms: C4_4  and  C7_7 
REMARK    2  A    between atoms: C8_8  and  C10_10 
REMARK    3  A    between atoms: C9_9  and  C10_10 
REMARK    4  A    between atoms: C9_9  and  N11_11 
ROOT
HETATM    1  C1  UNL     1     -33.256  14.822  -4.178  1.00 20.00     0.035 C 
HETATM    2  C2  UNL     1     -34.071  15.167  -5.408  1.00 20.00     0.235 C 
HETATM    3  C3  UNL     1     -33.657  17.176  -4.066  1.00 20.00     0.240 C 
HETATM    4  C4  UNL     1     -33.598  15.929  -3.190  1.00 20.00     0.027 C 
HETATM    5  N11 UNL     1     -34.031  16.678  -5.451  1.00 20.00    -0.070 N 
HETATM    6  H33 UNL     1     -33.257  16.938  -6.083  1.00 20.00     0.279 HD
ENDROOT
BRANCH   5   7
HETATM    7  C9  UNL     1     -35.272  17.297  -6.013  1.00 20.00     0.239 C 
BRANCH   7   8
HETATM    8  C10 UNL     1     -36.410  16.278  -6.155  1.00 20.00     0.007 C 
HETATM    9  C6  UNL     1     -37.041  16.332  -7.552  1.00 20.00     0.011 C 
BRANCH   8  10
HETATM   10  C8  UNL     1     -37.514  16.396  -5.085  1.00 20.00     0.001 C 
HETATM   11  C5  UNL     1     -37.900  15.065  -4.456  1.00 20.00     0.005 C 
ENDBRANCH   8  10
ENDBRANCH   7   8
ENDBRANCH   5   7
BRANCH   4  12
HETATM   12  C7  UNL     1     -34.920  15.676  -2.465  1.00 20.00     0.121 C 
HETATM   13 CL12 UNL     1     -35.076  16.756  -1.065  1.00 20.00    -0.130 Cl
ENDBRANCH   4  12
TORSDOF 4
ENDMDL
MODEL 9
REMARK VINA RESULT:      -3.5      1.883      2.830
REMARK  4 active torsions:
REMARK  status: ('A' for Active; 'I' for Inactive)
REMARK    1  A    between atoms: C4_4  and  C7_7 
REMARK    2  A    between atoms: C8_8  and  C10_10 
REMARK    3  A    between atoms: C9_9  and  C10_10 
REMARK    4  A    between atoms: C9_9  and  N11_11 
ROOT
HETATM    1  C1  UNL     1     -36.184  13.762  -4.673  1.00 20.00     0.035 C 
HETATM    2  C2  UNL     1     -34.891  13.952  -3.907  1.00 20.00     0.235 C 
HETATM    3  C3  UNL     1     -35.749  16.113  -4.682  1.00 20.00     0.240 C 
HETATM    4  C4  UNL     1     -36.258  14.986  -5.575  1.00 20.00     0.027 C 
HETATM    5  N11 UNL     1     -34.825  15.445  -3.678  1.00 20.00    -0.070 N 
HETATM    6  H33 UNL     1     -35.223  15.620  -2.742  1.00 20.00     0.279 HD
ENDROOT
BRANCH   5   7
HETATM    7  C9  UNL     1     -33.434  15.992  -3.664  1.00 20.00     0.239 C 
BRANCH   7   8
HETATM    8  C10 UNL     1     -33.172  16.872  -2.434  1.00 20.00     0.007 C 
HETATM    9  C6  UNL     1     -34.395  16.922  -1.510  1.00 20.00     0.011 C 
BRANCH   8  10
HETATM   10  C8  UNL     1     -32.711  18.307  -2.758  1.00 20.00     0.001 C 
HETATM   11  C5  UNL     1     -33.077  18.764  -4.164  1.00 20.00     0.005 C 
ENDBRANCH   8  10
ENDBRANCH   7   8
ENDBRANCH   5   7
BRANCH   4  12
HETATM   12  C7  UNL     1     -35.412  14.832  -6.839  1.00 20.00     0.121 C 
HETATM   13 CL12 UNL     1     -34.443  16.293  -7.119  1.00 20.00    -0.130 Cl
ENDBRANCH   4  12
TORSDOF 4
ENDMDL
