MODEL 1
REMARK VINA RESULT:      -4.9      0.000      0.000
REMARK  3 active torsions:
REMARK  status: ('A' for Active; 'I' for Inactive)
REMARK    1  A    between atoms: C6_6  and  C7_7 
REMARK    2  A    between atoms: C7_7  and  C8_8 
REMARK    3  A    between atoms: C8_8  and  N9_9 
ROOT
HETATM    1  C1  UNL     1     -34.342   4.487   3.693  1.00 20.00     0.052 C 
HETATM    2  C2  UNL     1     -33.282   5.129   2.799  1.00 20.00     0.274 C 
HETATM    3  C3  UNL     1     -33.708   6.663   4.500  1.00 20.00     0.292 C 
HETATM    4  C4  UNL     1     -34.790   5.605   4.631  1.00 20.00     0.112 C 
HETATM    5  N9  UNL     1     -33.391   6.563   3.074  1.00 20.00     0.089 N 
HETATM    6 CL10 UNL     1     -34.987   5.052   6.303  1.00 20.00    -0.123 Cl
ENDROOT
BRANCH   5   7
HETATM    7  C8  UNL     1     -32.183   7.292   2.719  1.00 20.00     0.272 C 
BRANCH   7   8
HETATM    8  C7  UNL     1     -32.128   7.638   1.235  1.00 20.00     0.030 C 
BRANCH   8   9
HETATM    9  C6  UNL     1     -32.867   8.937   0.906  1.00 20.00    -0.003 C 
HETATM   10  C5  UNL     1     -33.547   8.861  -0.453  1.00 20.00     0.005 C 
ENDBRANCH   8   9
ENDBRANCH   7   8
ENDBRANCH   5   7
TORSDOF 3
ENDMDL
MODEL 2
REMARK VINA RESULT:      -3.8     16.079     16.818
REMARK  3 active torsions:
REMARK  status: ('A' for Active; 'I' for Inactive)
REMARK    1  A    between atoms: C6_6  and  C7_7 
REMARK    2  A    between atoms: C7_7  and  C8_8 
REMARK    3  A    between atoms: C8_8  and  N9_9 
ROOT
HETATM    1  C1  UNL     1     -22.527  17.779   7.852  1.00 20.00     0.052 C 
HETATM    2  C2  UNL     1     -22.339  17.009   9.159  1.00 20.00     0.274 C 
HETATM    3  C3  UNL     1     -24.038  18.553   9.557  1.00 20.00     0.292 C 
HETATM    4  C4  UNL     1     -23.444  18.944   8.215  1.00 20.00     0.112 C 
HETATM    5  N9  UNL     1     -22.894  17.892  10.187  1.00 20.00     0.089 N 
HETATM    6 CL10 UNL     1     -24.690  19.236   6.990  1.00 20.00    -0.123 Cl
ENDROOT
BRANCH   5   7
HETATM    7  C8  UNL     1     -23.262  17.175  11.399  1.00 20.00     0.272 C 
BRANCH   7   8
HETATM    8  C7  UNL     1     -24.434  16.225  11.180  1.00 20.00     0.030 C 
BRANCH   8   9
HETATM    9  C6  UNL     1     -25.449  16.268  12.325  1.00 20.00    -0.003 C 
HETATM   10  C5  UNL     1     -26.222  17.578  12.332  1.00 20.00     0.005 C 
ENDBRANCH   8   9
ENDBRANCH   7   8
ENDBRANCH   5   7
TORSDOF 3
ENDMDL
MODEL 3
REMARK VINA RESULT:      -3.7     15.450     16.412
REMARK  3 active torsions:
REMARK  status: ('A' for Active; 'I' for Inactive)
REMARK    1  A    between atoms: C6_6  and  C7_7 
REMARK    2  A    between atoms: C7_7  and  C8_8 
REMARK    3  A    between atoms: C8_8  and  N9_9 
ROOT
HETATM    1  C1  UNL     1     -23.964  16.205  11.633  1.00 20.00     0.052 C 
HETATM    2  C2  UNL     1     -25.235  16.811  12.226  1.00 20.00     0.274 C 
HETATM    3  C3  UNL     1     -24.506  18.305  10.593  1.00 20.00     0.292 C 
HETATM    4  C4  UNL     1     -23.369  17.313  10.769  1.00 20.00     0.112 C 
HETATM    5  N9  UNL     1     -25.141  18.238  11.910  1.00 20.00     0.089 N 
HETATM    6 CL10 UNL     1     -22.759  16.713   9.217  1.00 20.00    -0.123 Cl
ENDROOT
BRANCH   5   7
HETATM    7  C8  UNL     1     -26.435  18.903  11.941  1.00 20.00     0.272 C 
BRANCH   7   8
HETATM    8  C7  UNL     1     -27.569  17.951  12.310  1.00 20.00     0.030 C 
BRANCH   8   9
HETATM    9  C6  UNL     1     -28.910  18.372  11.705  1.00 20.00    -0.003 C 
HETATM   10  C5  UNL     1     -29.922  17.237  11.754  1.00 20.00     0.005 C 
ENDBRANCH   8   9
ENDBRANCH   7   8
ENDBRANCH   5   7
TORSDOF 3
ENDMDL
MODEL 4
REMARK VINA RESULT:      -3.7     11.111     12.010
REMARK  3 active torsions:
REMARK  status: ('A' for Active; 'I' for Inactive)
REMARK    1  A    between atoms: C6_6  and  C7_7 
REMARK    2  A    between atoms: C7_7  and  C8_8 
REMARK    3  A    between atoms: C8_8  and  N9_9 
ROOT
HETATM    1  C1  UNL     1     -35.023  14.838  -3.398  1.00 20.00     0.052 C 
HETATM    2  C2  UNL     1     -35.037  15.907  -2.306  1.00 20.00     0.274 C 
HETATM    3  C3  UNL     1     -33.200  16.386  -3.657  1.00 20.00     0.292 C 
HETATM    4  C4  UNL     1     -33.679  15.014  -4.099  1.00 20.00     0.112 C 
HETATM    5  N9  UNL     1     -33.661  16.409  -2.268  1.00 20.00     0.089 N 
HETATM    6 CL10 UNL     1     -33.809  14.886  -5.862  1.00 20.00    -0.123 Cl
ENDROOT
BRANCH   5   7
HETATM    7  C8  UNL     1     -33.567  17.732  -1.670  1.00 20.00     0.272 C 
BRANCH   7   8
HETATM    8  C7  UNL     1     -32.131  18.114  -1.327  1.00 20.00     0.030 C 
BRANCH   8   9
HETATM    9  C6  UNL     1     -32.003  18.728   0.069  1.00 20.00    -0.003 C 
HETATM   10  C5  UNL     1     -30.776  18.201   0.797  1.00 20.00     0.005 C 
ENDBRANCH   8   9
ENDBRANCH   7   8
ENDBRANCH   5   7
TORSDOF 3
ENDMDL
MODEL 5
REMARK VINA RESULT:      -3.7      9.667     10.351
REMARK  3 active torsions:
REMARK  status: ('A' for Active; 'I' for Inactive)
REMARK    1  A    between atoms: C6_6  and  C7_7 
REMARK    2  A    between atoms: C7_7  and  C8_8 
REMARK    3  A    between atoms: C8_8  and  N9_9 
ROOT
HETATM    1  C1  UNL     1     -41.115   6.877   0.701  1.00 20.00     0.052 C 
HETATM    2  C2  UNL     1     -41.522   5.651  -0.117  1.00 20.00     0.274 C 
HETATM    3  C3  UNL     1     -42.866   7.402  -0.863  1.00 20.00     0.292 C 
HETATM    4  C4  UNL     1     -42.177   7.926   0.385  1.00 20.00     0.112 C 
HETATM    5  N9  UNL     1     -42.870   5.963  -0.596  1.00 20.00     0.089 N 
HETATM    6 CL10 UNL     1     -41.488   9.540   0.142  1.00 20.00    -0.123 Cl
ENDROOT
BRANCH   5   7
HETATM    7  C8  UNL     1     -43.242   5.179  -1.765  1.00 20.00     0.272 C 
BRANCH   7   8
HETATM    8  C7  UNL     1     -42.176   4.155  -2.140  1.00 20.00     0.030 C 
BRANCH   8   9
HETATM    9  C6  UNL     1     -42.738   3.001  -2.975  1.00 20.00    -0.003 C 
HETATM   10  C5  UNL     1     -41.761   2.574  -4.060  1.00 20.00     0.005 C 
ENDBRANCH   8   9
ENDBRANCH   7   8
ENDBRANCH   5   7
TORSDOF 3
ENDMDL
MODEL 6
REMARK VINA RESULT:      -3.6     10.743     11.539
REMARK  3 active torsions:
REMARK  status: ('A' for Active; 'I' for Inactive)
REMARK    1  A    between atoms: C6_6  and  C7_7 
REMARK    2  A    between atoms: C7_7  and  C8_8 
REMARK    3  A    between atoms: C8_8  and  N9_9 
ROOT
HETATM    1  C1  UNL     1     -36.242  13.625  -4.623  1.00 20.00     0.052 C 
HETATM    2  C2  UNL     1     -34.916  13.964  -3.941  1.00 20.00     0.274 C 
HETATM    3  C3  UNL     1     -36.309  15.801  -3.598  1.00 20.00     0.292 C 
HETATM    4  C4  UNL     1     -37.030  14.932  -4.614  1.00 20.00     0.112 C 
HETATM    5  N9  UNL     1     -34.916  15.426  -3.849  1.00 20.00     0.089 N 
HETATM    6 CL10 UNL     1     -38.736  14.694  -4.199  1.00 20.00    -0.123 Cl
ENDROOT
BRANCH   5   7
HETATM    7  C8  UNL     1     -34.011  15.920  -2.822  1.00 20.00     0.272 C 
BRANCH   7   8
HETATM    8  C7  UNL     1     -34.750  16.595  -1.672  1.00 20.00     0.030 C 
BRANCH   8   9
HETATM    9  C6  UNL     1     -33.934  17.718  -1.027  1.00 20.00    -0.003 C 
HETATM   10  C5  UNL     1     -32.575  17.870  -1.693  1.00 20.00     0.005 C 
ENDBRANCH   8   9
ENDBRANCH   7   8
ENDBRANCH   5   7
TORSDOF 3
ENDMDL
MODEL 7
REMARK VINA RESULT:      -3.6     11.416     12.110
REMARK  3 active torsions:
REMARK  status: ('A' for Active; 'I' for Inactive)
REMARK    1  A    between atoms: C6_6  and  C7_7 
REMARK    2  A    between atoms: C7_7  and  C8_8 
REMARK    3  A    between atoms: C8_8  and  N9_9 
ROOT
HETATM    1  C1  UNL     1     -37.665  14.412  -4.320  1.00 20.00     0.052 C 
HETATM    2  C2  UNL     1     -36.223  13.968  -4.568  1.00 20.00     0.274 C 
HETATM    3  C3  UNL     1     -36.356  16.175  -5.304  1.00 20.00     0.292 C 
HETATM    4  C4  UNL     1     -37.791  15.749  -5.046  1.00 20.00     0.112 C 
HETATM    5  N9  UNL     1     -35.731  14.885  -5.598  1.00 20.00     0.089 N 
HETATM    6 CL10 UNL     1     -38.688  16.952  -4.104  1.00 20.00    -0.123 Cl
ENDROOT
BRANCH   5   7
HETATM    7  C8  UNL     1     -34.278  14.963  -5.627  1.00 20.00     0.272 C 
BRANCH   7   8
HETATM    8  C7  UNL     1     -33.649  14.605  -4.285  1.00 20.00     0.030 C 
BRANCH   8   9
HETATM    9  C6  UNL     1     -33.169  15.837  -3.513  1.00 20.00    -0.003 C 
HETATM   10  C5  UNL     1     -34.111  16.177  -2.368  1.00 20.00     0.005 C 
ENDBRANCH   8   9
ENDBRANCH   7   8
ENDBRANCH   5   7
TORSDOF 3
ENDMDL
MODEL 8
REMARK VINA RESULT:      -3.6     10.975     11.849
REMARK  3 active torsions:
REMARK  status: ('A' for Active; 'I' for Inactive)
REMARK    1  A    between atoms: C6_6  and  C7_7 
REMARK    2  A    between atoms: C7_7  and  C8_8 
REMARK    3  A    between atoms: C8_8  and  N9_9 
ROOT
HETATM    1  C1  UNL     1     -34.328  17.175  -1.181  1.00 20.00     0.052 C 
HETATM    2  C2  UNL     1     -34.927  16.179  -2.173  1.00 20.00     0.274 C 
HETATM    3  C3  UNL     1     -33.033  17.059  -3.206  1.00 20.00     0.292 C 
HETATM    4  C4  UNL     1     -33.260  17.922  -1.976  1.00 20.00     0.112 C 
HETATM    5  N9  UNL     1     -34.394  16.591  -3.473  1.00 20.00     0.089 N 
HETATM    6 CL10 UNL     1     -31.771  18.170  -1.049  1.00 20.00    -0.123 Cl
ENDROOT
BRANCH   5   7
HETATM    7  C8  UNL     1     -34.432  15.519  -4.457  1.00 20.00     0.272 C 
BRANCH   7   8
HETATM    8  C7  UNL     1     -34.866  14.189  -3.851  1.00 20.00     0.030 C 
BRANCH   8   9
HETATM    9  C6  UNL     1     -36.081  13.588  -4.562  1.00 20.00    -0.003 C 
HETATM   10  C5  UNL     1     -37.321  14.445  -4.363  1.00 20.00     0.005 C 
ENDBRANCH   8   9
ENDBRANCH   7   8
ENDBRANCH   5   7
TORSDOF 3
ENDMDL
MODEL 9
REMARK VINA RESULT:      -3.6     11.245     12.105
REMARK  3 active torsions:
REMARK  status: ('A' for Active; 'I' for Inactive)
REMARK    1  A    between atoms: C6_6  and  C7_7 
REMARK    2  A    between atoms: C7_7  and  C8_8 
REMARK    3  A    between atoms: C8_8  and  N9_9 
ROOT
HETATM    1  C1  UNL     1     -33.283  18.534   0.782  1.00 20.00     0.052 C 
HETATM    2  C2  UNL     1     -33.985  17.792  -0.355  1.00 20.00     0.274 C 
HETATM    3  C3  UNL     1     -31.806  18.176  -1.083  1.00 20.00     0.292 C 
HETATM    4  C4  UNL     1     -31.960  19.003   0.182  1.00 20.00     0.112 C 
HETATM    5  N9  UNL     1     -33.194  18.111  -1.545  1.00 20.00     0.089 N 
HETATM    6 CL10 UNL     1     -30.596  18.787   1.292  1.00 20.00    -0.123 Cl
ENDROOT
BRANCH   5   7
HETATM    7  C8  UNL     1     -33.381  17.143  -2.615  1.00 20.00     0.272 C 
BRANCH   7   8
HETATM    8  C7  UNL     1     -34.438  16.098  -2.276  1.00 20.00     0.030 C 
BRANCH   8   9
HETATM    9  C6  UNL     1     -34.592  15.041  -3.372  1.00 20.00    -0.003 C 
HETATM   10  C5  UNL     1     -33.319  14.900  -4.192  1.00 20.00     0.005 C 
ENDBRANCH   8   9
ENDBRANCH   7   8
ENDBRANCH   5   7
TORSDOF 3
ENDMDL
