MODEL 1
REMARK VINA RESULT:      -3.9      0.000      0.000
REMARK  1 active torsions:
REMARK  status: ('A' for Active; 'I' for Inactive)
REMARK    1  A    between atoms: C3_3  and  N9_9 
ROOT
HETATM    1  C4  UNL     1     -33.555  14.666  -4.191  1.00 20.00     0.041 C 
HETATM    2  C5  UNL     1     -34.962  14.206  -3.807  1.00 20.00     0.126 C 
HETATM    3  C6  UNL     1     -35.024  16.530  -4.492  1.00 20.00     0.145 C 
HETATM    4  C7  UNL     1     -33.606  16.181  -4.034  1.00 20.00     0.102 C 
HETATM    5  N9  UNL     1     -35.811  15.345  -4.152  1.00 20.00    -0.358 N 
HETATM    6 CL11 UNL     1     -33.365  16.646  -2.325  1.00 20.00    -0.123 Cl
ENDROOT
BRANCH   5   7
HETATM    7  C3  UNL     1     -37.189  15.296  -4.180  1.00 20.00     0.168 A 
HETATM    8  N8  UNL     1     -37.887  14.195  -4.348  1.00 20.00    -0.236 NA
HETATM    9  C1  UNL     1     -39.231  14.511  -4.326  1.00 20.00     0.126 A 
HETATM   10  C2  UNL     1     -39.534  15.844  -4.142  1.00 20.00     0.072 A 
HETATM   11  S10 UNL     1     -38.084  16.747  -3.988  1.00 20.00    -0.063 SA
ENDBRANCH   5   7
TORSDOF 1
ENDMDL
MODEL 2
REMARK VINA RESULT:      -3.8      1.481      1.849
REMARK  1 active torsions:
REMARK  status: ('A' for Active; 'I' for Inactive)
REMARK    1  A    between atoms: C3_3  and  N9_9 
ROOT
HETATM    1  C4  UNL     1     -34.459  15.344  -3.062  1.00 20.00     0.041 C 
HETATM    2  C5  UNL     1     -35.763  16.086  -3.354  1.00 20.00     0.126 C 
HETATM    3  C6  UNL     1     -35.872  13.852  -4.285  1.00 20.00     0.145 C 
HETATM    4  C7  UNL     1     -34.405  14.257  -4.128  1.00 20.00     0.102 C 
HETATM    5  N9  UNL     1     -36.616  15.071  -3.969  1.00 20.00    -0.358 N 
HETATM    6 CL11 UNL     1     -33.767  14.913  -5.664  1.00 20.00    -0.123 Cl
ENDROOT
BRANCH   5   7
HETATM    7  C3  UNL     1     -37.966  15.236  -4.198  1.00 20.00     0.168 A 
HETATM    8  N8  UNL     1     -38.811  14.246  -4.385  1.00 20.00    -0.236 NA
HETATM    9  C1  UNL     1     -40.073  14.770  -4.587  1.00 20.00     0.126 A 
HETATM   10  C2  UNL     1     -40.167  16.146  -4.551  1.00 20.00     0.072 A 
HETATM   11  S10 UNL     1     -38.621  16.821  -4.251  1.00 20.00    -0.063 SA
ENDBRANCH   5   7
TORSDOF 1
ENDMDL
MODEL 3
REMARK VINA RESULT:      -3.6      3.819      5.560
REMARK  1 active torsions:
REMARK  status: ('A' for Active; 'I' for Inactive)
REMARK    1  A    between atoms: C3_3  and  N9_9 
ROOT
HETATM    1  C4  UNL     1     -35.382  15.709  -3.395  1.00 20.00     0.041 C 
HETATM    2  C5  UNL     1     -34.793  16.075  -2.032  1.00 20.00     0.126 C 
HETATM    3  C6  UNL     1     -33.446  17.055  -3.792  1.00 20.00     0.145 C 
HETATM    4  C7  UNL     1     -34.209  15.855  -4.357  1.00 20.00     0.102 C 
HETATM    5  N9  UNL     1     -33.713  17.005  -2.355  1.00 20.00    -0.358 N 
HETATM    6 CL11 UNL     1     -33.186  14.390  -4.329  1.00 20.00    -0.123 Cl
ENDROOT
BRANCH   5   7
HETATM    7  C3  UNL     1     -33.045  17.764  -1.416  1.00 20.00     0.168 A 
HETATM    8  N8  UNL     1     -31.794  18.152  -1.533  1.00 20.00    -0.236 NA
HETATM    9  C1  UNL     1     -31.450  18.888  -0.416  1.00 20.00     0.126 A 
HETATM   10  C2  UNL     1     -32.441  19.047   0.530  1.00 20.00     0.072 A 
HETATM   11  S10 UNL     1     -33.866  18.248   0.010  1.00 20.00    -0.063 SA
ENDBRANCH   5   7
TORSDOF 1
ENDMDL
MODEL 4
REMARK VINA RESULT:      -3.6      3.868      5.587
REMARK  1 active torsions:
REMARK  status: ('A' for Active; 'I' for Inactive)
REMARK    1  A    between atoms: C3_3  and  N9_9 
ROOT
HETATM    1  C4  UNL     1     -33.948  15.089  -3.766  1.00 20.00     0.041 C 
HETATM    2  C5  UNL     1     -33.036  16.251  -3.370  1.00 20.00     0.126 C 
HETATM    3  C6  UNL     1     -35.017  16.259  -1.974  1.00 20.00     0.145 C 
HETATM    4  C7  UNL     1     -35.326  15.518  -3.277  1.00 20.00     0.102 C 
HETATM    5  N9  UNL     1     -33.684  16.820  -2.190  1.00 20.00    -0.358 N 
HETATM    6 CL11 UNL     1     -36.099  16.616  -4.456  1.00 20.00    -0.123 Cl
ENDROOT
BRANCH   5   7
HETATM    7  C3  UNL     1     -33.094  17.755  -1.365  1.00 20.00     0.168 A 
HETATM    8  N8  UNL     1     -31.958  18.362  -1.628  1.00 20.00    -0.236 NA
HETATM    9  C1  UNL     1     -31.664  19.227  -0.592  1.00 20.00     0.126 A 
HETATM   10  C2  UNL     1     -32.579  19.263   0.441  1.00 20.00     0.072 A 
HETATM   11  S10 UNL     1     -33.862  18.176   0.110  1.00 20.00    -0.063 SA
ENDBRANCH   5   7
TORSDOF 1
ENDMDL
MODEL 5
REMARK VINA RESULT:      -3.6      3.412      4.466
REMARK  1 active torsions:
REMARK  status: ('A' for Active; 'I' for Inactive)
REMARK    1  A    between atoms: C3_3  and  N9_9 
ROOT
HETATM    1  C4  UNL     1     -33.318  14.749  -4.312  1.00 20.00     0.041 C 
HETATM    2  C5  UNL     1     -33.045  15.958  -3.417  1.00 20.00     0.126 C 
HETATM    3  C6  UNL     1     -35.332  15.219  -3.112  1.00 20.00     0.145 C 
HETATM    4  C7  UNL     1     -34.832  14.746  -4.478  1.00 20.00     0.102 C 
HETATM    5  N9  UNL     1     -34.264  16.089  -2.621  1.00 20.00    -0.358 N 
HETATM    6 CL11 UNL     1     -35.327  15.892  -5.759  1.00 20.00    -0.123 Cl
ENDROOT
BRANCH   5   7
HETATM    7  C3  UNL     1     -34.381  16.915  -1.523  1.00 20.00     0.168 A 
HETATM    8  N8  UNL     1     -35.374  16.867  -0.663  1.00 20.00    -0.236 NA
HETATM    9  C1  UNL     1     -35.174  17.833   0.304  1.00 20.00     0.126 A 
HETATM   10  C2  UNL     1     -34.035  18.599   0.164  1.00 20.00     0.072 A 
HETATM   11  S10 UNL     1     -33.172  18.097  -1.229  1.00 20.00    -0.063 SA
ENDBRANCH   5   7
TORSDOF 1
ENDMDL
MODEL 6
REMARK VINA RESULT:      -3.5      2.734      4.416
REMARK  1 active torsions:
REMARK  status: ('A' for Active; 'I' for Inactive)
REMARK    1  A    between atoms: C3_3  and  N9_9 
ROOT
HETATM    1  C4  UNL     1     -35.996  13.594  -4.532  1.00 20.00     0.041 C 
HETATM    2  C5  UNL     1     -34.774  14.137  -3.791  1.00 20.00     0.126 C 
HETATM    3  C6  UNL     1     -36.296  15.954  -4.294  1.00 20.00     0.145 C 
HETATM    4  C7  UNL     1     -36.548  14.805  -5.272  1.00 20.00     0.102 C 
HETATM    5  N9  UNL     1     -35.098  15.544  -3.561  1.00 20.00    -0.358 N 
HETATM    6 CL11 UNL     1     -35.656  15.072  -6.798  1.00 20.00    -0.123 Cl
ENDROOT
BRANCH   5   7
HETATM    7  C3  UNL     1     -34.376  16.374  -2.730  1.00 20.00     0.168 A 
HETATM    8  N8  UNL     1     -33.137  16.752  -2.956  1.00 20.00    -0.236 NA
HETATM    9  C1  UNL     1     -32.726  17.574  -1.926  1.00 20.00     0.126 A 
HETATM   10  C2  UNL     1     -33.656  17.808  -0.934  1.00 20.00     0.072 A 
HETATM   11  S10 UNL     1     -35.107  16.971  -1.297  1.00 20.00    -0.063 SA
ENDBRANCH   5   7
TORSDOF 1
ENDMDL
MODEL 7
REMARK VINA RESULT:      -3.5      2.066      2.842
REMARK  1 active torsions:
REMARK  status: ('A' for Active; 'I' for Inactive)
REMARK    1  A    between atoms: C3_3  and  N9_9 
ROOT
HETATM    1  C4  UNL     1     -33.666  17.726  -1.122  1.00 20.00     0.041 C 
HETATM    2  C5  UNL     1     -34.964  17.207  -1.741  1.00 20.00     0.126 C 
HETATM    3  C6  UNL     1     -33.071  16.366  -2.998  1.00 20.00     0.145 C 
HETATM    4  C7  UNL     1     -32.654  17.640  -2.258  1.00 20.00     0.102 C 
HETATM    5  N9  UNL     1     -34.514  16.281  -2.779  1.00 20.00    -0.358 N 
HETATM    6 CL11 UNL     1     -32.791  19.063  -3.332  1.00 20.00    -0.123 Cl
ENDROOT
BRANCH   5   7
HETATM    7  C3  UNL     1     -35.350  15.413  -3.450  1.00 20.00     0.168 A 
HETATM    8  N8  UNL     1     -35.007  14.203  -3.832  1.00 20.00    -0.236 NA
HETATM    9  C1  UNL     1     -36.079  13.617  -4.475  1.00 20.00     0.126 A 
HETATM   10  C2  UNL     1     -37.219  14.389  -4.572  1.00 20.00     0.072 A 
HETATM   11  S10 UNL     1     -36.947  15.910  -3.830  1.00 20.00    -0.063 SA
ENDBRANCH   5   7
TORSDOF 1
ENDMDL
MODEL 8
REMARK VINA RESULT:      -3.5      2.883      3.809
REMARK  1 active torsions:
REMARK  status: ('A' for Active; 'I' for Inactive)
REMARK    1  A    between atoms: C3_3  and  N9_9 
ROOT
HETATM    1  C4  UNL     1     -35.102  16.151  -1.861  1.00 20.00     0.041 C 
HETATM    2  C5  UNL     1     -35.567  16.141  -3.317  1.00 20.00     0.126 C 
HETATM    3  C6  UNL     1     -33.168  16.472  -3.230  1.00 20.00     0.145 C 
HETATM    4  C7  UNL     1     -33.782  16.910  -1.898  1.00 20.00     0.102 C 
HETATM    5  N9  UNL     1     -34.323  16.197  -4.084  1.00 20.00    -0.358 N 
HETATM    6 CL11 UNL     1     -34.070  18.675  -1.890  1.00 20.00    -0.123 Cl
ENDROOT
BRANCH   5   7
HETATM    7  C3  UNL     1     -34.248  15.989  -5.445  1.00 20.00     0.168 A 
HETATM    8  N8  UNL     1     -33.871  14.859  -6.001  1.00 20.00    -0.236 NA
HETATM    9  C1  UNL     1     -33.909  15.002  -7.373  1.00 20.00     0.126 A 
HETATM   10  C2  UNL     1     -34.314  16.236  -7.840  1.00 20.00     0.072 A 
HETATM   11  S10 UNL     1     -34.664  17.264  -6.514  1.00 20.00    -0.063 SA
ENDBRANCH   5   7
TORSDOF 1
ENDMDL
MODEL 9
REMARK VINA RESULT:      -3.5      3.011      4.642
REMARK  1 active torsions:
REMARK  status: ('A' for Active; 'I' for Inactive)
REMARK    1  A    between atoms: C3_3  and  N9_9 
ROOT
HETATM    1  C4  UNL     1     -35.683  14.637  -6.176  1.00 20.00     0.041 C 
HETATM    2  C5  UNL     1     -35.205  16.016  -5.719  1.00 20.00     0.126 C 
HETATM    3  C6  UNL     1     -34.991  14.435  -3.895  1.00 20.00     0.145 C 
HETATM    4  C7  UNL     1     -36.045  13.923  -4.879  1.00 20.00     0.102 C 
HETATM    5  N9  UNL     1     -34.671  15.778  -4.380  1.00 20.00    -0.358 N 
HETATM    6 CL11 UNL     1     -37.685  14.389  -4.341  1.00 20.00    -0.123 Cl
ENDROOT
BRANCH   5   7
HETATM    7  C3  UNL     1     -33.931  16.701  -3.671  1.00 20.00     0.168 A 
HETATM    8  N8  UNL     1     -33.411  16.479  -2.484  1.00 20.00    -0.236 NA
HETATM    9  C1  UNL     1     -32.741  17.614  -2.072  1.00 20.00     0.126 A 
HETATM   10  C2  UNL     1     -32.762  18.679  -2.949  1.00 20.00     0.072 A 
HETATM   11  S10 UNL     1     -33.653  18.252  -4.350  1.00 20.00    -0.063 SA
ENDBRANCH   5   7
TORSDOF 1
ENDMDL
