MODEL 1
REMARK VINA RESULT:      -4.1      0.000      0.000
REMARK  3 active torsions:
REMARK  status: ('A' for Active; 'I' for Inactive)
REMARK    1  A    between atoms: C7_7  and  C9_9 
REMARK    2  A    between atoms: C8_8  and  C9_9 
REMARK    3  A    between atoms: C8_8  and  N10_10 
ROOT
HETATM    1  C1  UNL     1     -31.087  18.349   0.704  1.00 20.00     0.052 C 
HETATM    2  C2  UNL     1     -31.542  18.262  -0.752  1.00 20.00     0.274 C 
HETATM    3  C3  UNL     1     -33.487  18.285   0.531  1.00 20.00     0.292 C 
HETATM    4  C4  UNL     1     -32.363  18.627   1.495  1.00 20.00     0.112 C 
HETATM    5  N10 UNL     1     -32.922  18.754  -0.735  1.00 20.00     0.090 N 
HETATM    6 CL11 UNL     1     -32.455  17.684   2.992  1.00 20.00    -0.123 Cl
ENDROOT
BRANCH   5   7
HETATM    7  C8  UNL     1     -33.688  18.307  -1.888  1.00 20.00     0.276 C 
BRANCH   7   8
HETATM    8  C9  UNL     1     -33.727  16.779  -2.043  1.00 20.00     0.009 C 
HETATM    9  C6  UNL     1     -35.160  16.252  -1.915  1.00 20.00     0.011 C 
BRANCH   8  10
HETATM   10  C7  UNL     1     -33.098  16.267  -3.354  1.00 20.00     0.001 C 
HETATM   11  C5  UNL     1     -33.776  15.022  -3.909  1.00 20.00     0.005 C 
ENDBRANCH   8  10
ENDBRANCH   7   8
ENDBRANCH   5   7
TORSDOF 3
ENDMDL
MODEL 2
REMARK VINA RESULT:      -4.0      3.214      5.332
REMARK  3 active torsions:
REMARK  status: ('A' for Active; 'I' for Inactive)
REMARK    1  A    between atoms: C7_7  and  C9_9 
REMARK    2  A    between atoms: C8_8  and  C9_9 
REMARK    3  A    between atoms: C8_8  and  N10_10 
ROOT
HETATM    1  C1  UNL     1     -33.615  14.561  -4.353  1.00 20.00     0.052 C 
HETATM    2  C2  UNL     1     -33.133  15.825  -3.641  1.00 20.00     0.274 C 
HETATM    3  C3  UNL     1     -35.337  15.498  -2.956  1.00 20.00     0.292 C 
HETATM    4  C4  UNL     1     -34.950  14.226  -3.692  1.00 20.00     0.112 C 
HETATM    5  N10 UNL     1     -34.029  15.960  -2.489  1.00 20.00     0.090 N 
HETATM    6 CL11 UNL     1     -36.183  13.727  -4.862  1.00 20.00    -0.123 Cl
ENDROOT
BRANCH   5   7
HETATM    7  C8  UNL     1     -34.069  17.319  -1.971  1.00 20.00     0.276 C 
BRANCH   7   8
HETATM    8  C9  UNL     1     -32.679  17.912  -1.697  1.00 20.00     0.009 C 
HETATM    9  C6  UNL     1     -32.428  19.146  -2.571  1.00 20.00     0.011 C 
BRANCH   8  10
HETATM   10  C7  UNL     1     -32.427  18.261  -0.217  1.00 20.00     0.001 C 
HETATM   11  C5  UNL     1     -30.954  18.417   0.130  1.00 20.00     0.005 C 
ENDBRANCH   8  10
ENDBRANCH   7   8
ENDBRANCH   5   7
TORSDOF 3
ENDMDL
MODEL 3
REMARK VINA RESULT:      -3.9     13.928     14.567
REMARK  3 active torsions:
REMARK  status: ('A' for Active; 'I' for Inactive)
REMARK    1  A    between atoms: C7_7  and  C9_9 
REMARK    2  A    between atoms: C8_8  and  C9_9 
REMARK    3  A    between atoms: C8_8  and  N10_10 
ROOT
HETATM    1  C1  UNL     1     -26.712  16.859  12.332  1.00 20.00     0.052 C 
HETATM    2  C2  UNL     1     -25.238  16.693  11.965  1.00 20.00     0.274 C 
HETATM    3  C3  UNL     1     -25.774  18.912  11.497  1.00 20.00     0.292 C 
HETATM    4  C4  UNL     1     -26.963  18.364  12.269  1.00 20.00     0.112 C 
HETATM    5  N10 UNL     1     -24.698  18.055  11.995  1.00 20.00     0.090 N 
HETATM    6 CL11 UNL     1     -28.506  18.765  11.496  1.00 20.00    -0.123 Cl
ENDROOT
BRANCH   5   7
HETATM    7  C8  UNL     1     -23.474  18.186  11.218  1.00 20.00     0.276 C 
BRANCH   7   8
HETATM    8  C9  UNL     1     -23.660  17.878   9.725  1.00 20.00     0.009 C 
HETATM    9  C6  UNL     1     -23.629  19.164   8.892  1.00 20.00     0.011 C 
BRANCH   8  10
HETATM   10  C7  UNL     1     -22.641  16.868   9.163  1.00 20.00     0.001 C 
HETATM   11  C5  UNL     1     -21.889  17.376   7.941  1.00 20.00     0.005 C 
ENDBRANCH   8  10
ENDBRANCH   7   8
ENDBRANCH   5   7
TORSDOF 3
ENDMDL
MODEL 4
REMARK VINA RESULT:      -3.8      3.277      5.289
REMARK  3 active torsions:
REMARK  status: ('A' for Active; 'I' for Inactive)
REMARK    1  A    between atoms: C7_7  and  C9_9 
REMARK    2  A    between atoms: C8_8  and  C9_9 
REMARK    3  A    between atoms: C8_8  and  N10_10 
ROOT
HETATM    1  C1  UNL     1     -33.616  14.536  -4.322  1.00 20.00     0.052 C 
HETATM    2  C2  UNL     1     -33.156  15.851  -3.694  1.00 20.00     0.274 C 
HETATM    3  C3  UNL     1     -35.368  15.555  -3.024  1.00 20.00     0.292 C 
HETATM    4  C4  UNL     1     -34.959  14.237  -3.661  1.00 20.00     0.112 C 
HETATM    5  N10 UNL     1     -34.072  16.060  -2.569  1.00 20.00     0.090 N 
HETATM    6 CL11 UNL     1     -36.169  13.647  -4.813  1.00 20.00    -0.123 Cl
ENDROOT
BRANCH   5   7
HETATM    7  C8  UNL     1     -34.130  17.452  -2.149  1.00 20.00     0.276 C 
BRANCH   7   8
HETATM    8  C9  UNL     1     -33.199  17.776  -0.972  1.00 20.00     0.009 C 
HETATM    9  C6  UNL     1     -32.162  18.832  -1.369  1.00 20.00     0.011 C 
BRANCH   8  10
HETATM   10  C7  UNL     1     -33.937  18.225   0.304  1.00 20.00     0.001 C 
HETATM   11  C5  UNL     1     -35.210  17.438   0.581  1.00 20.00     0.005 C 
ENDBRANCH   8  10
ENDBRANCH   7   8
ENDBRANCH   5   7
TORSDOF 3
ENDMDL
MODEL 5
REMARK VINA RESULT:      -3.8      2.594      4.869
REMARK  3 active torsions:
REMARK  status: ('A' for Active; 'I' for Inactive)
REMARK    1  A    between atoms: C7_7  and  C9_9 
REMARK    2  A    between atoms: C8_8  and  C9_9 
REMARK    3  A    between atoms: C8_8  and  N10_10 
ROOT
HETATM    1  C1  UNL     1     -34.802  15.853  -2.385  1.00 20.00     0.052 C 
HETATM    2  C2  UNL     1     -34.595  17.016  -1.416  1.00 20.00     0.274 C 
HETATM    3  C3  UNL     1     -32.993  17.276  -3.089  1.00 20.00     0.292 C 
HETATM    4  C4  UNL     1     -33.930  16.191  -3.592  1.00 20.00     0.112 C 
HETATM    5  N10 UNL     1     -33.885  18.028  -2.204  1.00 20.00     0.090 N 
HETATM    6 CL11 UNL     1     -33.052  14.783  -4.213  1.00 20.00    -0.123 Cl
ENDROOT
BRANCH   5   7
HETATM    7  C8  UNL     1     -33.170  18.983  -1.371  1.00 20.00     0.276 C 
BRANCH   7   8
HETATM    8  C9  UNL     1     -32.563  18.359  -0.106  1.00 20.00     0.009 C 
HETATM    9  C6  UNL     1     -31.032  18.380  -0.166  1.00 20.00     0.011 C 
BRANCH   8  10
HETATM   10  C7  UNL     1     -33.042  19.012   1.205  1.00 20.00     0.001 C 
HETATM   11  C5  UNL     1     -33.818  18.065   2.109  1.00 20.00     0.005 C 
ENDBRANCH   8  10
ENDBRANCH   7   8
ENDBRANCH   5   7
TORSDOF 3
ENDMDL
MODEL 6
REMARK VINA RESULT:      -3.8      2.635      3.836
REMARK  3 active torsions:
REMARK  status: ('A' for Active; 'I' for Inactive)
REMARK    1  A    between atoms: C7_7  and  C9_9 
REMARK    2  A    between atoms: C8_8  and  C9_9 
REMARK    3  A    between atoms: C8_8  and  N10_10 
ROOT
HETATM    1  C1  UNL     1     -33.026  17.371  -2.352  1.00 20.00     0.052 C 
HETATM    2  C2  UNL     1     -33.060  16.164  -3.289  1.00 20.00     0.274 C 
HETATM    3  C3  UNL     1     -34.999  16.037  -2.003  1.00 20.00     0.292 C 
HETATM    4  C4  UNL     1     -34.414  17.410  -1.717  1.00 20.00     0.112 C 
HETATM    5  N10 UNL     1     -34.474  15.784  -3.346  1.00 20.00     0.090 N 
HETATM    6 CL11 UNL     1     -34.360  17.766   0.017  1.00 20.00    -0.123 Cl
ENDROOT
BRANCH   5   7
HETATM    7  C8  UNL     1     -34.663  14.405  -3.769  1.00 20.00     0.276 C 
BRANCH   7   8
HETATM    8  C9  UNL     1     -35.648  14.252  -4.938  1.00 20.00     0.009 C 
HETATM    9  C6  UNL     1     -37.097  14.347  -4.449  1.00 20.00     0.011 C 
BRANCH   8  10
HETATM   10  C7  UNL     1     -35.417  15.255  -6.085  1.00 20.00     0.001 C 
HETATM   11  C5  UNL     1     -34.097  15.052  -6.815  1.00 20.00     0.005 C 
ENDBRANCH   8  10
ENDBRANCH   7   8
ENDBRANCH   5   7
TORSDOF 3
ENDMDL
MODEL 7
REMARK VINA RESULT:      -3.7      2.566      4.682
REMARK  3 active torsions:
REMARK  status: ('A' for Active; 'I' for Inactive)
REMARK    1  A    between atoms: C7_7  and  C9_9 
REMARK    2  A    between atoms: C8_8  and  C9_9 
REMARK    3  A    between atoms: C8_8  and  N10_10 
ROOT
HETATM    1  C1  UNL     1     -33.404  16.070  -3.626  1.00 20.00     0.052 C 
HETATM    2  C2  UNL     1     -32.913  17.386  -3.026  1.00 20.00     0.274 C 
HETATM    3  C3  UNL     1     -34.841  16.819  -1.847  1.00 20.00     0.292 C 
HETATM    4  C4  UNL     1     -34.498  15.591  -2.675  1.00 20.00     0.112 C 
HETATM    5  N10 UNL     1     -33.520  17.431  -1.693  1.00 20.00     0.090 N 
HETATM    6 CL11 UNL     1     -35.908  14.944  -3.529  1.00 20.00    -0.123 Cl
ENDROOT
BRANCH   5   7
HETATM    7  C8  UNL     1     -33.590  18.782  -1.157  1.00 20.00     0.276 C 
BRANCH   7   8
HETATM    8  C9  UNL     1     -32.736  18.985   0.104  1.00 20.00     0.009 C 
HETATM    9  C6  UNL     1     -33.386  18.315   1.319  1.00 20.00     0.011 C 
BRANCH   8  10
HETATM   10  C7  UNL     1     -31.280  18.502  -0.042  1.00 20.00     0.001 C 
HETATM   11  C5  UNL     1     -30.493  18.538   1.260  1.00 20.00     0.005 C 
ENDBRANCH   8  10
ENDBRANCH   7   8
ENDBRANCH   5   7
TORSDOF 3
ENDMDL
MODEL 8
REMARK VINA RESULT:      -3.6      4.412      6.556
REMARK  3 active torsions:
REMARK  status: ('A' for Active; 'I' for Inactive)
REMARK    1  A    between atoms: C7_7  and  C9_9 
REMARK    2  A    between atoms: C8_8  and  C9_9 
REMARK    3  A    between atoms: C8_8  and  N10_10 
ROOT
HETATM    1  C1  UNL     1     -34.975  15.494  -7.261  1.00 20.00     0.052 C 
HETATM    2  C2  UNL     1     -34.138  15.035  -6.068  1.00 20.00     0.274 C 
HETATM    3  C3  UNL     1     -36.220  15.629  -5.205  1.00 20.00     0.292 C 
HETATM    4  C4  UNL     1     -36.395  15.622  -6.715  1.00 20.00     0.112 C 
HETATM    5  N10 UNL     1     -35.124  14.672  -5.046  1.00 20.00     0.090 N 
HETATM    6 CL11 UNL     1     -37.221  17.076  -7.300  1.00 20.00    -0.123 Cl
ENDROOT
BRANCH   5   7
HETATM    7  C8  UNL     1     -34.565  14.681  -3.703  1.00 20.00     0.276 C 
BRANCH   7   8
HETATM    8  C9  UNL     1     -34.435  16.089  -3.103  1.00 20.00     0.009 C 
HETATM    9  C6  UNL     1     -35.095  16.159  -1.722  1.00 20.00     0.011 C 
BRANCH   8  10
HETATM   10  C7  UNL     1     -32.983  16.598  -3.013  1.00 20.00     0.001 C 
HETATM   11  C5  UNL     1     -32.773  17.654  -1.938  1.00 20.00     0.005 C 
ENDBRANCH   8  10
ENDBRANCH   7   8
ENDBRANCH   5   7
TORSDOF 3
ENDMDL
MODEL 9
REMARK VINA RESULT:      -3.6      2.812      4.226
REMARK  3 active torsions:
REMARK  status: ('A' for Active; 'I' for Inactive)
REMARK    1  A    between atoms: C7_7  and  C9_9 
REMARK    2  A    between atoms: C8_8  and  C9_9 
REMARK    3  A    between atoms: C8_8  and  N10_10 
ROOT
HETATM    1  C1  UNL     1     -34.317  17.396  -1.409  1.00 20.00     0.052 C 
HETATM    2  C2  UNL     1     -35.035  16.209  -2.049  1.00 20.00     0.274 C 
HETATM    3  C3  UNL     1     -33.124  16.574  -3.331  1.00 20.00     0.292 C 
HETATM    4  C4  UNL     1     -32.955  17.444  -2.097  1.00 20.00     0.112 C 
HETATM    5  N10 UNL     1     -33.992  15.517  -2.811  1.00 20.00     0.090 N 
HETATM    6 CL11 UNL     1     -32.456  19.094  -2.505  1.00 20.00    -0.123 Cl
ENDROOT
BRANCH   5   7
HETATM    7  C8  UNL     1     -34.537  14.673  -3.863  1.00 20.00     0.276 C 
BRANCH   7   8
HETATM    8  C9  UNL     1     -35.015  15.459  -5.093  1.00 20.00     0.009 C 
HETATM    9  C6  UNL     1     -34.260  15.020  -6.352  1.00 20.00     0.011 C 
BRANCH   8  10
HETATM   10  C7  UNL     1     -36.534  15.372  -5.339  1.00 20.00     0.001 C 
HETATM   11  C5  UNL     1     -37.244  14.383  -4.426  1.00 20.00     0.005 C 
ENDBRANCH   8  10
ENDBRANCH   7   8
ENDBRANCH   5   7
TORSDOF 3
ENDMDL
