MODEL 1
REMARK VINA RESULT:      -4.5      0.000      0.000
REMARK  2 active torsions:
REMARK  status: ('A' for Active; 'I' for Inactive)
REMARK    1  A    between atoms: C3_3  and  C6_6 
REMARK    2  A    between atoms: C5_5  and  C6_6 
ROOT
HETATM    1  C6  UNL     1     -32.981   6.129   3.637  1.00 20.00     0.086 C 
HETATM    2 CL7  UNL     1     -33.450   4.999   2.331  1.00 20.00    -0.125 Cl
ENDROOT
BRANCH   1   3
HETATM    3  C3  UNL     1     -34.208   6.462   4.436  1.00 20.00     0.004 A 
HETATM    4  C1  UNL     1     -34.958   5.377   5.160  1.00 20.00     0.006 A 
HETATM    5  C2  UNL     1     -34.173   6.395   5.939  1.00 20.00     0.006 A 
ENDBRANCH   1   3
BRANCH   1   6
HETATM    6  C5  UNL     1     -32.325   7.391   3.064  1.00 20.00     0.016 C 
HETATM    7  C4  UNL     1     -32.527   7.553   1.564  1.00 20.00     0.006 C 
ENDBRANCH   1   6
TORSDOF 2
ENDMDL
MODEL 2
REMARK VINA RESULT:      -4.2      1.756      1.915
REMARK  2 active torsions:
REMARK  status: ('A' for Active; 'I' for Inactive)
REMARK    1  A    between atoms: C3_3  and  C6_6 
REMARK    2  A    between atoms: C5_5  and  C6_6 
ROOT
HETATM    1  C6  UNL     1     -33.646   6.803   3.912  1.00 20.00     0.086 C 
HETATM    2 CL7  UNL     1     -33.272   7.269   5.598  1.00 20.00    -0.125 Cl
ENDROOT
BRANCH   1   3
HETATM    3  C3  UNL     1     -34.236   5.422   3.924  1.00 20.00     0.004 A 
HETATM    4  C1  UNL     1     -34.693   4.805   5.217  1.00 20.00     0.006 A 
HETATM    5  C2  UNL     1     -35.704   5.229   4.189  1.00 20.00     0.006 A 
ENDBRANCH   1   3
BRANCH   1   6
HETATM    6  C5  UNL     1     -32.393   6.871   3.031  1.00 20.00     0.016 C 
HETATM    7  C4  UNL     1     -32.603   7.647   1.738  1.00 20.00     0.006 C 
ENDBRANCH   1   6
TORSDOF 2
ENDMDL
MODEL 3
REMARK VINA RESULT:      -3.9      0.953      3.454
REMARK  2 active torsions:
REMARK  status: ('A' for Active; 'I' for Inactive)
REMARK    1  A    between atoms: C3_3  and  C6_6 
REMARK    2  A    between atoms: C5_5  and  C6_6 
ROOT
HETATM    1  C6  UNL     1     -34.062   6.478   4.026  1.00 20.00     0.086 C 
HETATM    2 CL7  UNL     1     -34.299   4.797   3.463  1.00 20.00    -0.125 Cl
ENDROOT
BRANCH   1   3
HETATM    3  C3  UNL     1     -32.769   6.988   3.458  1.00 20.00     0.004 A 
HETATM    4  C1  UNL     1     -32.193   6.372   2.213  1.00 20.00     0.006 A 
HETATM    5  C2  UNL     1     -32.763   7.762   2.168  1.00 20.00     0.006 A 
ENDBRANCH   1   3
BRANCH   1   6
HETATM    6  C5  UNL     1     -34.071   6.552   5.558  1.00 20.00     0.016 C 
HETATM    7  C4  UNL     1     -34.726   5.348   6.220  1.00 20.00     0.006 C 
ENDBRANCH   1   6
TORSDOF 2
ENDMDL
MODEL 4
REMARK VINA RESULT:      -3.6      9.111      9.608
REMARK  2 active torsions:
REMARK  status: ('A' for Active; 'I' for Inactive)
REMARK    1  A    between atoms: C3_3  and  C6_6 
REMARK    2  A    between atoms: C5_5  and  C6_6 
ROOT
HETATM    1  C6  UNL     1     -41.302   6.715   0.204  1.00 20.00     0.086 C 
HETATM    2 CL7  UNL     1     -42.731   6.250   1.174  1.00 20.00    -0.125 Cl
ENDROOT
BRANCH   1   3
HETATM    3  C3  UNL     1     -41.594   8.023  -0.471  1.00 20.00     0.004 A 
HETATM    4  C1  UNL     1     -42.788   8.839  -0.057  1.00 20.00     0.006 A 
HETATM    5  C2  UNL     1     -41.401   9.318   0.271  1.00 20.00     0.006 A 
ENDBRANCH   1   3
BRANCH   1   6
HETATM    6  C5  UNL     1     -40.949   5.624  -0.814  1.00 20.00     0.016 C 
HETATM    7  C4  UNL     1     -42.167   4.987  -1.468  1.00 20.00     0.006 C 
ENDBRANCH   1   6
TORSDOF 2
ENDMDL
MODEL 5
REMARK VINA RESULT:      -3.6      1.779      2.080
REMARK  2 active torsions:
REMARK  status: ('A' for Active; 'I' for Inactive)
REMARK    1  A    between atoms: C3_3  and  C6_6 
REMARK    2  A    between atoms: C5_5  and  C6_6 
ROOT
HETATM    1  C6  UNL     1     -34.133   6.142   3.535  1.00 20.00     0.086 C 
HETATM    2 CL7  UNL     1     -32.587   7.022   3.353  1.00 20.00    -0.125 Cl
ENDROOT
BRANCH   1   3
HETATM    3  C3  UNL     1     -34.703   6.462   4.887  1.00 20.00     0.004 A 
HETATM    4  C1  UNL     1     -34.678   5.432   5.983  1.00 20.00     0.006 A 
HETATM    5  C2  UNL     1     -33.790   6.641   6.070  1.00 20.00     0.006 A 
ENDBRANCH   1   3
BRANCH   1   6
HETATM    6  C5  UNL     1     -33.933   4.632   3.353  1.00 20.00     0.016 C 
HETATM    7  C4  UNL     1     -33.029   4.278   2.180  1.00 20.00     0.006 C 
ENDBRANCH   1   6
TORSDOF 2
ENDMDL
MODEL 6
REMARK VINA RESULT:      -3.5     16.213     16.871
REMARK  2 active torsions:
REMARK  status: ('A' for Active; 'I' for Inactive)
REMARK    1  A    between atoms: C3_3  and  C6_6 
REMARK    2  A    between atoms: C5_5  and  C6_6 
ROOT
HETATM    1  C6  UNL     1     -24.358  17.945  10.608  1.00 20.00     0.086 C 
HETATM    2 CL7  UNL     1     -24.662  19.173   9.343  1.00 20.00    -0.125 Cl
ENDROOT
BRANCH   1   3
HETATM    3  C3  UNL     1     -25.033  18.392  11.872  1.00 20.00     0.004 A 
HETATM    4  C1  UNL     1     -26.269  19.246  11.810  1.00 20.00     0.006 A 
HETATM    5  C2  UNL     1     -26.367  17.816  12.262  1.00 20.00     0.006 A 
ENDBRANCH   1   3
BRANCH   1   6
HETATM    6  C5  UNL     1     -22.854  17.732  10.818  1.00 20.00     0.016 C 
HETATM    7  C4  UNL     1     -22.438  17.750  12.283  1.00 20.00     0.006 C 
ENDBRANCH   1   6
TORSDOF 2
ENDMDL
MODEL 7
REMARK VINA RESULT:      -3.5      8.954      9.438
REMARK  2 active torsions:
REMARK  status: ('A' for Active; 'I' for Inactive)
REMARK    1  A    between atoms: C3_3  and  C6_6 
REMARK    2  A    between atoms: C5_5  and  C6_6 
ROOT
HETATM    1  C6  UNL     1     -41.505   6.747   0.016  1.00 20.00     0.086 C 
HETATM    2 CL7  UNL     1     -40.780   5.427  -0.949  1.00 20.00    -0.125 Cl
ENDROOT
BRANCH   1   3
HETATM    3  C3  UNL     1     -42.952   6.423   0.248  1.00 20.00     0.004 A 
HETATM    4  C1  UNL     1     -43.387   4.997   0.446  1.00 20.00     0.006 A 
HETATM    5  C2  UNL     1     -43.416   5.957   1.602  1.00 20.00     0.006 A 
ENDBRANCH   1   3
BRANCH   1   6
HETATM    6  C5  UNL     1     -41.338   8.099  -0.688  1.00 20.00     0.016 C 
HETATM    7  C4  UNL     1     -41.485   9.292   0.246  1.00 20.00     0.006 C 
ENDBRANCH   1   6
TORSDOF 2
ENDMDL
MODEL 8
REMARK VINA RESULT:      -3.4     15.994     16.706
REMARK  2 active torsions:
REMARK  status: ('A' for Active; 'I' for Inactive)
REMARK    1  A    between atoms: C3_3  and  C6_6 
REMARK    2  A    between atoms: C5_5  and  C6_6 
ROOT
HETATM    1  C6  UNL     1     -24.646  17.476  11.063  1.00 20.00     0.086 C 
HETATM    2 CL7  UNL     1     -24.605  15.742  11.501  1.00 20.00    -0.125 Cl
ENDROOT
BRANCH   1   3
HETATM    3  C3  UNL     1     -23.262  17.894  10.658  1.00 20.00     0.004 A 
HETATM    4  C1  UNL     1     -22.564  17.201   9.520  1.00 20.00     0.006 A 
HETATM    5  C2  UNL     1     -23.040  18.617   9.357  1.00 20.00     0.006 A 
ENDBRANCH   1   3
BRANCH   1   6
HETATM    6  C5  UNL     1     -25.172  18.326  12.226  1.00 20.00     0.016 C 
HETATM    7  C4  UNL     1     -26.305  19.262  11.829  1.00 20.00     0.006 C 
ENDBRANCH   1   6
TORSDOF 2
ENDMDL
MODEL 9
REMARK VINA RESULT:      -3.4      9.070      9.955
REMARK  2 active torsions:
REMARK  status: ('A' for Active; 'I' for Inactive)
REMARK    1  A    between atoms: C3_3  and  C6_6 
REMARK    2  A    between atoms: C5_5  and  C6_6 
ROOT
HETATM    1  C6  UNL     1     -42.361   6.152  -0.461  1.00 20.00     0.086 C 
HETATM    2 CL7  UNL     1     -40.799   5.453  -0.984  1.00 20.00    -0.125 Cl
ENDROOT
BRANCH   1   3
HETATM    3  C3  UNL     1     -42.078   7.359   0.386  1.00 20.00     0.004 A 
HETATM    4  C1  UNL     1     -41.263   8.497  -0.164  1.00 20.00     0.006 A 
HETATM    5  C2  UNL     1     -42.737   8.675   0.072  1.00 20.00     0.006 A 
ENDBRANCH   1   3
BRANCH   1   6
HETATM    6  C5  UNL     1     -43.201   5.117   0.298  1.00 20.00     0.016 C 
HETATM    7  C4  UNL     1     -43.402   5.459   1.767  1.00 20.00     0.006 C 
ENDBRANCH   1   6
TORSDOF 2
ENDMDL
