MODEL 1
REMARK VINA RESULT:      -3.9      0.000      0.000
REMARK  3 active torsions:
REMARK  status: ('A' for Active; 'I' for Inactive)
REMARK    1  A    between atoms: C1_1  and  C7_7 
REMARK       I    between atoms: C1_1  and  N8_8 
REMARK    2  A    between atoms: C5_5  and  C6_6 
REMARK    3  A    between atoms: C5_5  and  N8_8 
ROOT
HETATM    1  C1  UNL     1     -34.006  16.442  -4.065  1.00 20.00     0.222 C 
HETATM    2  C4  UNL     1     -32.764  14.353  -4.480  1.00 20.00     0.152 C 
HETATM    3  N8  UNL     1     -33.781  15.324  -4.874  1.00 20.00    -0.355 N 
HETATM    4  O9  UNL     1     -34.394  17.526  -4.516  1.00 20.00    -0.273 OA
ENDROOT
BRANCH   1   5
HETATM    5  C7  UNL     1     -33.781  16.289  -2.557  1.00 20.00     0.070 C 
HETATM    6  C2  UNL     1     -35.125  16.212  -1.834  1.00 20.00     0.019 C 
HETATM    7  C3  UNL     1     -32.966  17.463  -2.006  1.00 20.00     0.019 C 
ENDBRANCH   1   5
BRANCH   3   8
HETATM    8  C5  UNL     1     -34.503  14.987  -6.099  1.00 20.00     0.140 C 
BRANCH   8   9
HETATM    9  C6  UNL     1     -35.972  14.688  -5.847  1.00 20.00     0.134 C 
HETATM   10 CL10 UNL     1     -36.178  13.544  -4.497  1.00 20.00    -0.129 Cl
ENDBRANCH   8   9
ENDBRANCH   3   8
TORSDOF 3
ENDMDL
MODEL 2
REMARK VINA RESULT:      -3.8     11.512     12.162
REMARK  3 active torsions:
REMARK  status: ('A' for Active; 'I' for Inactive)
REMARK    1  A    between atoms: C1_1  and  C7_7 
REMARK       I    between atoms: C1_1  and  N8_8 
REMARK    2  A    between atoms: C5_5  and  C6_6 
REMARK    3  A    between atoms: C5_5  and  N8_8 
ROOT
HETATM    1  C1  UNL     1     -33.550   6.420   4.424  1.00 20.00     0.222 C 
HETATM    2  C4  UNL     1     -32.911   5.366   2.290  1.00 20.00     0.152 C 
HETATM    3  N8  UNL     1     -33.055   6.555   3.123  1.00 20.00    -0.355 N 
HETATM    4  O9  UNL     1     -33.227   7.180   5.344  1.00 20.00    -0.273 OA
ENDROOT
BRANCH   1   5
HETATM    5  C7  UNL     1     -34.554   5.294   4.693  1.00 20.00     0.070 C 
HETATM    6  C2  UNL     1     -35.876   5.594   3.987  1.00 20.00     0.019 C 
HETATM    7  C3  UNL     1     -34.799   5.129   6.195  1.00 20.00     0.019 C 
ENDBRANCH   1   5
BRANCH   3   8
HETATM    8  C5  UNL     1     -32.685   7.807   2.467  1.00 20.00     0.140 C 
BRANCH   8   9
HETATM    9  C6  UNL     1     -32.383   7.624   0.988  1.00 20.00     0.134 C 
HETATM   10 CL10 UNL     1     -33.217   8.851   0.001  1.00 20.00    -0.129 Cl
ENDBRANCH   8   9
ENDBRANCH   3   8
TORSDOF 3
ENDMDL
MODEL 3
REMARK VINA RESULT:      -3.6      2.083      3.925
REMARK  3 active torsions:
REMARK  status: ('A' for Active; 'I' for Inactive)
REMARK    1  A    between atoms: C1_1  and  C7_7 
REMARK       I    between atoms: C1_1  and  N8_8 
REMARK    2  A    between atoms: C5_5  and  C6_6 
REMARK    3  A    between atoms: C5_5  and  N8_8 
ROOT
HETATM    1  C1  UNL     1     -34.239  15.030  -4.715  1.00 20.00     0.222 C 
HETATM    2  C4  UNL     1     -34.398  17.488  -4.825  1.00 20.00     0.152 C 
HETATM    3  N8  UNL     1     -33.852  16.279  -4.217  1.00 20.00    -0.355 N 
HETATM    4  O9  UNL     1     -33.501  14.039  -4.678  1.00 20.00    -0.273 OA
ENDROOT
BRANCH   1   5
HETATM    5  C7  UNL     1     -35.648  14.901  -5.303  1.00 20.00     0.070 C 
HETATM    6  C2  UNL     1     -36.401  13.767  -4.608  1.00 20.00     0.019 C 
HETATM    7  C3  UNL     1     -35.587  14.632  -6.809  1.00 20.00     0.019 C 
ENDBRANCH   1   5
BRANCH   3   8
HETATM    8  C5  UNL     1     -32.955  16.516  -3.088  1.00 20.00     0.140 C 
BRANCH   8   9
HETATM    9  C6  UNL     1     -33.661  17.163  -1.907  1.00 20.00     0.134 C 
HETATM   10 CL10 UNL     1     -35.156  16.288  -1.489  1.00 20.00    -0.129 Cl
ENDBRANCH   8   9
ENDBRANCH   3   8
TORSDOF 3
ENDMDL
MODEL 4
REMARK VINA RESULT:      -3.6      2.271      2.885
REMARK  3 active torsions:
REMARK  status: ('A' for Active; 'I' for Inactive)
REMARK    1  A    between atoms: C1_1  and  C7_7 
REMARK       I    between atoms: C1_1  and  N8_8 
REMARK    2  A    between atoms: C5_5  and  C6_6 
REMARK    3  A    between atoms: C5_5  and  N8_8 
ROOT
HETATM    1  C1  UNL     1     -34.984  14.870  -4.197  1.00 20.00     0.222 C 
HETATM    2  C4  UNL     1     -36.846  16.219  -5.086  1.00 20.00     0.152 C 
HETATM    3  N8  UNL     1     -35.902  15.116  -5.224  1.00 20.00    -0.355 N 
HETATM    4  O9  UNL     1     -34.548  13.741  -3.947  1.00 20.00    -0.273 OA
ENDROOT
BRANCH   1   5
HETATM    5  C7  UNL     1     -34.491  16.069  -3.379  1.00 20.00     0.070 C 
HETATM    6  C2  UNL     1     -32.963  16.090  -3.354  1.00 20.00     0.019 C 
HETATM    7  C3  UNL     1     -35.029  16.007  -1.947  1.00 20.00     0.019 C 
ENDBRANCH   1   5
BRANCH   3   8
HETATM    8  C5  UNL     1     -36.001  14.383  -6.485  1.00 20.00     0.140 C 
BRANCH   8   9
HETATM    9  C6  UNL     1     -35.429  15.162  -7.658  1.00 20.00     0.134 C 
HETATM   10 CL10 UNL     1     -33.648  15.189  -7.612  1.00 20.00    -0.129 Cl
ENDBRANCH   8   9
ENDBRANCH   3   8
TORSDOF 3
ENDMDL
MODEL 5
REMARK VINA RESULT:      -3.4      3.141      4.353
REMARK  3 active torsions:
REMARK  status: ('A' for Active; 'I' for Inactive)
REMARK    1  A    between atoms: C1_1  and  C7_7 
REMARK       I    between atoms: C1_1  and  N8_8 
REMARK    2  A    between atoms: C5_5  and  C6_6 
REMARK    3  A    between atoms: C5_5  and  N8_8 
ROOT
HETATM    1  C1  UNL     1     -37.569  14.943  -4.623  1.00 20.00     0.222 C 
HETATM    2  C4  UNL     1     -35.693  16.040  -5.787  1.00 20.00     0.152 C 
HETATM    3  N8  UNL     1     -36.191  15.052  -4.835  1.00 20.00    -0.355 N 
HETATM    4  O9  UNL     1     -38.114  13.880  -4.306  1.00 20.00    -0.273 OA
ENDROOT
BRANCH   1   5
HETATM    5  C7  UNL     1     -38.416  16.212  -4.769  1.00 20.00     0.070 C 
HETATM    6  C2  UNL     1     -38.420  16.991  -3.453  1.00 20.00     0.019 C 
HETATM    7  C3  UNL     1     -39.853  15.864  -5.165  1.00 20.00     0.019 C 
ENDBRANCH   1   5
BRANCH   3   8
HETATM    8  C5  UNL     1     -35.150  14.281  -4.157  1.00 20.00     0.140 C 
BRANCH   8   9
HETATM    9  C6  UNL     1     -34.206  15.158  -3.350  1.00 20.00     0.134 C 
HETATM   10 CL10 UNL     1     -35.064  15.986  -2.027  1.00 20.00    -0.129 Cl
ENDBRANCH   8   9
ENDBRANCH   3   8
TORSDOF 3
ENDMDL
MODEL 6
REMARK VINA RESULT:      -3.3      3.133      4.213
REMARK  3 active torsions:
REMARK  status: ('A' for Active; 'I' for Inactive)
REMARK    1  A    between atoms: C1_1  and  C7_7 
REMARK       I    between atoms: C1_1  and  N8_8 
REMARK    2  A    between atoms: C5_5  and  C6_6 
REMARK    3  A    between atoms: C5_5  and  N8_8 
ROOT
HETATM    1  C1  UNL     1     -35.969  14.175  -4.555  1.00 20.00     0.222 C 
HETATM    2  C4  UNL     1     -36.930  16.234  -3.599  1.00 20.00     0.152 C 
HETATM    3  N8  UNL     1     -37.102  14.915  -4.198  1.00 20.00    -0.355 N 
HETATM    4  O9  UNL     1     -35.950  12.939  -4.548  1.00 20.00    -0.273 OA
ENDROOT
BRANCH   1   5
HETATM    5  C7  UNL     1     -34.721  14.948  -4.995  1.00 20.00     0.070 C 
HETATM    6  C2  UNL     1     -34.604  14.925  -6.519  1.00 20.00     0.019 C 
HETATM    7  C3  UNL     1     -33.460  14.344  -4.372  1.00 20.00     0.019 C 
ENDBRANCH   1   5
BRANCH   3   8
HETATM    8  C5  UNL     1     -38.492  14.513  -4.398  1.00 20.00     0.140 C 
BRANCH   8   9
HETATM    9  C6  UNL     1     -39.479  15.526  -3.841  1.00 20.00     0.134 C 
HETATM   10 CL10 UNL     1     -41.137  15.189  -4.397  1.00 20.00    -0.129 Cl
ENDBRANCH   8   9
ENDBRANCH   3   8
TORSDOF 3
ENDMDL
MODEL 7
REMARK VINA RESULT:      -3.3      2.005      2.320
REMARK  3 active torsions:
REMARK  status: ('A' for Active; 'I' for Inactive)
REMARK    1  A    between atoms: C1_1  and  C7_7 
REMARK       I    between atoms: C1_1  and  N8_8 
REMARK    2  A    between atoms: C5_5  and  C6_6 
REMARK    3  A    between atoms: C5_5  and  N8_8 
ROOT
HETATM    1  C1  UNL     1     -34.201  15.779  -3.123  1.00 20.00     0.222 C 
HETATM    2  C4  UNL     1     -35.466  13.888  -4.073  1.00 20.00     0.152 C 
HETATM    3  N8  UNL     1     -34.365  14.843  -4.150  1.00 20.00    -0.355 N 
HETATM    4  O9  UNL     1     -33.097  16.231  -2.802  1.00 20.00    -0.273 OA
ENDROOT
BRANCH   1   5
HETATM    5  C7  UNL     1     -35.459  16.270  -2.398  1.00 20.00     0.070 C 
HETATM    6  C2  UNL     1     -36.155  17.346  -3.231  1.00 20.00     0.019 C 
HETATM    7  C3  UNL     1     -35.106  16.834  -1.019  1.00 20.00     0.019 C 
ENDBRANCH   1   5
BRANCH   3   8
HETATM    8  C5  UNL     1     -33.546  14.733  -5.355  1.00 20.00     0.140 C 
BRANCH   8   9
HETATM    9  C6  UNL     1     -34.268  15.225  -6.598  1.00 20.00     0.134 C 
HETATM   10 CL10 UNL     1     -34.489  16.993  -6.562  1.00 20.00    -0.129 Cl
ENDBRANCH   8   9
ENDBRANCH   3   8
TORSDOF 3
ENDMDL
MODEL 8
REMARK VINA RESULT:      -3.3      2.270      2.704
REMARK  3 active torsions:
REMARK  status: ('A' for Active; 'I' for Inactive)
REMARK    1  A    between atoms: C1_1  and  C7_7 
REMARK       I    between atoms: C1_1  and  N8_8 
REMARK    2  A    between atoms: C5_5  and  C6_6 
REMARK    3  A    between atoms: C5_5  and  N8_8 
ROOT
HETATM    1  C1  UNL     1     -35.353  16.106  -4.380  1.00 20.00     0.222 C 
HETATM    2  C4  UNL     1     -36.530  13.946  -4.539  1.00 20.00     0.152 C 
HETATM    3  N8  UNL     1     -36.500  15.391  -4.740  1.00 20.00    -0.355 N 
HETATM    4  O9  UNL     1     -35.003  17.142  -4.957  1.00 20.00    -0.273 OA
ENDROOT
BRANCH   1   5
HETATM    5  C7  UNL     1     -34.525  15.581  -3.202  1.00 20.00     0.070 C 
HETATM    6  C2  UNL     1     -35.059  16.158  -1.891  1.00 20.00     0.019 C 
HETATM    7  C3  UNL     1     -33.049  15.953  -3.366  1.00 20.00     0.019 C 
ENDBRANCH   1   5
BRANCH   3   8
HETATM    8  C5  UNL     1     -37.733  15.956  -5.284  1.00 20.00     0.140 C 
BRANCH   8   9
HETATM    9  C6  UNL     1     -38.618  16.569  -4.211  1.00 20.00     0.134 C 
HETATM   10 CL10 UNL     1     -39.858  15.416  -3.658  1.00 20.00    -0.129 Cl
ENDBRANCH   8   9
ENDBRANCH   3   8
TORSDOF 3
ENDMDL
MODEL 9
REMARK VINA RESULT:      -3.2      3.279      4.758
REMARK  3 active torsions:
REMARK  status: ('A' for Active; 'I' for Inactive)
REMARK    1  A    between atoms: C1_1  and  C7_7 
REMARK       I    between atoms: C1_1  and  N8_8 
REMARK    2  A    between atoms: C5_5  and  C6_6 
REMARK    3  A    between atoms: C5_5  and  N8_8 
ROOT
HETATM    1  C1  UNL     1     -34.273  16.342  -2.452  1.00 20.00     0.222 C 
HETATM    2  C4  UNL     1     -32.633  17.908  -1.483  1.00 20.00     0.152 C 
HETATM    3  N8  UNL     1     -33.995  17.388  -1.566  1.00 20.00    -0.355 N 
HETATM    4  O9  UNL     1     -35.160  15.507  -2.241  1.00 20.00    -0.273 OA
ENDROOT
BRANCH   1   5
HETATM    5  C7  UNL     1     -33.450  16.262  -3.742  1.00 20.00     0.070 C 
HETATM    6  C2  UNL     1     -34.146  17.049  -4.853  1.00 20.00     0.019 C 
HETATM    7  C3  UNL     1     -33.265  14.807  -4.180  1.00 20.00     0.019 C 
ENDBRANCH   1   5
BRANCH   3   8
HETATM    8  C5  UNL     1     -34.960  18.069  -0.706  1.00 20.00     0.140 C 
BRANCH   8   9
HETATM    9  C6  UNL     1     -35.163  17.357   0.622  1.00 20.00     0.134 C 
HETATM   10 CL10 UNL     1     -34.017  17.944   1.853  1.00 20.00    -0.129 Cl
ENDBRANCH   8   9
ENDBRANCH   3   8
TORSDOF 3
ENDMDL
