MODEL 1
REMARK VINA RESULT:      -4.6      0.000      0.000
REMARK  5 active torsions:
REMARK  status: ('A' for Active; 'I' for Inactive)
REMARK    1  A    between atoms: C2_2  and  C8_8 
REMARK    2  A    between atoms: C5_5  and  C9_9 
REMARK    3  A    between atoms: C7_7  and  C8_8 
REMARK    4  A    between atoms: C7_7  and  C9_9 
REMARK    5  A    between atoms: C9_9  and  O10_10 
ROOT
HETATM    1  C9  UNL     1     -32.680   7.511   2.481  1.00 20.00     0.122 C 
ENDROOT
BRANCH   1   2
HETATM    2  C5  UNL     1     -32.301   8.062   1.114  1.00 20.00     0.014 A 
HETATM    3  C3  UNL     1     -33.326   8.134   0.017  1.00 20.00     0.007 A 
HETATM    4  C4  UNL     1     -32.829   9.396   0.664  1.00 20.00     0.007 A 
ENDBRANCH   1   2
BRANCH   1   5
HETATM    5  C7  UNL     1     -33.143   6.047   2.439  1.00 20.00     0.040 C 
BRANCH   5   6
HETATM    6  C8  UNL     1     -33.507   5.426   3.801  1.00 20.00     0.005 C 
HETATM    7  C6  UNL     1     -34.268   4.114   3.587  1.00 20.00     0.014 C 
BRANCH   6   8
HETATM    8  C2  UNL     1     -34.347   6.361   4.635  1.00 20.00    -0.033 C 
HETATM    9  C1  UNL     1     -34.099   6.648   5.918  1.00 20.00     0.007 C 
ENDBRANCH   6   8
ENDBRANCH   5   6
ENDBRANCH   1   5
BRANCH   1  10
HETATM   10  O10 UNL     1     -31.518   7.594   3.309  1.00 20.00    -0.395 OA
HETATM   11  H26 UNL     1     -31.784   7.274   4.184  1.00 20.00     0.210 HD
ENDBRANCH   1  10
TORSDOF 5
ENDMDL
MODEL 2
REMARK VINA RESULT:      -4.4     10.512     11.499
REMARK  5 active torsions:
REMARK  status: ('A' for Active; 'I' for Inactive)
REMARK    1  A    between atoms: C2_2  and  C8_8 
REMARK    2  A    between atoms: C5_5  and  C9_9 
REMARK    3  A    between atoms: C7_7  and  C8_8 
REMARK    4  A    between atoms: C7_7  and  C9_9 
REMARK    5  A    between atoms: C9_9  and  O10_10 
ROOT
HETATM    1  C9  UNL     1     -35.225  14.121  -4.662  1.00 20.00     0.122 C 
ENDROOT
BRANCH   1   2
HETATM    2  C5  UNL     1     -35.472  14.650  -6.067  1.00 20.00     0.014 A 
HETATM    3  C3  UNL     1     -35.324  16.117  -6.361  1.00 20.00     0.007 A 
HETATM    4  C4  UNL     1     -34.323  15.136  -6.906  1.00 20.00     0.007 A 
ENDBRANCH   1   2
BRANCH   1   5
HETATM    5  C7  UNL     1     -35.729  15.065  -3.559  1.00 20.00     0.040 C 
BRANCH   5   6
HETATM    6  C8  UNL     1     -34.668  15.528  -2.545  1.00 20.00     0.005 C 
HETATM    7  C6  UNL     1     -35.245  16.636  -1.658  1.00 20.00     0.014 C 
BRANCH   6   8
HETATM    8  C2  UNL     1     -33.422  16.034  -3.229  1.00 20.00    -0.033 C 
HETATM    9  C1  UNL     1     -32.985  17.296  -3.152  1.00 20.00     0.007 C 
ENDBRANCH   6   8
ENDBRANCH   5   6
ENDBRANCH   1   5
BRANCH   1  10
HETATM   10  O10 UNL     1     -35.922  12.879  -4.547  1.00 20.00    -0.395 OA
HETATM   11  H26 UNL     1     -35.484  12.263  -5.154  1.00 20.00     0.210 HD
ENDBRANCH   1  10
TORSDOF 5
ENDMDL
MODEL 3
REMARK VINA RESULT:      -4.4      1.517      4.607
REMARK  5 active torsions:
REMARK  status: ('A' for Active; 'I' for Inactive)
REMARK    1  A    between atoms: C2_2  and  C8_8 
REMARK    2  A    between atoms: C5_5  and  C9_9 
REMARK    3  A    between atoms: C7_7  and  C8_8 
REMARK    4  A    between atoms: C7_7  and  C9_9 
REMARK    5  A    between atoms: C9_9  and  O10_10 
ROOT
HETATM    1  C9  UNL     1     -34.276   5.457   3.555  1.00 20.00     0.122 C 
ENDROOT
BRANCH   1   2
HETATM    2  C5  UNL     1     -33.953   5.330   5.036  1.00 20.00     0.014 A 
HETATM    3  C3  UNL     1     -34.112   6.514   5.950  1.00 20.00     0.007 A 
HETATM    4  C4  UNL     1     -35.057   5.349   6.056  1.00 20.00     0.007 A 
ENDBRANCH   1   2
BRANCH   1   5
HETATM    5  C7  UNL     1     -33.921   6.833   2.970  1.00 20.00     0.040 C 
BRANCH   5   6
HETATM    6  C8  UNL     1     -32.489   6.972   2.420  1.00 20.00     0.005 C 
HETATM    7  C6  UNL     1     -31.606   7.693   3.444  1.00 20.00     0.014 C 
BRANCH   6   8
HETATM    8  C2  UNL     1     -32.462   7.728   1.115  1.00 20.00    -0.033 C 
HETATM    9  C1  UNL     1     -32.938   8.968   0.959  1.00 20.00     0.007 C 
ENDBRANCH   6   8
ENDBRANCH   5   6
ENDBRANCH   1   5
BRANCH   1  10
HETATM   10  O10 UNL     1     -33.513   4.464   2.867  1.00 20.00    -0.395 OA
HETATM   11  H26 UNL     1     -33.188   4.884   2.055  1.00 20.00     0.210 HD
ENDBRANCH   1  10
TORSDOF 5
ENDMDL
MODEL 4
REMARK VINA RESULT:      -4.4     10.692     11.588
REMARK  5 active torsions:
REMARK  status: ('A' for Active; 'I' for Inactive)
REMARK    1  A    between atoms: C2_2  and  C8_8 
REMARK    2  A    between atoms: C5_5  and  C9_9 
REMARK    3  A    between atoms: C7_7  and  C8_8 
REMARK    4  A    between atoms: C7_7  and  C9_9 
REMARK    5  A    between atoms: C9_9  and  O10_10 
ROOT
HETATM    1  C9  UNL     1     -33.482  14.749  -4.415  1.00 20.00     0.122 C 
ENDROOT
BRANCH   1   2
HETATM    2  C5  UNL     1     -33.412  15.904  -3.426  1.00 20.00     0.014 A 
HETATM    3  C3  UNL     1     -34.447  16.994  -3.462  1.00 20.00     0.007 A 
HETATM    4  C4  UNL     1     -34.425  16.016  -2.321  1.00 20.00     0.007 A 
ENDBRANCH   1   2
BRANCH   1   5
HETATM    5  C7  UNL     1     -34.057  15.152  -5.781  1.00 20.00     0.040 C 
BRANCH   5   6
HETATM    6  C8  UNL     1     -35.464  14.612  -6.095  1.00 20.00     0.005 C 
HETATM    7  C6  UNL     1     -36.376  15.761  -6.538  1.00 20.00     0.014 C 
BRANCH   6   8
HETATM    8  C2  UNL     1     -36.077  13.919  -4.904  1.00 20.00    -0.033 C 
HETATM    9  C1  UNL     1     -37.198  14.324  -4.297  1.00 20.00     0.007 C 
ENDBRANCH   6   8
ENDBRANCH   5   6
ENDBRANCH   1   5
BRANCH   1  10
HETATM   10  O10 UNL     1     -32.148  14.275  -4.608  1.00 20.00    -0.395 OA
HETATM   11  H26 UNL     1     -31.697  14.375  -3.757  1.00 20.00     0.210 HD
ENDBRANCH   1  10
TORSDOF 5
ENDMDL
MODEL 5
REMARK VINA RESULT:      -4.3     10.355     11.430
REMARK  5 active torsions:
REMARK  status: ('A' for Active; 'I' for Inactive)
REMARK    1  A    between atoms: C2_2  and  C8_8 
REMARK    2  A    between atoms: C5_5  and  C9_9 
REMARK    3  A    between atoms: C7_7  and  C8_8 
REMARK    4  A    between atoms: C7_7  and  C9_9 
REMARK    5  A    between atoms: C9_9  and  O10_10 
ROOT
HETATM    1  C9  UNL     1     -33.532  14.712  -4.690  1.00 20.00     0.122 C 
ENDROOT
BRANCH   1   2
HETATM    2  C5  UNL     1     -34.146  14.842  -6.076  1.00 20.00     0.014 A 
HETATM    3  C3  UNL     1     -35.550  15.356  -6.235  1.00 20.00     0.007 A 
HETATM    4  C4  UNL     1     -34.386  16.202  -6.671  1.00 20.00     0.007 A 
ENDBRANCH   1   2
BRANCH   1   5
HETATM    5  C7  UNL     1     -34.576  14.651  -3.565  1.00 20.00     0.040 C 
BRANCH   5   6
HETATM    6  C8  UNL     1     -34.512  15.796  -2.536  1.00 20.00     0.005 C 
HETATM    7  C6  UNL     1     -35.761  16.673  -2.655  1.00 20.00     0.014 C 
BRANCH   6   8
HETATM    8  C2  UNL     1     -33.282  16.649  -2.724  1.00 20.00    -0.033 C 
HETATM    9  C1  UNL     1     -32.882  17.588  -1.859  1.00 20.00     0.007 C 
ENDBRANCH   6   8
ENDBRANCH   5   6
ENDBRANCH   1   5
BRANCH   1  10
HETATM   10  O10 UNL     1     -32.778  13.497  -4.672  1.00 20.00    -0.395 OA
HETATM   11  H26 UNL     1     -31.921  13.714  -4.275  1.00 20.00     0.210 HD
ENDBRANCH   1  10
TORSDOF 5
ENDMDL
MODEL 6
REMARK VINA RESULT:      -4.3     10.724     11.740
REMARK  5 active torsions:
REMARK  status: ('A' for Active; 'I' for Inactive)
REMARK    1  A    between atoms: C2_2  and  C8_8 
REMARK    2  A    between atoms: C5_5  and  C9_9 
REMARK    3  A    between atoms: C7_7  and  C8_8 
REMARK    4  A    between atoms: C7_7  and  C9_9 
REMARK    5  A    between atoms: C9_9  and  O10_10 
ROOT
HETATM    1  C9  UNL     1     -34.122  15.130  -5.389  1.00 20.00     0.122 C 
ENDROOT
BRANCH   1   2
HETATM    2  C5  UNL     1     -35.474  14.553  -5.782  1.00 20.00     0.014 A 
HETATM    3  C3  UNL     1     -36.366  13.938  -4.740  1.00 20.00     0.007 A 
HETATM    4  C4  UNL     1     -36.742  15.249  -5.372  1.00 20.00     0.007 A 
ENDBRANCH   1   2
BRANCH   1   5
HETATM    5  C7  UNL     1     -33.712  14.792  -3.948  1.00 20.00     0.040 C 
BRANCH   5   6
HETATM    6  C8  UNL     1     -33.660  15.984  -2.975  1.00 20.00     0.005 C 
HETATM    7  C6  UNL     1     -34.923  16.002  -2.108  1.00 20.00     0.014 C 
BRANCH   6   8
HETATM    8  C2  UNL     1     -33.536  17.298  -3.705  1.00 20.00    -0.033 C 
HETATM    9  C1  UNL     1     -32.802  18.329  -3.272  1.00 20.00     0.007 C 
ENDBRANCH   6   8
ENDBRANCH   5   6
ENDBRANCH   1   5
BRANCH   1  10
HETATM   10  O10 UNL     1     -33.149  14.577  -6.278  1.00 20.00    -0.395 OA
HETATM   11  H26 UNL     1     -33.092  15.183  -7.031  1.00 20.00     0.210 HD
ENDBRANCH   1  10
TORSDOF 5
ENDMDL
MODEL 7
REMARK VINA RESULT:      -4.2     10.724     11.324
REMARK  5 active torsions:
REMARK  status: ('A' for Active; 'I' for Inactive)
REMARK    1  A    between atoms: C2_2  and  C8_8 
REMARK    2  A    between atoms: C5_5  and  C9_9 
REMARK    3  A    between atoms: C7_7  and  C8_8 
REMARK    4  A    between atoms: C7_7  and  C9_9 
REMARK    5  A    between atoms: C9_9  and  O10_10 
ROOT
HETATM    1  C9  UNL     1     -34.158  15.200  -5.183  1.00 20.00     0.122 C 
ENDROOT
BRANCH   1   2
HETATM    2  C5  UNL     1     -35.448  14.467  -5.522  1.00 20.00     0.014 A 
HETATM    3  C3  UNL     1     -36.346  13.968  -4.424  1.00 20.00     0.007 A 
HETATM    4  C4  UNL     1     -36.778  15.126  -5.280  1.00 20.00     0.007 A 
ENDBRANCH   1   2
BRANCH   1   5
HETATM    5  C7  UNL     1     -33.827  15.187  -3.683  1.00 20.00     0.040 C 
BRANCH   5   6
HETATM    6  C8  UNL     1     -34.177  16.475  -2.915  1.00 20.00     0.005 C 
HETATM    7  C6  UNL     1     -32.899  17.121  -2.372  1.00 20.00     0.014 C 
BRANCH   6   8
HETATM    8  C2  UNL     1     -35.125  16.205  -1.772  1.00 20.00    -0.033 C 
HETATM    9  C1  UNL     1     -35.210  16.964  -0.675  1.00 20.00     0.007 C 
ENDBRANCH   6   8
ENDBRANCH   5   6
ENDBRANCH   1   5
BRANCH   1  10
HETATM   10  O10 UNL     1     -33.100  14.543  -5.885  1.00 20.00    -0.395 OA
HETATM   11  H26 UNL     1     -32.276  14.953  -5.581  1.00 20.00     0.210 HD
ENDBRANCH   1  10
TORSDOF 5
ENDMDL
MODEL 8
REMARK VINA RESULT:      -4.2     15.354     16.071
REMARK  5 active torsions:
REMARK  status: ('A' for Active; 'I' for Inactive)
REMARK    1  A    between atoms: C2_2  and  C8_8 
REMARK    2  A    between atoms: C5_5  and  C9_9 
REMARK    3  A    between atoms: C7_7  and  C8_8 
REMARK    4  A    between atoms: C7_7  and  C9_9 
REMARK    5  A    between atoms: C9_9  and  O10_10 
ROOT
HETATM    1  C9  UNL     1     -24.249  17.855   9.623  1.00 20.00     0.122 C 
ENDROOT
BRANCH   1   2
HETATM    2  C5  UNL     1     -22.983  18.361   8.948  1.00 20.00     0.014 A 
HETATM    3  C3  UNL     1     -21.635  18.062   9.545  1.00 20.00     0.007 A 
HETATM    4  C4  UNL     1     -22.054  17.397   8.262  1.00 20.00     0.007 A 
ENDBRANCH   1   2
BRANCH   1   5
HETATM    5  C7  UNL     1     -24.403  18.344  11.071  1.00 20.00     0.040 C 
BRANCH   5   6
HETATM    6  C8  UNL     1     -24.921  17.296  12.074  1.00 20.00     0.005 C 
HETATM    7  C6  UNL     1     -24.641  15.886  11.545  1.00 20.00     0.014 C 
BRANCH   6   8
HETATM    8  C2  UNL     1     -26.399  17.450  12.330  1.00 20.00    -0.033 C 
HETATM    9  C1  UNL     1     -27.117  18.515  11.957  1.00 20.00     0.007 C 
ENDBRANCH   6   8
ENDBRANCH   5   6
ENDBRANCH   1   5
BRANCH   1  10
HETATM   10  O10 UNL     1     -25.358  18.339   8.863  1.00 20.00    -0.395 OA
HETATM   11  H26 UNL     1     -26.015  18.647   9.506  1.00 20.00     0.210 HD
ENDBRANCH   1  10
TORSDOF 5
ENDMDL
MODEL 9
REMARK VINA RESULT:      -4.2      0.911      1.483
REMARK  5 active torsions:
REMARK  status: ('A' for Active; 'I' for Inactive)
REMARK    1  A    between atoms: C2_2  and  C8_8 
REMARK    2  A    between atoms: C5_5  and  C9_9 
REMARK    3  A    between atoms: C7_7  and  C8_8 
REMARK    4  A    between atoms: C7_7  and  C9_9 
REMARK    5  A    between atoms: C9_9  and  O10_10 
ROOT
HETATM    1  C9  UNL     1     -32.510   7.648   2.738  1.00 20.00     0.122 C 
ENDROOT
BRANCH   1   2
HETATM    2  C5  UNL     1     -32.305   7.877   1.248  1.00 20.00     0.014 A 
HETATM    3  C3  UNL     1     -33.490   7.973   0.327  1.00 20.00     0.007 A 
HETATM    4  C4  UNL     1     -32.671   9.198   0.628  1.00 20.00     0.007 A 
ENDBRANCH   1   2
BRANCH   1   5
HETATM    5  C7  UNL     1     -33.272   6.353   3.055  1.00 20.00     0.040 C 
BRANCH   5   6
HETATM    6  C8  UNL     1     -34.283   6.443   4.213  1.00 20.00     0.005 C 
HETATM    7  C6  UNL     1     -33.625   7.105   5.428  1.00 20.00     0.014 C 
BRANCH   6   8
HETATM    8  C2  UNL     1     -34.807   5.084   4.607  1.00 20.00    -0.033 C 
HETATM    9  C1  UNL     1     -34.838   4.629   5.864  1.00 20.00     0.007 C 
ENDBRANCH   6   8
ENDBRANCH   5   6
ENDBRANCH   1   5
BRANCH   1  10
HETATM   10  O10 UNL     1     -31.215   7.568   3.337  1.00 20.00    -0.395 OA
HETATM   11  H26 UNL     1     -30.990   8.466   3.622  1.00 20.00     0.210 HD
ENDBRANCH   1  10
TORSDOF 5
ENDMDL
