MODEL 1
REMARK VINA RESULT:      -3.8      0.000      0.000
REMARK  5 active torsions:
REMARK  status: ('A' for Active; 'I' for Inactive)
REMARK    1  A    between atoms: C5_5  and  C9_9 
REMARK    2  A    between atoms: C6_6  and  C7_7 
REMARK    3  A    between atoms: C6_6  and  C8_8 
REMARK    4  A    between atoms: C7_7  and  C9_9 
REMARK    5  A    between atoms: C8_8  and  C10_10 
ROOT
HETATM    1  C6  UNL     1     -33.727  14.708  -4.068  1.00 20.00     0.002 C 
ENDROOT
BRANCH   1   2
HETATM    2  C7  UNL     1     -34.040  14.852  -5.565  1.00 20.00     0.020 C 
BRANCH   2   3
HETATM    3  C9  UNL     1     -35.523  14.623  -5.898  1.00 20.00     0.082 C 
HETATM    4 CL11 UNL     1     -36.334  16.182  -6.250  1.00 20.00    -0.125 Cl
BRANCH   3   5
HETATM    5  C5  UNL     1     -36.276  13.865  -4.794  1.00 20.00     0.016 C 
HETATM    6  C1  UNL     1     -37.554  14.530  -4.296  1.00 20.00     0.006 C 
ENDBRANCH   3   5
ENDBRANCH   2   3
ENDBRANCH   1   2
BRANCH   1   7
HETATM    7  C8  UNL     1     -33.066  15.981  -3.523  1.00 20.00     0.008 C 
BRANCH   7   8
HETATM    8  C10 UNL     1     -33.972  16.889  -2.647  1.00 20.00    -0.051 C 
HETATM    9  C2  UNL     1     -33.148  17.634  -1.583  1.00 20.00     0.014 C 
HETATM   10  C3  UNL     1     -34.639  17.930  -3.567  1.00 20.00     0.014 C 
HETATM   11  C4  UNL     1     -35.074  16.073  -1.953  1.00 20.00     0.014 C 
ENDBRANCH   7   8
ENDBRANCH   1   7
TORSDOF 5
ENDMDL
MODEL 2
REMARK VINA RESULT:      -3.7      1.083      1.486
REMARK  5 active torsions:
REMARK  status: ('A' for Active; 'I' for Inactive)
REMARK    1  A    between atoms: C5_5  and  C9_9 
REMARK    2  A    between atoms: C6_6  and  C7_7 
REMARK    3  A    between atoms: C6_6  and  C8_8 
REMARK    4  A    between atoms: C7_7  and  C9_9 
REMARK    5  A    between atoms: C8_8  and  C10_10 
ROOT
HETATM    1  C6  UNL     1     -33.379  15.786  -3.418  1.00 20.00     0.002 C 
ENDROOT
BRANCH   1   2
HETATM    2  C7  UNL     1     -33.645  14.616  -4.377  1.00 20.00     0.020 C 
BRANCH   2   3
HETATM    3  C9  UNL     1     -34.358  15.044  -5.670  1.00 20.00     0.082 C 
HETATM    4 CL11 UNL     1     -34.372  16.831  -5.815  1.00 20.00    -0.125 Cl
BRANCH   3   5
HETATM    5  C5  UNL     1     -35.785  14.487  -5.781  1.00 20.00     0.016 C 
HETATM    6  C1  UNL     1     -36.244  13.621  -4.613  1.00 20.00     0.006 C 
ENDBRANCH   3   5
ENDBRANCH   2   3
ENDBRANCH   1   2
BRANCH   1   7
HETATM    7  C8  UNL     1     -34.492  15.895  -2.367  1.00 20.00     0.008 C 
BRANCH   7   8
HETATM    8  C10 UNL     1     -34.579  17.249  -1.613  1.00 20.00    -0.051 C 
HETATM    9  C2  UNL     1     -33.178  17.820  -1.333  1.00 20.00     0.014 C 
HETATM   10  C3  UNL     1     -35.344  18.246  -2.505  1.00 20.00     0.014 C 
HETATM   11  C4  UNL     1     -35.339  17.100  -0.285  1.00 20.00     0.014 C 
ENDBRANCH   7   8
ENDBRANCH   1   7
TORSDOF 5
ENDMDL
MODEL 3
REMARK VINA RESULT:      -3.7      1.511      2.178
REMARK  5 active torsions:
REMARK  status: ('A' for Active; 'I' for Inactive)
REMARK    1  A    between atoms: C5_5  and  C9_9 
REMARK    2  A    between atoms: C6_6  and  C7_7 
REMARK    3  A    between atoms: C6_6  and  C8_8 
REMARK    4  A    between atoms: C7_7  and  C9_9 
REMARK    5  A    between atoms: C8_8  and  C10_10 
ROOT
HETATM    1  C6  UNL     1     -33.317  15.687  -3.429  1.00 20.00     0.002 C 
ENDROOT
BRANCH   1   2
HETATM    2  C7  UNL     1     -33.680  14.691  -4.542  1.00 20.00     0.020 C 
BRANCH   2   3
HETATM    3  C9  UNL     1     -35.124  14.848  -5.045  1.00 20.00     0.082 C 
HETATM    4 CL11 UNL     1     -36.129  13.467  -4.505  1.00 20.00    -0.125 Cl
BRANCH   3   5
HETATM    5  C5  UNL     1     -35.213  15.013  -6.570  1.00 20.00     0.016 C 
HETATM    6  C1  UNL     1     -33.880  15.172  -7.293  1.00 20.00     0.006 C 
ENDBRANCH   3   5
ENDBRANCH   2   3
ENDBRANCH   1   2
BRANCH   1   7
HETATM    7  C8  UNL     1     -34.476  15.844  -2.436  1.00 20.00     0.008 C 
BRANCH   7   8
HETATM    8  C10 UNL     1     -34.558  17.211  -1.705  1.00 20.00    -0.051 C 
HETATM    9  C2  UNL     1     -33.155  17.776  -1.424  1.00 20.00     0.014 C 
HETATM   10  C3  UNL     1     -35.308  18.199  -2.620  1.00 20.00     0.014 C 
HETATM   11  C4  UNL     1     -35.330  17.090  -0.382  1.00 20.00     0.014 C 
ENDBRANCH   7   8
ENDBRANCH   1   7
TORSDOF 5
ENDMDL
MODEL 4
REMARK VINA RESULT:      -3.6      1.510      2.438
REMARK  5 active torsions:
REMARK  status: ('A' for Active; 'I' for Inactive)
REMARK    1  A    between atoms: C5_5  and  C9_9 
REMARK    2  A    between atoms: C6_6  and  C7_7 
REMARK    3  A    between atoms: C6_6  and  C8_8 
REMARK    4  A    between atoms: C7_7  and  C9_9 
REMARK    5  A    between atoms: C8_8  and  C10_10 
ROOT
HETATM    1  C6  UNL     1     -33.374  15.750  -3.474  1.00 20.00     0.002 C 
ENDROOT
BRANCH   1   2
HETATM    2  C7  UNL     1     -33.721  14.725  -4.564  1.00 20.00     0.020 C 
BRANCH   2   3
HETATM    3  C9  UNL     1     -35.165  14.853  -5.076  1.00 20.00     0.082 C 
HETATM    4 CL11 UNL     1     -36.145  13.450  -4.543  1.00 20.00    -0.125 Cl
BRANCH   3   5
HETATM    5  C5  UNL     1     -35.250  15.017  -6.600  1.00 20.00     0.016 C 
HETATM    6  C1  UNL     1     -33.914  15.169  -7.319  1.00 20.00     0.006 C 
ENDBRANCH   3   5
ENDBRANCH   2   3
ENDBRANCH   1   2
BRANCH   1   7
HETATM    7  C8  UNL     1     -34.513  15.871  -2.454  1.00 20.00     0.008 C 
BRANCH   7   8
HETATM    8  C10 UNL     1     -34.609  17.228  -1.705  1.00 20.00    -0.051 C 
HETATM    9  C2  UNL     1     -35.301  17.063  -0.341  1.00 20.00     0.014 C 
HETATM   10  C3  UNL     1     -33.176  17.744  -1.465  1.00 20.00     0.014 C 
HETATM   11  C4  UNL     1     -35.371  18.271  -2.537  1.00 20.00     0.014 C 
ENDBRANCH   7   8
ENDBRANCH   1   7
TORSDOF 5
ENDMDL
MODEL 5
REMARK VINA RESULT:      -3.6      1.308      2.115
REMARK  5 active torsions:
REMARK  status: ('A' for Active; 'I' for Inactive)
REMARK    1  A    between atoms: C5_5  and  C9_9 
REMARK    2  A    between atoms: C6_6  and  C7_7 
REMARK    3  A    between atoms: C6_6  and  C8_8 
REMARK    4  A    between atoms: C7_7  and  C9_9 
REMARK    5  A    between atoms: C8_8  and  C10_10 
ROOT
HETATM    1  C6  UNL     1     -34.762  14.355  -3.761  1.00 20.00     0.002 C 
ENDROOT
BRANCH   1   2
HETATM    2  C7  UNL     1     -35.906  14.016  -4.729  1.00 20.00     0.020 C 
BRANCH   2   3
HETATM    3  C9  UNL     1     -35.700  14.599  -6.136  1.00 20.00     0.082 C 
HETATM    4 CL11 UNL     1     -33.965  14.946  -6.423  1.00 20.00    -0.125 Cl
BRANCH   3   5
HETATM    5  C5  UNL     1     -36.547  15.853  -6.397  1.00 20.00     0.016 C 
HETATM    6  C1  UNL     1     -37.737  16.047  -5.464  1.00 20.00     0.006 C 
ENDBRANCH   3   5
ENDBRANCH   2   3
ENDBRANCH   1   2
BRANCH   1   7
HETATM    7  C8  UNL     1     -35.211  15.398  -2.729  1.00 20.00     0.008 C 
BRANCH   7   8
HETATM    8  C10 UNL     1     -34.381  16.710  -2.690  1.00 20.00    -0.051 C 
HETATM    9  C2  UNL     1     -35.020  17.798  -3.569  1.00 20.00     0.014 C 
HETATM   10  C3  UNL     1     -34.351  17.214  -1.233  1.00 20.00     0.014 C 
HETATM   11  C4  UNL     1     -32.935  16.469  -3.152  1.00 20.00     0.014 C 
ENDBRANCH   7   8
ENDBRANCH   1   7
TORSDOF 5
ENDMDL
MODEL 6
REMARK VINA RESULT:      -3.6      2.875      5.362
REMARK  5 active torsions:
REMARK  status: ('A' for Active; 'I' for Inactive)
REMARK    1  A    between atoms: C5_5  and  C9_9 
REMARK    2  A    between atoms: C6_6  and  C7_7 
REMARK    3  A    between atoms: C6_6  and  C8_8 
REMARK    4  A    between atoms: C7_7  and  C9_9 
REMARK    5  A    between atoms: C8_8  and  C10_10 
ROOT
HETATM    1  C6  UNL     1     -34.305  17.166  -2.417  1.00 20.00     0.002 C 
ENDROOT
BRANCH   1   2
HETATM    2  C7  UNL     1     -32.827  17.479  -2.138  1.00 20.00     0.020 C 
BRANCH   2   3
HETATM    3  C9  UNL     1     -32.625  18.423  -0.942  1.00 20.00     0.082 C 
HETATM    4 CL11 UNL     1     -30.983  18.218  -0.253  1.00 20.00    -0.125 Cl
BRANCH   3   5
HETATM    5  C5  UNL     1     -33.690  18.245   0.151  1.00 20.00     0.016 C 
HETATM    6  C1  UNL     1     -33.189  18.384   1.584  1.00 20.00     0.006 C 
ENDBRANCH   3   5
ENDBRANCH   2   3
ENDBRANCH   1   2
BRANCH   1   7
HETATM    7  C8  UNL     1     -34.524  15.655  -2.569  1.00 20.00     0.008 C 
BRANCH   7   8
HETATM    8  C10 UNL     1     -34.485  15.110  -4.023  1.00 20.00    -0.051 C 
HETATM    9  C2  UNL     1     -33.092  14.559  -4.373  1.00 20.00     0.014 C 
HETATM   10  C3  UNL     1     -35.507  13.961  -4.131  1.00 20.00     0.014 C 
HETATM   11  C4  UNL     1     -34.868  16.200  -5.037  1.00 20.00     0.014 C 
ENDBRANCH   7   8
ENDBRANCH   1   7
TORSDOF 5
ENDMDL
MODEL 7
REMARK VINA RESULT:      -3.6      3.315      5.705
REMARK  5 active torsions:
REMARK  status: ('A' for Active; 'I' for Inactive)
REMARK    1  A    between atoms: C5_5  and  C9_9 
REMARK    2  A    between atoms: C6_6  and  C7_7 
REMARK    3  A    between atoms: C6_6  and  C8_8 
REMARK    4  A    between atoms: C7_7  and  C9_9 
REMARK    5  A    between atoms: C8_8  and  C10_10 
ROOT
HETATM    1  C6  UNL     1     -33.260  17.442  -1.770  1.00 20.00     0.002 C 
ENDROOT
BRANCH   1   2
HETATM    2  C7  UNL     1     -32.131  18.411  -1.386  1.00 20.00     0.020 C 
BRANCH   2   3
HETATM    3  C9  UNL     1     -32.126  18.772   0.108  1.00 20.00     0.082 C 
HETATM    4 CL11 UNL     1     -30.713  18.032   0.926  1.00 20.00    -0.125 Cl
BRANCH   3   5
HETATM    5  C5  UNL     1     -33.427  18.379   0.825  1.00 20.00     0.016 C 
HETATM    6  C1  UNL     1     -33.282  18.033   2.303  1.00 20.00     0.006 C 
ENDBRANCH   3   5
ENDBRANCH   2   3
ENDBRANCH   1   2
BRANCH   1   7
HETATM    7  C8  UNL     1     -32.880  16.625  -3.012  1.00 20.00     0.008 C 
BRANCH   7   8
HETATM    8  C10 UNL     1     -34.037  15.836  -3.681  1.00 20.00    -0.051 C 
HETATM    9  C2  UNL     1     -35.157  15.528  -2.672  1.00 20.00     0.014 C 
HETATM   10  C3  UNL     1     -34.623  16.709  -4.808  1.00 20.00     0.014 C 
HETATM   11  C4  UNL     1     -33.533  14.520  -4.296  1.00 20.00     0.014 C 
ENDBRANCH   7   8
ENDBRANCH   1   7
TORSDOF 5
ENDMDL
MODEL 8
REMARK VINA RESULT:      -3.6      2.886      5.363
REMARK  5 active torsions:
REMARK  status: ('A' for Active; 'I' for Inactive)
REMARK    1  A    between atoms: C5_5  and  C9_9 
REMARK    2  A    between atoms: C6_6  and  C7_7 
REMARK    3  A    between atoms: C6_6  and  C8_8 
REMARK    4  A    between atoms: C7_7  and  C9_9 
REMARK    5  A    between atoms: C8_8  and  C10_10 
ROOT
HETATM    1  C6  UNL     1     -34.260  17.172  -2.425  1.00 20.00     0.002 C 
ENDROOT
BRANCH   1   2
HETATM    2  C7  UNL     1     -32.784  17.416  -2.075  1.00 20.00     0.020 C 
BRANCH   2   3
HETATM    3  C9  UNL     1     -32.592  18.446  -0.951  1.00 20.00     0.082 C 
HETATM    4 CL11 UNL     1     -30.974  18.261  -0.202  1.00 20.00    -0.125 Cl
BRANCH   3   5
HETATM    5  C5  UNL     1     -33.689  18.377   0.122  1.00 20.00     0.016 C 
HETATM    6  C1  UNL     1     -33.195  18.271   1.560  1.00 20.00     0.006 C 
ENDBRANCH   3   5
ENDBRANCH   2   3
ENDBRANCH   1   2
BRANCH   1   7
HETATM    7  C8  UNL     1     -34.551  15.671  -2.552  1.00 20.00     0.008 C 
BRANCH   7   8
HETATM    8  C10 UNL     1     -34.521  15.097  -3.995  1.00 20.00    -0.051 C 
HETATM    9  C2  UNL     1     -35.549  13.965  -4.164  1.00 20.00     0.014 C 
HETATM   10  C3  UNL     1     -34.884  16.235  -4.970  1.00 20.00     0.014 C 
HETATM   11  C4  UNL     1     -33.124  14.571  -4.357  1.00 20.00     0.014 C 
ENDBRANCH   7   8
ENDBRANCH   1   7
TORSDOF 5
ENDMDL
MODEL 9
REMARK VINA RESULT:      -3.6      2.779      5.138
REMARK  5 active torsions:
REMARK  status: ('A' for Active; 'I' for Inactive)
REMARK    1  A    between atoms: C5_5  and  C9_9 
REMARK    2  A    between atoms: C6_6  and  C7_7 
REMARK    3  A    between atoms: C6_6  and  C8_8 
REMARK    4  A    between atoms: C7_7  and  C9_9 
REMARK    5  A    between atoms: C8_8  and  C10_10 
ROOT
HETATM    1  C6  UNL     1     -33.266  16.936  -2.417  1.00 20.00     0.002 C 
ENDROOT
BRANCH   1   2
HETATM    2  C7  UNL     1     -33.922  18.139  -1.723  1.00 20.00     0.020 C 
BRANCH   2   3
HETATM    3  C9  UNL     1     -33.102  18.675  -0.539  1.00 20.00     0.082 C 
HETATM    4 CL11 UNL     1     -31.385  18.180  -0.691  1.00 20.00    -0.125 Cl
BRANCH   3   5
HETATM    5  C5  UNL     1     -33.664  18.247   0.824  1.00 20.00     0.016 C 
HETATM    6  C1  UNL     1     -35.028  17.567   0.787  1.00 20.00     0.006 C 
ENDBRANCH   3   5
ENDBRANCH   2   3
ENDBRANCH   1   2
BRANCH   1   7
HETATM    7  C8  UNL     1     -34.275  15.795  -2.604  1.00 20.00     0.008 C 
BRANCH   7   8
HETATM    8  C10 UNL     1     -34.327  15.166  -4.022  1.00 20.00    -0.051 C 
HETATM    9  C2  UNL     1     -34.682  16.219  -5.086  1.00 20.00     0.014 C 
HETATM   10  C3  UNL     1     -32.931  14.597  -4.346  1.00 20.00     0.014 C 
HETATM   11  C4  UNL     1     -35.348  14.019  -4.086  1.00 20.00     0.014 C 
ENDBRANCH   7   8
ENDBRANCH   1   7
TORSDOF 5
ENDMDL
