MODEL 1
REMARK VINA RESULT:      -4.5      0.000      0.000
REMARK  1 active torsions:
REMARK  status: ('A' for Active; 'I' for Inactive)
REMARK    1  A    between atoms: C4_4  and  C9_9 
ROOT
HETATM    1  C1  UNL     1     -34.819  17.005  -1.186  1.00 20.00    -0.003 A 
HETATM    2  C2  UNL     1     -35.174  15.993  -2.145  1.00 20.00     0.004 A 
HETATM    3  C3  UNL     1     -33.620  17.519  -1.497  1.00 20.00    -0.022 A 
HETATM    4  C4  UNL     1     -34.196  15.876  -3.056  1.00 20.00    -0.069 A 
HETATM    5  C5  UNL     1     -33.093  16.849  -2.733  1.00 20.00     0.062 A 
ENDROOT
BRANCH   4   6
HETATM    6  C9  UNL     1     -34.131  14.951  -4.241  1.00 20.00    -0.028 C 
HETATM    7  C6  UNL     1     -35.124  13.799  -4.032  1.00 20.00     0.019 C 
HETATM    8  C7  UNL     1     -32.710  14.387  -4.379  1.00 20.00     0.019 C 
HETATM    9  C8  UNL     1     -34.497  15.722  -5.517  1.00 20.00     0.019 C 
ENDBRANCH   4   6
TORSDOF 1
ENDMDL
MODEL 2
REMARK VINA RESULT:      -4.4      0.035      1.445
REMARK  1 active torsions:
REMARK  status: ('A' for Active; 'I' for Inactive)
REMARK    1  A    between atoms: C4_4  and  C9_9 
ROOT
HETATM    1  C1  UNL     1     -34.791  17.027  -1.166  1.00 20.00    -0.003 A 
HETATM    2  C2  UNL     1     -35.168  16.018  -2.121  1.00 20.00     0.004 A 
HETATM    3  C3  UNL     1     -33.589  17.525  -1.489  1.00 20.00    -0.022 A 
HETATM    4  C4  UNL     1     -34.199  15.887  -3.040  1.00 20.00    -0.069 A 
HETATM    5  C5  UNL     1     -33.081  16.846  -2.728  1.00 20.00     0.062 A 
ENDROOT
BRANCH   4   6
HETATM    6  C9  UNL     1     -34.157  14.960  -4.225  1.00 20.00    -0.028 C 
HETATM    7  C6  UNL     1     -34.545  15.743  -5.487  1.00 20.00     0.019 C 
HETATM    8  C7  UNL     1     -35.146  13.805  -4.011  1.00 20.00     0.019 C 
HETATM    9  C8  UNL     1     -32.740  14.392  -4.385  1.00 20.00     0.019 C 
ENDBRANCH   4   6
TORSDOF 1
ENDMDL
MODEL 3
REMARK VINA RESULT:      -4.4      0.013      1.450
REMARK  1 active torsions:
REMARK  status: ('A' for Active; 'I' for Inactive)
REMARK    1  A    between atoms: C4_4  and  C9_9 
ROOT
HETATM    1  C1  UNL     1     -34.817  17.007  -1.193  1.00 20.00    -0.003 A 
HETATM    2  C2  UNL     1     -35.178  15.995  -2.150  1.00 20.00     0.004 A 
HETATM    3  C3  UNL     1     -33.616  17.514  -1.506  1.00 20.00    -0.022 A 
HETATM    4  C4  UNL     1     -34.200  15.870  -3.061  1.00 20.00    -0.069 A 
HETATM    5  C5  UNL     1     -33.093  16.838  -2.741  1.00 20.00     0.062 A 
ENDROOT
BRANCH   4   6
HETATM    6  C9  UNL     1     -34.141  14.942  -4.244  1.00 20.00    -0.028 C 
HETATM    7  C6  UNL     1     -32.716  14.387  -4.375  1.00 20.00     0.019 C 
HETATM    8  C7  UNL     1     -34.516  15.709  -5.520  1.00 20.00     0.019 C 
HETATM    9  C8  UNL     1     -35.128  13.784  -4.040  1.00 20.00     0.019 C 
ENDBRANCH   4   6
TORSDOF 1
ENDMDL
MODEL 4
REMARK VINA RESULT:      -4.4      0.130      1.919
REMARK  1 active torsions:
REMARK  status: ('A' for Active; 'I' for Inactive)
REMARK    1  A    between atoms: C4_4  and  C9_9 
ROOT
HETATM    1  C1  UNL     1     -33.452  17.540  -1.533  1.00 20.00    -0.003 A 
HETATM    2  C2  UNL     1     -33.072  16.832  -2.727  1.00 20.00     0.004 A 
HETATM    3  C3  UNL     1     -34.660  17.122  -1.128  1.00 20.00    -0.022 A 
HETATM    4  C4  UNL     1     -34.044  15.972  -3.067  1.00 20.00    -0.069 A 
HETATM    5  C5  UNL     1     -35.168  16.069  -2.070  1.00 20.00     0.062 A 
ENDROOT
BRANCH   4   6
HETATM    6  C9  UNL     1     -34.085  15.024  -4.235  1.00 20.00    -0.028 C 
HETATM    7  C6  UNL     1     -32.701  14.381  -4.406  1.00 20.00     0.019 C 
HETATM    8  C7  UNL     1     -34.456  15.795  -5.511  1.00 20.00     0.019 C 
HETATM    9  C8  UNL     1     -35.133  13.933  -3.978  1.00 20.00     0.019 C 
ENDBRANCH   4   6
TORSDOF 1
ENDMDL
MODEL 5
REMARK VINA RESULT:      -4.4      0.127      1.271
REMARK  1 active torsions:
REMARK  status: ('A' for Active; 'I' for Inactive)
REMARK    1  A    between atoms: C4_4  and  C9_9 
ROOT
HETATM    1  C1  UNL     1     -33.479  17.548  -1.527  1.00 20.00    -0.003 A 
HETATM    2  C2  UNL     1     -33.088  16.844  -2.720  1.00 20.00     0.004 A 
HETATM    3  C3  UNL     1     -34.686  17.124  -1.129  1.00 20.00    -0.022 A 
HETATM    4  C4  UNL     1     -34.054  15.978  -3.065  1.00 20.00    -0.069 A 
HETATM    5  C5  UNL     1     -35.183  16.068  -2.074  1.00 20.00     0.062 A 
ENDROOT
BRANCH   4   6
HETATM    6  C9  UNL     1     -34.082  15.032  -4.235  1.00 20.00    -0.028 C 
HETATM    7  C6  UNL     1     -35.140  13.949  -3.977  1.00 20.00     0.019 C 
HETATM    8  C7  UNL     1     -32.703  14.377  -4.402  1.00 20.00     0.019 C 
HETATM    9  C8  UNL     1     -34.435  15.804  -5.514  1.00 20.00     0.019 C 
ENDBRANCH   4   6
TORSDOF 1
ENDMDL
MODEL 6
REMARK VINA RESULT:      -4.3     15.483     17.391
REMARK  1 active torsions:
REMARK  status: ('A' for Active; 'I' for Inactive)
REMARK    1  A    between atoms: C4_4  and  C9_9 
ROOT
HETATM    1  C1  UNL     1     -24.265  18.901   8.133  1.00 20.00    -0.003 A 
HETATM    2  C2  UNL     1     -24.768  18.796   9.478  1.00 20.00     0.004 A 
HETATM    3  C3  UNL     1     -23.168  18.141   8.003  1.00 20.00    -0.022 A 
HETATM    4  C4  UNL     1     -23.982  17.971  10.187  1.00 20.00    -0.069 A 
HETATM    5  C5  UNL     1     -22.871  17.462   9.308  1.00 20.00     0.062 A 
ENDROOT
BRANCH   4   6
HETATM    6  C9  UNL     1     -24.120  17.562  11.628  1.00 20.00    -0.028 C 
HETATM    7  C6  UNL     1     -22.768  17.743  12.332  1.00 20.00     0.019 C 
HETATM    8  C7  UNL     1     -24.550  16.090  11.708  1.00 20.00     0.019 C 
HETATM    9  C8  UNL     1     -25.179  18.437  12.313  1.00 20.00     0.019 C 
ENDBRANCH   4   6
TORSDOF 1
ENDMDL
MODEL 7
REMARK VINA RESULT:      -4.3      1.036      3.645
REMARK  1 active torsions:
REMARK  status: ('A' for Active; 'I' for Inactive)
REMARK    1  A    between atoms: C4_4  and  C9_9 
ROOT
HETATM    1  C1  UNL     1     -34.658  14.365  -3.855  1.00 20.00    -0.003 A 
HETATM    2  C2  UNL     1     -35.206  15.290  -2.899  1.00 20.00     0.004 A 
HETATM    3  C3  UNL     1     -33.414  14.742  -4.184  1.00 20.00    -0.022 A 
HETATM    4  C4  UNL     1     -34.303  16.246  -2.632  1.00 20.00    -0.069 A 
HETATM    5  C5  UNL     1     -33.054  15.990  -3.432  1.00 20.00     0.062 A 
ENDROOT
BRANCH   4   6
HETATM    6  C9  UNL     1     -34.434  17.417  -1.696  1.00 20.00    -0.028 C 
HETATM    7  C6  UNL     1     -35.267  16.994  -0.479  1.00 20.00     0.019 C 
HETATM    8  C7  UNL     1     -35.130  18.580  -2.419  1.00 20.00     0.019 C 
HETATM    9  C8  UNL     1     -33.040  17.867  -1.236  1.00 20.00     0.019 C 
ENDBRANCH   4   6
TORSDOF 1
ENDMDL
MODEL 8
REMARK VINA RESULT:      -4.3      1.038      3.638
REMARK  1 active torsions:
REMARK  status: ('A' for Active; 'I' for Inactive)
REMARK    1  A    between atoms: C4_4  and  C9_9 
ROOT
HETATM    1  C1  UNL     1     -34.637  14.354  -3.891  1.00 20.00    -0.003 A 
HETATM    2  C2  UNL     1     -35.203  15.277  -2.943  1.00 20.00     0.004 A 
HETATM    3  C3  UNL     1     -33.385  14.728  -4.190  1.00 20.00    -0.022 A 
HETATM    4  C4  UNL     1     -34.301  16.228  -2.651  1.00 20.00    -0.069 A 
HETATM    5  C5  UNL     1     -33.036  15.971  -3.424  1.00 20.00     0.062 A 
ENDROOT
BRANCH   4   6
HETATM    6  C9  UNL     1     -34.448  17.395  -1.712  1.00 20.00    -0.028 C 
HETATM    7  C6  UNL     1     -35.156  18.542  -2.446  1.00 20.00     0.019 C 
HETATM    8  C7  UNL     1     -33.060  17.859  -1.246  1.00 20.00     0.019 C 
HETATM    9  C8  UNL     1     -35.278  16.973  -0.492  1.00 20.00     0.019 C 
ENDBRANCH   4   6
TORSDOF 1
ENDMDL
MODEL 9
REMARK VINA RESULT:      -4.2     11.280     12.348
REMARK  1 active torsions:
REMARK  status: ('A' for Active; 'I' for Inactive)
REMARK    1  A    between atoms: C4_4  and  C9_9 
ROOT
HETATM    1  C1  UNL     1     -31.983   7.741   3.242  1.00 20.00    -0.003 A 
HETATM    2  C2  UNL     1     -32.868   7.253   4.266  1.00 20.00     0.004 A 
HETATM    3  C3  UNL     1     -32.130   7.003   2.132  1.00 20.00    -0.022 A 
HETATM    4  C4  UNL     1     -33.568   6.210   3.794  1.00 20.00    -0.069 A 
HETATM    5  C5  UNL     1     -33.166   5.942   2.368  1.00 20.00     0.062 A 
ENDROOT
BRANCH   4   6
HETATM    6  C9  UNL     1     -34.609   5.388   4.504  1.00 20.00    -0.028 C 
HETATM    7  C6  UNL     1     -34.294   3.899   4.305  1.00 20.00     0.019 C 
HETATM    8  C7  UNL     1     -35.997   5.703   3.927  1.00 20.00     0.019 C 
HETATM    9  C8  UNL     1     -34.595   5.722   6.003  1.00 20.00     0.019 C 
ENDBRANCH   4   6
TORSDOF 1
ENDMDL
