MODEL 1
REMARK VINA RESULT:      -5.6      0.000      0.000
REMARK  0 active torsions:
REMARK  status: ('A' for Active; 'I' for Inactive)
ROOT
HETATM    1  C1  UNL     1     -34.058   4.586   3.380  1.00 20.00     0.009 A 
HETATM    2  C2  UNL     1     -33.439   5.342   2.381  1.00 20.00     0.019 A 
HETATM    3  C3  UNL     1     -33.269   7.264   3.872  1.00 20.00     0.026 A 
HETATM    4  C4  UNL     1     -34.264   5.197   4.595  1.00 20.00    -0.051 A 
HETATM    5  C5  UNL     1     -33.881   6.494   4.833  1.00 20.00    -0.050 A 
HETATM    6  C6  UNL     1     -33.047   6.673   2.626  1.00 20.00     0.011 A 
HETATM    7  C7  UNL     1     -34.814   5.005   5.977  1.00 20.00     0.043 A 
HETATM    8  C8  UNL     1     -34.379   6.483   6.247  1.00 20.00     0.043 A 
HETATM    9 BR9  UNL     1     -32.209   7.667   1.251  1.00 20.00    -0.051 Br
ENDROOT
TORSDOF 0
ENDMDL
MODEL 2
REMARK VINA RESULT:      -4.8     11.793     12.509
REMARK  0 active torsions:
REMARK  status: ('A' for Active; 'I' for Inactive)
ROOT
HETATM    1  C1  UNL     1     -35.225  16.205  -1.788  1.00 20.00     0.009 A 
HETATM    2  C2  UNL     1     -34.468  17.260  -1.271  1.00 20.00     0.019 A 
HETATM    3  C3  UNL     1     -32.680  16.829  -2.872  1.00 20.00     0.026 A 
HETATM    4  C4  UNL     1     -34.681  15.494  -2.832  1.00 20.00    -0.051 A 
HETATM    5  C5  UNL     1     -33.449  15.797  -3.358  1.00 20.00    -0.050 A 
HETATM    6  C6  UNL     1     -33.204  17.570  -1.810  1.00 20.00     0.011 A 
HETATM    7  C7  UNL     1     -34.912  14.354  -3.780  1.00 20.00     0.043 A 
HETATM    8  C8  UNL     1     -33.507  14.699  -4.378  1.00 20.00     0.043 A 
HETATM    9 BR9  UNL     1     -32.208  19.006  -1.087  1.00 20.00    -0.051 Br
ENDROOT
TORSDOF 0
ENDMDL
MODEL 3
REMARK VINA RESULT:      -4.7     11.731     12.514
REMARK  0 active torsions:
REMARK  status: ('A' for Active; 'I' for Inactive)
ROOT
HETATM    1  C1  UNL     1     -32.737  16.904  -2.868  1.00 20.00     0.009 A 
HETATM    2  C2  UNL     1     -33.340  17.577  -1.803  1.00 20.00     0.019 A 
HETATM    3  C3  UNL     1     -35.251  16.064  -1.862  1.00 20.00     0.026 A 
HETATM    4  C4  UNL     1     -33.414  15.830  -3.398  1.00 20.00    -0.051 A 
HETATM    5  C5  UNL     1     -34.632  15.423  -2.910  1.00 20.00    -0.050 A 
HETATM    6  C6  UNL     1     -34.589  17.159  -1.303  1.00 20.00     0.011 A 
HETATM    7  C7  UNL     1     -33.367  14.757  -4.444  1.00 20.00     0.043 A 
HETATM    8  C8  UNL     1     -34.754  14.294  -3.889  1.00 20.00     0.043 A 
HETATM    9 BR9  UNL     1     -35.375  18.093   0.143  1.00 20.00    -0.051 Br
ENDROOT
TORSDOF 0
ENDMDL
MODEL 4
REMARK VINA RESULT:      -4.6     11.880     12.304
REMARK  0 active torsions:
REMARK  status: ('A' for Active; 'I' for Inactive)
ROOT
HETATM    1  C1  UNL     1     -32.812  15.884  -3.610  1.00 20.00     0.009 A 
HETATM    2  C2  UNL     1     -33.724  15.007  -4.203  1.00 20.00     0.019 A 
HETATM    3  C3  UNL     1     -35.476  15.701  -2.656  1.00 20.00     0.026 A 
HETATM    4  C4  UNL     1     -33.264  16.642  -2.555  1.00 20.00    -0.051 A 
HETATM    5  C5  UNL     1     -34.555  16.554  -2.093  1.00 20.00    -0.050 A 
HETATM    6  C6  UNL     1     -35.047  14.916  -3.729  1.00 20.00     0.011 A 
HETATM    7  C7  UNL     1     -32.874  17.684  -1.548  1.00 20.00     0.043 A 
HETATM    8  C8  UNL     1     -34.344  17.581  -1.022  1.00 20.00     0.043 A 
HETATM    9 BR9  UNL     1     -36.256  13.720  -4.557  1.00 20.00    -0.051 Br
ENDROOT
TORSDOF 0
ENDMDL
MODEL 5
REMARK VINA RESULT:      -4.5      0.781      1.946
REMARK  0 active torsions:
REMARK  status: ('A' for Active; 'I' for Inactive)
ROOT
HETATM    1  C1  UNL     1     -33.035   7.341   5.157  1.00 20.00     0.009 A 
HETATM    2  C2  UNL     1     -32.491   7.750   3.937  1.00 20.00     0.019 A 
HETATM    3  C3  UNL     1     -33.706   6.001   2.750  1.00 20.00     0.026 A 
HETATM    4  C4  UNL     1     -33.899   6.271   5.133  1.00 20.00    -0.051 A 
HETATM    5  C5  UNL     1     -34.224   5.622   3.966  1.00 20.00    -0.050 A 
HETATM    6  C6  UNL     1     -32.824   7.084   2.741  1.00 20.00     0.011 A 
HETATM    7  C7  UNL     1     -34.765   5.385   5.979  1.00 20.00     0.043 A 
HETATM    8  C8  UNL     1     -35.134   4.646   4.650  1.00 20.00     0.043 A 
HETATM    9 BR9  UNL     1     -32.070   7.667   1.107  1.00 20.00    -0.051 Br
ENDROOT
TORSDOF 0
ENDMDL
MODEL 6
REMARK VINA RESULT:      -4.4     11.809     12.580
REMARK  0 active torsions:
REMARK  status: ('A' for Active; 'I' for Inactive)
ROOT
HETATM    1  C1  UNL     1     -35.143  16.714  -1.242  1.00 20.00     0.009 A 
HETATM    2  C2  UNL     1     -35.059  15.829  -2.320  1.00 20.00     0.019 A 
HETATM    3  C3  UNL     1     -32.850  16.675  -2.910  1.00 20.00     0.026 A 
HETATM    4  C4  UNL     1     -34.074  17.555  -1.034  1.00 20.00    -0.051 A 
HETATM    5  C5  UNL     1     -32.963  17.536  -1.842  1.00 20.00    -0.050 A 
HETATM    6  C6  UNL     1     -33.920  15.810  -3.148  1.00 20.00     0.011 A 
HETATM    7  C7  UNL     1     -33.536  18.647  -0.159  1.00 20.00     0.043 A 
HETATM    8  C8  UNL     1     -32.272  18.626  -1.080  1.00 20.00     0.043 A 
HETATM    9 BR9  UNL     1     -33.840  14.596  -4.597  1.00 20.00    -0.051 Br
ENDROOT
TORSDOF 0
ENDMDL
MODEL 7
REMARK VINA RESULT:      -4.4     11.771     12.342
REMARK  0 active torsions:
REMARK  status: ('A' for Active; 'I' for Inactive)
ROOT
HETATM    1  C1  UNL     1     -32.841  17.559  -1.971  1.00 20.00     0.009 A 
HETATM    2  C2  UNL     1     -32.931  16.616  -2.998  1.00 20.00     0.019 A 
HETATM    3  C3  UNL     1     -35.105  15.866  -2.188  1.00 20.00     0.026 A 
HETATM    4  C4  UNL     1     -33.889  17.623  -1.083  1.00 20.00    -0.051 A 
HETATM    5  C5  UNL     1     -34.986  16.804  -1.188  1.00 20.00    -0.050 A 
HETATM    6  C6  UNL     1     -34.056  15.775  -3.106  1.00 20.00     0.011 A 
HETATM    7  C7  UNL     1     -34.411  18.324   0.136  1.00 20.00     0.043 A 
HETATM    8  C8  UNL     1     -35.660  17.389   0.017  1.00 20.00     0.043 A 
HETATM    9 BR9  UNL     1     -34.146  14.511  -4.510  1.00 20.00    -0.051 Br
ENDROOT
TORSDOF 0
ENDMDL
MODEL 8
REMARK VINA RESULT:      -4.3     12.073     12.249
REMARK  0 active torsions:
REMARK  status: ('A' for Active; 'I' for Inactive)
ROOT
HETATM    1  C1  UNL     1     -33.589  14.666  -4.317  1.00 20.00     0.009 A 
HETATM    2  C2  UNL     1     -33.067  15.655  -3.480  1.00 20.00     0.019 A 
HETATM    3  C3  UNL     1     -35.296  16.218  -2.669  1.00 20.00     0.026 A 
HETATM    4  C4  UNL     1     -34.953  14.486  -4.303  1.00 20.00    -0.051 A 
HETATM    5  C5  UNL     1     -35.780  15.238  -3.505  1.00 20.00    -0.050 A 
HETATM    6  C6  UNL     1     -33.915  16.426  -2.661  1.00 20.00     0.011 A 
HETATM    7  C7  UNL     1     -36.082  13.688  -4.885  1.00 20.00     0.043 A 
HETATM    8  C8  UNL     1     -37.024  14.546  -3.976  1.00 20.00     0.043 A 
HETATM    9 BR9  UNL     1     -33.173  17.756  -1.539  1.00 20.00    -0.051 Br
ENDROOT
TORSDOF 0
ENDMDL
MODEL 9
REMARK VINA RESULT:      -4.2      9.865     10.251
REMARK  0 active torsions:
REMARK  status: ('A' for Active; 'I' for Inactive)
ROOT
HETATM    1  C1  UNL     1     -40.721   6.356  -0.498  1.00 20.00     0.009 A 
HETATM    2  C2  UNL     1     -41.267   5.226  -1.112  1.00 20.00     0.019 A 
HETATM    3  C3  UNL     1     -43.415   6.349  -1.385  1.00 20.00     0.026 A 
HETATM    4  C4  UNL     1     -41.544   7.447  -0.346  1.00 20.00    -0.051 A 
HETATM    5  C5  UNL     1     -42.848   7.444  -0.776  1.00 20.00    -0.050 A 
HETATM    6  C6  UNL     1     -42.605   5.222  -1.553  1.00 20.00     0.011 A 
HETATM    7  C7  UNL     1     -41.618   8.853   0.172  1.00 20.00     0.043 A 
HETATM    8  C8  UNL     1     -43.104   8.849  -0.317  1.00 20.00     0.043 A 
HETATM    9 BR9  UNL     1     -43.311   3.676  -2.383  1.00 20.00    -0.051 Br
ENDROOT
TORSDOF 0
ENDMDL
