MODEL 1
REMARK VINA RESULT:      -4.5      0.000      0.000
REMARK  2 active torsions:
REMARK  status: ('A' for Active; 'I' for Inactive)
REMARK    1  A    between atoms: C3_3  and  C10_10 
REMARK    2  A    between atoms: C4_4  and  C10_10 
ROOT
HETATM    1  C5  UNL     1     -22.128  18.541   9.016  1.00 20.00     0.000 C 
HETATM    2  C6  UNL     1     -21.760  17.742  10.260  1.00 20.00     0.001 C 
HETATM    3  C7  UNL     1     -23.576  18.302   8.605  1.00 20.00     0.001 C 
HETATM    4  C8  UNL     1     -22.711  18.036  11.420  1.00 20.00     0.017 C 
HETATM    5  C9  UNL     1     -24.545  18.596   9.752  1.00 20.00     0.017 C 
HETATM    6  C10 UNL     1     -24.192  17.842  11.046  1.00 20.00    -0.006 C 
ENDROOT
BRANCH   6   7
HETATM    7  C3  UNL     1     -24.490  16.373  10.883  1.00 20.00    -0.023 C 
HETATM    8  C1  UNL     1     -24.737  15.542  11.902  1.00 20.00     0.008 C 
ENDBRANCH   6   7
BRANCH   6   9
HETATM    9  C4  UNL     1     -25.047  18.413  12.149  1.00 20.00    -0.023 C 
HETATM   10  C2  UNL     1     -26.157  19.129  11.940  1.00 20.00     0.008 C 
ENDBRANCH   6   9
TORSDOF 2
ENDMDL
MODEL 2
REMARK VINA RESULT:      -4.2      1.062      2.201
REMARK  2 active torsions:
REMARK  status: ('A' for Active; 'I' for Inactive)
REMARK    1  A    between atoms: C3_3  and  C10_10 
REMARK    2  A    between atoms: C4_4  and  C10_10 
ROOT
HETATM    1  C5  UNL     1     -23.952  19.210   8.310  1.00 20.00     0.000 C 
HETATM    2  C6  UNL     1     -22.918  18.091   8.323  1.00 20.00     0.001 C 
HETATM    3  C7  UNL     1     -25.041  18.977   9.351  1.00 20.00     0.001 C 
HETATM    4  C8  UNL     1     -22.312  17.899   9.714  1.00 20.00     0.017 C 
HETATM    5  C9  UNL     1     -24.455  18.789  10.750  1.00 20.00     0.017 C 
HETATM    6  C10 UNL     1     -23.375  17.695  10.809  1.00 20.00    -0.006 C 
ENDROOT
BRANCH   6   7
HETATM    7  C3  UNL     1     -24.010  16.336  10.656  1.00 20.00    -0.023 C 
HETATM    8  C1  UNL     1     -24.701  15.720  11.622  1.00 20.00     0.008 C 
ENDBRANCH   6   7
BRANCH   6   9
HETATM    9  C4  UNL     1     -22.705  17.793  12.156  1.00 20.00    -0.023 C 
HETATM   10  C2  UNL     1     -21.381  17.827  12.331  1.00 20.00     0.008 C 
ENDBRANCH   6   9
TORSDOF 2
ENDMDL
MODEL 3
REMARK VINA RESULT:      -4.1     16.291     17.782
REMARK  2 active torsions:
REMARK  status: ('A' for Active; 'I' for Inactive)
REMARK    1  A    between atoms: C3_3  and  C10_10 
REMARK    2  A    between atoms: C4_4  and  C10_10 
ROOT
HETATM    1  C5  UNL     1     -33.648  17.583  -1.181  1.00 20.00     0.000 C 
HETATM    2  C6  UNL     1     -32.859  17.611  -2.484  1.00 20.00     0.001 C 
HETATM    3  C7  UNL     1     -35.105  17.207  -1.418  1.00 20.00     0.001 C 
HETATM    4  C8  UNL     1     -32.964  16.284  -3.236  1.00 20.00     0.017 C 
HETATM    5  C9  UNL     1     -35.232  15.878  -2.164  1.00 20.00     0.017 C 
HETATM    6  C10 UNL     1     -34.420  15.841  -3.470  1.00 20.00    -0.006 C 
ENDROOT
BRANCH   6   7
HETATM    7  C3  UNL     1     -35.064  16.731  -4.503  1.00 20.00    -0.023 C 
HETATM    8  C1  UNL     1     -34.573  16.930  -5.731  1.00 20.00     0.008 C 
ENDBRANCH   6   7
BRANCH   6   9
HETATM    9  C4  UNL     1     -34.417  14.415  -3.961  1.00 20.00    -0.023 C 
HETATM   10  C2  UNL     1     -35.523  13.695  -4.170  1.00 20.00     0.008 C 
ENDBRANCH   6   9
TORSDOF 2
ENDMDL
MODEL 4
REMARK VINA RESULT:      -4.1     16.003     17.504
REMARK  2 active torsions:
REMARK  status: ('A' for Active; 'I' for Inactive)
REMARK    1  A    between atoms: C3_3  and  C10_10 
REMARK    2  A    between atoms: C4_4  and  C10_10 
ROOT
HETATM    1  C5  UNL     1     -34.615  14.114  -3.944  1.00 20.00     0.000 C 
HETATM    2  C6  UNL     1     -35.738  15.007  -3.432  1.00 20.00     0.001 C 
HETATM    3  C7  UNL     1     -33.429  14.934  -4.439  1.00 20.00     0.001 C 
HETATM    4  C8  UNL     1     -35.246  15.965  -2.346  1.00 20.00     0.017 C 
HETATM    5  C9  UNL     1     -32.919  15.895  -3.364  1.00 20.00     0.017 C 
HETATM    6  C10 UNL     1     -34.025  16.793  -2.786  1.00 20.00    -0.006 C 
ENDROOT
BRANCH   6   7
HETATM    7  C3  UNL     1     -34.445  17.818  -3.810  1.00 20.00    -0.023 C 
HETATM    8  C1  UNL     1     -35.403  18.729  -3.608  1.00 20.00     0.008 C 
ENDBRANCH   6   7
BRANCH   6   9
HETATM    9  C4  UNL     1     -33.455  17.490  -1.577  1.00 20.00    -0.023 C 
HETATM   10  C2  UNL     1     -32.269  18.107  -1.559  1.00 20.00     0.008 C 
ENDBRANCH   6   9
TORSDOF 2
ENDMDL
MODEL 5
REMARK VINA RESULT:      -4.0     15.900     17.415
REMARK  2 active torsions:
REMARK  status: ('A' for Active; 'I' for Inactive)
REMARK    1  A    between atoms: C3_3  and  C10_10 
REMARK    2  A    between atoms: C4_4  and  C10_10 
ROOT
HETATM    1  C5  UNL     1     -33.776  17.840  -0.687  1.00 20.00     0.000 C 
HETATM    2  C6  UNL     1     -32.932  18.026  -1.942  1.00 20.00     0.001 C 
HETATM    3  C7  UNL     1     -35.188  17.379  -1.025  1.00 20.00     0.001 C 
HETATM    4  C8  UNL     1     -32.903  16.757  -2.795  1.00 20.00     0.017 C 
HETATM    5  C9  UNL     1     -35.180  16.106  -1.873  1.00 20.00     0.017 C 
HETATM    6  C10 UNL     1     -34.309  16.230  -3.135  1.00 20.00    -0.006 C 
ENDROOT
BRANCH   6   7
HETATM    7  C3  UNL     1     -34.972  17.149  -4.131  1.00 20.00    -0.023 C 
HETATM    8  C1  UNL     1     -36.094  16.849  -4.794  1.00 20.00     0.008 C 
ENDBRANCH   6   7
BRANCH   6   9
HETATM    9  C4  UNL     1     -34.176  14.851  -3.729  1.00 20.00    -0.023 C 
HETATM   10  C2  UNL     1     -33.118  14.439  -4.435  1.00 20.00     0.008 C 
ENDBRANCH   6   9
TORSDOF 2
ENDMDL
MODEL 6
REMARK VINA RESULT:      -3.9     16.235     17.634
REMARK  2 active torsions:
REMARK  status: ('A' for Active; 'I' for Inactive)
REMARK    1  A    between atoms: C3_3  and  C10_10 
REMARK    2  A    between atoms: C4_4  and  C10_10 
ROOT
HETATM    1  C5  UNL     1     -34.468  15.331  -5.716  1.00 20.00     0.000 C 
HETATM    2  C6  UNL     1     -33.818  14.529  -4.595  1.00 20.00     0.001 C 
HETATM    3  C7  UNL     1     -35.333  16.460  -5.168  1.00 20.00     0.001 C 
HETATM    4  C8  UNL     1     -33.013  15.426  -3.654  1.00 20.00     0.017 C 
HETATM    5  C9  UNL     1     -34.544  17.372  -4.228  1.00 20.00     0.017 C 
HETATM    6  C10 UNL     1     -33.834  16.603  -3.099  1.00 20.00    -0.006 C 
ENDROOT
BRANCH   6   7
HETATM    7  C3  UNL     1     -34.849  16.095  -2.105  1.00 20.00    -0.023 C 
HETATM    8  C1  UNL     1     -35.230  16.768  -1.014  1.00 20.00     0.008 C 
ENDBRANCH   6   7
BRANCH   6   9
HETATM    9  C4  UNL     1     -32.896  17.567  -2.417  1.00 20.00    -0.023 C 
HETATM   10  C2  UNL     1     -32.595  18.779  -2.891  1.00 20.00     0.008 C 
ENDBRANCH   6   9
TORSDOF 2
ENDMDL
MODEL 7
REMARK VINA RESULT:      -3.9     17.381     18.843
REMARK  2 active torsions:
REMARK  status: ('A' for Active; 'I' for Inactive)
REMARK    1  A    between atoms: C3_3  and  C10_10 
REMARK    2  A    between atoms: C4_4  and  C10_10 
ROOT
HETATM    1  C5  UNL     1     -37.351  15.538  -5.160  1.00 20.00     0.000 C 
HETATM    2  C6  UNL     1     -36.991  14.398  -4.215  1.00 20.00     0.001 C 
HETATM    3  C7  UNL     1     -36.717  16.852  -4.719  1.00 20.00     0.001 C 
HETATM    4  C8  UNL     1     -35.477  14.250  -4.062  1.00 20.00     0.017 C 
HETATM    5  C9  UNL     1     -35.201  16.725  -4.567  1.00 20.00     0.017 C 
HETATM    6  C10 UNL     1     -34.783  15.561  -3.651  1.00 20.00    -0.006 C 
ENDROOT
BRANCH   6   7
HETATM    7  C3  UNL     1     -35.118  15.888  -2.217  1.00 20.00    -0.023 C 
HETATM    8  C1  UNL     1     -34.599  16.921  -1.544  1.00 20.00     0.008 C 
ENDBRANCH   6   7
BRANCH   6   9
HETATM    9  C4  UNL     1     -33.293  15.385  -3.795  1.00 20.00    -0.023 C 
HETATM   10  C2  UNL     1     -32.720  14.388  -4.477  1.00 20.00     0.008 C 
ENDBRANCH   6   9
TORSDOF 2
ENDMDL
MODEL 8
REMARK VINA RESULT:      -3.9     23.520     24.639
REMARK  2 active torsions:
REMARK  status: ('A' for Active; 'I' for Inactive)
REMARK    1  A    between atoms: C3_3  and  C10_10 
REMARK    2  A    between atoms: C4_4  and  C10_10 
ROOT
HETATM    1  C5  UNL     1     -41.796   8.819  -0.256  1.00 20.00     0.000 C 
HETATM    2  C6  UNL     1     -43.153   8.393  -0.803  1.00 20.00     0.001 C 
HETATM    3  C7  UNL     1     -41.207   7.758   0.667  1.00 20.00     0.001 C 
HETATM    4  C8  UNL     1     -43.078   7.039  -1.507  1.00 20.00     0.017 C 
HETATM    5  C9  UNL     1     -41.118   6.396  -0.022  1.00 20.00     0.017 C 
HETATM    6  C10 UNL     1     -42.457   5.938  -0.627  1.00 20.00    -0.006 C 
ENDROOT
BRANCH   6   7
HETATM    7  C3  UNL     1     -43.417   5.562   0.473  1.00 20.00    -0.023 C 
HETATM    8  C1  UNL     1     -43.058   4.931   1.597  1.00 20.00     0.008 C 
ENDBRANCH   6   7
BRANCH   6   9
HETATM    9  C4  UNL     1     -42.175   4.733  -1.488  1.00 20.00    -0.023 C 
HETATM   10  C2  UNL     1     -43.096   4.117  -2.236  1.00 20.00     0.008 C 
ENDBRANCH   6   9
TORSDOF 2
ENDMDL
MODEL 9
REMARK VINA RESULT:      -3.9     16.758     18.159
REMARK  2 active torsions:
REMARK  status: ('A' for Active; 'I' for Inactive)
REMARK    1  A    between atoms: C3_3  and  C10_10 
REMARK    2  A    between atoms: C4_4  and  C10_10 
ROOT
HETATM    1  C5  UNL     1     -36.206  14.760  -5.154  1.00 20.00     0.000 C 
HETATM    2  C6  UNL     1     -35.384  13.952  -4.157  1.00 20.00     0.001 C 
HETATM    3  C7  UNL     1     -36.556  16.137  -4.604  1.00 20.00     0.001 C 
HETATM    4  C8  UNL     1     -34.124  14.703  -3.726  1.00 20.00     0.017 C 
HETATM    5  C9  UNL     1     -35.307  16.907  -4.171  1.00 20.00     0.017 C 
HETATM    6  C10 UNL     1     -34.421  16.116  -3.194  1.00 20.00    -0.006 C 
ENDROOT
BRANCH   6   7
HETATM    7  C3  UNL     1     -35.094  16.024  -1.847  1.00 20.00    -0.023 C 
HETATM    8  C1  UNL     1     -35.125  17.021  -0.956  1.00 20.00     0.008 C 
ENDBRANCH   6   7
BRANCH   6   9
HETATM    9  C4  UNL     1     -33.119  16.864  -3.058  1.00 20.00    -0.023 C 
HETATM   10  C2  UNL     1     -32.910  18.094  -3.537  1.00 20.00     0.008 C 
ENDBRANCH   6   9
TORSDOF 2
ENDMDL
