MODEL 1
REMARK VINA RESULT:      -4.3      0.000      0.000
REMARK  0 active torsions:
REMARK  status: ('A' for Active; 'I' for Inactive)
ROOT
HETATM    1  C1  UNL     1     -35.317  13.765  -4.119  1.00 20.00     0.119 C 
HETATM    2  C2  UNL     1     -35.033  15.625  -2.497  1.00 20.00     0.063 A 
HETATM    3  C3  UNL     1     -33.053  16.294  -3.195  1.00 20.00     0.137 A 
HETATM    4  C4  UNL     1     -34.590  14.857  -3.551  1.00 20.00     0.137 A 
HETATM    5  C5  UNL     1     -34.035  16.558  -2.267  1.00 20.00     0.031 A 
HETATM    6  N6  UNL     1     -35.907  12.879  -4.580  1.00 20.00    -0.190 NA
HETATM    7  N7  UNL     1     -33.388  15.261  -3.976  1.00 20.00    -0.249 NA
HETATM    8 BR8  UNL     1     -34.026  17.903  -0.958  1.00 20.00    -0.050 Br
ENDROOT
TORSDOF 0
ENDMDL
MODEL 2
REMARK VINA RESULT:      -4.1     16.690     17.469
REMARK  0 active torsions:
REMARK  status: ('A' for Active; 'I' for Inactive)
ROOT
HETATM    1  C1  UNL     1     -22.403  17.675   8.208  1.00 20.00     0.119 C 
HETATM    2  C2  UNL     1     -24.329  18.035   9.736  1.00 20.00     0.063 A 
HETATM    3  C3  UNL     1     -23.210  17.875  11.627  1.00 20.00     0.137 A 
HETATM    4  C4  UNL     1     -22.991  17.801   9.505  1.00 20.00     0.137 A 
HETATM    5  C5  UNL     1     -24.470  18.083  11.113  1.00 20.00     0.031 A 
HETATM    6  N6  UNL     1     -21.925  17.574   7.156  1.00 20.00    -0.190 NA
HETATM    7  N7  UNL     1     -22.310  17.703  10.652  1.00 20.00    -0.249 NA
HETATM    8 BR8  UNL     1     -26.054  18.372  12.076  1.00 20.00    -0.050 Br
ENDROOT
TORSDOF 0
ENDMDL
MODEL 3
REMARK VINA RESULT:      -4.0     15.904     16.870
REMARK  0 active torsions:
REMARK  status: ('A' for Active; 'I' for Inactive)
ROOT
HETATM    1  C1  UNL     1     -24.400  18.863   7.294  1.00 20.00     0.119 C 
HETATM    2  C2  UNL     1     -23.995  18.385   9.698  1.00 20.00     0.063 A 
HETATM    3  C3  UNL     1     -21.814  18.112   9.558  1.00 20.00     0.137 A 
HETATM    4  C4  UNL     1     -23.554  18.553   8.404  1.00 20.00     0.137 A 
HETATM    5  C5  UNL     1     -22.865  18.099  10.446  1.00 20.00     0.031 A 
HETATM    6  N6  UNL     1     -25.086  19.114   6.393  1.00 20.00    -0.190 NA
HETATM    7  N7  UNL     1     -22.230  18.388   8.316  1.00 20.00    -0.249 NA
HETATM    8 BR8  UNL     1     -22.787  17.763  12.291  1.00 20.00    -0.050 Br
ENDROOT
TORSDOF 0
ENDMDL
MODEL 4
REMARK VINA RESULT:      -3.8      1.387      1.598
REMARK  0 active torsions:
REMARK  status: ('A' for Active; 'I' for Inactive)
ROOT
HETATM    1  C1  UNL     1     -35.657  13.858  -4.177  1.00 20.00     0.119 C 
HETATM    2  C2  UNL     1     -34.063  15.452  -3.134  1.00 20.00     0.063 A 
HETATM    3  C3  UNL     1     -35.509  17.067  -2.744  1.00 20.00     0.137 A 
HETATM    4  C4  UNL     1     -35.325  15.104  -3.560  1.00 20.00     0.137 A 
HETATM    5  C5  UNL     1     -34.183  16.727  -2.604  1.00 20.00     0.031 A 
HETATM    6  N6  UNL     1     -35.927  12.847  -4.678  1.00 20.00    -0.190 NA
HETATM    7  N7  UNL     1     -36.205  16.083  -3.324  1.00 20.00    -0.249 NA
HETATM    8 BR8  UNL     1     -32.816  17.770  -1.852  1.00 20.00    -0.050 Br
ENDROOT
TORSDOF 0
ENDMDL
MODEL 5
REMARK VINA RESULT:      -3.7     11.003     11.568
REMARK  0 active torsions:
REMARK  status: ('A' for Active; 'I' for Inactive)
ROOT
HETATM    1  C1  UNL     1     -32.579   7.436   1.684  1.00 20.00     0.119 C 
HETATM    2  C2  UNL     1     -33.628   6.797   3.843  1.00 20.00     0.063 A 
HETATM    3  C3  UNL     1     -33.872   4.652   3.402  1.00 20.00     0.137 A 
HETATM    4  C4  UNL     1     -33.154   6.489   2.587  1.00 20.00     0.137 A 
HETATM    5  C5  UNL     1     -34.094   5.604   4.371  1.00 20.00     0.031 A 
HETATM    6  N6  UNL     1     -32.112   8.204   0.950  1.00 20.00    -0.190 NA
HETATM    7  N7  UNL     1     -33.301   5.187   2.317  1.00 20.00    -0.249 NA
HETATM    8 BR8  UNL     1     -34.868   5.344   6.061  1.00 20.00    -0.050 Br
ENDROOT
TORSDOF 0
ENDMDL
MODEL 6
REMARK VINA RESULT:      -3.7      3.082      4.482
REMARK  0 active torsions:
REMARK  status: ('A' for Active; 'I' for Inactive)
ROOT
HETATM    1  C1  UNL     1     -32.250  18.185  -1.563  1.00 20.00     0.119 C 
HETATM    2  C2  UNL     1     -33.187  16.335  -2.931  1.00 20.00     0.063 A 
HETATM    3  C3  UNL     1     -35.131  16.193  -1.903  1.00 20.00     0.137 A 
HETATM    4  C4  UNL     1     -33.280  17.256  -1.912  1.00 20.00     0.137 A 
HETATM    5  C5  UNL     1     -34.389  15.645  -2.924  1.00 20.00     0.031 A 
HETATM    6  N6  UNL     1     -31.415  18.938  -1.280  1.00 20.00    -0.190 NA
HETATM    7  N7  UNL     1     -34.459  17.173  -1.286  1.00 20.00    -0.249 NA
HETATM    8 BR8  UNL     1     -34.897  14.250  -4.073  1.00 20.00    -0.050 Br
ENDROOT
TORSDOF 0
ENDMDL
MODEL 7
REMARK VINA RESULT:      -3.6     17.294     18.013
REMARK  0 active torsions:
REMARK  status: ('A' for Active; 'I' for Inactive)
ROOT
HETATM    1  C1  UNL     1     -26.055  18.396  11.709  1.00 20.00     0.119 C 
HETATM    2  C2  UNL     1     -24.152  18.121  10.137  1.00 20.00     0.063 A 
HETATM    3  C3  UNL     1     -22.596  17.756  11.653  1.00 20.00     0.137 A 
HETATM    4  C4  UNL     1     -24.679  18.155  11.408  1.00 20.00     0.137 A 
HETATM    5  C5  UNL     1     -22.800  17.862  10.296  1.00 20.00     0.031 A 
HETATM    6  N6  UNL     1     -27.172  18.593  11.953  1.00 20.00    -0.190 NA
HETATM    7  N7  UNL     1     -23.736  17.934  12.331  1.00 20.00    -0.249 NA
HETATM    8 BR8  UNL     1     -21.515  17.692   8.940  1.00 20.00    -0.050 Br
ENDROOT
TORSDOF 0
ENDMDL
MODEL 8
REMARK VINA RESULT:      -3.6     10.922     12.160
REMARK  0 active torsions:
REMARK  status: ('A' for Active; 'I' for Inactive)
ROOT
HETATM    1  C1  UNL     1     -41.527   9.106   0.167  1.00 20.00     0.119 C 
HETATM    2  C2  UNL     1     -42.615   7.231  -1.047  1.00 20.00     0.063 A 
HETATM    3  C3  UNL     1     -41.479   5.598  -0.101  1.00 20.00     0.137 A 
HETATM    4  C4  UNL     1     -41.710   7.719  -0.132  1.00 20.00     0.137 A 
HETATM    5  C5  UNL     1     -42.465   5.854  -1.026  1.00 20.00     0.031 A 
HETATM    6  N6  UNL     1     -41.379  10.230   0.409  1.00 20.00    -0.190 NA
HETATM    7  N7  UNL     1     -41.019   6.730   0.445  1.00 20.00    -0.249 NA
HETATM    8 BR8  UNL     1     -43.412   4.599  -2.051  1.00 20.00    -0.050 Br
ENDROOT
TORSDOF 0
ENDMDL
MODEL 9
REMARK VINA RESULT:      -3.5      2.952      3.721
REMARK  0 active torsions:
REMARK  status: ('A' for Active; 'I' for Inactive)
ROOT
HETATM    1  C1  UNL     1     -39.157  15.136  -4.218  1.00 20.00     0.119 C 
HETATM    2  C2  UNL     1     -36.775  15.681  -3.767  1.00 20.00     0.063 A 
HETATM    3  C3  UNL     1     -35.929  13.747  -4.396  1.00 20.00     0.137 A 
HETATM    4  C4  UNL     1     -37.762  14.819  -4.191  1.00 20.00     0.137 A 
HETATM    5  C5  UNL     1     -35.585  14.984  -3.901  1.00 20.00     0.031 A 
HETATM    6  N6  UNL     1     -40.288  15.392  -4.240  1.00 20.00    -0.190 NA
HETATM    7  N7  UNL     1     -37.251  13.644  -4.574  1.00 20.00    -0.249 NA
HETATM    8 BR8  UNL     1     -33.862  15.602  -3.489  1.00 20.00    -0.050 Br
ENDROOT
TORSDOF 0
ENDMDL
