MODEL 1
REMARK VINA RESULT:      -4.4      0.000      0.000
REMARK  1 active torsions:
REMARK  status: ('A' for Active; 'I' for Inactive)
REMARK    1  A    between atoms: C6_6  and  C7_7 
ROOT
HETATM    1  C3  UNL     1     -35.319   4.936   4.715  1.00 20.00     0.296 C 
HETATM    2  C4  UNL     1     -34.796   5.350   6.085  1.00 20.00     0.197 C 
HETATM    3  C5  UNL     1     -33.290   6.861   5.099  1.00 20.00     0.203 C 
HETATM    4  C7  UNL     1     -33.775   6.480   3.696  1.00 20.00     0.248 C 
HETATM    5  N8  UNL     1     -34.275   5.098   3.701  1.00 20.00     0.092 N 
HETATM    6  O9  UNL     1     -34.342   6.702   6.052  1.00 20.00    -0.387 OA
HETATM    7  H22 UNL     1     -33.504   4.467   3.925  1.00 20.00     0.316 HD
ENDROOT
BRANCH   4   8
HETATM    8  C6  UNL     1     -32.667   6.606   2.689  1.00 20.00     0.021 A 
HETATM    9  C1  UNL     1     -32.656   7.751   1.713  1.00 20.00     0.007 A 
HETATM   10  C2  UNL     1     -31.644   7.700   2.823  1.00 20.00     0.007 A 
ENDBRANCH   4   8
TORSDOF 1
ENDMDL
MODEL 2
REMARK VINA RESULT:      -4.1     15.559     16.467
REMARK  1 active torsions:
REMARK  status: ('A' for Active; 'I' for Inactive)
REMARK    1  A    between atoms: C6_6  and  C7_7 
ROOT
HETATM    1  C3  UNL     1     -25.690  18.855   7.756  1.00 20.00     0.296 C 
HETATM    2  C4  UNL     1     -24.436  19.263   6.992  1.00 20.00     0.197 C 
HETATM    3  C5  UNL     1     -23.069  18.342   8.668  1.00 20.00     0.203 C 
HETATM    4  C7  UNL     1     -24.295  17.912   9.479  1.00 20.00     0.248 C 
HETATM    5  N8  UNL     1     -25.420  18.813   9.194  1.00 20.00     0.092 N 
HETATM    6  O9  UNL     1     -23.371  18.354   7.272  1.00 20.00    -0.387 OA
HETATM    7  H22 UNL     1     -25.179  19.755   9.507  1.00 20.00     0.316 HD
ENDROOT
BRANCH   4   8
HETATM    8  C6  UNL     1     -24.002  17.931  10.953  1.00 20.00     0.021 A 
HETATM    9  C1  UNL     1     -23.699  16.651  11.682  1.00 20.00     0.007 A 
HETATM   10  C2  UNL     1     -22.609  17.660  11.451  1.00 20.00     0.007 A 
ENDBRANCH   4   8
TORSDOF 1
ENDMDL
MODEL 3
REMARK VINA RESULT:      -4.0     15.979     16.533
REMARK  1 active torsions:
REMARK  status: ('A' for Active; 'I' for Inactive)
REMARK    1  A    between atoms: C6_6  and  C7_7 
ROOT
HETATM    1  C3  UNL     1     -23.200  18.547   8.422  1.00 20.00     0.296 C 
HETATM    2  C4  UNL     1     -22.362  17.303   8.690  1.00 20.00     0.197 C 
HETATM    3  C5  UNL     1     -23.708  16.744  10.534  1.00 20.00     0.203 C 
HETATM    4  C7  UNL     1     -24.582  17.982  10.314  1.00 20.00     0.248 C 
HETATM    5  N8  UNL     1     -23.792  19.040   9.668  1.00 20.00     0.092 N 
HETATM    6  O9  UNL     1     -23.164  16.288   9.294  1.00 20.00    -0.387 OA
HETATM    7  H22 UNL     1     -23.039  19.322  10.296  1.00 20.00     0.316 HD
ENDROOT
BRANCH   4   8
HETATM    8  C6  UNL     1     -25.131  18.495  11.616  1.00 20.00     0.021 A 
HETATM    9  C1  UNL     1     -26.525  19.054  11.683  1.00 20.00     0.007 A 
HETATM   10  C2  UNL     1     -26.213  17.735  12.332  1.00 20.00     0.007 A 
ENDBRANCH   4   8
TORSDOF 1
ENDMDL
MODEL 4
REMARK VINA RESULT:      -3.9     12.276     13.541
REMARK  1 active torsions:
REMARK  status: ('A' for Active; 'I' for Inactive)
REMARK    1  A    between atoms: C6_6  and  C7_7 
ROOT
HETATM    1  C3  UNL     1     -34.243  15.430  -7.615  1.00 20.00     0.296 C 
HETATM    2  C4  UNL     1     -35.651  14.856  -7.720  1.00 20.00     0.197 C 
HETATM    3  C5  UNL     1     -35.936  15.022  -5.393  1.00 20.00     0.203 C 
HETATM    4  C7  UNL     1     -34.527  15.600  -5.228  1.00 20.00     0.248 C 
HETATM    5  N8  UNL     1     -33.659  15.113  -6.309  1.00 20.00     0.092 N 
HETATM    6  O9  UNL     1     -36.472  15.368  -6.671  1.00 20.00    -0.387 OA
HETATM    7  H22 UNL     1     -33.570  14.099  -6.232  1.00 20.00     0.316 HD
ENDROOT
BRANCH   4   8
HETATM    8  C6  UNL     1     -33.936  15.213  -3.902  1.00 20.00     0.021 A 
HETATM    9  C1  UNL     1     -33.285  16.251  -3.029  1.00 20.00     0.007 A 
HETATM   10  C2  UNL     1     -34.599  15.645  -2.623  1.00 20.00     0.007 A 
ENDBRANCH   4   8
TORSDOF 1
ENDMDL
MODEL 5
REMARK VINA RESULT:      -3.7     11.673     12.087
REMARK  1 active torsions:
REMARK  status: ('A' for Active; 'I' for Inactive)
REMARK    1  A    between atoms: C6_6  and  C7_7 
ROOT
HETATM    1  C3  UNL     1     -37.157  14.522  -4.164  1.00 20.00     0.296 C 
HETATM    2  C4  UNL     1     -36.213  13.574  -4.893  1.00 20.00     0.197 C 
HETATM    3  C5  UNL     1     -34.352  14.562  -3.852  1.00 20.00     0.203 C 
HETATM    4  C7  UNL     1     -35.254  15.542  -3.095  1.00 20.00     0.248 C 
HETATM    5  N8  UNL     1     -36.481  15.786  -3.867  1.00 20.00     0.092 N 
HETATM    6  O9  UNL     1     -35.045  13.340  -4.107  1.00 20.00    -0.387 OA
HETATM    7  H22 UNL     1     -36.235  16.238  -4.748  1.00 20.00     0.316 HD
ENDROOT
BRANCH   4   8
HETATM    8  C6  UNL     1     -34.550  16.848  -2.853  1.00 20.00     0.021 A 
HETATM    9  C1  UNL     1     -34.150  17.246  -1.459  1.00 20.00     0.007 A 
HETATM   10  C2  UNL     1     -33.098  16.863  -2.462  1.00 20.00     0.007 A 
ENDBRANCH   4   8
TORSDOF 1
ENDMDL
MODEL 6
REMARK VINA RESULT:      -3.7     12.044     12.553
REMARK  1 active torsions:
REMARK  status: ('A' for Active; 'I' for Inactive)
REMARK    1  A    between atoms: C6_6  and  C7_7 
ROOT
HETATM    1  C3  UNL     1     -38.068  16.174  -3.826  1.00 20.00     0.296 C 
HETATM    2  C4  UNL     1     -38.608  14.949  -4.553  1.00 20.00     0.197 C 
HETATM    3  C5  UNL     1     -36.444  14.047  -4.725  1.00 20.00     0.203 C 
HETATM    4  C7  UNL     1     -35.846  15.258  -4.002  1.00 20.00     0.248 C 
HETATM    5  N8  UNL     1     -36.687  16.441  -4.234  1.00 20.00     0.092 N 
HETATM    6  O9  UNL     1     -37.783  13.814  -4.288  1.00 20.00    -0.387 OA
HETATM    7  H22 UNL     1     -36.679  16.664  -5.230  1.00 20.00     0.316 HD
ENDROOT
BRANCH   4   8
HETATM    8  C6  UNL     1     -34.449  15.538  -4.480  1.00 20.00     0.021 A 
HETATM    9  C1  UNL     1     -33.335  15.739  -3.490  1.00 20.00     0.007 A 
HETATM   10  C2  UNL     1     -33.376  14.495  -4.333  1.00 20.00     0.007 A 
ENDBRANCH   4   8
TORSDOF 1
ENDMDL
MODEL 7
REMARK VINA RESULT:      -3.6     11.608     12.402
REMARK  1 active torsions:
REMARK  status: ('A' for Active; 'I' for Inactive)
REMARK    1  A    between atoms: C6_6  and  C7_7 
ROOT
HETATM    1  C3  UNL     1     -33.770  14.797  -4.824  1.00 20.00     0.296 C 
HETATM    2  C4  UNL     1     -34.892  14.128  -4.038  1.00 20.00     0.197 C 
HETATM    3  C5  UNL     1     -34.801  15.811  -2.399  1.00 20.00     0.203 C 
HETATM    4  C7  UNL     1     -33.669  16.523  -3.146  1.00 20.00     0.248 C 
HETATM    5  N8  UNL     1     -32.893  15.546  -3.922  1.00 20.00     0.092 N 
HETATM    6  O9  UNL     1     -35.640  15.106  -3.316  1.00 20.00    -0.387 OA
HETATM    7  H22 UNL     1     -32.450  14.888  -3.279  1.00 20.00     0.316 HD
ENDROOT
BRANCH   4   8
HETATM    8  C6  UNL     1     -32.757  17.238  -2.189  1.00 20.00     0.021 A 
HETATM    9  C1  UNL     1     -32.643  18.738  -2.227  1.00 20.00     0.007 A 
HETATM   10  C2  UNL     1     -33.331  18.065  -1.072  1.00 20.00     0.007 A 
ENDBRANCH   4   8
TORSDOF 1
ENDMDL
MODEL 8
REMARK VINA RESULT:      -3.6     11.617     12.155
REMARK  1 active torsions:
REMARK  status: ('A' for Active; 'I' for Inactive)
REMARK    1  A    between atoms: C6_6  and  C7_7 
ROOT
HETATM    1  C3  UNL     1     -35.337  14.350  -3.902  1.00 20.00     0.296 C 
HETATM    2  C4  UNL     1     -34.107  14.760  -4.701  1.00 20.00     0.197 C 
HETATM    3  C5  UNL     1     -33.509  16.326  -3.054  1.00 20.00     0.203 C 
HETATM    4  C7  UNL     1     -34.732  15.955  -2.210  1.00 20.00     0.248 C 
HETATM    5  N8  UNL     1     -35.810  15.468  -3.083  1.00 20.00     0.092 N 
HETATM    6  O9  UNL     1     -33.073  15.204  -3.823  1.00 20.00    -0.387 OA
HETATM    7  H22 UNL     1     -36.101  16.224  -3.704  1.00 20.00     0.316 HD
ENDROOT
BRANCH   4   8
HETATM    8  C6  UNL     1     -35.224  17.138  -1.423  1.00 20.00     0.021 A 
HETATM    9  C1  UNL     1     -35.401  17.036   0.067  1.00 20.00     0.007 A 
HETATM   10  C2  UNL     1     -34.292  17.875  -0.502  1.00 20.00     0.007 A 
ENDBRANCH   4   8
TORSDOF 1
ENDMDL
MODEL 9
REMARK VINA RESULT:      -3.5     14.328     15.677
REMARK  1 active torsions:
REMARK  status: ('A' for Active; 'I' for Inactive)
REMARK    1  A    between atoms: C6_6  and  C7_7 
ROOT
HETATM    1  C3  UNL     1     -27.289  18.577   6.149  1.00 20.00     0.296 C 
HETATM    2  C4  UNL     1     -26.514  19.186   4.987  1.00 20.00     0.197 C 
HETATM    3  C5  UNL     1     -24.553  19.262   6.280  1.00 20.00     0.203 C 
HETATM    4  C7  UNL     1     -25.283  18.656   7.483  1.00 20.00     0.248 C 
HETATM    5  N8  UNL     1     -26.710  19.003   7.426  1.00 20.00     0.092 N 
HETATM    6  O9  UNL     1     -25.139  18.810   5.059  1.00 20.00    -0.387 OA
HETATM    7  H22 UNL     1     -26.809  20.016   7.505  1.00 20.00     0.316 HD
ENDROOT
BRANCH   4   8
HETATM    8  C6  UNL     1     -24.701  19.153   8.776  1.00 20.00     0.021 A 
HETATM    9  C1  UNL     1     -24.428  18.195   9.903  1.00 20.00     0.007 A 
HETATM   10  C2  UNL     1     -23.284  18.813   9.148  1.00 20.00     0.007 A 
ENDBRANCH   4   8
TORSDOF 1
ENDMDL
