MODEL 1
REMARK VINA RESULT:      -5.1      0.000      0.000
REMARK  0 active torsions:
REMARK  status: ('A' for Active; 'I' for Inactive)
ROOT
HETATM    1  C1  UNL     1     -35.199  16.244  -1.693  1.00 20.00     0.017 A 
HETATM    2  C2  UNL     1     -34.931  15.460  -2.815  1.00 20.00     0.025 A 
HETATM    3  C3  UNL     1     -32.157  18.354  -1.533  1.00 20.00     0.031 A 
HETATM    4  C4  UNL     1     -32.814  16.589  -3.103  1.00 20.00     0.036 A 
HETATM    5  C5  UNL     1     -32.479  19.101  -0.411  1.00 20.00     0.119 A 
HETATM    6  C6  UNL     1     -34.272  17.209  -1.265  1.00 20.00     0.010 A 
HETATM    7  C7  UNL     1     -33.067  17.387  -1.975  1.00 20.00    -0.020 A 
HETATM    8  C8  UNL     1     -33.741  15.633  -3.519  1.00 20.00     0.034 A 
HETATM    9  C9  UNL     1     -34.489  18.020  -0.150  1.00 20.00     0.113 A 
HETATM   10  N10 UNL     1     -33.623  18.959   0.293  1.00 20.00    -0.253 NA
HETATM   11 CL11 UNL     1     -33.415  14.664  -4.904  1.00 20.00    -0.084 Cl
HETATM   12 BR12 UNL     1     -36.075  17.901   0.918  1.00 20.00    -0.028 Br
ENDROOT
TORSDOF 0
ENDMDL
MODEL 2
REMARK VINA RESULT:      -5.0      3.598      4.919
REMARK  0 active torsions:
REMARK  status: ('A' for Active; 'I' for Inactive)
ROOT
HETATM    1  C1  UNL     1     -36.440  17.044  -2.875  1.00 20.00     0.017 A 
HETATM    2  C2  UNL     1     -35.353  17.688  -2.285  1.00 20.00     0.025 A 
HETATM    3  C3  UNL     1     -34.890  13.866  -3.987  1.00 20.00     0.031 A 
HETATM    4  C4  UNL     1     -33.941  15.801  -2.817  1.00 20.00     0.036 A 
HETATM    5  C5  UNL     1     -36.007  13.278  -4.559  1.00 20.00     0.119 A 
HETATM    6  C6  UNL     1     -36.285  15.768  -3.443  1.00 20.00     0.010 A 
HETATM    7  C7  UNL     1     -35.024  15.137  -3.416  1.00 20.00    -0.020 A 
HETATM    8  C8  UNL     1     -34.105  17.068  -2.256  1.00 20.00     0.034 A 
HETATM    9  C9  UNL     1     -37.338  15.079  -4.046  1.00 20.00     0.113 A 
HETATM   10  N10 UNL     1     -37.229  13.852  -4.603  1.00 20.00    -0.253 NA
HETATM   11 CL11 UNL     1     -32.766  17.867  -1.527  1.00 20.00    -0.084 Cl
HETATM   12 BR12 UNL     1     -39.109  15.800  -4.164  1.00 20.00    -0.028 Br
ENDROOT
TORSDOF 0
ENDMDL
MODEL 3
REMARK VINA RESULT:      -4.9      1.706      2.546
REMARK  0 active torsions:
REMARK  status: ('A' for Active; 'I' for Inactive)
ROOT
HETATM    1  C1  UNL     1     -32.760  16.984  -2.523  1.00 20.00     0.017 A 
HETATM    2  C2  UNL     1     -33.174  16.024  -3.447  1.00 20.00     0.025 A 
HETATM    3  C3  UNL     1     -35.713  17.174  -0.292  1.00 20.00     0.031 A 
HETATM    4  C4  UNL     1     -35.284  15.814  -2.287  1.00 20.00     0.036 A 
HETATM    5  C5  UNL     1     -35.244  18.132   0.593  1.00 20.00     0.119 A 
HETATM    6  C6  UNL     1     -33.607  17.367  -1.471  1.00 20.00     0.010 A 
HETATM    7  C7  UNL     1     -34.883  16.779  -1.348  1.00 20.00    -0.020 A 
HETATM    8  C8  UNL     1     -34.434  15.441  -3.329  1.00 20.00     0.034 A 
HETATM    9  C9  UNL     1     -33.244  18.321  -0.519  1.00 20.00     0.113 A 
HETATM   10  N10 UNL     1     -34.030  18.717   0.507  1.00 20.00    -0.253 NA
HETATM   11 CL11 UNL     1     -34.942  14.257  -4.471  1.00 20.00    -0.084 Cl
HETATM   12 BR12 UNL     1     -31.547  19.211  -0.548  1.00 20.00    -0.028 Br
ENDROOT
TORSDOF 0
ENDMDL
MODEL 4
REMARK VINA RESULT:      -4.8      3.453      4.472
REMARK  0 active torsions:
REMARK  status: ('A' for Active; 'I' for Inactive)
ROOT
HETATM    1  C1  UNL     1     -35.879  16.536  -2.234  1.00 20.00     0.017 A 
HETATM    2  C2  UNL     1     -35.348  17.427  -1.302  1.00 20.00     0.025 A 
HETATM    3  C3  UNL     1     -32.811  15.354  -3.944  1.00 20.00     0.031 A 
HETATM    4  C4  UNL     1     -33.121  16.954  -2.112  1.00 20.00     0.036 A 
HETATM    5  C5  UNL     1     -33.398  14.482  -4.848  1.00 20.00     0.119 A 
HETATM    6  C6  UNL     1     -35.032  15.844  -3.115  1.00 20.00     0.010 A 
HETATM    7  C7  UNL     1     -33.638  16.053  -3.057  1.00 20.00    -0.020 A 
HETATM    8  C8  UNL     1     -33.972  17.636  -1.241  1.00 20.00     0.034 A 
HETATM    9  C9  UNL     1     -35.509  14.942  -4.067  1.00 20.00     0.113 A 
HETATM   10  N10 UNL     1     -34.727  14.258  -4.932  1.00 20.00    -0.253 NA
HETATM   11 CL11 UNL     1     -33.321  18.738  -0.089  1.00 20.00    -0.084 Cl
HETATM   12 BR12 UNL     1     -37.373  14.549  -4.271  1.00 20.00    -0.028 Br
ENDROOT
TORSDOF 0
ENDMDL
MODEL 5
REMARK VINA RESULT:      -4.6      4.068      5.399
REMARK  0 active torsions:
REMARK  status: ('A' for Active; 'I' for Inactive)
ROOT
HETATM    1  C1  UNL     1     -34.393  17.452  -5.081  1.00 20.00     0.017 A 
HETATM    2  C2  UNL     1     -33.583  17.959  -4.065  1.00 20.00     0.025 A 
HETATM    3  C3  UNL     1     -35.267  14.117  -3.722  1.00 20.00     0.031 A 
HETATM    4  C4  UNL     1     -33.880  15.919  -2.805  1.00 20.00     0.036 A 
HETATM    5  C5  UNL     1     -36.063  13.668  -4.764  1.00 20.00     0.119 A 
HETATM    6  C6  UNL     1     -34.954  16.169  -4.966  1.00 20.00     0.010 A 
HETATM    7  C7  UNL     1     -34.698  15.392  -3.818  1.00 20.00    -0.020 A 
HETATM    8  C8  UNL     1     -33.327  17.194  -2.929  1.00 20.00     0.034 A 
HETATM    9  C9  UNL     1     -35.771  15.613  -5.952  1.00 20.00     0.113 A 
HETATM   10  N10 UNL     1     -36.330  14.384  -5.878  1.00 20.00    -0.253 NA
HETATM   11 CL11 UNL     1     -32.327  17.823  -1.678  1.00 20.00    -0.084 Cl
HETATM   12 BR12 UNL     1     -36.214  16.541  -7.568  1.00 20.00    -0.028 Br
ENDROOT
TORSDOF 0
ENDMDL
MODEL 6
REMARK VINA RESULT:      -4.4      3.998      5.206
REMARK  0 active torsions:
REMARK  status: ('A' for Active; 'I' for Inactive)
ROOT
HETATM    1  C1  UNL     1     -32.662  18.892   2.813  1.00 20.00     0.017 A 
HETATM    2  C2  UNL     1     -33.981  18.761   3.248  1.00 20.00     0.025 A 
HETATM    3  C3  UNL     1     -32.996  18.075  -0.786  1.00 20.00     0.031 A 
HETATM    4  C4  UNL     1     -34.666  18.173   1.007  1.00 20.00     0.036 A 
HETATM    5  C5  UNL     1     -31.668  18.220  -1.157  1.00 20.00     0.119 A 
HETATM    6  C6  UNL     1     -32.334  18.662   1.467  1.00 20.00     0.010 A 
HETATM    7  C7  UNL     1     -33.343  18.299   0.551  1.00 20.00    -0.020 A 
HETATM    8  C8  UNL     1     -34.981  18.403   2.347  1.00 20.00     0.034 A 
HETATM    9  C9  UNL     1     -31.032  18.778   0.978  1.00 20.00     0.113 A 
HETATM   10  N10 UNL     1     -30.676  18.566  -0.309  1.00 20.00    -0.253 NA
HETATM   11 CL11 UNL     1     -36.607  18.243   2.887  1.00 20.00    -0.084 Cl
HETATM   12 BR12 UNL     1     -29.551  19.263   2.094  1.00 20.00    -0.028 Br
ENDROOT
TORSDOF 0
ENDMDL
MODEL 7
REMARK VINA RESULT:      -4.3      3.545      4.352
REMARK  0 active torsions:
REMARK  status: ('A' for Active; 'I' for Inactive)
ROOT
HETATM    1  C1  UNL     1     -34.961  17.634  -0.670  1.00 20.00     0.017 A 
HETATM    2  C2  UNL     1     -35.925  17.601   0.338  1.00 20.00     0.025 A 
HETATM    3  C3  UNL     1     -31.952  18.666   1.229  1.00 20.00     0.031 A 
HETATM    4  C4  UNL     1     -34.261  18.276   1.955  1.00 20.00     0.036 A 
HETATM    5  C5  UNL     1     -31.040  18.681   0.185  1.00 20.00     0.119 A 
HETATM    6  C6  UNL     1     -33.636  17.990  -0.372  1.00 20.00     0.010 A 
HETATM    7  C7  UNL     1     -33.278  18.315   0.953  1.00 20.00    -0.020 A 
HETATM    8  C8  UNL     1     -35.575  17.922   1.648  1.00 20.00     0.034 A 
HETATM    9  C9  UNL     1     -32.633  18.039  -1.341  1.00 20.00     0.113 A 
HETATM   10  N10 UNL     1     -31.347  18.376  -1.095  1.00 20.00    -0.253 NA
HETATM   11 CL11 UNL     1     -36.767  17.880   2.889  1.00 20.00    -0.084 Cl
HETATM   12 BR12 UNL     1     -32.958  17.626  -3.184  1.00 20.00    -0.028 Br
ENDROOT
TORSDOF 0
ENDMDL
MODEL 8
REMARK VINA RESULT:      -4.3      3.384      4.612
REMARK  0 active torsions:
REMARK  status: ('A' for Active; 'I' for Inactive)
ROOT
HETATM    1  C1  UNL     1     -32.147  18.099  -1.163  1.00 20.00     0.017 A 
HETATM    2  C2  UNL     1     -31.035  18.516  -0.431  1.00 20.00     0.025 A 
HETATM    3  C3  UNL     1     -34.742  17.942   1.479  1.00 20.00     0.031 A 
HETATM    4  C4  UNL     1     -32.371  18.558   1.582  1.00 20.00     0.036 A 
HETATM    5  C5  UNL     1     -35.810  17.526   0.699  1.00 20.00     0.119 A 
HETATM    6  C6  UNL     1     -33.384  17.907  -0.525  1.00 20.00     0.010 A 
HETATM    7  C7  UNL     1     -33.501  18.138   0.862  1.00 20.00    -0.020 A 
HETATM    8  C8  UNL     1     -31.147  18.745   0.938  1.00 20.00     0.034 A 
HETATM    9  C9  UNL     1     -34.528  17.490  -1.207  1.00 20.00     0.113 A 
HETATM   10  N10 UNL     1     -35.735  17.295  -0.630  1.00 20.00    -0.253 NA
HETATM   11 CL11 UNL     1     -29.772  19.261   1.837  1.00 20.00    -0.084 Cl
HETATM   12 BR12 UNL     1     -34.533  17.135  -3.090  1.00 20.00    -0.028 Br
ENDROOT
TORSDOF 0
ENDMDL
MODEL 9
REMARK VINA RESULT:      -4.3      1.606      2.026
REMARK  0 active torsions:
REMARK  status: ('A' for Active; 'I' for Inactive)
ROOT
HETATM    1  C1  UNL     1     -34.816  17.628   0.003  1.00 20.00     0.017 A 
HETATM    2  C2  UNL     1     -35.090  17.009  -1.217  1.00 20.00     0.025 A 
HETATM    3  C3  UNL     1     -31.246  18.528  -0.420  1.00 20.00     0.031 A 
HETATM    4  C4  UNL     1     -32.811  17.390  -1.926  1.00 20.00     0.036 A 
HETATM    5  C5  UNL     1     -31.036  19.132   0.810  1.00 20.00     0.119 A 
HETATM    6  C6  UNL     1     -33.533  18.134   0.268  1.00 20.00     0.010 A 
HETATM    7  C7  UNL     1     -32.518  18.017  -0.703  1.00 20.00    -0.020 A 
HETATM    8  C8  UNL     1     -34.090  16.890  -2.179  1.00 20.00     0.034 A 
HETATM    9  C9  UNL     1     -33.205  18.763   1.471  1.00 20.00     0.113 A 
HETATM   10  N10 UNL     1     -31.983  19.263   1.764  1.00 20.00    -0.253 NA
HETATM   11 CL11 UNL     1     -34.431  16.125  -3.683  1.00 20.00    -0.084 Cl
HETATM   12 BR12 UNL     1     -34.471  19.001   2.888  1.00 20.00    -0.028 Br
ENDROOT
TORSDOF 0
ENDMDL
