MODEL 1
REMARK VINA RESULT:      -4.3      0.000      0.000
REMARK  0 active torsions:
REMARK  status: ('A' for Active; 'I' for Inactive)
ROOT
HETATM    1  C1  UNL     1     -34.030   6.636   4.893  1.00 20.00     0.036 A 
HETATM    2  C2  UNL     1     -33.024   7.237   4.250  1.00 20.00     0.007 A 
HETATM    3  C3  UNL     1     -34.486   5.426   4.195  1.00 20.00     0.086 A 
HETATM    4  C4  UNL     1     -32.529   6.625   2.984  1.00 20.00     0.172 A 
HETATM    5  N5  UNL     1     -35.436   4.644   4.566  1.00 20.00    -0.293 NA
HETATM    6  S6  UNL     1     -33.554   5.144   2.741  1.00 20.00    -0.086 SA
HETATM    7 CL7  UNL     1     -32.712   7.756   1.633  1.00 20.00    -0.109 Cl
HETATM    8  H11 UNL     1     -35.532   3.877   3.891  1.00 20.00     0.187 HD
ENDROOT
TORSDOF 0
ENDMDL
MODEL 2
REMARK VINA RESULT:      -4.0      8.929      9.158
REMARK  0 active torsions:
REMARK  status: ('A' for Active; 'I' for Inactive)
ROOT
HETATM    1  C1  UNL     1     -41.099   6.028  -0.616  1.00 20.00     0.036 A 
HETATM    2  C2  UNL     1     -41.209   7.272  -1.089  1.00 20.00     0.007 A 
HETATM    3  C3  UNL     1     -42.009   5.781   0.510  1.00 20.00     0.086 A 
HETATM    4  C4  UNL     1     -42.193   8.189  -0.443  1.00 20.00     0.172 A 
HETATM    5  N5  UNL     1     -42.126   4.686   1.171  1.00 20.00    -0.293 NA
HETATM    6  S6  UNL     1     -42.966   7.201   0.872  1.00 20.00    -0.086 SA
HETATM    7 CL7  UNL     1     -41.373   9.610   0.225  1.00 20.00    -0.109 Cl
HETATM    8  H11 UNL     1     -42.840   4.800   1.900  1.00 20.00     0.187 HD
ENDROOT
TORSDOF 0
ENDMDL
MODEL 3
REMARK VINA RESULT:      -3.8     11.603     11.865
REMARK  0 active torsions:
REMARK  status: ('A' for Active; 'I' for Inactive)
ROOT
HETATM    1  C1  UNL     1     -35.648  13.637  -4.244  1.00 20.00     0.036 A 
HETATM    2  C2  UNL     1     -34.570  14.390  -4.004  1.00 20.00     0.007 A 
HETATM    3  C3  UNL     1     -36.889  14.421  -4.204  1.00 20.00     0.086 A 
HETATM    4  C4  UNL     1     -34.768  15.845  -3.746  1.00 20.00     0.172 A 
HETATM    5  N5  UNL     1     -38.079  13.976  -4.390  1.00 20.00    -0.293 NA
HETATM    6  S6  UNL     1     -36.562  16.107  -3.864  1.00 20.00    -0.086 SA
HETATM    7 CL7  UNL     1     -34.164  16.279  -2.138  1.00 20.00    -0.109 Cl
HETATM    8  H11 UNL     1     -38.752  14.747  -4.307  1.00 20.00     0.187 HD
ENDROOT
TORSDOF 0
ENDMDL
MODEL 4
REMARK VINA RESULT:      -3.7     15.916     16.263
REMARK  0 active torsions:
REMARK  status: ('A' for Active; 'I' for Inactive)
ROOT
HETATM    1  C1  UNL     1     -24.611  15.783  11.493  1.00 20.00     0.036 A 
HETATM    2  C2  UNL     1     -25.340  16.551  12.308  1.00 20.00     0.007 A 
HETATM    3  C3  UNL     1     -23.899  16.574  10.480  1.00 20.00     0.086 A 
HETATM    4  C4  UNL     1     -25.326  18.026  12.090  1.00 20.00     0.172 A 
HETATM    5  N5  UNL     1     -23.128  16.117   9.560  1.00 20.00    -0.293 NA
HETATM    6  S6  UNL     1     -24.221  18.283  10.669  1.00 20.00    -0.086 SA
HETATM    7 CL7  UNL     1     -26.959  18.619  11.743  1.00 20.00    -0.109 Cl
HETATM    8  H11 UNL     1     -22.764  16.896   8.999  1.00 20.00     0.187 HD
ENDROOT
TORSDOF 0
ENDMDL
MODEL 5
REMARK VINA RESULT:      -3.7     16.861     16.920
REMARK  0 active torsions:
REMARK  status: ('A' for Active; 'I' for Inactive)
ROOT
HETATM    1  C1  UNL     1     -24.635  18.698   9.317  1.00 20.00     0.036 A 
HETATM    2  C2  UNL     1     -24.518  18.125  10.518  1.00 20.00     0.007 A 
HETATM    3  C3  UNL     1     -23.593  18.246   8.385  1.00 20.00     0.086 A 
HETATM    4  C4  UNL     1     -23.407  17.153  10.732  1.00 20.00     0.172 A 
HETATM    5  N5  UNL     1     -23.444  18.623   7.166  1.00 20.00    -0.293 NA
HETATM    6  S6  UNL     1     -22.528  17.082   9.143  1.00 20.00    -0.086 SA
HETATM    7 CL7  UNL     1     -22.335  17.710  12.029  1.00 20.00    -0.109 Cl
HETATM    8  H11 UNL     1     -22.637  18.141   6.754  1.00 20.00     0.187 HD
ENDROOT
TORSDOF 0
ENDMDL
MODEL 6
REMARK VINA RESULT:      -3.7      2.356      2.692
REMARK  0 active torsions:
REMARK  status: ('A' for Active; 'I' for Inactive)
ROOT
HETATM    1  C1  UNL     1     -34.762   5.243   5.513  1.00 20.00     0.036 A 
HETATM    2  C2  UNL     1     -34.841   4.634   4.326  1.00 20.00     0.007 A 
HETATM    3  C3  UNL     1     -34.025   6.511   5.435  1.00 20.00     0.086 A 
HETATM    4  C4  UNL     1     -34.207   5.295   3.149  1.00 20.00     0.172 A 
HETATM    5  N5  UNL     1     -33.782   7.313   6.408  1.00 20.00    -0.293 NA
HETATM    6  S6  UNL     1     -33.490   6.833   3.800  1.00 20.00    -0.086 SA
HETATM    7 CL7  UNL     1     -32.955   4.253   2.451  1.00 20.00    -0.109 Cl
HETATM    8  H11 UNL     1     -33.252   8.122   6.063  1.00 20.00     0.187 HD
ENDROOT
TORSDOF 0
ENDMDL
MODEL 7
REMARK VINA RESULT:      -3.7     11.459     11.680
REMARK  0 active torsions:
REMARK  status: ('A' for Active; 'I' for Inactive)
ROOT
HETATM    1  C1  UNL     1     -34.074  14.337  -4.065  1.00 20.00     0.036 A 
HETATM    2  C2  UNL     1     -33.897  15.535  -3.501  1.00 20.00     0.007 A 
HETATM    3  C3  UNL     1     -35.496  14.006  -4.225  1.00 20.00     0.086 A 
HETATM    4  C4  UNL     1     -35.105  16.328  -3.134  1.00 20.00     0.172 A 
HETATM    5  N5  UNL     1     -35.976  12.926  -4.729  1.00 20.00    -0.293 NA
HETATM    6  S6  UNL     1     -36.517  15.298  -3.633  1.00 20.00    -0.086 SA
HETATM    7 CL7  UNL     1     -35.134  16.649  -1.392  1.00 20.00    -0.109 Cl
HETATM    8  H11 UNL     1     -37.002  12.969  -4.718  1.00 20.00     0.187 HD
ENDROOT
TORSDOF 0
ENDMDL
MODEL 8
REMARK VINA RESULT:      -3.6     16.505     16.640
REMARK  0 active torsions:
REMARK  status: ('A' for Active; 'I' for Inactive)
ROOT
HETATM    1  C1  UNL     1     -22.485  17.598   8.263  1.00 20.00     0.036 A 
HETATM    2  C2  UNL     1     -22.459  17.168   9.528  1.00 20.00     0.007 A 
HETATM    3  C3  UNL     1     -23.654  18.447   7.993  1.00 20.00     0.086 A 
HETATM    4  C4  UNL     1     -23.560  17.590  10.441  1.00 20.00     0.172 A 
HETATM    5  N5  UNL     1     -23.952  19.000   6.872  1.00 20.00    -0.293 NA
HETATM    6  S6  UNL     1     -24.643  18.637   9.424  1.00 20.00    -0.086 SA
HETATM    7 CL7  UNL     1     -24.433  16.177  11.057  1.00 20.00    -0.109 Cl
HETATM    8  H11 UNL     1     -24.821  19.538   6.976  1.00 20.00     0.187 HD
ENDROOT
TORSDOF 0
ENDMDL
MODEL 9
REMARK VINA RESULT:      -3.5     11.908     12.222
REMARK  0 active torsions:
REMARK  status: ('A' for Active; 'I' for Inactive)
ROOT
HETATM    1  C1  UNL     1     -34.052  15.421  -3.088  1.00 20.00     0.036 A 
HETATM    2  C2  UNL     1     -35.355  15.707  -3.173  1.00 20.00     0.007 A 
HETATM    3  C3  UNL     1     -33.505  14.950  -4.367  1.00 20.00     0.086 A 
HETATM    4  C4  UNL     1     -36.034  15.521  -4.488  1.00 20.00     0.172 A 
HETATM    5  N5  UNL     1     -32.291  14.596  -4.594  1.00 20.00    -0.293 NA
HETATM    6  S6  UNL     1     -34.736  14.923  -5.611  1.00 20.00    -0.086 SA
HETATM    7 CL7  UNL     1     -37.349  14.342  -4.347  1.00 20.00    -0.109 Cl
HETATM    8  H11 UNL     1     -32.193  14.316  -5.577  1.00 20.00     0.187 HD
ENDROOT
TORSDOF 0
ENDMDL
