MODEL 1
REMARK VINA RESULT:      -4.9      0.000      0.000
REMARK  0 active torsions:
REMARK  status: ('A' for Active; 'I' for Inactive)
ROOT
HETATM    1  C1  UNL     1     -41.515   7.833  -1.538  1.00 20.00     0.009 C 
HETATM    2  C2  UNL     1     -43.417   6.210  -1.737  1.00 20.00     0.012 C 
HETATM    3  C3  UNL     1     -43.417   7.931   0.095  1.00 20.00     0.012 C 
HETATM    4  C4  UNL     1     -41.162   5.413  -0.984  1.00 20.00     0.012 C 
HETATM    5  C5  UNL     1     -41.162   7.129   0.844  1.00 20.00     0.012 C 
HETATM    6  C6  UNL     1     -43.035   7.657  -1.372  1.00 20.00    -0.013 C 
HETATM    7  C7  UNL     1     -40.766   6.854  -0.618  1.00 20.00    -0.013 C 
HETATM    8  C8  UNL     1     -42.680   5.223  -0.816  1.00 20.00     0.021 C 
HETATM    9  C9  UNL     1     -42.680   6.950   1.023  1.00 20.00     0.021 C 
HETATM   10  C10 UNL     1     -43.074   5.516   0.639  1.00 20.00     0.178 C 
HETATM   11  F11 UNL     1     -42.437   4.639   1.462  1.00 20.00    -0.249 F 
ENDROOT
TORSDOF 0
ENDMDL
MODEL 2
REMARK VINA RESULT:      -4.8      1.417      2.703
REMARK  0 active torsions:
REMARK  status: ('A' for Active; 'I' for Inactive)
ROOT
HETATM    1  C1  UNL     1     -41.097   5.366  -0.906  1.00 20.00     0.009 C 
HETATM    2  C2  UNL     1     -42.925   5.470   0.810  1.00 20.00     0.012 C 
HETATM    3  C3  UNL     1     -43.417   6.031  -1.591  1.00 20.00     0.012 C 
HETATM    4  C4  UNL     1     -41.088   7.178   0.828  1.00 20.00     0.012 C 
HETATM    5  C5  UNL     1     -41.579   7.737  -1.566  1.00 20.00     0.012 C 
HETATM    6  C6  UNL     1     -42.597   5.124  -0.655  1.00 20.00    -0.013 C 
HETATM    7  C7  UNL     1     -40.747   6.839  -0.634  1.00 20.00    -0.013 C 
HETATM    8  C8  UNL     1     -42.587   6.944   1.089  1.00 20.00     0.021 C 
HETATM    9  C9  UNL     1     -43.081   7.508  -1.320  1.00 20.00     0.021 C 
HETATM   10  C10 UNL     1     -43.414   7.829   0.145  1.00 20.00     0.178 C 
HETATM   11  F11 UNL     1     -43.132   9.137   0.393  1.00 20.00    -0.249 F 
ENDROOT
TORSDOF 0
ENDMDL
MODEL 3
REMARK VINA RESULT:      -4.7      1.231      2.598
REMARK  0 active torsions:
REMARK  status: ('A' for Active; 'I' for Inactive)
ROOT
HETATM    1  C1  UNL     1     -43.416   6.064  -1.657  1.00 20.00     0.009 C 
HETATM    2  C2  UNL     1     -41.136   5.318  -0.922  1.00 20.00     0.012 C 
HETATM    3  C3  UNL     1     -43.021   5.427   0.737  1.00 20.00     0.012 C 
HETATM    4  C4  UNL     1     -41.536   7.719  -1.528  1.00 20.00     0.012 C 
HETATM    5  C5  UNL     1     -43.416   7.827   0.127  1.00 20.00     0.012 C 
HETATM    6  C6  UNL     1     -42.649   5.110  -0.724  1.00 20.00    -0.013 C 
HETATM    7  C7  UNL     1     -43.050   7.524  -1.337  1.00 20.00    -0.013 C 
HETATM    8  C8  UNL     1     -40.759   6.773  -0.595  1.00 20.00     0.021 C 
HETATM    9  C9  UNL     1     -42.650   6.882   1.071  1.00 20.00     0.021 C 
HETATM   10  C10 UNL     1     -41.140   7.067   0.864  1.00 20.00     0.178 C 
HETATM   11  F11 UNL     1     -40.798   8.348   1.168  1.00 20.00    -0.249 F 
ENDROOT
TORSDOF 0
ENDMDL
MODEL 4
REMARK VINA RESULT:      -4.7     11.321     12.642
REMARK  0 active torsions:
REMARK  status: ('A' for Active; 'I' for Inactive)
ROOT
HETATM    1  C1  UNL     1     -33.776  17.461  -3.976  1.00 20.00     0.009 C 
HETATM    2  C2  UNL     1     -34.377  16.033  -5.950  1.00 20.00     0.012 C 
HETATM    3  C3  UNL     1     -36.130  16.638  -4.253  1.00 20.00     0.012 C 
HETATM    4  C4  UNL     1     -32.934  15.102  -4.123  1.00 20.00     0.012 C 
HETATM    5  C5  UNL     1     -34.682  15.706  -2.429  1.00 20.00     0.012 C 
HETATM    6  C6  UNL     1     -34.879  17.137  -5.000  1.00 20.00    -0.013 C 
HETATM    7  C7  UNL     1     -33.424  16.202  -3.164  1.00 20.00    -0.013 C 
HETATM    8  C8  UNL     1     -34.032  14.767  -5.148  1.00 20.00     0.021 C 
HETATM    9  C9  UNL     1     -35.791  15.374  -3.445  1.00 20.00     0.021 C 
HETATM   10  C10 UNL     1     -35.292  14.289  -4.411  1.00 20.00     0.178 C 
HETATM   11  F11 UNL     1     -35.000  13.161  -3.708  1.00 20.00    -0.249 F 
ENDROOT
TORSDOF 0
ENDMDL
MODEL 5
REMARK VINA RESULT:      -4.6      1.140      2.432
REMARK  0 active torsions:
REMARK  status: ('A' for Active; 'I' for Inactive)
ROOT
HETATM    1  C1  UNL     1     -43.257   8.387  -0.188  1.00 20.00     0.009 C 
HETATM    2  C2  UNL     1     -43.274   6.110   0.867  1.00 20.00     0.012 C 
HETATM    3  C3  UNL     1     -41.174   7.493   0.887  1.00 20.00     0.012 C 
HETATM    4  C4  UNL     1     -43.394   6.338  -1.628  1.00 20.00     0.012 C 
HETATM    5  C5  UNL     1     -41.301   7.717  -1.608  1.00 20.00     0.012 C 
HETATM    6  C6  UNL     1     -42.711   7.541   0.976  1.00 20.00    -0.013 C 
HETATM    7  C7  UNL     1     -42.837   7.769  -1.533  1.00 20.00    -0.013 C 
HETATM    8  C8  UNL     1     -42.851   5.481  -0.471  1.00 20.00     0.021 C 
HETATM    9  C9  UNL     1     -40.743   6.868  -0.451  1.00 20.00     0.021 C 
HETATM   10  C10 UNL     1     -41.317   5.445  -0.538  1.00 20.00     0.178 C 
HETATM   11  F11 UNL     1     -40.932   4.877  -1.713  1.00 20.00    -0.249 F 
ENDROOT
TORSDOF 0
ENDMDL
MODEL 6
REMARK VINA RESULT:      -4.6      1.558      3.028
REMARK  0 active torsions:
REMARK  status: ('A' for Active; 'I' for Inactive)
ROOT
HETATM    1  C1  UNL     1     -43.187   5.211   0.367  1.00 20.00     0.009 C 
HETATM    2  C2  UNL     1     -43.417   6.508  -1.769  1.00 20.00     0.012 C 
HETATM    3  C3  UNL     1     -41.224   5.432  -1.178  1.00 20.00     0.012 C 
HETATM    4  C4  UNL     1     -43.417   7.707   0.434  1.00 20.00     0.012 C 
HETATM    5  C5  UNL     1     -41.229   6.635   1.023  1.00 20.00     0.012 C 
HETATM    6  C6  UNL     1     -42.755   5.283  -1.109  1.00 20.00    -0.013 C 
HETATM    7  C7  UNL     1     -42.759   6.490   1.106  1.00 20.00    -0.013 C 
HETATM    8  C8  UNL     1     -42.988   7.793  -1.042  1.00 20.00     0.021 C 
HETATM    9  C9  UNL     1     -40.785   6.714  -0.449  1.00 20.00     0.021 C 
HETATM   10  C10 UNL     1     -41.459   7.919  -1.122  1.00 20.00     0.178 C 
HETATM   11  F11 UNL     1     -41.069   9.061  -0.493  1.00 20.00    -0.249 F 
ENDROOT
TORSDOF 0
ENDMDL
MODEL 7
REMARK VINA RESULT:      -4.6     11.290     12.577
REMARK  0 active torsions:
REMARK  status: ('A' for Active; 'I' for Inactive)
ROOT
HETATM    1  C1  UNL     1     -33.921  15.068  -5.860  1.00 20.00     0.009 C 
HETATM    2  C2  UNL     1     -36.272  15.546  -5.126  1.00 20.00     0.012 C 
HETATM    3  C3  UNL     1     -34.496  17.308  -4.885  1.00 20.00     0.012 C 
HETATM    4  C4  UNL     1     -34.853  13.942  -3.822  1.00 20.00     0.012 C 
HETATM    5  C5  UNL     1     -33.081  15.698  -3.582  1.00 20.00     0.012 C 
HETATM    6  C6  UNL     1     -35.009  16.153  -5.766  1.00 20.00    -0.013 C 
HETATM    7  C7  UNL     1     -33.584  14.536  -4.456  1.00 20.00    -0.013 C 
HETATM    8  C8  UNL     1     -35.947  15.019  -3.719  1.00 20.00     0.021 C 
HETATM    9  C9  UNL     1     -34.164  16.787  -3.476  1.00 20.00     0.021 C 
HETATM   10  C10 UNL     1     -35.436  16.185  -2.860  1.00 20.00     0.178 C 
HETATM   11  F11 UNL     1     -35.157  15.732  -1.607  1.00 20.00    -0.249 F 
ENDROOT
TORSDOF 0
ENDMDL
MODEL 8
REMARK VINA RESULT:      -4.6     11.480     12.941
REMARK  0 active torsions:
REMARK  status: ('A' for Active; 'I' for Inactive)
ROOT
HETATM    1  C1  UNL     1     -34.851  15.926  -2.365  1.00 20.00     0.009 C 
HETATM    2  C2  UNL     1     -32.833  15.415  -3.764  1.00 20.00     0.012 C 
HETATM    3  C3  UNL     1     -34.237  17.438  -4.270  1.00 20.00     0.012 C 
HETATM    4  C4  UNL     1     -34.871  13.964  -3.927  1.00 20.00     0.012 C 
HETATM    5  C5  UNL     1     -36.272  15.981  -4.431  1.00 20.00     0.012 C 
HETATM    6  C6  UNL     1     -33.678  16.545  -3.146  1.00 20.00    -0.013 C 
HETATM    7  C7  UNL     1     -35.727  15.082  -3.307  1.00 20.00    -0.013 C 
HETATM    8  C8  UNL     1     -33.697  14.572  -4.716  1.00 20.00     0.021 C 
HETATM    9  C9  UNL     1     -35.107  16.601  -5.224  1.00 20.00     0.021 C 
HETATM   10  C10 UNL     1     -34.245  15.482  -5.825  1.00 20.00     0.178 C 
HETATM   11  F11 UNL     1     -35.001  14.742  -6.681  1.00 20.00    -0.249 F 
ENDROOT
TORSDOF 0
ENDMDL
MODEL 9
REMARK VINA RESULT:      -4.6     11.239     12.784
REMARK  0 active torsions:
REMARK  status: ('A' for Active; 'I' for Inactive)
ROOT
HETATM    1  C1  UNL     1     -33.975  17.471  -4.186  1.00 20.00     0.009 C 
HETATM    2  C2  UNL     1     -34.713  15.921  -2.356  1.00 20.00     0.012 C 
HETATM    3  C3  UNL     1     -32.869  15.235  -3.920  1.00 20.00     0.012 C 
HETATM    4  C4  UNL     1     -36.214  16.349  -4.319  1.00 20.00     0.012 C 
HETATM    5  C5  UNL     1     -34.374  15.664  -5.879  1.00 20.00     0.012 C 
HETATM    6  C6  UNL     1     -33.501  16.420  -3.166  1.00 20.00    -0.013 C 
HETATM    7  C7  UNL     1     -35.013  16.853  -5.138  1.00 20.00    -0.013 C 
HETATM    8  C8  UNL     1     -35.752  15.293  -3.299  1.00 20.00     0.021 C 
HETATM    9  C9  UNL     1     -33.902  14.604  -4.869  1.00 20.00     0.021 C 
HETATM   10  C10 UNL     1     -35.100  14.117  -4.041  1.00 20.00     0.178 C 
HETATM   11  F11 UNL     1     -36.015  13.544  -4.869  1.00 20.00    -0.249 F 
ENDROOT
TORSDOF 0
ENDMDL
