MODEL 1
REMARK VINA RESULT:      -4.4      0.000      0.000
REMARK  1 active torsions:
REMARK  status: ('A' for Active; 'I' for Inactive)
REMARK    1  A    between atoms: C1_1  and  C4_4 
ROOT
HETATM    1  C2  UNL     1     -33.456  14.453  -4.532  1.00 20.00     0.013 C 
HETATM    2  C3  UNL     1     -33.094  15.582  -3.549  1.00 20.00     0.010 C 
HETATM    3  C4  UNL     1     -34.877  14.432  -3.914  1.00 20.00     0.062 C 
HETATM    4  C5  UNL     1     -34.613  15.904  -3.436  1.00 20.00    -0.037 C 
HETATM    5  C7  UNL     1     -35.079  16.178  -2.008  1.00 20.00     0.015 C 
HETATM    6  C8  UNL     1     -35.067  17.015  -4.387  1.00 20.00     0.015 C 
ENDROOT
BRANCH   3   7
HETATM    7  C1  UNL     1     -36.063  14.165  -4.845  1.00 20.00     0.128 C 
HETATM    8  C6  UNL     1     -37.437  14.329  -4.254  1.00 20.00     0.091 C 
HETATM    9  O9  UNL     1     -35.900  13.834  -6.018  1.00 20.00    -0.298 OA
ENDBRANCH   3   7
TORSDOF 1
ENDMDL
MODEL 2
REMARK VINA RESULT:      -4.3      0.905      1.123
REMARK  1 active torsions:
REMARK  status: ('A' for Active; 'I' for Inactive)
REMARK    1  A    between atoms: C1_1  and  C4_4 
ROOT
HETATM    1  C2  UNL     1     -33.386  14.699  -4.405  1.00 20.00     0.013 C 
HETATM    2  C3  UNL     1     -33.117  15.831  -3.395  1.00 20.00     0.010 C 
HETATM    3  C4  UNL     1     -34.779  14.509  -3.754  1.00 20.00     0.062 C 
HETATM    4  C5  UNL     1     -34.658  15.987  -3.235  1.00 20.00    -0.037 C 
HETATM    5  C7  UNL     1     -35.112  16.168  -1.789  1.00 20.00     0.015 C 
HETATM    6  C8  UNL     1     -35.253  17.070  -4.139  1.00 20.00     0.015 C 
ENDROOT
BRANCH   3   7
HETATM    7  C1  UNL     1     -35.956  14.145  -4.664  1.00 20.00     0.128 C 
HETATM    8  C6  UNL     1     -35.759  14.357  -6.141  1.00 20.00     0.091 C 
HETATM    9  O9  UNL     1     -37.008  13.699  -4.210  1.00 20.00    -0.298 OA
ENDBRANCH   3   7
TORSDOF 1
ENDMDL
MODEL 3
REMARK VINA RESULT:      -4.2     10.247     12.201
REMARK  1 active torsions:
REMARK  status: ('A' for Active; 'I' for Inactive)
REMARK    1  A    between atoms: C1_1  and  C4_4 
ROOT
HETATM    1  C2  UNL     1     -43.391   6.395   1.455  1.00 20.00     0.013 C 
HETATM    2  C3  UNL     1     -43.077   5.100   0.681  1.00 20.00     0.010 C 
HETATM    3  C4  UNL     1     -42.196   7.065   0.729  1.00 20.00     0.062 C 
HETATM    4  C5  UNL     1     -42.356   5.972  -0.388  1.00 20.00    -0.037 C 
HETATM    5  C7  UNL     1     -41.029   5.386  -0.865  1.00 20.00     0.015 C 
HETATM    6  C8  UNL     1     -43.253   6.342  -1.572  1.00 20.00     0.015 C 
ENDROOT
BRANCH   3   7
HETATM    7  C1  UNL     1     -42.327   8.539   0.336  1.00 20.00     0.128 C 
HETATM    8  C6  UNL     1     -41.059   9.252  -0.047  1.00 20.00     0.091 C 
HETATM    9  O9  UNL     1     -43.416   9.111   0.332  1.00 20.00    -0.298 OA
ENDBRANCH   3   7
TORSDOF 1
ENDMDL
MODEL 4
REMARK VINA RESULT:      -4.2      1.078      2.051
REMARK  1 active torsions:
REMARK  status: ('A' for Active; 'I' for Inactive)
REMARK    1  A    between atoms: C1_1  and  C4_4 
ROOT
HETATM    1  C2  UNL     1     -35.639  16.306  -5.456  1.00 20.00     0.013 C 
HETATM    2  C3  UNL     1     -34.265  16.786  -4.949  1.00 20.00     0.010 C 
HETATM    3  C4  UNL     1     -35.187  14.852  -5.171  1.00 20.00     0.062 C 
HETATM    4  C5  UNL     1     -34.147  15.451  -4.157  1.00 20.00    -0.037 C 
HETATM    5  C7  UNL     1     -32.766  14.805  -4.242  1.00 20.00     0.015 C 
HETATM    6  C8  UNL     1     -34.612  15.567  -2.703  1.00 20.00     0.015 C 
ENDROOT
BRANCH   3   7
HETATM    7  C1  UNL     1     -36.232  13.862  -4.650  1.00 20.00     0.128 C 
HETATM    8  C6  UNL     1     -37.593  14.419  -4.334  1.00 20.00     0.091 C 
HETATM    9  O9  UNL     1     -35.972  12.669  -4.501  1.00 20.00    -0.298 OA
ENDBRANCH   3   7
TORSDOF 1
ENDMDL
MODEL 5
REMARK VINA RESULT:      -3.8      1.474      2.188
REMARK  1 active torsions:
REMARK  status: ('A' for Active; 'I' for Inactive)
REMARK    1  A    between atoms: C1_1  and  C4_4 
ROOT
HETATM    1  C2  UNL     1     -34.778  13.970  -3.819  1.00 20.00     0.013 C 
HETATM    2  C3  UNL     1     -33.722  14.746  -4.628  1.00 20.00     0.010 C 
HETATM    3  C4  UNL     1     -35.763  15.140  -4.066  1.00 20.00     0.062 C 
HETATM    4  C5  UNL     1     -34.887  15.519  -5.314  1.00 20.00    -0.037 C 
HETATM    5  C7  UNL     1     -34.634  17.018  -5.452  1.00 20.00     0.015 C 
HETATM    6  C8  UNL     1     -35.314  14.906  -6.650  1.00 20.00     0.015 C 
ENDROOT
BRANCH   3   7
HETATM    7  C1  UNL     1     -37.241  14.803  -4.283  1.00 20.00     0.128 C 
HETATM    8  C6  UNL     1     -38.202  15.960  -4.307  1.00 20.00     0.091 C 
HETATM    9  O9  UNL     1     -37.622  13.643  -4.433  1.00 20.00    -0.298 OA
ENDBRANCH   3   7
TORSDOF 1
ENDMDL
MODEL 6
REMARK VINA RESULT:      -3.8      1.527      2.448
REMARK  1 active torsions:
REMARK  status: ('A' for Active; 'I' for Inactive)
REMARK    1  A    between atoms: C1_1  and  C4_4 
ROOT
HETATM    1  C2  UNL     1     -36.074  14.913  -3.627  1.00 20.00     0.013 C 
HETATM    2  C3  UNL     1     -34.990  15.506  -2.708  1.00 20.00     0.010 C 
HETATM    3  C4  UNL     1     -35.466  15.728  -4.796  1.00 20.00     0.062 C 
HETATM    4  C5  UNL     1     -34.126  15.767  -3.977  1.00 20.00    -0.037 C 
HETATM    5  C7  UNL     1     -33.442  17.132  -3.986  1.00 20.00     0.015 C 
HETATM    6  C8  UNL     1     -33.125  14.646  -4.267  1.00 20.00     0.015 C 
ENDROOT
BRANCH   3   7
HETATM    7  C1  UNL     1     -35.455  15.092  -6.189  1.00 20.00     0.128 C 
HETATM    8  C6  UNL     1     -34.901  15.928  -7.311  1.00 20.00     0.091 C 
HETATM    9  O9  UNL     1     -35.877  13.952  -6.381  1.00 20.00    -0.298 OA
ENDBRANCH   3   7
TORSDOF 1
ENDMDL
MODEL 7
REMARK VINA RESULT:      -3.7      1.578      2.799
REMARK  1 active torsions:
REMARK  status: ('A' for Active; 'I' for Inactive)
REMARK    1  A    between atoms: C1_1  and  C4_4 
ROOT
HETATM    1  C2  UNL     1     -36.548  16.145  -4.537  1.00 20.00     0.013 C 
HETATM    2  C3  UNL     1     -35.792  16.067  -3.197  1.00 20.00     0.010 C 
HETATM    3  C4  UNL     1     -35.190  15.968  -5.262  1.00 20.00     0.062 C 
HETATM    4  C5  UNL     1     -34.652  15.312  -3.940  1.00 20.00    -0.037 C 
HETATM    5  C7  UNL     1     -33.251  15.777  -3.551  1.00 20.00     0.015 C 
HETATM    6  C8  UNL     1     -34.774  13.789  -3.844  1.00 20.00     0.015 C 
ENDROOT
BRANCH   3   7
HETATM    7  C1  UNL     1     -35.164  15.145  -6.553  1.00 20.00     0.128 C 
HETATM    8  C6  UNL     1     -33.936  15.272  -7.412  1.00 20.00     0.091 C 
HETATM    9  O9  UNL     1     -36.101  14.413  -6.869  1.00 20.00    -0.298 OA
ENDBRANCH   3   7
TORSDOF 1
ENDMDL
MODEL 8
REMARK VINA RESULT:      -3.7      1.427      1.964
REMARK  1 active torsions:
REMARK  status: ('A' for Active; 'I' for Inactive)
REMARK    1  A    between atoms: C1_1  and  C4_4 
ROOT
HETATM    1  C2  UNL     1     -33.557  16.192  -2.644  1.00 20.00     0.013 C 
HETATM    2  C3  UNL     1     -34.368  17.502  -2.646  1.00 20.00     0.010 C 
HETATM    3  C4  UNL     1     -34.849  15.444  -3.060  1.00 20.00     0.062 C 
HETATM    4  C5  UNL     1     -35.380  16.816  -3.610  1.00 20.00    -0.037 C 
HETATM    5  C7  UNL     1     -36.842  17.091  -3.265  1.00 20.00     0.015 C 
HETATM    6  C8  UNL     1     -35.099  17.106  -5.087  1.00 20.00     0.015 C 
ENDROOT
BRANCH   3   7
HETATM    7  C1  UNL     1     -34.719  14.266  -4.030  1.00 20.00     0.128 C 
HETATM    8  C6  UNL     1     -35.994  13.578  -4.434  1.00 20.00     0.091 C 
HETATM    9  O9  UNL     1     -33.625  13.903  -4.460  1.00 20.00    -0.298 OA
ENDBRANCH   3   7
TORSDOF 1
ENDMDL
MODEL 9
REMARK VINA RESULT:      -3.6     10.549     11.921
REMARK  1 active torsions:
REMARK  status: ('A' for Active; 'I' for Inactive)
REMARK    1  A    between atoms: C1_1  and  C4_4 
ROOT
HETATM    1  C2  UNL     1     -40.931   5.995  -1.096  1.00 20.00     0.013 C 
HETATM    2  C3  UNL     1     -40.759   7.516  -1.276  1.00 20.00     0.010 C 
HETATM    3  C4  UNL     1     -41.722   6.284   0.205  1.00 20.00     0.062 C 
HETATM    4  C5  UNL     1     -42.013   7.714  -0.375  1.00 20.00    -0.037 C 
HETATM    5  C7  UNL     1     -41.862   8.834   0.652  1.00 20.00     0.015 C 
HETATM    6  C8  UNL     1     -43.311   7.869  -1.172  1.00 20.00     0.015 C 
ENDROOT
BRANCH   3   7
HETATM    7  C1  UNL     1     -42.907   5.375   0.543  1.00 20.00     0.128 C 
HETATM    8  C6  UNL     1     -43.417   5.428   1.958  1.00 20.00     0.091 C 
HETATM    9  O9  UNL     1     -43.417   4.640  -0.301  1.00 20.00    -0.298 OA
ENDBRANCH   3   7
TORSDOF 1
ENDMDL
