MODEL 1
REMARK VINA RESULT:      -3.9      0.000      0.000
REMARK  1 active torsions:
REMARK  status: ('A' for Active; 'I' for Inactive)
REMARK    1  A    between atoms: C2_2  and  C3_3 
ROOT
HETATM    1  C1  UNL     1     -43.344   6.118  -1.360  1.00 20.00     0.058 C 
HETATM    2  C2  UNL     1     -42.183   6.155  -0.366  1.00 20.00     0.189 C 
HETATM    3 CL6  UNL     1     -42.658   5.276   1.128  1.00 20.00    -0.094 Cl
HETATM    4 CL7  UNL     1     -40.798   5.257  -1.095  1.00 20.00    -0.094 Cl
ENDROOT
BRANCH   2   5
HETATM    5  C3  UNL     1     -41.720   7.578  -0.031  1.00 20.00     0.354 C 
HETATM    6  F4  UNL     1     -40.942   8.055  -1.042  1.00 20.00    -0.184 F 
HETATM    7  F5  UNL     1     -40.931   7.564   1.077  1.00 20.00    -0.184 F 
HETATM    8 CL8  UNL     1     -43.050   8.729   0.237  1.00 20.00    -0.045 Cl
ENDBRANCH   2   5
TORSDOF 1
ENDMDL
MODEL 2
REMARK VINA RESULT:      -3.9      1.154      1.715
REMARK  1 active torsions:
REMARK  status: ('A' for Active; 'I' for Inactive)
REMARK    1  A    between atoms: C2_2  and  C3_3 
ROOT
HETATM    1  C1  UNL     1     -40.874   5.417  -0.999  1.00 20.00     0.058 C 
HETATM    2  C2  UNL     1     -42.058   6.187  -0.413  1.00 20.00     0.189 C 
HETATM    3 CL6  UNL     1     -43.413   6.171  -1.594  1.00 20.00    -0.094 Cl
HETATM    4 CL7  UNL     1     -42.621   5.308   1.057  1.00 20.00    -0.094 Cl
ENDROOT
BRANCH   2   5
HETATM    5  C3  UNL     1     -41.705   7.627  -0.016  1.00 20.00     0.354 C 
HETATM    6  F4  UNL     1     -40.938   8.193  -0.986  1.00 20.00    -0.184 F 
HETATM    7  F5  UNL     1     -40.946   7.626   1.113  1.00 20.00    -0.184 F 
HETATM    8 CL8  UNL     1     -43.120   8.671   0.255  1.00 20.00    -0.045 Cl
ENDBRANCH   2   5
TORSDOF 1
ENDMDL
MODEL 3
REMARK VINA RESULT:      -3.8     23.186     23.805
REMARK  1 active torsions:
REMARK  status: ('A' for Active; 'I' for Inactive)
REMARK    1  A    between atoms: C2_2  and  C3_3 
ROOT
HETATM    1  C1  UNL     1     -24.464  15.908  11.699  1.00 20.00     0.058 C 
HETATM    2  C2  UNL     1     -23.977  17.308  11.326  1.00 20.00     0.189 C 
HETATM    3 CL6  UNL     1     -25.238  18.509  11.771  1.00 20.00    -0.094 Cl
HETATM    4 CL7  UNL     1     -22.517  17.673  12.321  1.00 20.00    -0.094 Cl
ENDROOT
BRANCH   2   5
HETATM    5  C3  UNL     1     -23.602  17.443   9.844  1.00 20.00     0.354 C 
HETATM    6  F4  UNL     1     -24.692  17.838   9.132  1.00 20.00    -0.184 F 
HETATM    7  F5  UNL     1     -23.243  16.230   9.342  1.00 20.00    -0.184 F 
HETATM    8 CL8  UNL     1     -22.284  18.596   9.531  1.00 20.00    -0.045 Cl
ENDBRANCH   2   5
TORSDOF 1
ENDMDL
MODEL 4
REMARK VINA RESULT:      -3.8     23.074     23.790
REMARK  1 active torsions:
REMARK  status: ('A' for Active; 'I' for Inactive)
REMARK    1  A    between atoms: C2_2  and  C3_3 
ROOT
HETATM    1  C1  UNL     1     -22.791  17.777  12.264  1.00 20.00     0.058 C 
HETATM    2  C2  UNL     1     -23.962  17.397  11.357  1.00 20.00     0.189 C 
HETATM    3 CL6  UNL     1     -24.532  15.749  11.790  1.00 20.00    -0.094 Cl
HETATM    4 CL7  UNL     1     -25.319  18.537  11.694  1.00 20.00    -0.094 Cl
ENDROOT
BRANCH   2   5
HETATM    5  C3  UNL     1     -23.619  17.476   9.864  1.00 20.00     0.354 C 
HETATM    6  F4  UNL     1     -24.726  17.833   9.159  1.00 20.00    -0.184 F 
HETATM    7  F5  UNL     1     -23.258  16.248   9.403  1.00 20.00    -0.184 F 
HETATM    8 CL8  UNL     1     -22.319  18.628   9.478  1.00 20.00    -0.045 Cl
ENDBRANCH   2   5
TORSDOF 1
ENDMDL
MODEL 5
REMARK VINA RESULT:      -3.6      8.492      9.319
REMARK  1 active torsions:
REMARK  status: ('A' for Active; 'I' for Inactive)
REMARK    1  A    between atoms: C2_2  and  C3_3 
ROOT
HETATM    1  C1  UNL     1     -34.695   5.339   6.026  1.00 20.00     0.058 C 
HETATM    2  C2  UNL     1     -34.586   5.429   4.503  1.00 20.00     0.189 C 
HETATM    3 CL6  UNL     1     -33.965   3.869   3.864  1.00 20.00    -0.094 Cl
HETATM    4 CL7  UNL     1     -36.248   5.654   3.839  1.00 20.00    -0.094 Cl
ENDROOT
BRANCH   2   5
HETATM    5  C3  UNL     1     -33.709   6.595   4.029  1.00 20.00     0.354 C 
HETATM    6  F4  UNL     1     -32.916   7.016   5.051  1.00 20.00    -0.184 F 
HETATM    7  F5  UNL     1     -34.489   7.659   3.694  1.00 20.00    -0.184 F 
HETATM    8 CL8  UNL     1     -32.667   6.201   2.642  1.00 20.00    -0.045 Cl
ENDBRANCH   2   5
TORSDOF 1
ENDMDL
MODEL 6
REMARK VINA RESULT:      -3.6      8.896      9.584
REMARK  1 active torsions:
REMARK  status: ('A' for Active; 'I' for Inactive)
REMARK    1  A    between atoms: C2_2  and  C3_3 
ROOT
HETATM    1  C1  UNL     1     -34.118   3.978   3.884  1.00 20.00     0.058 C 
HETATM    2  C2  UNL     1     -34.473   5.411   4.284  1.00 20.00     0.189 C 
HETATM    3 CL6  UNL     1     -33.405   6.552   3.397  1.00 20.00    -0.094 Cl
HETATM    4 CL7  UNL     1     -36.164   5.736   3.748  1.00 20.00    -0.094 Cl
ENDROOT
BRANCH   2   5
HETATM    5  C3  UNL     1     -34.385   5.655   5.797  1.00 20.00     0.354 C 
HETATM    6  F4  UNL     1     -33.728   4.621   6.388  1.00 20.00    -0.184 F 
HETATM    7  F5  UNL     1     -35.632   5.668   6.339  1.00 20.00    -0.184 F 
HETATM    8 CL8  UNL     1     -33.559   7.166   6.241  1.00 20.00    -0.045 Cl
ENDBRANCH   2   5
TORSDOF 1
ENDMDL
MODEL 7
REMARK VINA RESULT:      -3.6      1.157      1.665
REMARK  1 active torsions:
REMARK  status: ('A' for Active; 'I' for Inactive)
REMARK    1  A    between atoms: C2_2  and  C3_3 
ROOT
HETATM    1  C1  UNL     1     -42.712   5.480   0.877  1.00 20.00     0.058 C 
HETATM    2  C2  UNL     1     -42.127   6.192  -0.344  1.00 20.00     0.189 C 
HETATM    3 CL6  UNL     1     -40.798   5.193  -1.028  1.00 20.00    -0.094 Cl
HETATM    4 CL7  UNL     1     -43.418   6.294  -1.600  1.00 20.00    -0.094 Cl
ENDROOT
BRANCH   2   5
HETATM    5  C3  UNL     1     -41.632   7.611  -0.037  1.00 20.00     0.354 C 
HETATM    6  F4  UNL     1     -40.899   8.076  -1.084  1.00 20.00    -0.184 F 
HETATM    7  F5  UNL     1     -40.792   7.591   1.033  1.00 20.00    -0.184 F 
HETATM    8 CL8  UNL     1     -42.935   8.777   0.291  1.00 20.00    -0.045 Cl
ENDBRANCH   2   5
TORSDOF 1
ENDMDL
MODEL 8
REMARK VINA RESULT:      -3.5     11.469     12.255
REMARK  1 active torsions:
REMARK  status: ('A' for Active; 'I' for Inactive)
REMARK    1  A    between atoms: C2_2  and  C3_3 
ROOT
HETATM    1  C1  UNL     1     -36.033  14.353  -5.664  1.00 20.00     0.058 C 
HETATM    2  C2  UNL     1     -34.714  15.076  -5.388  1.00 20.00     0.189 C 
HETATM    3 CL6  UNL     1     -33.645  14.919  -6.824  1.00 20.00    -0.094 Cl
HETATM    4 CL7  UNL     1     -35.074  16.831  -5.181  1.00 20.00    -0.094 Cl
ENDROOT
BRANCH   2   5
HETATM    5  C3  UNL     1     -34.002  14.571  -4.126  1.00 20.00     0.354 C 
HETATM    6  F4  UNL     1     -32.701  14.297  -4.415  1.00 20.00    -0.184 F 
HETATM    7  F5  UNL     1     -34.553  13.397  -3.718  1.00 20.00    -0.184 F 
HETATM    8 CL8  UNL     1     -34.040  15.717  -2.766  1.00 20.00    -0.045 Cl
ENDBRANCH   2   5
TORSDOF 1
ENDMDL
MODEL 9
REMARK VINA RESULT:      -3.5      1.489      2.954
REMARK  1 active torsions:
REMARK  status: ('A' for Active; 'I' for Inactive)
REMARK    1  A    between atoms: C2_2  and  C3_3 
ROOT
HETATM    1  C1  UNL     1     -43.230   8.177  -1.465  1.00 20.00     0.058 C 
HETATM    2  C2  UNL     1     -42.345   7.818  -0.270  1.00 20.00     0.189 C 
HETATM    3 CL6  UNL     1     -41.501   9.297   0.304  1.00 20.00    -0.094 Cl
HETATM    4 CL7  UNL     1     -43.417   7.262   1.070  1.00 20.00    -0.094 Cl
ENDROOT
BRANCH   2   5
HETATM    5  C3  UNL     1     -41.335   6.705  -0.580  1.00 20.00     0.354 C 
HETATM    6  F4  UNL     1     -40.585   6.449   0.526  1.00 20.00    -0.184 F 
HETATM    7  F5  UNL     1     -40.464   7.120  -1.539  1.00 20.00    -0.184 F 
HETATM    8 CL8  UNL     1     -42.079   5.180  -1.113  1.00 20.00    -0.045 Cl
ENDBRANCH   2   5
TORSDOF 1
ENDMDL
