MODEL 1
REMARK VINA RESULT:      -5.0      0.000      0.000
REMARK  0 active torsions:
REMARK  status: ('A' for Active; 'I' for Inactive)
ROOT
HETATM    1  C1  UNL     1     -33.976   5.159   2.860  1.00 20.00     0.105 C 
HETATM    2  C2  UNL     1     -34.081   6.675   4.359  1.00 20.00     0.260 C 
HETATM    3  C3  UNL     1     -32.974   6.212   3.381  1.00 20.00     0.128 C 
HETATM    4  C4  UNL     1     -34.677   5.247   4.234  1.00 20.00     0.276 C 
HETATM    5  F5  UNL     1     -33.666   7.033   5.595  1.00 20.00    -0.241 F 
HETATM    6  F6  UNL     1     -34.249   4.359   5.161  1.00 20.00    -0.203 F 
HETATM    7  F7  UNL     1     -36.026   5.174   4.213  1.00 20.00    -0.203 F 
HETATM    8 CL8  UNL     1     -32.300   7.393   2.227  1.00 20.00    -0.122 Cl
ENDROOT
TORSDOF 0
ENDMDL
MODEL 2
REMARK VINA RESULT:      -4.9      1.231      2.177
REMARK  0 active torsions:
REMARK  status: ('A' for Active; 'I' for Inactive)
ROOT
HETATM    1  C1  UNL     1     -33.996   6.620   4.996  1.00 20.00     0.105 C 
HETATM    2  C2  UNL     1     -33.635   5.257   3.393  1.00 20.00     0.260 C 
HETATM    3  C3  UNL     1     -33.442   6.784   3.564  1.00 20.00     0.128 C 
HETATM    4  C4  UNL     1     -34.724   5.352   4.495  1.00 20.00     0.276 C 
HETATM    5  F5  UNL     1     -34.062   4.847   2.178  1.00 20.00    -0.241 F 
HETATM    6  F6  UNL     1     -35.985   5.546   4.046  1.00 20.00    -0.203 F 
HETATM    7  F7  UNL     1     -34.771   4.319   5.364  1.00 20.00    -0.203 F 
HETATM    8 CL8  UNL     1     -31.810   7.472   3.354  1.00 20.00    -0.122 Cl
ENDROOT
TORSDOF 0
ENDMDL
MODEL 3
REMARK VINA RESULT:      -4.6      2.487      2.912
REMARK  0 active torsions:
REMARK  status: ('A' for Active; 'I' for Inactive)
ROOT
HETATM    1  C1  UNL     1     -34.291   4.835   3.936  1.00 20.00     0.105 C 
HETATM    2  C2  UNL     1     -32.920   6.372   3.373  1.00 20.00     0.260 C 
HETATM    3  C3  UNL     1     -34.184   6.340   4.266  1.00 20.00     0.128 C 
HETATM    4  C4  UNL     1     -33.505   5.134   2.640  1.00 20.00     0.276 C 
HETATM    5  F5  UNL     1     -32.758   7.481   2.617  1.00 20.00    -0.241 F 
HETATM    6  F6  UNL     1     -34.262   5.411   1.553  1.00 20.00    -0.203 F 
HETATM    7  F7  UNL     1     -32.608   4.196   2.265  1.00 20.00    -0.203 F 
HETATM    8 CL8  UNL     1     -34.040   6.830   5.975  1.00 20.00    -0.122 Cl
ENDROOT
TORSDOF 0
ENDMDL
MODEL 4
REMARK VINA RESULT:      -4.3      2.795      3.556
REMARK  0 active torsions:
REMARK  status: ('A' for Active; 'I' for Inactive)
ROOT
HETATM    1  C1  UNL     1     -33.712   7.162   3.973  1.00 20.00     0.105 C 
HETATM    2  C2  UNL     1     -33.434   5.523   2.633  1.00 20.00     0.260 C 
HETATM    3  C3  UNL     1     -33.798   5.629   4.135  1.00 20.00     0.128 C 
HETATM    4  C4  UNL     1     -32.760   6.913   2.782  1.00 20.00     0.276 C 
HETATM    5  F5  UNL     1     -32.612   4.504   2.295  1.00 20.00    -0.241 F 
HETATM    6  F6  UNL     1     -31.442   6.886   3.088  1.00 20.00    -0.203 F 
HETATM    7  F7  UNL     1     -32.902   7.749   1.730  1.00 20.00    -0.203 F 
HETATM    8 CL8  UNL     1     -35.333   4.915   4.698  1.00 20.00    -0.122 Cl
ENDROOT
TORSDOF 0
ENDMDL
MODEL 5
REMARK VINA RESULT:      -4.1      8.823      9.394
REMARK  0 active torsions:
REMARK  status: ('A' for Active; 'I' for Inactive)
ROOT
HETATM    1  C1  UNL     1     -41.336   8.046  -1.108  1.00 20.00     0.105 C 
HETATM    2  C2  UNL     1     -41.842   7.149   0.761  1.00 20.00     0.260 C 
HETATM    3  C3  UNL     1     -41.850   6.648  -0.704  1.00 20.00     0.128 C 
HETATM    4  C4  UNL     1     -41.985   8.583   0.187  1.00 20.00     0.276 C 
HETATM    5  F5  UNL     1     -42.863   6.721   1.537  1.00 20.00    -0.241 F 
HETATM    6  F6  UNL     1     -43.256   9.030   0.057  1.00 20.00    -0.203 F 
HETATM    7  F7  UNL     1     -41.295   9.546   0.836  1.00 20.00    -0.203 F 
HETATM    8 CL8  UNL     1     -40.867   5.221  -1.129  1.00 20.00    -0.122 Cl
ENDROOT
TORSDOF 0
ENDMDL
MODEL 6
REMARK VINA RESULT:      -4.0      2.284      2.822
REMARK  0 active torsions:
REMARK  status: ('A' for Active; 'I' for Inactive)
ROOT
HETATM    1  C1  UNL     1     -33.122   6.698   3.324  1.00 20.00     0.105 C 
HETATM    2  C2  UNL     1     -34.454   5.117   3.860  1.00 20.00     0.260 C 
HETATM    3  C3  UNL     1     -33.511   6.043   4.667  1.00 20.00     0.128 C 
HETATM    4  C4  UNL     1     -33.529   5.373   2.640  1.00 20.00     0.276 C 
HETATM    5  F5  UNL     1     -34.529   3.836   4.283  1.00 20.00    -0.241 F 
HETATM    6  F6  UNL     1     -32.531   4.476   2.473  1.00 20.00    -0.203 F 
HETATM    7  F7  UNL     1     -34.152   5.494   1.447  1.00 20.00    -0.203 F 
HETATM    8 CL8  UNL     1     -34.206   7.071   5.948  1.00 20.00    -0.122 Cl
ENDROOT
TORSDOF 0
ENDMDL
MODEL 7
REMARK VINA RESULT:      -3.9     16.109     16.790
REMARK  0 active torsions:
REMARK  status: ('A' for Active; 'I' for Inactive)
ROOT
HETATM    1  C1  UNL     1     -23.572  16.796  10.017  1.00 20.00     0.105 C 
HETATM    2  C2  UNL     1     -24.900  17.817  11.341  1.00 20.00     0.260 C 
HETATM    3  C3  UNL     1     -24.099  18.245  10.086  1.00 20.00     0.128 C 
HETATM    4  C4  UNL     1     -23.840  16.700  11.536  1.00 20.00     0.276 C 
HETATM    5  F5  UNL     1     -24.979  18.733  12.332  1.00 20.00    -0.241 F 
HETATM    6  F6  UNL     1     -22.796  17.026  12.332  1.00 20.00    -0.203 F 
HETATM    7  F7  UNL     1     -24.314  15.513  11.975  1.00 20.00    -0.203 F 
HETATM    8 CL8  UNL     1     -24.987  18.898   8.683  1.00 20.00    -0.122 Cl
ENDROOT
TORSDOF 0
ENDMDL
MODEL 8
REMARK VINA RESULT:      -3.9      8.503      9.322
REMARK  0 active torsions:
REMARK  status: ('A' for Active; 'I' for Inactive)
ROOT
HETATM    1  C1  UNL     1     -40.947   6.828   0.616  1.00 20.00     0.105 C 
HETATM    2  C2  UNL     1     -41.815   7.405  -1.247  1.00 20.00     0.260 C 
HETATM    3  C3  UNL     1     -41.862   7.994   0.184  1.00 20.00     0.128 C 
HETATM    4  C4  UNL     1     -41.507   6.035  -0.586  1.00 20.00     0.276 C 
HETATM    5  F5  UNL     1     -42.967   7.473  -1.952  1.00 20.00    -0.241 F 
HETATM    6  F6  UNL     1     -42.587   5.265  -0.321  1.00 20.00    -0.203 F 
HETATM    7  F7  UNL     1     -40.619   5.255  -1.241  1.00 20.00    -0.203 F 
HETATM    8 CL8  UNL     1     -41.295   9.665   0.444  1.00 20.00    -0.122 Cl
ENDROOT
TORSDOF 0
ENDMDL
MODEL 9
REMARK VINA RESULT:      -3.8      8.524      9.182
REMARK  0 active torsions:
REMARK  status: ('A' for Active; 'I' for Inactive)
ROOT
HETATM    1  C1  UNL     1     -43.043   7.078   0.969  1.00 20.00     0.105 C 
HETATM    2  C2  UNL     1     -41.209   6.473   0.058  1.00 20.00     0.260 C 
HETATM    3  C3  UNL     1     -42.113   7.723  -0.081  1.00 20.00     0.128 C 
HETATM    4  C4  UNL     1     -42.475   5.709   0.530  1.00 20.00     0.276 C 
HETATM    5  F5  UNL     1     -40.642   6.024  -1.084  1.00 20.00    -0.241 F 
HETATM    6  F6  UNL     1     -43.168   5.081  -0.448  1.00 20.00    -0.203 F 
HETATM    7  F7  UNL     1     -42.282   4.807   1.517  1.00 20.00    -0.203 F 
HETATM    8 CL8  UNL     1     -41.418   9.328   0.266  1.00 20.00    -0.122 Cl
ENDROOT
TORSDOF 0
ENDMDL
