MODEL 1
REMARK VINA RESULT:      -5.1      0.000      0.000
REMARK  1 active torsions:
REMARK  status: ('A' for Active; 'I' for Inactive)
REMARK    1  A    between atoms: C1_1  and  C2_2 
ROOT
HETATM    1  C2  UNL     1     -34.775   5.336   4.458  1.00 20.00     0.357 C 
HETATM    2  F5  UNL     1     -34.488   4.026   4.258  1.00 20.00    -0.187 F 
HETATM    3  F6  UNL     1     -36.023   5.547   3.973  1.00 20.00    -0.187 F 
HETATM    4 BR7  UNL     1     -33.504   6.450   3.509  1.00 20.00    -0.005 Br
ENDROOT
BRANCH   1   5
HETATM    5  C1  UNL     1     -34.751   5.642   5.933  1.00 20.00     0.436 C 
HETATM    6  F3  UNL     1     -34.091   6.804   6.161  1.00 20.00    -0.207 F 
HETATM    7  F4  UNL     1     -34.055   4.670   6.576  1.00 20.00    -0.207 F 
ENDBRANCH   1   5
TORSDOF 1
ENDMDL
MODEL 2
REMARK VINA RESULT:      -4.8      1.793      2.869
REMARK  1 active torsions:
REMARK  status: ('A' for Active; 'I' for Inactive)
REMARK    1  A    between atoms: C1_1  and  C2_2 
ROOT
HETATM    1  C2  UNL     1     -34.607   5.331   4.336  1.00 20.00     0.357 C 
HETATM    2  F5  UNL     1     -35.931   5.479   4.090  1.00 20.00    -0.187 F 
HETATM    3  F6  UNL     1     -34.410   4.035   4.686  1.00 20.00    -0.187 F 
HETATM    4 BR7  UNL     1     -34.063   6.493   5.790  1.00 20.00    -0.005 Br
ENDROOT
BRANCH   1   5
HETATM    5  C1  UNL     1     -33.821   5.639   3.088  1.00 20.00     0.436 C 
HETATM    6  F3  UNL     1     -33.179   4.527   2.651  1.00 20.00    -0.207 F 
HETATM    7  F4  UNL     1     -32.858   6.549   3.383  1.00 20.00    -0.207 F 
ENDBRANCH   1   5
TORSDOF 1
ENDMDL
MODEL 3
REMARK VINA RESULT:      -4.6      1.261      1.517
REMARK  1 active torsions:
REMARK  status: ('A' for Active; 'I' for Inactive)
REMARK    1  A    between atoms: C1_1  and  C2_2 
ROOT
HETATM    1  C2  UNL     1     -34.857   5.675   4.473  1.00 20.00     0.357 C 
HETATM    2  F5  UNL     1     -36.149   5.683   4.063  1.00 20.00    -0.187 F 
HETATM    3  F6  UNL     1     -34.279   6.801   3.983  1.00 20.00    -0.187 F 
HETATM    4 BR7  UNL     1     -33.945   4.113   3.777  1.00 20.00    -0.005 Br
ENDROOT
BRANCH   1   5
HETATM    5  C1  UNL     1     -34.801   5.697   5.978  1.00 20.00     0.436 C 
HETATM    6  F3  UNL     1     -34.124   6.790   6.407  1.00 20.00    -0.207 F 
HETATM    7  F4  UNL     1     -34.104   4.616   6.411  1.00 20.00    -0.207 F 
ENDBRANCH   1   5
TORSDOF 1
ENDMDL
MODEL 4
REMARK VINA RESULT:      -4.4      1.915      2.829
REMARK  1 active torsions:
REMARK  status: ('A' for Active; 'I' for Inactive)
REMARK    1  A    between atoms: C1_1  and  C2_2 
ROOT
HETATM    1  C2  UNL     1     -34.840   5.654   4.221  1.00 20.00     0.357 C 
HETATM    2  F5  UNL     1     -34.288   6.859   3.936  1.00 20.00    -0.187 F 
HETATM    3  F6  UNL     1     -36.163   5.747   3.936  1.00 20.00    -0.187 F 
HETATM    4 BR7  UNL     1     -34.601   5.237   6.099  1.00 20.00    -0.005 Br
ENDROOT
BRANCH   1   5
HETATM    5  C1  UNL     1     -34.214   4.591   3.356  1.00 20.00     0.436 C 
HETATM    6  F3  UNL     1     -33.895   3.506   4.104  1.00 20.00    -0.207 F 
HETATM    7  F4  UNL     1     -33.049   5.064   2.846  1.00 20.00    -0.207 F 
ENDBRANCH   1   5
TORSDOF 1
ENDMDL
MODEL 5
REMARK VINA RESULT:      -4.1      1.265      2.642
REMARK  1 active torsions:
REMARK  status: ('A' for Active; 'I' for Inactive)
REMARK    1  A    between atoms: C1_1  and  C2_2 
ROOT
HETATM    1  C2  UNL     1     -34.511   5.473   5.733  1.00 20.00     0.357 C 
HETATM    2  F5  UNL     1     -35.678   5.507   6.422  1.00 20.00    -0.187 F 
HETATM    3  F6  UNL     1     -33.772   4.462   6.254  1.00 20.00    -0.187 F 
HETATM    4 BR7  UNL     1     -33.564   7.152   5.941  1.00 20.00    -0.005 Br
ENDROOT
BRANCH   1   5
HETATM    5  C1  UNL     1     -34.787   5.196   4.279  1.00 20.00     0.436 C 
HETATM    6  F3  UNL     1     -36.102   5.382   4.006  1.00 20.00    -0.207 F 
HETATM    7  F4  UNL     1     -34.521   3.891   4.018  1.00 20.00    -0.207 F 
ENDBRANCH   1   5
TORSDOF 1
ENDMDL
MODEL 6
REMARK VINA RESULT:      -4.1      1.093      2.233
REMARK  1 active torsions:
REMARK  status: ('A' for Active; 'I' for Inactive)
REMARK    1  A    between atoms: C1_1  and  C2_2 
ROOT
HETATM    1  C2  UNL     1     -34.111   6.265   4.385  1.00 20.00     0.357 C 
HETATM    2  F5  UNL     1     -35.020   7.227   4.095  1.00 20.00    -0.187 F 
HETATM    3  F6  UNL     1     -33.297   6.765   5.348  1.00 20.00    -0.187 F 
HETATM    4 BR7  UNL     1     -33.072   5.830   2.807  1.00 20.00    -0.005 Br
ENDROOT
BRANCH   1   5
HETATM    5  C1  UNL     1     -34.816   5.041   4.910  1.00 20.00     0.436 C 
HETATM    6  F3  UNL     1     -34.558   4.881   6.231  1.00 20.00    -0.207 F 
HETATM    7  F4  UNL     1     -34.321   3.942   4.285  1.00 20.00    -0.207 F 
ENDBRANCH   1   5
TORSDOF 1
ENDMDL
MODEL 7
REMARK VINA RESULT:      -4.0      1.899      2.247
REMARK  1 active torsions:
REMARK  status: ('A' for Active; 'I' for Inactive)
REMARK    1  A    between atoms: C1_1  and  C2_2 
ROOT
HETATM    1  C2  UNL     1     -33.476   5.331   2.684  1.00 20.00     0.357 C 
HETATM    2  F5  UNL     1     -32.590   4.307   2.632  1.00 20.00    -0.187 F 
HETATM    3  F6  UNL     1     -34.157   5.325   1.511  1.00 20.00    -0.187 F 
HETATM    4 BR7  UNL     1     -32.540   7.016   2.891  1.00 20.00    -0.005 Br
ENDROOT
BRANCH   1   5
HETATM    5  C1  UNL     1     -34.437   5.114   3.823  1.00 20.00     0.436 C 
HETATM    6  F3  UNL     1     -34.185   5.994   4.824  1.00 20.00    -0.207 F 
HETATM    7  F4  UNL     1     -34.240   3.875   4.340  1.00 20.00    -0.207 F 
ENDBRANCH   1   5
TORSDOF 1
ENDMDL
MODEL 8
REMARK VINA RESULT:      -4.0      2.515      3.276
REMARK  1 active torsions:
REMARK  status: ('A' for Active; 'I' for Inactive)
REMARK    1  A    between atoms: C1_1  and  C2_2 
ROOT
HETATM    1  C2  UNL     1     -33.794   6.485   4.097  1.00 20.00     0.357 C 
HETATM    2  F5  UNL     1     -33.018   7.000   5.082  1.00 20.00    -0.187 F 
HETATM    3  F6  UNL     1     -34.622   7.477   3.685  1.00 20.00    -0.187 F 
HETATM    4 BR7  UNL     1     -34.836   4.999   4.777  1.00 20.00    -0.005 Br
ENDROOT
BRANCH   1   5
HETATM    5  C1  UNL     1     -32.928   6.044   2.946  1.00 20.00     0.436 C 
HETATM    6  F3  UNL     1     -32.807   7.044   2.039  1.00 20.00    -0.207 F 
HETATM    7  F4  UNL     1     -33.535   5.013   2.304  1.00 20.00    -0.207 F 
ENDBRANCH   1   5
TORSDOF 1
ENDMDL
MODEL 9
REMARK VINA RESULT:      -3.9      2.817      3.444
REMARK  1 active torsions:
REMARK  status: ('A' for Active; 'I' for Inactive)
REMARK    1  A    between atoms: C1_1  and  C2_2 
ROOT
HETATM    1  C2  UNL     1     -33.452   5.371   2.710  1.00 20.00     0.357 C 
HETATM    2  F5  UNL     1     -34.143   5.524   1.554  1.00 20.00    -0.187 F 
HETATM    3  F6  UNL     1     -32.645   4.293   2.549  1.00 20.00    -0.187 F 
HETATM    4 BR7  UNL     1     -34.674   5.063   4.183  1.00 20.00    -0.005 Br
ENDROOT
BRANCH   1   5
HETATM    5  C1  UNL     1     -32.610   6.594   2.965  1.00 20.00     0.436 C 
HETATM    6  F3  UNL     1     -32.898   7.116   4.182  1.00 20.00    -0.207 F 
HETATM    7  F4  UNL     1     -32.925   7.547   2.052  1.00 20.00    -0.207 F 
ENDBRANCH   1   5
TORSDOF 1
ENDMDL
