MODEL 1
REMARK VINA RESULT:      -4.6      0.000      0.000
REMARK  2 active torsions:
REMARK  status: ('A' for Active; 'I' for Inactive)
REMARK    1  A    between atoms: C7_7  and  C10_10 
REMARK    2  A    between atoms: C8_8  and  C9_9 
ROOT
HETATM    1  C1  UNL     1     -35.460  16.316  -2.499  1.00 20.00    -0.019 C 
HETATM    2  C3  UNL     1     -34.177  16.673  -2.244  1.00 20.00    -0.087 C 
HETATM    3  C5  UNL     1     -33.198  16.016  -3.229  1.00 20.00     0.039 C 
HETATM    4  C8  UNL     1     -35.465  15.581  -3.792  1.00 20.00     0.021 C 
HETATM    5  C10 UNL     1     -34.102  14.866  -3.592  1.00 20.00     0.005 C 
HETATM    6  C11 UNL     1     -33.689  17.552  -1.153  1.00 20.00     0.043 C 
ENDROOT
BRANCH   4   7
HETATM    7  C9  UNL     1     -36.274  14.456  -4.485  1.00 20.00     0.022 C 
HETATM    8  C4  UNL     1     -37.594  15.164  -4.809  1.00 20.00    -0.082 C 
HETATM    9  C2  UNL     1     -37.333  16.107  -5.734  1.00 20.00    -0.019 C 
HETATM   10  C12 UNL     1     -38.862  14.867  -4.104  1.00 20.00     0.043 C 
HETATM   11  C7  UNL     1     -35.883  15.968  -6.134  1.00 20.00     0.014 C 
HETATM   12  C6  UNL     1     -35.778  14.423  -5.940  1.00 20.00     0.018 C 
ENDBRANCH   4   7
TORSDOF 2
ENDMDL
MODEL 2
REMARK VINA RESULT:      -4.6      1.254      1.689
REMARK  2 active torsions:
REMARK  status: ('A' for Active; 'I' for Inactive)
REMARK    1  A    between atoms: C7_7  and  C10_10 
REMARK    2  A    between atoms: C8_8  and  C9_9 
ROOT
HETATM    1  C1  UNL     1     -34.980  16.167  -2.182  1.00 20.00    -0.019 C 
HETATM    2  C3  UNL     1     -34.236  17.088  -1.522  1.00 20.00    -0.087 C 
HETATM    3  C5  UNL     1     -33.009  17.520  -2.340  1.00 20.00     0.039 C 
HETATM    4  C8  UNL     1     -34.442  16.075  -3.565  1.00 20.00     0.021 C 
HETATM    5  C10 UNL     1     -32.950  16.275  -3.187  1.00 20.00     0.005 C 
HETATM    6  C11 UNL     1     -34.484  17.639  -0.166  1.00 20.00     0.043 C 
ENDROOT
BRANCH   4   7
HETATM    7  C9  UNL     1     -34.307  15.019  -4.692  1.00 20.00     0.022 C 
HETATM    8  C4  UNL     1     -35.770  14.657  -4.968  1.00 20.00    -0.082 C 
HETATM    9  C2  UNL     1     -36.365  15.744  -5.497  1.00 20.00    -0.019 C 
HETATM   10  C12 UNL     1     -36.364  13.353  -4.590  1.00 20.00     0.043 C 
HETATM   11  C7  UNL     1     -35.300  16.795  -5.700  1.00 20.00     0.014 C 
HETATM   12  C6  UNL     1     -34.118  15.818  -5.991  1.00 20.00     0.018 C 
ENDBRANCH   4   7
TORSDOF 2
ENDMDL
MODEL 3
REMARK VINA RESULT:      -4.5      1.953      5.161
REMARK  2 active torsions:
REMARK  status: ('A' for Active; 'I' for Inactive)
REMARK    1  A    between atoms: C7_7  and  C10_10 
REMARK    2  A    between atoms: C8_8  and  C9_9 
ROOT
HETATM    1  C1  UNL     1     -33.351  15.778  -3.029  1.00 20.00    -0.019 C 
HETATM    2  C3  UNL     1     -34.304  14.986  -3.579  1.00 20.00    -0.087 C 
HETATM    3  C5  UNL     1     -35.718  15.433  -3.174  1.00 20.00     0.039 C 
HETATM    4  C8  UNL     1     -34.045  16.934  -2.403  1.00 20.00     0.021 C 
HETATM    5  C10 UNL     1     -35.292  16.148  -1.917  1.00 20.00     0.005 C 
HETATM    6  C11 UNL     1     -34.097  13.800  -4.446  1.00 20.00     0.043 C 
ENDROOT
BRANCH   4   7
HETATM    7  C9  UNL     1     -33.843  17.905  -1.212  1.00 20.00     0.022 C 
HETATM    8  C4  UNL     1     -32.451  18.478  -1.498  1.00 20.00    -0.082 C 
HETATM    9  C2  UNL     1     -32.541  19.222  -2.618  1.00 20.00    -0.019 C 
HETATM   10  C12 UNL     1     -31.256  18.137  -0.692  1.00 20.00     0.043 C 
HETATM   11  C7  UNL     1     -33.995  19.263  -3.025  1.00 20.00     0.014 C 
HETATM   12  C6  UNL     1     -34.599  19.189  -1.588  1.00 20.00     0.018 C 
ENDBRANCH   4   7
TORSDOF 2
ENDMDL
MODEL 4
REMARK VINA RESULT:      -4.4      1.725      4.285
REMARK  2 active torsions:
REMARK  status: ('A' for Active; 'I' for Inactive)
REMARK    1  A    between atoms: C7_7  and  C10_10 
REMARK    2  A    between atoms: C8_8  and  C9_9 
ROOT
HETATM    1  C1  UNL     1     -34.769  17.433  -5.783  1.00 20.00    -0.019 C 
HETATM    2  C3  UNL     1     -35.278  17.304  -7.033  1.00 20.00    -0.087 C 
HETATM    3  C5  UNL     1     -35.266  15.840  -7.502  1.00 20.00     0.039 C 
HETATM    4  C8  UNL     1     -34.586  16.063  -5.237  1.00 20.00     0.021 C 
HETATM    5  C10 UNL     1     -34.165  15.396  -6.574  1.00 20.00     0.005 C 
HETATM    6  C11 UNL     1     -35.774  18.386  -7.918  1.00 20.00     0.043 C 
ENDROOT
BRANCH   4   7
HETATM    7  C9  UNL     1     -33.651  15.322  -4.247  1.00 20.00     0.022 C 
HETATM    8  C4  UNL     1     -33.918  16.067  -2.935  1.00 20.00    -0.082 C 
HETATM    9  C2  UNL     1     -35.189  15.803  -2.570  1.00 20.00    -0.019 C 
HETATM   10  C12 UNL     1     -32.931  16.975  -2.308  1.00 20.00     0.043 C 
HETATM   11  C7  UNL     1     -35.745  14.795  -3.546  1.00 20.00     0.014 C 
HETATM   12  C6  UNL     1     -34.407  14.047  -3.836  1.00 20.00     0.018 C 
ENDBRANCH   4   7
TORSDOF 2
ENDMDL
MODEL 5
REMARK VINA RESULT:      -4.4      1.596      2.969
REMARK  2 active torsions:
REMARK  status: ('A' for Active; 'I' for Inactive)
REMARK    1  A    between atoms: C7_7  and  C10_10 
REMARK    2  A    between atoms: C8_8  and  C9_9 
ROOT
HETATM    1  C1  UNL     1     -33.092  17.333  -2.949  1.00 20.00    -0.019 C 
HETATM    2  C3  UNL     1     -32.963  17.683  -1.646  1.00 20.00    -0.087 C 
HETATM    3  C5  UNL     1     -34.236  17.367  -0.845  1.00 20.00     0.039 C 
HETATM    4  C8  UNL     1     -34.357  16.563  -3.077  1.00 20.00     0.021 C 
HETATM    5  C10 UNL     1     -35.165  17.378  -2.032  1.00 20.00     0.005 C 
HETATM    6  C11 UNL     1     -31.792  18.324  -0.998  1.00 20.00     0.043 C 
ENDROOT
BRANCH   4   7
HETATM    7  C9  UNL     1     -35.456  16.301  -4.138  1.00 20.00     0.022 C 
HETATM    8  C4  UNL     1     -34.626  15.955  -5.379  1.00 20.00    -0.082 C 
HETATM    9  C2  UNL     1     -34.004  14.784  -5.138  1.00 20.00    -0.019 C 
HETATM   10  C12 UNL     1     -34.505  16.858  -6.547  1.00 20.00     0.043 C 
HETATM   11  C7  UNL     1     -34.496  14.270  -3.807  1.00 20.00     0.014 C 
HETATM   12  C6  UNL     1     -35.937  14.862  -3.892  1.00 20.00     0.018 C 
ENDBRANCH   4   7
TORSDOF 2
ENDMDL
MODEL 6
REMARK VINA RESULT:      -4.4      2.487      4.911
REMARK  2 active torsions:
REMARK  status: ('A' for Active; 'I' for Inactive)
REMARK    1  A    between atoms: C7_7  and  C10_10 
REMARK    2  A    between atoms: C8_8  and  C9_9 
ROOT
HETATM    1  C1  UNL     1     -35.302  16.053  -2.288  1.00 20.00    -0.019 C 
HETATM    2  C3  UNL     1     -34.260  15.581  -3.014  1.00 20.00    -0.087 C 
HETATM    3  C5  UNL     1     -33.062  16.543  -2.980  1.00 20.00     0.039 C 
HETATM    4  C8  UNL     1     -34.817  17.243  -1.540  1.00 20.00     0.021 C 
HETATM    5  C10 UNL     1     -33.868  17.772  -2.648  1.00 20.00     0.005 C 
HETATM    6  C11 UNL     1     -34.207  14.322  -3.798  1.00 20.00     0.043 C 
ENDROOT
BRANCH   4   7
HETATM    7  C9  UNL     1     -35.378  18.578  -0.990  1.00 20.00     0.022 C 
HETATM    8  C4  UNL     1     -36.463  18.095  -0.021  1.00 20.00    -0.082 C 
HETATM    9  C2  UNL     1     -35.845  17.462   0.997  1.00 20.00    -0.019 C 
HETATM   10  C12 UNL     1     -37.911  18.248  -0.289  1.00 20.00     0.043 C 
HETATM   11  C7  UNL     1     -34.357  17.618   0.797  1.00 20.00     0.014 C 
HETATM   12  C6  UNL     1     -34.399  19.019   0.111  1.00 20.00     0.018 C 
ENDBRANCH   4   7
TORSDOF 2
ENDMDL
MODEL 7
REMARK VINA RESULT:      -4.4      1.461      3.101
REMARK  2 active torsions:
REMARK  status: ('A' for Active; 'I' for Inactive)
REMARK    1  A    between atoms: C7_7  and  C10_10 
REMARK    2  A    between atoms: C8_8  and  C9_9 
ROOT
HETATM    1  C1  UNL     1     -34.909  16.314  -1.572  1.00 20.00    -0.019 C 
HETATM    2  C3  UNL     1     -35.663  17.155  -0.822  1.00 20.00    -0.087 C 
HETATM    3  C5  UNL     1     -36.694  17.908  -1.676  1.00 20.00     0.039 C 
HETATM    4  C8  UNL     1     -35.513  16.272  -2.930  1.00 20.00     0.021 C 
HETATM    5  C10 UNL     1     -35.945  17.762  -2.976  1.00 20.00     0.005 C 
HETATM    6  C11 UNL     1     -35.551  17.402   0.637  1.00 20.00     0.043 C 
ENDROOT
BRANCH   4   7
HETATM    7  C9  UNL     1     -35.060  16.066  -4.397  1.00 20.00     0.022 C 
HETATM    8  C4  UNL     1     -34.394  14.687  -4.336  1.00 20.00    -0.082 C 
HETATM    9  C2  UNL     1     -35.357  13.782  -4.076  1.00 20.00    -0.019 C 
HETATM   10  C12 UNL     1     -32.930  14.493  -4.450  1.00 20.00     0.043 C 
HETATM   11  C7  UNL     1     -36.681  14.507  -4.084  1.00 20.00     0.014 C 
HETATM   12  C6  UNL     1     -36.307  15.580  -5.154  1.00 20.00     0.018 C 
ENDBRANCH   4   7
TORSDOF 2
ENDMDL
MODEL 8
REMARK VINA RESULT:      -4.3      3.057      4.965
REMARK  2 active torsions:
REMARK  status: ('A' for Active; 'I' for Inactive)
REMARK    1  A    between atoms: C7_7  and  C10_10 
REMARK    2  A    between atoms: C8_8  and  C9_9 
ROOT
HETATM    1  C1  UNL     1     -31.769  18.482  -0.812  1.00 20.00    -0.019 C 
HETATM    2  C3  UNL     1     -31.667  18.455   0.539  1.00 20.00    -0.087 C 
HETATM    3  C5  UNL     1     -33.041  18.299   1.209  1.00 20.00     0.039 C 
HETATM    4  C8  UNL     1     -33.171  18.129  -1.157  1.00 20.00     0.021 C 
HETATM    5  C10 UNL     1     -33.834  18.846   0.050  1.00 20.00     0.005 C 
HETATM    6  C11 UNL     1     -30.431  18.585   1.351  1.00 20.00     0.043 C 
ENDROOT
BRANCH   4   7
HETATM    7  C9  UNL     1     -34.207  18.435  -2.268  1.00 20.00     0.022 C 
HETATM    8  C4  UNL     1     -33.438  18.051  -3.537  1.00 20.00    -0.082 C 
HETATM    9  C2  UNL     1     -33.251  16.716  -3.510  1.00 20.00    -0.019 C 
HETATM   10  C12 UNL     1     -32.938  19.048  -4.511  1.00 20.00     0.043 C 
HETATM   11  C7  UNL     1     -33.988  16.176  -2.308  1.00 20.00     0.014 C 
HETATM   12  C6  UNL     1     -35.148  17.220  -2.307  1.00 20.00     0.018 C 
ENDBRANCH   4   7
TORSDOF 2
ENDMDL
MODEL 9
REMARK VINA RESULT:      -4.3      2.310      4.415
REMARK  2 active torsions:
REMARK  status: ('A' for Active; 'I' for Inactive)
REMARK    1  A    between atoms: C7_7  and  C10_10 
REMARK    2  A    between atoms: C8_8  and  C9_9 
ROOT
HETATM    1  C1  UNL     1     -33.693  18.122  -0.208  1.00 20.00    -0.019 C 
HETATM    2  C3  UNL     1     -34.289  17.894   0.988  1.00 20.00    -0.087 C 
HETATM    3  C5  UNL     1     -35.707  17.328   0.817  1.00 20.00     0.039 C 
HETATM    4  C8  UNL     1     -34.565  17.528  -1.256  1.00 20.00     0.021 C 
HETATM    5  C10 UNL     1     -35.916  17.869  -0.574  1.00 20.00     0.005 C 
HETATM    6  C11 UNL     1     -33.729  18.160   2.336  1.00 20.00     0.043 C 
ENDROOT
BRANCH   4   7
HETATM    7  C9  UNL     1     -34.929  17.775  -2.742  1.00 20.00     0.022 C 
HETATM    8  C4  UNL     1     -33.568  17.642  -3.432  1.00 20.00    -0.082 C 
HETATM    9  C2  UNL     1     -33.178  16.357  -3.317  1.00 20.00    -0.019 C 
HETATM   10  C12 UNL     1     -32.837  18.796  -4.005  1.00 20.00     0.043 C 
HETATM   11  C7  UNL     1     -34.308  15.593  -2.670  1.00 20.00     0.014 C 
HETATM   12  C6  UNL     1     -35.478  16.437  -3.264  1.00 20.00     0.018 C 
ENDBRANCH   4   7
TORSDOF 2
ENDMDL
