MODEL 1
REMARK VINA RESULT:      -4.4      0.000      0.000
REMARK  1 active torsions:
REMARK  status: ('A' for Active; 'I' for Inactive)
REMARK    1  A    between atoms: C1_1  and  C4_4 
ROOT
HETATM    1  C3  UNL     1     -24.303  15.986  11.755  1.00 20.00     0.018 A 
HETATM    2  C4  UNL     1     -24.294  16.814  10.497  1.00 20.00     0.017 A 
HETATM    3  C5  UNL     1     -24.199  17.489  11.854  1.00 20.00    -0.040 A 
HETATM    4  C8  UNL     1     -25.409  18.249  12.332  1.00 20.00     0.015 C 
HETATM    5  C9  UNL     1     -22.890  18.068  12.331  1.00 20.00     0.015 C 
ENDROOT
BRANCH   2   6
HETATM    6  C1  UNL     1     -23.140  16.741   9.613  1.00 20.00    -0.019 C 
HETATM    7  C2  UNL     1     -22.798  17.600   8.633  1.00 20.00    -0.091 C 
HETATM    8  C6  UNL     1     -21.564  17.380   7.802  1.00 20.00     0.042 C 
HETATM    9  C7  UNL     1     -23.592  18.826   8.280  1.00 20.00     0.042 C 
ENDBRANCH   2   6
TORSDOF 1
ENDMDL
MODEL 2
REMARK VINA RESULT:      -4.1     15.096     16.633
REMARK  1 active torsions:
REMARK  status: ('A' for Active; 'I' for Inactive)
REMARK    1  A    between atoms: C1_1  and  C4_4 
ROOT
HETATM    1  C3  UNL     1     -33.065  18.309  -2.994  1.00 20.00     0.018 A 
HETATM    2  C4  UNL     1     -32.958  16.849  -2.640  1.00 20.00     0.017 A 
HETATM    3  C5  UNL     1     -32.991  17.898  -1.543  1.00 20.00    -0.040 A 
HETATM    4  C8  UNL     1     -31.707  18.161  -0.800  1.00 20.00     0.015 C 
HETATM    5  C9  UNL     1     -34.229  18.085  -0.701  1.00 20.00     0.015 C 
ENDROOT
BRANCH   2   6
HETATM    6  C1  UNL     1     -34.099  15.978  -2.881  1.00 20.00    -0.019 C 
HETATM    7  C2  UNL     1     -34.160  14.906  -3.694  1.00 20.00    -0.091 C 
HETATM    8  C6  UNL     1     -35.426  14.106  -3.833  1.00 20.00     0.042 C 
HETATM    9  C7  UNL     1     -33.004  14.416  -4.519  1.00 20.00     0.042 C 
ENDBRANCH   2   6
TORSDOF 1
ENDMDL
MODEL 3
REMARK VINA RESULT:      -4.1     16.817     18.430
REMARK  1 active torsions:
REMARK  status: ('A' for Active; 'I' for Inactive)
REMARK    1  A    between atoms: C1_1  and  C4_4 
ROOT
HETATM    1  C3  UNL     1     -35.634  13.878  -4.502  1.00 20.00     0.018 A 
HETATM    2  C4  UNL     1     -34.634  14.748  -3.788  1.00 20.00     0.017 A 
HETATM    3  C5  UNL     1     -35.121  15.128  -5.174  1.00 20.00    -0.040 A 
HETATM    4  C8  UNL     1     -34.150  14.968  -6.314  1.00 20.00     0.015 C 
HETATM    5  C9  UNL     1     -36.091  16.270  -5.359  1.00 20.00     0.015 C 
ENDROOT
BRANCH   2   6
HETATM    6  C1  UNL     1     -35.061  15.493  -2.612  1.00 20.00    -0.019 C 
HETATM    7  C2  UNL     1     -34.413  16.500  -1.995  1.00 20.00    -0.091 C 
HETATM    8  C6  UNL     1     -34.994  17.170  -0.780  1.00 20.00     0.042 C 
HETATM    9  C7  UNL     1     -33.084  17.038  -2.444  1.00 20.00     0.042 C 
ENDBRANCH   2   6
TORSDOF 1
ENDMDL
MODEL 4
REMARK VINA RESULT:      -4.1     16.443     18.095
REMARK  1 active torsions:
REMARK  status: ('A' for Active; 'I' for Inactive)
REMARK    1  A    between atoms: C1_1  and  C4_4 
ROOT
HETATM    1  C3  UNL     1     -33.397  14.368  -4.171  1.00 20.00     0.018 A 
HETATM    2  C4  UNL     1     -34.071  15.702  -3.984  1.00 20.00     0.017 A 
HETATM    3  C5  UNL     1     -34.616  14.708  -4.994  1.00 20.00    -0.040 A 
HETATM    4  C8  UNL     1     -34.415  15.027  -6.452  1.00 20.00     0.015 C 
HETATM    5  C9  UNL     1     -35.886  13.945  -4.708  1.00 20.00     0.015 C 
ENDROOT
BRANCH   2   6
HETATM    6  C1  UNL     1     -34.775  15.968  -2.738  1.00 20.00    -0.019 C 
HETATM    7  C2  UNL     1     -34.398  16.788  -1.738  1.00 20.00    -0.091 C 
HETATM    8  C6  UNL     1     -35.246  16.954  -0.507  1.00 20.00     0.042 C 
HETATM    9  C7  UNL     1     -33.130  17.595  -1.751  1.00 20.00     0.042 C 
ENDBRANCH   2   6
TORSDOF 1
ENDMDL
MODEL 5
REMARK VINA RESULT:      -4.0     23.169     24.016
REMARK  1 active torsions:
REMARK  status: ('A' for Active; 'I' for Inactive)
REMARK    1  A    between atoms: C1_1  and  C4_4 
ROOT
HETATM    1  C3  UNL     1     -40.905   5.224  -1.118  1.00 20.00     0.018 A 
HETATM    2  C4  UNL     1     -41.661   6.516  -1.278  1.00 20.00     0.017 A 
HETATM    3  C5  UNL     1     -42.289   5.355  -0.529  1.00 20.00    -0.040 A 
HETATM    4  C8  UNL     1     -43.417   4.624  -1.210  1.00 20.00     0.015 C 
HETATM    5  C9  UNL     1     -42.407   5.388   0.975  1.00 20.00     0.015 C 
ENDROOT
BRANCH   2   6
HETATM    6  C1  UNL     1     -41.193   7.700  -0.572  1.00 20.00    -0.019 C 
HETATM    7  C2  UNL     1     -41.914   8.773  -0.193  1.00 20.00    -0.091 C 
HETATM    8  C6  UNL     1     -41.274   9.922   0.535  1.00 20.00     0.042 C 
HETATM    9  C7  UNL     1     -43.386   8.925  -0.454  1.00 20.00     0.042 C 
ENDBRANCH   2   6
TORSDOF 1
ENDMDL
MODEL 6
REMARK VINA RESULT:      -3.9     15.937     17.509
REMARK  1 active torsions:
REMARK  status: ('A' for Active; 'I' for Inactive)
REMARK    1  A    between atoms: C1_1  and  C4_4 
ROOT
HETATM    1  C3  UNL     1     -35.839  16.017  -3.680  1.00 20.00     0.018 A 
HETATM    2  C4  UNL     1     -34.708  15.531  -2.812  1.00 20.00     0.017 A 
HETATM    3  C5  UNL     1     -34.961  14.888  -4.164  1.00 20.00    -0.040 A 
HETATM    4  C8  UNL     1     -35.540  13.497  -4.168  1.00 20.00     0.015 C 
HETATM    5  C9  UNL     1     -34.044  15.168  -5.328  1.00 20.00     0.015 C 
ENDROOT
BRANCH   2   6
HETATM    6  C1  UNL     1     -33.560  16.399  -2.597  1.00 20.00    -0.019 C 
HETATM    7  C2  UNL     1     -33.430  17.382  -1.685  1.00 20.00    -0.091 C 
HETATM    8  C6  UNL     1     -32.167  18.194  -1.592  1.00 20.00     0.042 C 
HETATM    9  C7  UNL     1     -34.501  17.756  -0.700  1.00 20.00     0.042 C 
ENDBRANCH   2   6
TORSDOF 1
ENDMDL
MODEL 7
REMARK VINA RESULT:      -3.9     14.829     16.224
REMARK  1 active torsions:
REMARK  status: ('A' for Active; 'I' for Inactive)
REMARK    1  A    between atoms: C1_1  and  C4_4 
ROOT
HETATM    1  C3  UNL     1     -34.307  18.767  -1.448  1.00 20.00     0.018 A 
HETATM    2  C4  UNL     1     -33.794  17.353  -1.535  1.00 20.00     0.017 A 
HETATM    3  C5  UNL     1     -34.130  17.960  -0.184  1.00 20.00    -0.040 A 
HETATM    4  C8  UNL     1     -32.978  18.310   0.721  1.00 20.00     0.015 C 
HETATM    5  C9  UNL     1     -35.377  17.539   0.555  1.00 20.00     0.015 C 
ENDROOT
BRANCH   2   6
HETATM    6  C1  UNL     1     -34.641  16.331  -2.130  1.00 20.00    -0.019 C 
HETATM    7  C2  UNL     1     -34.330  15.481  -3.129  1.00 20.00    -0.091 C 
HETATM    8  C6  UNL     1     -35.327  14.475  -3.633  1.00 20.00     0.042 C 
HETATM    9  C7  UNL     1     -32.995  15.455  -3.818  1.00 20.00     0.042 C 
ENDBRANCH   2   6
TORSDOF 1
ENDMDL
MODEL 8
REMARK VINA RESULT:      -3.9     15.607     16.471
REMARK  1 active torsions:
REMARK  status: ('A' for Active; 'I' for Inactive)
REMARK    1  A    between atoms: C1_1  and  C4_4 
ROOT
HETATM    1  C3  UNL     1     -34.273   7.111   5.996  1.00 20.00     0.018 A 
HETATM    2  C4  UNL     1     -33.254   6.537   5.047  1.00 20.00     0.017 A 
HETATM    3  C5  UNL     1     -34.578   5.826   5.265  1.00 20.00    -0.040 A 
HETATM    4  C8  UNL     1     -34.549   4.543   6.054  1.00 20.00     0.015 C 
HETATM    5  C9  UNL     1     -35.650   5.864   4.204  1.00 20.00     0.015 C 
ENDROOT
BRANCH   2   6
HETATM    6  C1  UNL     1     -32.975   7.239   3.803  1.00 20.00    -0.019 C 
HETATM    7  C2  UNL     1     -32.784   6.704   2.581  1.00 20.00    -0.091 C 
HETATM    8  C6  UNL     1     -32.503   7.575   1.387  1.00 20.00     0.042 C 
HETATM    9  C7  UNL     1     -32.832   5.230   2.296  1.00 20.00     0.042 C 
ENDBRANCH   2   6
TORSDOF 1
ENDMDL
MODEL 9
REMARK VINA RESULT:      -3.8     15.510     17.111
REMARK  1 active torsions:
REMARK  status: ('A' for Active; 'I' for Inactive)
REMARK    1  A    between atoms: C1_1  and  C4_4 
ROOT
HETATM    1  C3  UNL     1     -35.407  16.469  -3.696  1.00 20.00     0.018 A 
HETATM    2  C4  UNL     1     -35.103  15.993  -2.300  1.00 20.00     0.017 A 
HETATM    3  C5  UNL     1     -34.468  15.305  -3.495  1.00 20.00    -0.040 A 
HETATM    4  C8  UNL     1     -34.968  13.927  -3.844  1.00 20.00     0.015 C 
HETATM    5  C9  UNL     1     -33.010  15.521  -3.817  1.00 20.00     0.015 C 
ENDROOT
BRANCH   2   6
HETATM    6  C1  UNL     1     -34.317  16.844  -1.419  1.00 20.00    -0.019 C 
HETATM    7  C2  UNL     1     -34.756  17.587  -0.385  1.00 20.00    -0.091 C 
HETATM    8  C6  UNL     1     -33.807  18.419   0.433  1.00 20.00     0.042 C 
HETATM    9  C7  UNL     1     -36.194  17.657   0.043  1.00 20.00     0.042 C 
ENDBRANCH   2   6
TORSDOF 1
ENDMDL
