MODEL 1
REMARK VINA RESULT:      -3.4      0.000      0.000
REMARK  0 active torsions:
REMARK  status: ('A' for Active; 'I' for Inactive)
ROOT
HETATM    1  C1  UNL     1     -25.681  19.259  10.196  1.00 20.00     0.123 C 
HETATM    2  C2  UNL     1     -23.292  18.127  12.332  1.00 20.00     0.123 C 
HETATM    3  C3  UNL     1     -22.519  18.714   9.073  1.00 20.00     0.123 C 
HETATM    4  C4  UNL     1     -25.040  18.152   9.358  1.00 20.00     0.296 C 
HETATM    5  C5  UNL     1     -24.472  17.457  11.624  1.00 20.00     0.296 C 
HETATM    6  C6  UNL     1     -22.769  17.439   9.882  1.00 20.00     0.296 C 
HETATM    7  N7  UNL     1     -24.196  17.283  10.191  1.00 20.00     0.133 N 
HETATM    8  S8  UNL     1     -25.965  18.471  11.793  1.00 20.00    -0.130 SA
HETATM    9  S9  UNL     1     -21.855  17.497  11.445  1.00 20.00    -0.130 SA
HETATM   10  S10 UNL     1     -24.001  18.868   8.058  1.00 20.00    -0.130 SA
ENDROOT
TORSDOF 0
ENDMDL
MODEL 2
REMARK VINA RESULT:      -3.4      0.117      3.226
REMARK  0 active torsions:
REMARK  status: ('A' for Active; 'I' for Inactive)
ROOT
HETATM    1  C1  UNL     1     -22.543  18.873   9.089  1.00 20.00     0.123 C 
HETATM    2  C2  UNL     1     -25.710  19.203  10.279  1.00 20.00     0.123 C 
HETATM    3  C3  UNL     1     -23.228  18.112  12.331  1.00 20.00     0.123 C 
HETATM    4  C4  UNL     1     -22.711  17.554   9.847  1.00 20.00     0.296 C 
HETATM    5  C5  UNL     1     -25.025  18.165   9.387  1.00 20.00     0.296 C 
HETATM    6  C6  UNL     1     -24.384  17.412  11.613  1.00 20.00     0.296 C 
HETATM    7  N7  UNL     1     -24.124  17.310  10.171  1.00 20.00     0.133 N 
HETATM    8  S8  UNL     1     -24.048  18.987   8.101  1.00 20.00    -0.130 SA
HETATM    9  S9  UNL     1     -25.922  18.339  11.846  1.00 20.00    -0.130 SA
HETATM   10  S10 UNL     1     -21.775  17.596  11.397  1.00 20.00    -0.130 SA
ENDROOT
TORSDOF 0
ENDMDL
MODEL 3
REMARK VINA RESULT:      -3.2      1.246      3.704
REMARK  0 active torsions:
REMARK  status: ('A' for Active; 'I' for Inactive)
ROOT
HETATM    1  C1  UNL     1     -22.146  17.950  11.344  1.00 20.00     0.123 C 
HETATM    2  C2  UNL     1     -23.395  19.188   8.435  1.00 20.00     0.123 C 
HETATM    3  C3  UNL     1     -25.458  18.671  11.088  1.00 20.00     0.123 C 
HETATM    4  C4  UNL     1     -23.399  17.089  11.173  1.00 20.00     0.296 C 
HETATM    5  C5  UNL     1     -22.957  17.791   8.882  1.00 20.00     0.296 C 
HETATM    6  C6  UNL     1     -25.218  17.916   9.779  1.00 20.00     0.296 C 
HETATM    7  N7  UNL     1     -23.934  17.204   9.809  1.00 20.00     0.133 N 
HETATM    8  S8  UNL     1     -21.356  17.873   9.725  1.00 20.00    -0.130 SA
HETATM    9  S9  UNL     1     -25.192  19.070   8.383  1.00 20.00    -0.130 SA
HETATM   10  S10 UNL     1     -24.688  17.617  12.331  1.00 20.00    -0.130 SA
ENDROOT
TORSDOF 0
ENDMDL
MODEL 4
REMARK VINA RESULT:      -3.2     17.201     18.739
REMARK  0 active torsions:
REMARK  status: ('A' for Active; 'I' for Inactive)
ROOT
HETATM    1  C1  UNL     1     -35.161  15.534  -2.537  1.00 20.00     0.123 C 
HETATM    2  C2  UNL     1     -34.350  17.913  -4.824  1.00 20.00     0.123 C 
HETATM    3  C3  UNL     1     -36.212  15.225  -5.756  1.00 20.00     0.123 C 
HETATM    4  C4  UNL     1     -34.706  14.667  -3.713  1.00 20.00     0.296 C 
HETATM    5  C5  UNL     1     -33.566  16.771  -4.171  1.00 20.00     0.296 C 
HETATM    6  C6  UNL     1     -34.745  15.611  -5.959  1.00 20.00     0.296 C 
HETATM    7  N7  UNL     1     -33.985  15.470  -4.710  1.00 20.00     0.133 N 
HETATM    8  S8  UNL     1     -33.848  16.759  -2.381  1.00 20.00    -0.130 SA
HETATM    9  S9  UNL     1     -34.617  17.332  -6.509  1.00 20.00    -0.130 SA
HETATM   10  S10 UNL     1     -36.136  13.908  -4.527  1.00 20.00    -0.130 SA
ENDROOT
TORSDOF 0
ENDMDL
MODEL 5
REMARK VINA RESULT:      -3.2     17.171     18.774
REMARK  0 active torsions:
REMARK  status: ('A' for Active; 'I' for Inactive)
ROOT
HETATM    1  C1  UNL     1     -34.291  17.928  -4.835  1.00 20.00     0.123 C 
HETATM    2  C2  UNL     1     -36.183  15.255  -5.744  1.00 20.00     0.123 C 
HETATM    3  C3  UNL     1     -35.138  15.582  -2.525  1.00 20.00     0.123 C 
HETATM    4  C4  UNL     1     -33.523  16.785  -4.167  1.00 20.00     0.296 C 
HETATM    5  C5  UNL     1     -34.710  15.618  -5.948  1.00 20.00     0.296 C 
HETATM    6  C6  UNL     1     -34.690  14.699  -3.692  1.00 20.00     0.296 C 
HETATM    7  N7  UNL     1     -33.956  15.482  -4.694  1.00 20.00     0.133 N 
HETATM    8  S8  UNL     1     -34.558  17.332  -6.516  1.00 20.00    -0.130 SA
HETATM    9  S9  UNL     1     -36.127  13.950  -4.501  1.00 20.00    -0.130 SA
HETATM   10  S10 UNL     1     -33.811  16.794  -2.379  1.00 20.00    -0.130 SA
ENDROOT
TORSDOF 0
ENDMDL
MODEL 6
REMARK VINA RESULT:      -3.2     17.319     18.799
REMARK  0 active torsions:
REMARK  status: ('A' for Active; 'I' for Inactive)
ROOT
HETATM    1  C1  UNL     1     -34.063  17.630  -4.131  1.00 20.00     0.123 C 
HETATM    2  C2  UNL     1     -34.537  14.266  -4.035  1.00 20.00     0.123 C 
HETATM    3  C3  UNL     1     -36.739  16.246  -5.706  1.00 20.00     0.123 C 
HETATM    4  C4  UNL     1     -35.554  17.553  -3.799  1.00 20.00     0.296 C 
HETATM    5  C5  UNL     1     -34.756  15.388  -3.017  1.00 20.00     0.296 C 
HETATM    6  C6  UNL     1     -36.786  15.525  -4.356  1.00 20.00     0.296 C 
HETATM    7  N7  UNL     1     -35.929  16.198  -3.370  1.00 20.00     0.133 N 
HETATM    8  S8  UNL     1     -33.310  16.479  -2.964  1.00 20.00    -0.130 SA
HETATM    9  S9  UNL     1     -36.210  13.818  -4.534  1.00 20.00    -0.130 SA
HETATM   10  S10 UNL     1     -36.546  17.980  -5.253  1.00 20.00    -0.130 SA
ENDROOT
TORSDOF 0
ENDMDL
MODEL 7
REMARK VINA RESULT:      -3.1     17.223     18.607
REMARK  0 active torsions:
REMARK  status: ('A' for Active; 'I' for Inactive)
ROOT
HETATM    1  C1  UNL     1     -36.308  15.369  -5.746  1.00 20.00     0.123 C 
HETATM    2  C2  UNL     1     -35.167  15.514  -2.547  1.00 20.00     0.123 C 
HETATM    3  C3  UNL     1     -34.264  17.910  -4.785  1.00 20.00     0.123 C 
HETATM    4  C4  UNL     1     -34.825  15.671  -5.976  1.00 20.00     0.296 C 
HETATM    5  C5  UNL     1     -34.791  14.659  -3.760  1.00 20.00     0.296 C 
HETATM    6  C6  UNL     1     -33.538  16.705  -4.184  1.00 20.00     0.296 C 
HETATM    7  N7  UNL     1     -34.046  15.448  -4.750  1.00 20.00     0.133 N 
HETATM    8  S8  UNL     1     -36.282  14.011  -4.559  1.00 20.00    -0.130 SA
HETATM    9  S9  UNL     1     -33.780  16.654  -2.389  1.00 20.00    -0.130 SA
HETATM   10  S10 UNL     1     -34.606  17.398  -6.479  1.00 20.00    -0.130 SA
ENDROOT
TORSDOF 0
ENDMDL
MODEL 8
REMARK VINA RESULT:      -3.1     17.118     18.480
REMARK  0 active torsions:
REMARK  status: ('A' for Active; 'I' for Inactive)
ROOT
HETATM    1  C1  UNL     1     -36.472  17.477  -3.390  1.00 20.00     0.123 C 
HETATM    2  C2  UNL     1     -33.424  15.985  -3.206  1.00 20.00     0.123 C 
HETATM    3  C3  UNL     1     -35.391  15.502  -5.937  1.00 20.00     0.123 C 
HETATM    4  C4  UNL     1     -36.815  16.053  -3.835  1.00 20.00     0.296 C 
HETATM    5  C5  UNL     1     -34.776  15.698  -2.548  1.00 20.00     0.296 C 
HETATM    6  C6  UNL     1     -35.043  14.636  -4.724  1.00 20.00     0.296 C 
HETATM    7  N7  UNL     1     -35.721  15.124  -3.516  1.00 20.00     0.133 N 
HETATM    8  S8  UNL     1     -35.495  17.228  -1.895  1.00 20.00    -0.130 SA
HETATM    9  S9  UNL     1     -33.258  14.664  -4.421  1.00 20.00    -0.130 SA
HETATM   10  S10 UNL     1     -37.094  16.003  -5.624  1.00 20.00    -0.130 SA
ENDROOT
TORSDOF 0
ENDMDL
MODEL 9
REMARK VINA RESULT:      -3.1     17.316     18.743
REMARK  0 active torsions:
REMARK  status: ('A' for Active; 'I' for Inactive)
ROOT
HETATM    1  C1  UNL     1     -36.718  16.263  -5.719  1.00 20.00     0.123 C 
HETATM    2  C2  UNL     1     -34.053  17.632  -4.113  1.00 20.00     0.123 C 
HETATM    3  C3  UNL     1     -34.554  14.270  -4.015  1.00 20.00     0.123 C 
HETATM    4  C4  UNL     1     -36.789  15.546  -4.369  1.00 20.00     0.296 C 
HETATM    5  C5  UNL     1     -35.550  17.565  -3.799  1.00 20.00     0.296 C 
HETATM    6  C6  UNL     1     -34.776  15.397  -3.004  1.00 20.00     0.296 C 
HETATM    7  N7  UNL     1     -35.939  16.214  -3.373  1.00 20.00     0.133 N 
HETATM    8  S8  UNL     1     -36.520  17.997  -5.266  1.00 20.00    -0.130 SA
HETATM    9  S9  UNL     1     -33.323  16.477  -2.937  1.00 20.00    -0.130 SA
HETATM   10  S10 UNL     1     -36.224  13.833  -4.535  1.00 20.00    -0.130 SA
ENDROOT
TORSDOF 0
ENDMDL
