MODEL 1
REMARK VINA RESULT:      -3.7      0.000      0.000
REMARK  1 active torsions:
REMARK  status: ('A' for Active; 'I' for Inactive)
REMARK    1  A    between atoms: C2_2  and  C3_3 
ROOT
HETATM    1  C1  UNL     1     -33.081   5.960   2.495  1.00 20.00     0.105 C 
HETATM    2  C2  UNL     1     -33.707   5.688   3.645  1.00 20.00     0.036 C 
HETATM    3 CL4  UNL     1     -32.435   7.485   2.059  1.00 20.00    -0.096 Cl
HETATM    4 CL5  UNL     1     -34.301   4.072   3.901  1.00 20.00    -0.087 Cl
ENDROOT
BRANCH   2   5
HETATM    5  C3  UNL     1     -34.007   6.648   4.754  1.00 20.00     0.166 C 
HETATM    6 CL6  UNL     1     -34.681   5.787   6.157  1.00 20.00    -0.125 Cl
ENDBRANCH   2   5
TORSDOF 1
ENDMDL
MODEL 2
REMARK VINA RESULT:      -3.6      1.204      3.249
REMARK  1 active torsions:
REMARK  status: ('A' for Active; 'I' for Inactive)
REMARK    1  A    between atoms: C2_2  and  C3_3 
ROOT
HETATM    1  C1  UNL     1     -34.532   4.726   4.446  1.00 20.00     0.105 C 
HETATM    2  C2  UNL     1     -33.802   5.399   3.550  1.00 20.00     0.036 C 
HETATM    3 CL4  UNL     1     -35.063   5.345   5.952  1.00 20.00    -0.096 Cl
HETATM    4 CL5  UNL     1     -33.353   4.591   2.075  1.00 20.00    -0.087 Cl
ENDROOT
BRANCH   2   5
HETATM    5  C3  UNL     1     -33.270   6.792   3.687  1.00 20.00     0.166 C 
HETATM    6 CL6  UNL     1     -32.493   7.313   2.175  1.00 20.00    -0.125 Cl
ENDBRANCH   2   5
TORSDOF 1
ENDMDL
MODEL 3
REMARK VINA RESULT:      -3.5      1.063      2.272
REMARK  1 active torsions:
REMARK  status: ('A' for Active; 'I' for Inactive)
REMARK    1  A    between atoms: C2_2  and  C3_3 
ROOT
HETATM    1  C1  UNL     1     -33.038   7.004   3.841  1.00 20.00     0.105 C 
HETATM    2  C2  UNL     1     -33.999   6.431   4.574  1.00 20.00     0.036 C 
HETATM    3 CL4  UNL     1     -32.747   6.698   2.181  1.00 20.00    -0.096 Cl
HETATM    4 CL5  UNL     1     -34.130   6.869   6.253  1.00 20.00    -0.087 Cl
ENDROOT
BRANCH   2   5
HETATM    5  C3  UNL     1     -34.978   5.393   4.119  1.00 20.00     0.166 C 
HETATM    6 CL6  UNL     1     -34.149   3.849   3.814  1.00 20.00    -0.125 Cl
ENDBRANCH   2   5
TORSDOF 1
ENDMDL
MODEL 4
REMARK VINA RESULT:      -3.4      1.180      3.478
REMARK  1 active torsions:
REMARK  status: ('A' for Active; 'I' for Inactive)
REMARK    1  A    between atoms: C2_2  and  C3_3 
ROOT
HETATM    1  C1  UNL     1     -33.620   6.917   5.028  1.00 20.00     0.105 C 
HETATM    2  C2  UNL     1     -33.476   6.398   3.804  1.00 20.00     0.036 C 
HETATM    3 CL4  UNL     1     -34.534   6.216   6.297  1.00 20.00    -0.096 Cl
HETATM    4 CL5  UNL     1     -32.510   7.266   2.646  1.00 20.00    -0.087 Cl
ENDROOT
BRANCH   2   5
HETATM    5  C3  UNL     1     -34.103   5.142   3.281  1.00 20.00     0.166 C 
HETATM    6 CL6  UNL     1     -32.996   4.314   2.162  1.00 20.00    -0.125 Cl
ENDBRANCH   2   5
TORSDOF 1
ENDMDL
MODEL 5
REMARK VINA RESULT:      -3.0     16.473     17.207
REMARK  1 active torsions:
REMARK  status: ('A' for Active; 'I' for Inactive)
REMARK    1  A    between atoms: C2_2  and  C3_3 
ROOT
HETATM    1  C1  UNL     1     -23.517  17.248   9.846  1.00 20.00     0.105 C 
HETATM    2  C2  UNL     1     -23.660  17.022  11.157  1.00 20.00     0.036 C 
HETATM    3 CL4  UNL     1     -22.655  18.560   9.159  1.00 20.00    -0.096 Cl
HETATM    4 CL5  UNL     1     -24.581  15.634  11.660  1.00 20.00    -0.087 Cl
ENDROOT
BRANCH   2   5
HETATM    5  C3  UNL     1     -23.143  17.870  12.277  1.00 20.00     0.166 C 
HETATM    6 CL6  UNL     1     -21.366  17.811  12.332  1.00 20.00    -0.125 Cl
ENDBRANCH   2   5
TORSDOF 1
ENDMDL
MODEL 6
REMARK VINA RESULT:      -3.0      8.995      9.086
REMARK  1 active torsions:
REMARK  status: ('A' for Active; 'I' for Inactive)
REMARK    1  A    between atoms: C2_2  and  C3_3 
ROOT
HETATM    1  C1  UNL     1     -41.076   8.197  -0.485  1.00 20.00     0.105 C 
HETATM    2  C2  UNL     1     -41.589   7.010  -0.140  1.00 20.00     0.036 C 
HETATM    3 CL4  UNL     1     -41.438   9.688   0.277  1.00 20.00    -0.096 Cl
HETATM    4 CL5  UNL     1     -41.102   5.605  -1.044  1.00 20.00    -0.087 Cl
ENDROOT
BRANCH   2   5
HETATM    5  C3  UNL     1     -42.597   6.745   0.935  1.00 20.00     0.166 C 
HETATM    6 CL6  UNL     1     -42.701   5.002   1.273  1.00 20.00    -0.125 Cl
ENDBRANCH   2   5
TORSDOF 1
ENDMDL
MODEL 7
REMARK VINA RESULT:      -3.0      0.784      2.618
REMARK  1 active torsions:
REMARK  status: ('A' for Active; 'I' for Inactive)
REMARK    1  A    between atoms: C2_2  and  C3_3 
ROOT
HETATM    1  C1  UNL     1     -33.585   5.237   2.849  1.00 20.00     0.105 C 
HETATM    2  C2  UNL     1     -33.129   6.451   3.181  1.00 20.00     0.036 C 
HETATM    3 CL4  UNL     1     -34.208   4.082   3.950  1.00 20.00    -0.096 Cl
HETATM    4 CL5  UNL     1     -32.528   7.482   1.915  1.00 20.00    -0.087 Cl
ENDROOT
BRANCH   2   5
HETATM    5  C3  UNL     1     -33.030   7.028   4.559  1.00 20.00     0.166 C 
HETATM    6 CL6  UNL     1     -34.408   6.502   5.553  1.00 20.00    -0.125 Cl
ENDBRANCH   2   5
TORSDOF 1
ENDMDL
MODEL 8
REMARK VINA RESULT:      -3.0     16.224     16.990
REMARK  1 active torsions:
REMARK  status: ('A' for Active; 'I' for Inactive)
REMARK    1  A    between atoms: C2_2  and  C3_3 
ROOT
HETATM    1  C1  UNL     1     -22.579  18.152   9.736  1.00 20.00     0.105 C 
HETATM    2  C2  UNL     1     -23.170  17.789  10.881  1.00 20.00     0.036 C 
HETATM    3 CL4  UNL     1     -23.353  18.236   8.210  1.00 20.00    -0.096 Cl
HETATM    4 CL5  UNL     1     -22.210  17.758  12.332  1.00 20.00    -0.087 Cl
ENDROOT
BRANCH   2   5
HETATM    5  C3  UNL     1     -24.590  17.351  11.060  1.00 20.00     0.166 C 
HETATM    6 CL6  UNL     1     -24.655  15.653  11.587  1.00 20.00    -0.125 Cl
ENDBRANCH   2   5
TORSDOF 1
ENDMDL
MODEL 9
REMARK VINA RESULT:      -3.0      9.208      9.508
REMARK  1 active torsions:
REMARK  status: ('A' for Active; 'I' for Inactive)
REMARK    1  A    between atoms: C2_2  and  C3_3 
ROOT
HETATM    1  C1  UNL     1     -41.998   7.623   0.752  1.00 20.00     0.105 C 
HETATM    2  C2  UNL     1     -42.540   6.428   0.489  1.00 20.00     0.036 C 
HETATM    3 CL4  UNL     1     -41.177   8.606  -0.385  1.00 20.00    -0.096 Cl
HETATM    4 CL5  UNL     1     -43.330   5.576   1.784  1.00 20.00    -0.087 Cl
ENDROOT
BRANCH   2   5
HETATM    5  C3  UNL     1     -42.510   5.695  -0.816  1.00 20.00     0.166 C 
HETATM    6 CL6  UNL     1     -40.857   5.154  -1.186  1.00 20.00    -0.125 Cl
ENDBRANCH   2   5
TORSDOF 1
ENDMDL
