MODEL 1
REMARK VINA RESULT:      -3.9      0.000      0.000
REMARK  1 active torsions:
REMARK  status: ('A' for Active; 'I' for Inactive)
REMARK    1  A    between atoms: C1_1  and  C2_2 
ROOT
HETATM    1  C1  UNL     1     -41.605   7.840   0.165  1.00 20.00     0.432 C 
HETATM    2  F3  UNL     1     -42.589   8.691   0.536  1.00 20.00    -0.167 F 
HETATM    3  F4  UNL     1     -40.880   8.461  -0.795  1.00 20.00    -0.167 F 
HETATM    4  F5  UNL     1     -40.793   7.671   1.232  1.00 20.00    -0.167 F 
ENDROOT
BRANCH   1   5
HETATM    5  C2  UNL     1     -42.163   6.520  -0.333  1.00 20.00     0.267 C 
HETATM    6 CL6  UNL     1     -43.417   6.797  -1.565  1.00 20.00    -0.079 Cl
HETATM    7 CL7  UNL     1     -40.863   5.512  -1.014  1.00 20.00    -0.079 Cl
HETATM    8 BR8  UNL     1     -42.972   5.553   1.162  1.00 20.00    -0.040 Br
ENDBRANCH   1   5
TORSDOF 1
ENDMDL
MODEL 2
REMARK VINA RESULT:      -3.8      8.837      9.611
REMARK  1 active torsions:
REMARK  status: ('A' for Active; 'I' for Inactive)
REMARK    1  A    between atoms: C1_1  and  C2_2 
ROOT
HETATM    1  C1  UNL     1     -34.374   5.632   5.880  1.00 20.00     0.432 C 
HETATM    2  F3  UNL     1     -33.644   6.726   6.199  1.00 20.00    -0.167 F 
HETATM    3  F4  UNL     1     -33.781   4.569   6.472  1.00 20.00    -0.167 F 
HETATM    4  F5  UNL     1     -35.591   5.780   6.450  1.00 20.00    -0.167 F 
ENDROOT
BRANCH   1   5
HETATM    5  C2  UNL     1     -34.475   5.443   4.379  1.00 20.00     0.267 C 
HETATM    6 CL6  UNL     1     -34.015   3.783   3.927  1.00 20.00    -0.079 Cl
HETATM    7 CL7  UNL     1     -36.130   5.782   3.818  1.00 20.00    -0.079 Cl
HETATM    8 BR8  UNL     1     -33.256   6.683   3.484  1.00 20.00    -0.040 Br
ENDBRANCH   1   5
TORSDOF 1
ENDMDL
MODEL 3
REMARK VINA RESULT:      -3.8      1.793      2.428
REMARK  1 active torsions:
REMARK  status: ('A' for Active; 'I' for Inactive)
REMARK    1  A    between atoms: C1_1  and  C2_2 
ROOT
HETATM    1  C1  UNL     1     -41.098   6.077  -0.721  1.00 20.00     0.432 C 
HETATM    2  F3  UNL     1     -40.466   4.961  -1.154  1.00 20.00    -0.167 F 
HETATM    3  F4  UNL     1     -40.614   6.358   0.511  1.00 20.00    -0.167 F 
HETATM    4  F5  UNL     1     -40.729   7.091  -1.537  1.00 20.00    -0.167 F 
ENDROOT
BRANCH   1   5
HETATM    5  C2  UNL     1     -42.604   5.896  -0.695  1.00 20.00     0.267 C 
HETATM    6 CL6  UNL     1     -43.417   7.340  -1.345  1.00 20.00    -0.079 Cl
HETATM    7 CL7  UNL     1     -43.076   4.463  -1.639  1.00 20.00    -0.079 Cl
HETATM    8 BR8  UNL     1     -43.194   5.637   1.152  1.00 20.00    -0.040 Br
ENDBRANCH   1   5
TORSDOF 1
ENDMDL
MODEL 4
REMARK VINA RESULT:      -3.8      1.518      1.856
REMARK  1 active torsions:
REMARK  status: ('A' for Active; 'I' for Inactive)
REMARK    1  A    between atoms: C1_1  and  C2_2 
ROOT
HETATM    1  C1  UNL     1     -41.511   7.835   0.301  1.00 20.00     0.432 C 
HETATM    2  F3  UNL     1     -42.484   8.703   0.662  1.00 20.00    -0.167 F 
HETATM    3  F4  UNL     1     -40.811   8.414  -0.703  1.00 20.00    -0.167 F 
HETATM    4  F5  UNL     1     -40.671   7.710   1.354  1.00 20.00    -0.167 F 
ENDROOT
BRANCH   1   5
HETATM    5  C2  UNL     1     -42.082   6.496  -0.126  1.00 20.00     0.267 C 
HETATM    6 CL6  UNL     1     -40.798   5.450  -0.779  1.00 20.00    -0.079 Cl
HETATM    7 CL7  UNL     1     -42.874   5.690   1.249  1.00 20.00    -0.079 Cl
HETATM    8 BR8  UNL     1     -43.417   6.777  -1.527  1.00 20.00    -0.040 Br
ENDBRANCH   1   5
TORSDOF 1
ENDMDL
MODEL 5
REMARK VINA RESULT:      -3.7     23.003     23.618
REMARK  1 active torsions:
REMARK  status: ('A' for Active; 'I' for Inactive)
REMARK    1  A    between atoms: C1_1  and  C2_2 
ROOT
HETATM    1  C1  UNL     1     -23.537  17.612   9.777  1.00 20.00     0.432 C 
HETATM    2  F3  UNL     1     -22.970  16.435   9.427  1.00 20.00    -0.167 F 
HETATM    3  F4  UNL     1     -22.609  18.577   9.582  1.00 20.00    -0.167 F 
HETATM    4  F5  UNL     1     -24.547  17.847   8.909  1.00 20.00    -0.167 F 
ENDROOT
BRANCH   1   5
HETATM    5  C2  UNL     1     -24.023  17.597  11.214  1.00 20.00     0.267 C 
HETATM    6 CL6  UNL     1     -22.711  18.069  12.321  1.00 20.00    -0.079 Cl
HETATM    7 CL7  UNL     1     -25.406  18.698  11.416  1.00 20.00    -0.079 Cl
HETATM    8 BR8  UNL     1     -24.603  15.789  11.684  1.00 20.00    -0.040 Br
ENDBRANCH   1   5
TORSDOF 1
ENDMDL
MODEL 6
REMARK VINA RESULT:      -3.7      1.466      2.248
REMARK  1 active torsions:
REMARK  status: ('A' for Active; 'I' for Inactive)
REMARK    1  A    between atoms: C1_1  and  C2_2 
ROOT
HETATM    1  C1  UNL     1     -41.574   7.935   0.276  1.00 20.00     0.432 C 
HETATM    2  F3  UNL     1     -40.802   8.444  -0.711  1.00 20.00    -0.167 F 
HETATM    3  F4  UNL     1     -40.773   7.736   1.349  1.00 20.00    -0.167 F 
HETATM    4  F5  UNL     1     -42.471   8.887   0.618  1.00 20.00    -0.167 F 
ENDROOT
BRANCH   1   5
HETATM    5  C2  UNL     1     -42.255   6.648  -0.150  1.00 20.00     0.267 C 
HETATM    6 CL6  UNL     1     -43.092   5.898   1.230  1.00 20.00    -0.079 Cl
HETATM    7 CL7  UNL     1     -43.417   6.962  -1.460  1.00 20.00    -0.079 Cl
HETATM    8 BR8  UNL     1     -40.910   5.391  -0.810  1.00 20.00    -0.040 Br
ENDBRANCH   1   5
TORSDOF 1
ENDMDL
MODEL 7
REMARK VINA RESULT:      -3.7      2.119      2.604
REMARK  1 active torsions:
REMARK  status: ('A' for Active; 'I' for Inactive)
REMARK    1  A    between atoms: C1_1  and  C2_2 
ROOT
HETATM    1  C1  UNL     1     -41.157   6.234  -0.673  1.00 20.00     0.432 C 
HETATM    2  F3  UNL     1     -40.590   6.508   0.525  1.00 20.00    -0.167 F 
HETATM    3  F4  UNL     1     -40.768   7.206  -1.531  1.00 20.00    -0.167 F 
HETATM    4  F5  UNL     1     -40.624   5.073  -1.115  1.00 20.00    -0.167 F 
ENDROOT
BRANCH   1   5
HETATM    5  C2  UNL     1     -42.669   6.157  -0.574  1.00 20.00     0.267 C 
HETATM    6 CL6  UNL     1     -43.178   6.026   1.126  1.00 20.00    -0.079 Cl
HETATM    7 CL7  UNL     1     -43.415   7.593  -1.317  1.00 20.00    -0.079 Cl
HETATM    8 BR8  UNL     1     -43.302   4.572  -1.529  1.00 20.00    -0.040 Br
ENDBRANCH   1   5
TORSDOF 1
ENDMDL
MODEL 8
REMARK VINA RESULT:      -3.6      2.057      2.582
REMARK  1 active torsions:
REMARK  status: ('A' for Active; 'I' for Inactive)
REMARK    1  A    between atoms: C1_1  and  C2_2 
ROOT
HETATM    1  C1  UNL     1     -41.092   6.237  -0.546  1.00 20.00     0.432 C 
HETATM    2  F3  UNL     1     -40.573   5.094  -1.051  1.00 20.00    -0.167 F 
HETATM    3  F4  UNL     1     -40.417   6.514   0.594  1.00 20.00    -0.167 F 
HETATM    4  F5  UNL     1     -40.816   7.227  -1.425  1.00 20.00    -0.167 F 
ENDROOT
BRANCH   1   5
HETATM    5  C2  UNL     1     -42.582   6.112  -0.289  1.00 20.00     0.267 C 
HETATM    6 CL6  UNL     1     -43.418   5.511  -1.741  1.00 20.00    -0.079 Cl
HETATM    7 CL7  UNL     1     -42.888   5.016   1.079  1.00 20.00    -0.079 Cl
HETATM    8 BR8  UNL     1     -43.313   7.871   0.157  1.00 20.00    -0.040 Br
ENDBRANCH   1   5
TORSDOF 1
ENDMDL
MODEL 9
REMARK VINA RESULT:      -3.5     10.919     11.350
REMARK  1 active torsions:
REMARK  status: ('A' for Active; 'I' for Inactive)
REMARK    1  A    between atoms: C1_1  and  C2_2 
ROOT
HETATM    1  C1  UNL     1     -35.645  14.019  -4.361  1.00 20.00     0.432 C 
HETATM    2  F3  UNL     1     -36.790  14.299  -3.696  1.00 20.00    -0.167 F 
HETATM    3  F4  UNL     1     -35.171  12.851  -3.869  1.00 20.00    -0.167 F 
HETATM    4  F5  UNL     1     -35.974  13.804  -5.655  1.00 20.00    -0.167 F 
ENDROOT
BRANCH   1   5
HETATM    5  C2  UNL     1     -34.625  15.133  -4.218  1.00 20.00     0.267 C 
HETATM    6 CL6  UNL     1     -32.973  14.490  -4.376  1.00 20.00    -0.079 Cl
HETATM    7 CL7  UNL     1     -34.901  16.392  -5.446  1.00 20.00    -0.079 Cl
HETATM    8 BR8  UNL     1     -34.801  15.950  -2.450  1.00 20.00    -0.040 Br
ENDBRANCH   1   5
TORSDOF 1
ENDMDL
