MODEL 1
REMARK VINA RESULT:      -5.6      0.000      0.000
REMARK  0 active torsions:
REMARK  status: ('A' for Active; 'I' for Inactive)
ROOT
HETATM    1  C1  UNL     1     -32.918  15.612  -3.720  1.00 20.00    -0.023 C 
HETATM    2  C2  UNL     1     -33.699  16.140  -2.764  1.00 20.00    -0.080 C 
HETATM    3  C3  UNL     1     -35.408  14.994  -5.825  1.00 20.00     0.127 C 
HETATM    4  C4  UNL     1     -33.241  14.457  -4.616  1.00 20.00     0.035 C 
HETATM    5  C5  UNL     1     -33.247  17.340  -1.965  1.00 20.00     0.034 C 
HETATM    6  C6  UNL     1     -33.896  14.912  -5.915  1.00 20.00     0.082 C 
HETATM    7  C7  UNL     1     -36.028  15.913  -4.791  1.00 20.00     0.079 C 
HETATM    8  C8  UNL     1     -34.393  17.598  -0.998  1.00 20.00     0.005 C 
HETATM    9  C9  UNL     1     -36.096  15.235  -3.424  1.00 20.00     0.016 C 
HETATM   10  C10 UNL     1     -35.615  17.066  -1.730  1.00 20.00     0.009 C 
HETATM   11  C11 UNL     1     -35.111  15.764  -2.370  1.00 20.00     0.014 C 
HETATM   12  O12 UNL     1     -36.120  14.339  -6.589  1.00 20.00    -0.298 OA
ENDROOT
TORSDOF 0
ENDMDL
MODEL 2
REMARK VINA RESULT:      -4.9      1.687      2.411
REMARK  0 active torsions:
REMARK  status: ('A' for Active; 'I' for Inactive)
ROOT
HETATM    1  C1  UNL     1     -34.654  16.852  -5.887  1.00 20.00    -0.023 C 
HETATM    2  C2  UNL     1     -34.038  17.254  -4.764  1.00 20.00    -0.080 C 
HETATM    3  C3  UNL     1     -35.733  13.981  -4.619  1.00 20.00     0.127 C 
HETATM    4  C4  UNL     1     -34.731  15.457  -6.426  1.00 20.00     0.035 C 
HETATM    5  C5  UNL     1     -34.084  18.700  -4.327  1.00 20.00     0.034 C 
HETATM    6  C6  UNL     1     -35.968  14.722  -5.921  1.00 20.00     0.082 C 
HETATM    7  C7  UNL     1     -35.285  14.769  -3.403  1.00 20.00     0.079 C 
HETATM    8  C8  UNL     1     -33.265  18.729  -3.046  1.00 20.00     0.005 C 
HETATM    9  C9  UNL     1     -33.774  14.992  -3.418  1.00 20.00     0.016 C 
HETATM   10  C10 UNL     1     -33.421  17.327  -2.481  1.00 20.00     0.009 C 
HETATM   11  C11 UNL     1     -33.317  16.427  -3.721  1.00 20.00     0.014 C 
HETATM   12  O12 UNL     1     -35.918  12.764  -4.544  1.00 20.00    -0.298 OA
ENDROOT
TORSDOF 0
ENDMDL
MODEL 3
REMARK VINA RESULT:      -4.8      2.456      4.553
REMARK  0 active torsions:
REMARK  status: ('A' for Active; 'I' for Inactive)
ROOT
HETATM    1  C1  UNL     1     -35.552  16.583  -1.776  1.00 20.00    -0.023 C 
HETATM    2  C2  UNL     1     -35.321  15.725  -2.782  1.00 20.00    -0.080 C 
HETATM    3  C3  UNL     1     -32.917  18.498  -2.410  1.00 20.00     0.127 C 
HETATM    4  C4  UNL     1     -34.535  17.249  -0.903  1.00 20.00     0.035 C 
HETATM    5  C5  UNL     1     -36.458  15.165  -3.604  1.00 20.00     0.034 C 
HETATM    6  C6  UNL     1     -34.100  18.598  -1.466  1.00 20.00     0.082 C 
HETATM    7  C7  UNL     1     -33.046  17.636  -3.651  1.00 20.00     0.079 C 
HETATM    8  C8  UNL     1     -35.778  14.241  -4.603  1.00 20.00     0.005 C 
HETATM    9  C9  UNL     1     -32.771  16.168  -3.332  1.00 20.00     0.016 C 
HETATM   10  C10 UNL     1     -34.392  14.844  -4.772  1.00 20.00     0.009 C 
HETATM   11  C11 UNL     1     -34.000  15.245  -3.342  1.00 20.00     0.014 C 
HETATM   12  O12 UNL     1     -31.876  19.118  -2.182  1.00 20.00    -0.298 OA
ENDROOT
TORSDOF 0
ENDMDL
MODEL 4
REMARK VINA RESULT:      -4.8      1.387      2.921
REMARK  0 active torsions:
REMARK  status: ('A' for Active; 'I' for Inactive)
ROOT
HETATM    1  C1  UNL     1     -35.490  16.590  -1.680  1.00 20.00    -0.023 C 
HETATM    2  C2  UNL     1     -34.435  17.377  -1.415  1.00 20.00    -0.080 C 
HETATM    3  C3  UNL     1     -34.027  14.967  -4.179  1.00 20.00     0.127 C 
HETATM    4  C4  UNL     1     -35.965  16.135  -3.026  1.00 20.00     0.035 C 
HETATM    5  C5  UNL     1     -34.054  17.715   0.007  1.00 20.00     0.034 C 
HETATM    6  C6  UNL     1     -35.336  14.806  -3.430  1.00 20.00     0.082 C 
HETATM    7  C7  UNL     1     -32.882  15.692  -3.498  1.00 20.00     0.079 C 
HETATM    8  C8  UNL     1     -32.842  18.623  -0.136  1.00 20.00     0.005 C 
HETATM    9  C9  UNL     1     -33.024  17.205  -3.647  1.00 20.00     0.016 C 
HETATM   10  C10 UNL     1     -32.211  18.185  -1.448  1.00 20.00     0.009 C 
HETATM   11  C11 UNL     1     -33.419  17.965  -2.371  1.00 20.00     0.014 C 
HETATM   12  O12 UNL     1     -33.890  14.504  -5.313  1.00 20.00    -0.298 OA
ENDROOT
TORSDOF 0
ENDMDL
MODEL 5
REMARK VINA RESULT:      -4.8      4.120      6.247
REMARK  0 active torsions:
REMARK  status: ('A' for Active; 'I' for Inactive)
ROOT
HETATM    1  C1  UNL     1     -31.914  18.163  -1.123  1.00 20.00    -0.023 C 
HETATM    2  C2  UNL     1     -33.194  17.773  -1.233  1.00 20.00    -0.080 C 
HETATM    3  C3  UNL     1     -32.006  18.544   2.173  1.00 20.00     0.127 C 
HETATM    4  C4  UNL     1     -31.361  19.200  -0.194  1.00 20.00     0.035 C 
HETATM    5  C5  UNL     1     -33.593  16.677  -2.194  1.00 20.00     0.034 C 
HETATM    6  C6  UNL     1     -30.907  18.592   1.128  1.00 20.00     0.082 C 
HETATM    7  C7  UNL     1     -33.274  17.773   1.862  1.00 20.00     0.079 C 
HETATM    8  C8  UNL     1     -35.100  16.561  -2.023  1.00 20.00     0.005 C 
HETATM    9  C9  UNL     1     -34.245  18.620   1.042  1.00 20.00     0.016 C 
HETATM   10  C10 UNL     1     -35.341  17.012  -0.591  1.00 20.00     0.009 C 
HETATM   11  C11 UNL     1     -34.399  18.215  -0.432  1.00 20.00     0.014 C 
HETATM   12  O12 UNL     1     -31.865  19.107   3.261  1.00 20.00    -0.298 OA
ENDROOT
TORSDOF 0
ENDMDL
MODEL 6
REMARK VINA RESULT:      -4.7      1.388      2.676
REMARK  0 active torsions:
REMARK  status: ('A' for Active; 'I' for Inactive)
ROOT
HETATM    1  C1  UNL     1     -36.647  16.805  -3.292  1.00 20.00    -0.023 C 
HETATM    2  C2  UNL     1     -35.362  17.040  -2.982  1.00 20.00    -0.080 C 
HETATM    3  C3  UNL     1     -36.103  13.778  -4.539  1.00 20.00     0.127 C 
HETATM    4  C4  UNL     1     -37.171  16.081  -4.494  1.00 20.00     0.035 C 
HETATM    5  C5  UNL     1     -34.987  17.752  -1.704  1.00 20.00     0.034 C 
HETATM    6  C6  UNL     1     -37.345  14.590  -4.226  1.00 20.00     0.082 C 
HETATM    7  C7  UNL     1     -34.815  14.107  -3.809  1.00 20.00     0.079 C 
HETATM    8  C8  UNL     1     -33.469  17.827  -1.749  1.00 20.00     0.005 C 
HETATM    9  C9  UNL     1     -34.085  15.270  -4.478  1.00 20.00     0.016 C 
HETATM   10  C10 UNL     1     -33.069  16.618  -2.580  1.00 20.00     0.009 C 
HETATM   11  C11 UNL     1     -34.109  16.600  -3.709  1.00 20.00     0.014 C 
HETATM   12  O12 UNL     1     -36.142  12.858  -5.358  1.00 20.00    -0.298 OA
ENDROOT
TORSDOF 0
ENDMDL
MODEL 7
REMARK VINA RESULT:      -4.7      1.384      1.610
REMARK  0 active torsions:
REMARK  status: ('A' for Active; 'I' for Inactive)
ROOT
HETATM    1  C1  UNL     1     -34.231  14.815  -3.760  1.00 20.00    -0.023 C 
HETATM    2  C2  UNL     1     -34.229  15.881  -2.945  1.00 20.00    -0.080 C 
HETATM    3  C3  UNL     1     -37.037  15.643  -5.326  1.00 20.00     0.127 C 
HETATM    4  C4  UNL     1     -35.420  14.028  -4.220  1.00 20.00     0.035 C 
HETATM    5  C5  UNL     1     -32.944  16.598  -2.604  1.00 20.00     0.034 C 
HETATM    6  C6  UNL     1     -35.985  14.569  -5.528  1.00 20.00     0.082 C 
HETATM    7  C7  UNL     1     -36.657  16.903  -4.573  1.00 20.00     0.079 C 
HETATM    8  C8  UNL     1     -33.376  17.711  -1.661  1.00 20.00     0.005 C 
HETATM    9  C9  UNL     1     -36.746  16.689  -3.063  1.00 20.00     0.016 C 
HETATM   10  C10 UNL     1     -34.809  18.003  -2.074  1.00 20.00     0.009 C 
HETATM   11  C11 UNL     1     -35.402  16.609  -2.323  1.00 20.00     0.014 C 
HETATM   12  O12 UNL     1     -38.176  15.503  -5.778  1.00 20.00    -0.298 OA
ENDROOT
TORSDOF 0
ENDMDL
MODEL 8
REMARK VINA RESULT:      -4.7      2.940      4.879
REMARK  0 active torsions:
REMARK  status: ('A' for Active; 'I' for Inactive)
ROOT
HETATM    1  C1  UNL     1     -32.705  17.640  -2.041  1.00 20.00    -0.023 C 
HETATM    2  C2  UNL     1     -33.574  16.839  -2.677  1.00 20.00    -0.080 C 
HETATM    3  C3  UNL     1     -34.641  18.131   0.610  1.00 20.00     0.127 C 
HETATM    4  C4  UNL     1     -33.024  18.846  -1.213  1.00 20.00     0.035 C 
HETATM    5  C5  UNL     1     -33.098  15.626  -3.443  1.00 20.00     0.034 C 
HETATM    6  C6  UNL     1     -33.210  18.492   0.258  1.00 20.00     0.082 C 
HETATM    7  C7  UNL     1     -35.295  16.966  -0.107  1.00 20.00     0.079 C 
HETATM    8  C8  UNL     1     -34.372  15.021  -4.013  1.00 20.00     0.005 C 
HETATM    9  C9  UNL     1     -35.856  17.397  -1.460  1.00 20.00     0.016 C 
HETATM   10  C10 UNL     1     -35.448  15.436  -3.023  1.00 20.00     0.009 C 
HETATM   11  C11 UNL     1     -35.086  16.891  -2.690  1.00 20.00     0.014 C 
HETATM   12  O12 UNL     1     -35.255  18.762   1.473  1.00 20.00    -0.298 OA
ENDROOT
TORSDOF 0
ENDMDL
MODEL 9
REMARK VINA RESULT:      -4.7      2.639      4.345
REMARK  0 active torsions:
REMARK  status: ('A' for Active; 'I' for Inactive)
ROOT
HETATM    1  C1  UNL     1     -32.897  16.488  -3.152  1.00 20.00    -0.023 C 
HETATM    2  C2  UNL     1     -33.999  15.829  -3.543  1.00 20.00    -0.080 C 
HETATM    3  C3  UNL     1     -34.342  17.971  -0.558  1.00 20.00     0.127 C 
HETATM    4  C4  UNL     1     -32.822  17.874  -2.590  1.00 20.00     0.035 C 
HETATM    5  C5  UNL     1     -33.918  14.410  -4.053  1.00 20.00     0.034 C 
HETATM    6  C6  UNL     1     -32.916  17.875  -1.068  1.00 20.00     0.082 C 
HETATM    7  C7  UNL     1     -35.334  16.897  -0.961  1.00 20.00     0.079 C 
HETATM    8  C8  UNL     1     -35.356  14.054  -4.398  1.00 20.00     0.005 C 
HETATM    9  C9  UNL     1     -35.926  17.185  -2.339  1.00 20.00     0.016 C 
HETATM   10  C10 UNL     1     -36.181  14.918  -3.457  1.00 20.00     0.009 C 
HETATM   11  C11 UNL     1     -35.447  16.266  -3.474  1.00 20.00     0.014 C 
HETATM   12  O12 UNL     1     -34.684  18.895   0.182  1.00 20.00    -0.298 OA
ENDROOT
TORSDOF 0
ENDMDL
