MODEL 1
REMARK VINA RESULT:      -4.1      0.000      0.000
REMARK  1 active torsions:
REMARK  status: ('A' for Active; 'I' for Inactive)
REMARK    1  A    between atoms: C2_2  and  C4_4 
ROOT
HETATM    1  C1  UNL     1     -34.779   5.279   5.706  1.00 20.00    -0.034 C 
HETATM    2  C2  UNL     1     -34.784   4.829   4.443  1.00 20.00    -0.016 C 
HETATM    3  C3  UNL     1     -34.161   6.571   6.126  1.00 20.00     0.036 C 
ENDROOT
BRANCH   2   4
HETATM    4  C4  UNL     1     -34.170   5.567   3.299  1.00 20.00     0.141 C 
HETATM    5 CL5  UNL     1     -33.062   4.498   2.412  1.00 20.00    -0.126 Cl
ENDBRANCH   2   4
TORSDOF 1
ENDMDL
MODEL 2
REMARK VINA RESULT:      -4.0      2.250      2.992
REMARK  1 active torsions:
REMARK  status: ('A' for Active; 'I' for Inactive)
REMARK    1  A    between atoms: C2_2  and  C4_4 
ROOT
HETATM    1  C1  UNL     1     -33.267   4.975   2.767  1.00 20.00    -0.034 C 
HETATM    2  C2  UNL     1     -34.247   4.514   3.558  1.00 20.00    -0.016 C 
HETATM    3  C3  UNL     1     -32.911   6.418   2.638  1.00 20.00     0.036 C 
ENDROOT
BRANCH   2   4
HETATM    4  C4  UNL     1     -35.106   5.392   4.408  1.00 20.00     0.141 C 
HETATM    5 CL5  UNL     1     -34.625   5.245   6.111  1.00 20.00    -0.126 Cl
ENDBRANCH   2   4
TORSDOF 1
ENDMDL
MODEL 3
REMARK VINA RESULT:      -3.9      1.359      1.690
REMARK  1 active torsions:
REMARK  status: ('A' for Active; 'I' for Inactive)
REMARK    1  A    between atoms: C2_2  and  C4_4 
ROOT
HETATM    1  C1  UNL     1     -34.825   4.845   4.524  1.00 20.00    -0.034 C 
HETATM    2  C2  UNL     1     -34.159   5.432   3.519  1.00 20.00    -0.016 C 
HETATM    3  C3  UNL     1     -34.801   5.331   5.934  1.00 20.00     0.036 C 
ENDROOT
BRANCH   2   4
HETATM    4  C4  UNL     1     -33.307   6.647   3.690  1.00 20.00     0.141 C 
HETATM    5 CL5  UNL     1     -32.566   7.091   2.138  1.00 20.00    -0.126 Cl
ENDBRANCH   2   4
TORSDOF 1
ENDMDL
MODEL 4
REMARK VINA RESULT:      -3.8      0.863      1.112
REMARK  1 active torsions:
REMARK  status: ('A' for Active; 'I' for Inactive)
REMARK    1  A    between atoms: C2_2  and  C4_4 
ROOT
HETATM    1  C1  UNL     1     -34.236   5.999   6.218  1.00 20.00    -0.034 C 
HETATM    2  C2  UNL     1     -34.947   5.096   5.528  1.00 20.00    -0.016 C 
HETATM    3  C3  UNL     1     -33.602   7.203   5.607  1.00 20.00     0.036 C 
ENDROOT
BRANCH   2   4
HETATM    4  C4  UNL     1     -35.190   5.185   4.057  1.00 20.00     0.141 C 
HETATM    5 CL5  UNL     1     -33.771   4.590   3.170  1.00 20.00    -0.126 Cl
ENDBRANCH   2   4
TORSDOF 1
ENDMDL
MODEL 5
REMARK VINA RESULT:      -3.2      3.313      4.021
REMARK  1 active torsions:
REMARK  status: ('A' for Active; 'I' for Inactive)
REMARK    1  A    between atoms: C2_2  and  C4_4 
ROOT
HETATM    1  C1  UNL     1     -32.944   6.329   3.186  1.00 20.00    -0.034 C 
HETATM    2  C2  UNL     1     -32.528   7.468   2.614  1.00 20.00    -0.016 C 
HETATM    3  C3  UNL     1     -33.327   5.106   2.422  1.00 20.00     0.036 C 
ENDROOT
BRANCH   2   4
HETATM    4  C4  UNL     1     -32.399   7.653   1.138  1.00 20.00     0.141 C 
HETATM    5 CL5  UNL     1     -32.938   9.283   0.681  1.00 20.00    -0.126 Cl
ENDBRANCH   2   4
TORSDOF 1
ENDMDL
MODEL 6
REMARK VINA RESULT:      -3.0      1.461      2.314
REMARK  1 active torsions:
REMARK  status: ('A' for Active; 'I' for Inactive)
REMARK    1  A    between atoms: C2_2  and  C4_4 
ROOT
HETATM    1  C1  UNL     1     -34.991   5.115   5.412  1.00 20.00    -0.034 C 
HETATM    2  C2  UNL     1     -34.474   6.263   5.871  1.00 20.00    -0.016 C 
HETATM    3  C3  UNL     1     -34.415   4.339   4.276  1.00 20.00     0.036 C 
ENDROOT
BRANCH   2   4
HETATM    4  C4  UNL     1     -33.255   6.909   5.298  1.00 20.00     0.141 C 
HETATM    5 CL5  UNL     1     -33.364   6.946   3.526  1.00 20.00    -0.126 Cl
ENDBRANCH   2   4
TORSDOF 1
ENDMDL
MODEL 7
REMARK VINA RESULT:      -3.0      2.569      3.672
REMARK  1 active torsions:
REMARK  status: ('A' for Active; 'I' for Inactive)
REMARK    1  A    between atoms: C2_2  and  C4_4 
ROOT
HETATM    1  C1  UNL     1     -32.371   7.695   2.419  1.00 20.00    -0.034 C 
HETATM    2  C2  UNL     1     -32.753   6.645   3.160  1.00 20.00    -0.016 C 
HETATM    3  C3  UNL     1     -32.555   7.781   0.941  1.00 20.00     0.036 C 
ENDROOT
BRANCH   2   4
HETATM    4  C4  UNL     1     -33.408   5.428   2.595  1.00 20.00     0.141 C 
HETATM    5 CL5  UNL     1     -34.423   4.656   3.831  1.00 20.00    -0.126 Cl
ENDBRANCH   2   4
TORSDOF 1
ENDMDL
MODEL 8
REMARK VINA RESULT:      -3.0      8.744      9.080
REMARK  1 active torsions:
REMARK  status: ('A' for Active; 'I' for Inactive)
REMARK    1  A    between atoms: C2_2  and  C4_4 
ROOT
HETATM    1  C1  UNL     1     -41.383   5.918   0.277  1.00 20.00    -0.034 C 
HETATM    2  C2  UNL     1     -41.536   7.220   0.559  1.00 20.00    -0.016 C 
HETATM    3  C3  UNL     1     -40.996   5.397  -1.066  1.00 20.00     0.036 C 
ENDROOT
BRANCH   2   4
HETATM    4  C4  UNL     1     -41.338   8.311  -0.441  1.00 20.00     0.141 C 
HETATM    5 CL5  UNL     1     -41.222   9.878   0.387  1.00 20.00    -0.126 Cl
ENDBRANCH   2   4
TORSDOF 1
ENDMDL
MODEL 9
REMARK VINA RESULT:      -2.9      8.717      9.151
REMARK  1 active torsions:
REMARK  status: ('A' for Active; 'I' for Inactive)
REMARK    1  A    between atoms: C2_2  and  C4_4 
ROOT
HETATM    1  C1  UNL     1     -41.798   8.583   0.373  1.00 20.00    -0.034 C 
HETATM    2  C2  UNL     1     -41.226   7.411   0.687  1.00 20.00    -0.016 C 
HETATM    3  C3  UNL     1     -43.068   8.708  -0.399  1.00 20.00     0.036 C 
ENDROOT
BRANCH   2   4
HETATM    4  C4  UNL     1     -41.793   6.085   0.301  1.00 20.00     0.141 C 
HETATM    5 CL5  UNL     1     -40.877   5.406  -1.061  1.00 20.00    -0.126 Cl
ENDBRANCH   2   4
TORSDOF 1
ENDMDL
