MODEL 1
REMARK VINA RESULT:      -5.1      0.000      0.000
REMARK  0 active torsions:
REMARK  status: ('A' for Active; 'I' for Inactive)
ROOT
HETATM    1  C1  UNL     1     -36.094  14.283  -5.165  1.00 20.00     0.135 C 
HETATM    2  C2  UNL     1     -35.244  13.823  -4.008  1.00 20.00     0.080 C 
HETATM    3  C3  UNL     1     -34.056  14.745  -3.766  1.00 20.00     0.016 C 
HETATM    4  C4  UNL     1     -37.233  16.527  -5.727  1.00 20.00     0.023 A 
HETATM    5  C5  UNL     1     -35.171  17.008  -4.249  1.00 20.00     0.014 C 
HETATM    6  C6  UNL     1     -36.628  16.662  -4.358  1.00 20.00     0.003 A 
HETATM    7  C7  UNL     1     -37.127  15.307  -4.834  1.00 20.00     0.021 A 
HETATM    8  C8  UNL     1     -34.366  16.169  -3.226  1.00 20.00    -0.047 C 
HETATM    9  C9  UNL     1     -38.424  14.797  -4.252  1.00 20.00     0.024 C 
HETATM   10  C10 UNL     1     -35.072  16.110  -1.859  1.00 20.00     0.015 C 
HETATM   11  C11 UNL     1     -33.006  16.879  -3.016  1.00 20.00     0.015 C 
HETATM   12  O12 UNL     1     -35.974  13.852  -6.306  1.00 20.00    -0.297 OA
ENDROOT
TORSDOF 0
ENDMDL
MODEL 2
REMARK VINA RESULT:      -4.8      1.351      2.985
REMARK  0 active torsions:
REMARK  status: ('A' for Active; 'I' for Inactive)
ROOT
HETATM    1  C1  UNL     1     -35.698  14.230  -4.757  1.00 20.00     0.135 C 
HETATM    2  C2  UNL     1     -36.710  15.323  -4.520  1.00 20.00     0.080 C 
HETATM    3  C3  UNL     1     -36.646  15.867  -3.098  1.00 20.00     0.016 C 
HETATM    4  C4  UNL     1     -33.147  14.093  -4.411  1.00 20.00     0.023 A 
HETATM    5  C5  UNL     1     -34.103  15.811  -2.738  1.00 20.00     0.014 C 
HETATM    6  C6  UNL     1     -33.565  15.503  -4.106  1.00 20.00     0.003 A 
HETATM    7  C7  UNL     1     -34.332  14.694  -5.139  1.00 20.00     0.021 A 
HETATM    8  C8  UNL     1     -35.382  16.684  -2.713  1.00 20.00    -0.047 C 
HETATM    9  C9  UNL     1     -34.115  15.033  -6.595  1.00 20.00     0.024 C 
HETATM   10  C10 UNL     1     -35.232  17.938  -3.594  1.00 20.00     0.015 C 
HETATM   11  C11 UNL     1     -35.583  17.164  -1.254  1.00 20.00     0.015 C 
HETATM   12  O12 UNL     1     -35.957  13.037  -4.662  1.00 20.00    -0.297 OA
ENDROOT
TORSDOF 0
ENDMDL
MODEL 3
REMARK VINA RESULT:      -4.7      1.345      2.868
REMARK  0 active torsions:
REMARK  status: ('A' for Active; 'I' for Inactive)
ROOT
HETATM    1  C1  UNL     1     -37.159  14.872  -4.448  1.00 20.00     0.135 C 
HETATM    2  C2  UNL     1     -37.440  16.347  -4.320  1.00 20.00     0.080 C 
HETATM    3  C3  UNL     1     -37.042  16.892  -2.954  1.00 20.00     0.016 C 
HETATM    4  C4  UNL     1     -35.042  13.447  -4.072  1.00 20.00     0.023 A 
HETATM    5  C5  UNL     1     -34.890  15.544  -2.572  1.00 20.00     0.014 C 
HETATM    6  C6  UNL     1     -34.649  14.888  -3.901  1.00 20.00     0.003 A 
HETATM    7  C7  UNL     1     -35.769  14.518  -4.861  1.00 20.00     0.021 A 
HETATM    8  C8  UNL     1     -35.522  16.956  -2.636  1.00 20.00    -0.047 C 
HETATM    9  C9  UNL     1     -35.468  14.572  -6.340  1.00 20.00     0.024 C 
HETATM   10  C10 UNL     1     -34.777  17.867  -3.629  1.00 20.00     0.015 C 
HETATM   11  C11 UNL     1     -35.381  17.588  -1.230  1.00 20.00     0.015 C 
HETATM   12  O12 UNL     1     -37.998  14.003  -4.245  1.00 20.00    -0.297 OA
ENDROOT
TORSDOF 0
ENDMDL
MODEL 4
REMARK VINA RESULT:      -4.6      1.535      3.001
REMARK  0 active torsions:
REMARK  status: ('A' for Active; 'I' for Inactive)
ROOT
HETATM    1  C1  UNL     1     -35.811  16.518  -5.193  1.00 20.00     0.135 C 
HETATM    2  C2  UNL     1     -35.104  17.771  -4.742  1.00 20.00     0.080 C 
HETATM    3  C3  UNL     1     -35.222  17.988  -3.238  1.00 20.00     0.016 C 
HETATM    4  C4  UNL     1     -35.673  14.055  -4.441  1.00 20.00     0.023 A 
HETATM    5  C5  UNL     1     -35.018  15.554  -2.443  1.00 20.00     0.014 C 
HETATM    6  C6  UNL     1     -34.618  14.814  -3.686  1.00 20.00     0.003 A 
HETATM    7  C7  UNL     1     -35.016  15.260  -5.084  1.00 20.00     0.021 A 
HETATM    8  C8  UNL     1     -34.459  16.993  -2.321  1.00 20.00    -0.047 C 
HETATM    9  C9  UNL     1     -34.054  14.967  -6.211  1.00 20.00     0.024 C 
HETATM   10  C10 UNL     1     -32.942  17.036  -2.582  1.00 20.00     0.015 C 
HETATM   11  C11 UNL     1     -34.692  17.455  -0.861  1.00 20.00     0.015 C 
HETATM   12  O12 UNL     1     -36.954  16.507  -5.634  1.00 20.00    -0.297 OA
ENDROOT
TORSDOF 0
ENDMDL
MODEL 5
REMARK VINA RESULT:      -4.5      2.025      4.048
REMARK  0 active torsions:
REMARK  status: ('A' for Active; 'I' for Inactive)
ROOT
HETATM    1  C1  UNL     1     -35.357  17.820  -3.332  1.00 20.00     0.135 C 
HETATM    2  C2  UNL     1     -36.641  17.348  -3.965  1.00 20.00     0.080 C 
HETATM    3  C3  UNL     1     -36.395  16.574  -5.255  1.00 20.00     0.016 C 
HETATM    4  C4  UNL     1     -33.189  16.607  -2.640  1.00 20.00     0.023 A 
HETATM    5  C5  UNL     1     -34.273  15.293  -4.580  1.00 20.00     0.014 C 
HETATM    6  C6  UNL     1     -34.159  15.559  -3.107  1.00 20.00     0.003 A 
HETATM    7  C7  UNL     1     -34.676  16.828  -2.449  1.00 20.00     0.021 A 
HETATM    8  C8  UNL     1     -35.719  15.181  -5.122  1.00 20.00    -0.047 C 
HETATM    9  C9  UNL     1     -35.185  16.722  -1.031  1.00 20.00     0.024 C 
HETATM   10  C10 UNL     1     -36.572  14.221  -4.272  1.00 20.00     0.015 C 
HETATM   11  C11 UNL     1     -35.632  14.584  -6.549  1.00 20.00     0.015 C 
HETATM   12  O12 UNL     1     -34.890  18.940  -3.503  1.00 20.00    -0.297 OA
ENDROOT
TORSDOF 0
ENDMDL
MODEL 6
REMARK VINA RESULT:      -4.4      1.636      2.323
REMARK  0 active torsions:
REMARK  status: ('A' for Active; 'I' for Inactive)
ROOT
HETATM    1  C1  UNL     1     -34.184  14.572  -4.193  1.00 20.00     0.135 C 
HETATM    2  C2  UNL     1     -33.996  15.536  -3.049  1.00 20.00     0.080 C 
HETATM    3  C3  UNL     1     -33.360  16.845  -3.500  1.00 20.00     0.016 C 
HETATM    4  C4  UNL     1     -35.327  14.777  -6.495  1.00 20.00     0.023 A 
HETATM    5  C5  UNL     1     -34.530  17.124  -5.770  1.00 20.00     0.014 C 
HETATM    6  C6  UNL     1     -35.586  16.057  -5.751  1.00 20.00     0.003 A 
HETATM    7  C7  UNL     1     -35.436  14.753  -4.984  1.00 20.00     0.021 A 
HETATM    8  C8  UNL     1     -34.223  17.775  -4.399  1.00 20.00    -0.047 C 
HETATM    9  C9  UNL     1     -36.689  14.126  -4.420  1.00 20.00     0.024 C 
HETATM   10  C10 UNL     1     -35.510  18.218  -3.679  1.00 20.00     0.015 C 
HETATM   11  C11 UNL     1     -33.382  19.047  -4.671  1.00 20.00     0.015 C 
HETATM   12  O12 UNL     1     -33.385  13.684  -4.467  1.00 20.00    -0.297 OA
ENDROOT
TORSDOF 0
ENDMDL
MODEL 7
REMARK VINA RESULT:      -4.4      1.576      3.722
REMARK  0 active torsions:
REMARK  status: ('A' for Active; 'I' for Inactive)
ROOT
HETATM    1  C1  UNL     1     -33.986  14.546  -4.550  1.00 20.00     0.135 C 
HETATM    2  C2  UNL     1     -33.843  14.937  -5.999  1.00 20.00     0.080 C 
HETATM    3  C3  UNL     1     -35.193  15.158  -6.671  1.00 20.00     0.016 C 
HETATM    4  C4  UNL     1     -35.232  15.608  -2.558  1.00 20.00     0.023 A 
HETATM    5  C5  UNL     1     -36.450  16.283  -4.734  1.00 20.00     0.014 C 
HETATM    6  C6  UNL     1     -35.369  16.546  -3.724  1.00 20.00     0.003 A 
HETATM    7  C7  UNL     1     -34.126  15.681  -3.592  1.00 20.00     0.021 A 
HETATM    8  C8  UNL     1     -36.012  16.397  -6.215  1.00 20.00    -0.047 C 
HETATM    9  C9  UNL     1     -32.849  16.356  -3.150  1.00 20.00     0.024 C 
HETATM   10  C10 UNL     1     -35.248  17.707  -6.482  1.00 20.00     0.015 C 
HETATM   11  C11 UNL     1     -37.301  16.428  -7.074  1.00 20.00     0.015 C 
HETATM   12  O12 UNL     1     -33.977  13.385  -4.159  1.00 20.00    -0.297 OA
ENDROOT
TORSDOF 0
ENDMDL
MODEL 8
REMARK VINA RESULT:      -4.3      1.502      2.226
REMARK  0 active torsions:
REMARK  status: ('A' for Active; 'I' for Inactive)
ROOT
HETATM    1  C1  UNL     1     -35.743  14.353  -4.571  1.00 20.00     0.135 C 
HETATM    2  C2  UNL     1     -36.330  15.139  -3.426  1.00 20.00     0.080 C 
HETATM    3  C3  UNL     1     -35.257  15.682  -2.491  1.00 20.00     0.016 C 
HETATM    4  C4  UNL     1     -33.942  14.898  -6.334  1.00 20.00     0.023 A 
HETATM    5  C5  UNL     1     -33.464  16.304  -4.221  1.00 20.00     0.014 C 
HETATM    6  C6  UNL     1     -34.177  16.148  -5.533  1.00 20.00     0.003 A 
HETATM    7  C7  UNL     1     -35.315  15.163  -5.749  1.00 20.00     0.021 A 
HETATM    8  C8  UNL     1     -34.340  16.806  -3.048  1.00 20.00    -0.047 C 
HETATM    9  C9  UNL     1     -36.393  15.545  -6.735  1.00 20.00     0.024 C 
HETATM   10  C10 UNL     1     -35.154  18.053  -3.439  1.00 20.00     0.015 C 
HETATM   11  C11 UNL     1     -33.383  17.218  -1.901  1.00 20.00     0.015 C 
HETATM   12  O12 UNL     1     -35.625  13.134  -4.565  1.00 20.00    -0.297 OA
ENDROOT
TORSDOF 0
ENDMDL
MODEL 9
REMARK VINA RESULT:      -4.2      1.407      3.747
REMARK  0 active torsions:
REMARK  status: ('A' for Active; 'I' for Inactive)
ROOT
HETATM    1  C1  UNL     1     -34.270  15.453  -5.753  1.00 20.00     0.135 C 
HETATM    2  C2  UNL     1     -34.894  16.756  -6.184  1.00 20.00     0.080 C 
HETATM    3  C3  UNL     1     -36.399  16.633  -6.389  1.00 20.00     0.016 C 
HETATM    4  C4  UNL     1     -34.782  13.811  -3.832  1.00 20.00     0.023 A 
HETATM    5  C5  UNL     1     -36.962  15.053  -4.443  1.00 20.00     0.014 C 
HETATM    6  C6  UNL     1     -35.684  15.000  -3.657  1.00 20.00     0.003 A 
HETATM    7  C7  UNL     1     -34.312  15.177  -4.287  1.00 20.00     0.021 A 
HETATM    8  C8  UNL     1     -37.267  16.413  -5.119  1.00 20.00    -0.047 C 
HETATM    9  C9  UNL     1     -33.235  15.822  -3.446  1.00 20.00     0.024 C 
HETATM   10  C10 UNL     1     -37.123  17.583  -4.129  1.00 20.00     0.015 C 
HETATM   11  C11 UNL     1     -38.744  16.376  -5.582  1.00 20.00     0.015 C 
HETATM   12  O12 UNL     1     -33.748  14.663  -6.530  1.00 20.00    -0.297 OA
ENDROOT
TORSDOF 0
ENDMDL
