MODEL 1
REMARK VINA RESULT:      -4.8      0.000      0.000
REMARK  1 active torsions:
REMARK  status: ('A' for Active; 'I' for Inactive)
REMARK    1  A    between atoms: C5_5  and  O10_10 
ROOT
HETATM    1  C1  UNL     1     -35.866  13.798  -4.744  1.00 20.00     0.001 C 
HETATM    2  C2  UNL     1     -35.249  14.100  -3.592  1.00 20.00    -0.018 C 
HETATM    3  C3  UNL     1     -34.505  15.540  -5.958  1.00 20.00     0.046 C 
HETATM    4  C4  UNL     1     -33.093  15.470  -3.787  1.00 20.00     0.024 A 
HETATM    5  C5  UNL     1     -35.805  14.725  -5.922  1.00 20.00     0.141 C 
HETATM    6  C6  UNL     1     -34.531  15.371  -3.345  1.00 20.00    -0.018 A 
HETATM    7  C7  UNL     1     -34.158  16.163  -4.613  1.00 20.00    -0.030 A 
HETATM    8  C8  UNL     1     -34.936  16.095  -2.087  1.00 20.00     0.020 C 
HETATM    9  C9  UNL     1     -34.197  17.669  -4.605  1.00 20.00     0.016 C 
ENDROOT
BRANCH   5  10
HETATM   10  O10 UNL     1     -35.886  13.945  -7.112  1.00 20.00    -0.392 OA
HETATM   11  H24 UNL     1     -36.291  13.100  -6.860  1.00 20.00     0.210 HD
ENDBRANCH   5  10
TORSDOF 1
ENDMDL
MODEL 2
REMARK VINA RESULT:      -4.6      1.833      2.316
REMARK  1 active torsions:
REMARK  status: ('A' for Active; 'I' for Inactive)
REMARK    1  A    between atoms: C5_5  and  O10_10 
ROOT
HETATM    1  C1  UNL     1     -34.908  14.116  -4.070  1.00 20.00     0.001 C 
HETATM    2  C2  UNL     1     -35.715  14.926  -3.368  1.00 20.00    -0.018 C 
HETATM    3  C3  UNL     1     -32.929  15.586  -3.536  1.00 20.00     0.046 C 
HETATM    4  C4  UNL     1     -34.563  16.585  -1.791  1.00 20.00     0.024 A 
HETATM    5  C5  UNL     1     -33.546  14.568  -4.506  1.00 20.00     0.141 C 
HETATM    6  C6  UNL     1     -35.388  16.329  -3.027  1.00 20.00    -0.018 A 
HETATM    7  C7  UNL     1     -33.896  16.696  -3.147  1.00 20.00    -0.030 A 
HETATM    8  C8  UNL     1     -36.450  17.336  -3.389  1.00 20.00     0.020 C 
HETATM    9  C9  UNL     1     -33.488  18.063  -3.629  1.00 20.00     0.016 C 
ENDROOT
BRANCH   5  10
HETATM   10  O10 UNL     1     -32.693  13.427  -4.570  1.00 20.00    -0.392 OA
HETATM   11  H24 UNL     1     -32.367  13.379  -5.482  1.00 20.00     0.210 HD
ENDBRANCH   5  10
TORSDOF 1
ENDMDL
MODEL 3
REMARK VINA RESULT:      -4.6      1.521      2.243
REMARK  1 active torsions:
REMARK  status: ('A' for Active; 'I' for Inactive)
REMARK    1  A    between atoms: C5_5  and  O10_10 
ROOT
HETATM    1  C1  UNL     1     -36.955  14.846  -4.333  1.00 20.00     0.001 C 
HETATM    2  C2  UNL     1     -36.939  15.994  -3.640  1.00 20.00    -0.018 C 
HETATM    3  C3  UNL     1     -34.623  14.305  -3.540  1.00 20.00     0.046 C 
HETATM    4  C4  UNL     1     -35.108  16.217  -1.860  1.00 20.00     0.024 A 
HETATM    5  C5  UNL     1     -35.688  14.100  -4.626  1.00 20.00     0.141 C 
HETATM    6  C6  UNL     1     -35.703  16.662  -3.173  1.00 20.00    -0.018 A 
HETATM    7  C7  UNL     1     -34.449  15.766  -3.149  1.00 20.00    -0.030 A 
HETATM    8  C8  UNL     1     -35.589  18.119  -3.543  1.00 20.00     0.020 C 
HETATM    9  C9  UNL     1     -33.100  16.340  -3.496  1.00 20.00     0.016 C 
ENDROOT
BRANCH   5  10
HETATM   10  O10 UNL     1     -35.993  12.709  -4.706  1.00 20.00    -0.392 OA
HETATM   11  H24 UNL     1     -35.240  12.288  -5.149  1.00 20.00     0.210 HD
ENDBRANCH   5  10
TORSDOF 1
ENDMDL
MODEL 4
REMARK VINA RESULT:      -4.5      1.637      2.484
REMARK  1 active torsions:
REMARK  status: ('A' for Active; 'I' for Inactive)
REMARK    1  A    between atoms: C5_5  and  O10_10 
ROOT
HETATM    1  C1  UNL     1     -37.124  15.967  -4.287  1.00 20.00     0.001 C 
HETATM    2  C2  UNL     1     -36.245  16.861  -3.812  1.00 20.00    -0.018 C 
HETATM    3  C3  UNL     1     -35.506  14.090  -3.815  1.00 20.00     0.046 C 
HETATM    4  C4  UNL     1     -34.305  15.919  -2.428  1.00 20.00     0.024 A 
HETATM    5  C5  UNL     1     -36.693  14.578  -4.657  1.00 20.00     0.141 C 
HETATM    6  C6  UNL     1     -34.792  16.606  -3.678  1.00 20.00    -0.018 A 
HETATM    7  C7  UNL     1     -34.389  15.119  -3.712  1.00 20.00    -0.030 A 
HETATM    8  C8  UNL     1     -33.903  17.650  -4.304  1.00 20.00     0.020 C 
HETATM    9  C9  UNL     1     -33.102  14.697  -4.372  1.00 20.00     0.016 C 
ENDROOT
BRANCH   5  10
HETATM   10  O10 UNL     1     -37.793  13.695  -4.448  1.00 20.00    -0.392 OA
HETATM   11  H24 UNL     1     -38.562  14.110  -4.870  1.00 20.00     0.210 HD
ENDBRANCH   5  10
TORSDOF 1
ENDMDL
MODEL 5
REMARK VINA RESULT:      -4.4     11.712     13.030
REMARK  1 active torsions:
REMARK  status: ('A' for Active; 'I' for Inactive)
REMARK    1  A    between atoms: C5_5  and  O10_10 
ROOT
HETATM    1  C1  UNL     1     -32.915   7.572   4.194  1.00 20.00     0.001 C 
HETATM    2  C2  UNL     1     -33.829   7.108   5.058  1.00 20.00    -0.018 C 
HETATM    3  C3  UNL     1     -33.543   5.783   2.530  1.00 20.00     0.046 C 
HETATM    4  C4  UNL     1     -35.588   5.510   4.098  1.00 20.00     0.024 A 
HETATM    5  C5  UNL     1     -32.454   6.741   3.032  1.00 20.00     0.141 C 
HETATM    6  C6  UNL     1     -34.405   5.744   5.003  1.00 20.00    -0.018 A 
HETATM    7  C7  UNL     1     -34.225   5.017   3.656  1.00 20.00    -0.030 A 
HETATM    8  C8  UNL     1     -34.341   4.975   6.297  1.00 20.00     0.020 C 
HETATM    9  C9  UNL     1     -33.982   3.531   3.624  1.00 20.00     0.016 C 
ENDROOT
BRANCH   5  10
HETATM   10  O10 UNL     1     -32.094   7.618   1.967  1.00 20.00    -0.392 OA
HETATM   11  H24 UNL     1     -31.326   7.218   1.530  1.00 20.00     0.210 HD
ENDBRANCH   5  10
TORSDOF 1
ENDMDL
MODEL 6
REMARK VINA RESULT:      -4.3      1.627      2.196
REMARK  1 active torsions:
REMARK  status: ('A' for Active; 'I' for Inactive)
REMARK    1  A    between atoms: C5_5  and  O10_10 
ROOT
HETATM    1  C1  UNL     1     -32.942  14.969  -4.341  1.00 20.00     0.001 C 
HETATM    2  C2  UNL     1     -33.177  15.773  -3.294  1.00 20.00    -0.018 C 
HETATM    3  C3  UNL     1     -34.762  16.113  -5.660  1.00 20.00     0.046 C 
HETATM    4  C4  UNL     1     -34.568  17.873  -3.768  1.00 20.00     0.024 A 
HETATM    5  C5  UNL     1     -33.940  14.834  -5.454  1.00 20.00     0.141 C 
HETATM    6  C6  UNL     1     -34.434  16.529  -3.095  1.00 20.00    -0.018 A 
HETATM    7  C7  UNL     1     -35.305  16.686  -4.357  1.00 20.00    -0.030 A 
HETATM    8  C8  UNL     1     -35.079  16.347  -1.745  1.00 20.00     0.020 C 
HETATM    9  C9  UNL     1     -36.807  16.657  -4.251  1.00 20.00     0.016 C 
ENDROOT
BRANCH   5  10
HETATM   10  O10 UNL     1     -33.234  14.548  -6.658  1.00 20.00    -0.392 OA
HETATM   11  H24 UNL     1     -33.883  14.601  -7.377  1.00 20.00     0.210 HD
ENDBRANCH   5  10
TORSDOF 1
ENDMDL
MODEL 7
REMARK VINA RESULT:      -4.3      1.554      2.357
REMARK  1 active torsions:
REMARK  status: ('A' for Active; 'I' for Inactive)
REMARK    1  A    between atoms: C5_5  and  O10_10 
ROOT
HETATM    1  C1  UNL     1     -33.795  13.994  -4.210  1.00 20.00     0.001 C 
HETATM    2  C2  UNL     1     -33.169  15.174  -4.089  1.00 20.00    -0.018 C 
HETATM    3  C3  UNL     1     -36.031  15.122  -3.913  1.00 20.00     0.046 C 
HETATM    4  C4  UNL     1     -34.633  17.263  -4.330  1.00 20.00     0.024 A 
HETATM    5  C5  UNL     1     -35.222  13.826  -3.776  1.00 20.00     0.141 C 
HETATM    6  C6  UNL     1     -33.774  16.373  -3.467  1.00 20.00    -0.018 A 
HETATM    7  C7  UNL     1     -35.310  16.335  -3.342  1.00 20.00    -0.030 A 
HETATM    8  C8  UNL     1     -32.940  17.022  -2.393  1.00 20.00     0.020 C 
HETATM    9  C9  UNL     1     -35.988  16.945  -2.143  1.00 20.00     0.016 C 
ENDROOT
BRANCH   5  10
HETATM   10  O10 UNL     1     -35.824  12.825  -4.593  1.00 20.00    -0.392 OA
HETATM   11  H24 UNL     1     -35.768  11.994  -4.096  1.00 20.00     0.210 HD
ENDBRANCH   5  10
TORSDOF 1
ENDMDL
MODEL 8
REMARK VINA RESULT:      -4.3     10.572     12.193
REMARK  1 active torsions:
REMARK  status: ('A' for Active; 'I' for Inactive)
REMARK    1  A    between atoms: C5_5  and  O10_10 
ROOT
HETATM    1  C1  UNL     1     -42.095   8.772  -1.124  1.00 20.00     0.001 C 
HETATM    2  C2  UNL     1     -42.190   7.614  -1.794  1.00 20.00    -0.018 C 
HETATM    3  C3  UNL     1     -41.287   7.546   0.927  1.00 20.00     0.046 C 
HETATM    4  C4  UNL     1     -40.983   5.604  -0.760  1.00 20.00     0.024 A 
HETATM    5  C5  UNL     1     -41.987   8.795   0.372  1.00 20.00     0.141 C 
HETATM    6  C6  UNL     1     -42.272   6.286  -1.146  1.00 20.00    -0.018 A 
HETATM    7  C7  UNL     1     -41.818   6.252   0.326  1.00 20.00    -0.030 A 
HETATM    8  C8  UNL     1     -43.417   5.422  -1.609  1.00 20.00     0.020 C 
HETATM    9  C9  UNL     1     -42.518   5.357   1.315  1.00 20.00     0.016 C 
ENDROOT
BRANCH   5  10
HETATM   10  O10 UNL     1     -41.235   9.945   0.752  1.00 20.00    -0.392 OA
HETATM   11  H24 UNL     1     -41.732  10.375   1.465  1.00 20.00     0.210 HD
ENDBRANCH   5  10
TORSDOF 1
ENDMDL
MODEL 9
REMARK VINA RESULT:      -4.2      2.581      3.916
REMARK  1 active torsions:
REMARK  status: ('A' for Active; 'I' for Inactive)
REMARK    1  A    between atoms: C5_5  and  O10_10 
ROOT
HETATM    1  C1  UNL     1     -33.037  16.557  -2.869  1.00 20.00     0.001 C 
HETATM    2  C2  UNL     1     -32.986  15.632  -3.839  1.00 20.00    -0.018 C 
HETATM    3  C3  UNL     1     -35.418  15.912  -2.346  1.00 20.00     0.046 C 
HETATM    4  C4  UNL     1     -34.832  13.855  -3.808  1.00 20.00     0.024 A 
HETATM    5  C5  UNL     1     -34.349  17.012  -2.301  1.00 20.00     0.141 C 
HETATM    6  C6  UNL     1     -34.180  15.037  -4.481  1.00 20.00    -0.018 A 
HETATM    7  C7  UNL     1     -35.495  15.214  -3.697  1.00 20.00    -0.030 A 
HETATM    8  C8  UNL     1     -34.181  15.083  -5.987  1.00 20.00     0.020 C 
HETATM    9  C9  UNL     1     -36.791  15.435  -4.431  1.00 20.00     0.016 C 
ENDROOT
BRANCH   5  10
HETATM   10  O10 UNL     1     -34.143  17.391  -0.942  1.00 20.00    -0.392 OA
HETATM   11  H24 UNL     1     -34.467  16.655  -0.399  1.00 20.00     0.210 HD
ENDBRANCH   5  10
TORSDOF 1
ENDMDL
