MODEL 1
REMARK VINA RESULT:      -5.4      0.000      0.000
REMARK  3 active torsions:
REMARK  status: ('A' for Active; 'I' for Inactive)
REMARK    1  A    between atoms: C1_1  and  C3_3 
REMARK    2  A    between atoms: C1_1  and  C4_4 
REMARK    3  A    between atoms: C2_2  and  C3_3 
ROOT
HETATM    1  C1  UNL     1     -33.798   6.161   3.769  1.00 20.00     0.197 C 
ENDROOT
BRANCH   1   2
HETATM    2  C3  UNL     1     -34.779   5.184   4.406  1.00 20.00     0.264 C 
HETATM    3  F5  UNL     1     -34.443   3.917   4.055  1.00 20.00    -0.205 F 
HETATM    4  F6  UNL     1     -36.024   5.416   3.919  1.00 20.00    -0.205 F 
BRANCH   2   5
HETATM    5  C2  UNL     1     -34.798   5.302   5.921  1.00 20.00     0.193 C 
HETATM    6 CL10 UNL     1     -34.092   6.853   6.440  1.00 20.00    -0.124 Cl
ENDBRANCH   2   5
ENDBRANCH   1   2
BRANCH   1   7
HETATM    7  C4  UNL     1     -33.209   5.633   2.477  1.00 20.00     0.393 C 
HETATM    8  F7  UNL     1     -34.174   5.267   1.607  1.00 20.00    -0.171 F 
HETATM    9  F8  UNL     1     -32.458   6.584   1.878  1.00 20.00    -0.171 F 
HETATM   10  F9  UNL     1     -32.415   4.564   2.696  1.00 20.00    -0.171 F 
ENDBRANCH   1   7
TORSDOF 3
ENDMDL
MODEL 2
REMARK VINA RESULT:      -5.4      0.017      1.195
REMARK  3 active torsions:
REMARK  status: ('A' for Active; 'I' for Inactive)
REMARK    1  A    between atoms: C1_1  and  C3_3 
REMARK    2  A    between atoms: C1_1  and  C4_4 
REMARK    3  A    between atoms: C2_2  and  C3_3 
ROOT
HETATM    1  C1  UNL     1     -33.794   6.163   3.779  1.00 20.00     0.197 C 
ENDROOT
BRANCH   1   2
HETATM    2  C3  UNL     1     -34.771   5.181   4.415  1.00 20.00     0.264 C 
HETATM    3  F5  UNL     1     -34.423   3.915   4.072  1.00 20.00    -0.205 F 
HETATM    4  F6  UNL     1     -36.015   5.401   3.921  1.00 20.00    -0.205 F 
BRANCH   2   5
HETATM    5  C2  UNL     1     -34.799   5.306   5.930  1.00 20.00     0.193 C 
HETATM    6 CL10 UNL     1     -34.088   6.856   6.446  1.00 20.00    -0.124 Cl
ENDBRANCH   2   5
ENDBRANCH   1   2
BRANCH   1   7
HETATM    7  C4  UNL     1     -33.201   5.637   2.488  1.00 20.00     0.393 C 
HETATM    8  F7  UNL     1     -32.421   4.557   2.705  1.00 20.00    -0.171 F 
HETATM    9  F8  UNL     1     -34.183   5.266   1.636  1.00 20.00    -0.171 F 
HETATM   10  F9  UNL     1     -32.455   6.575   1.868  1.00 20.00    -0.171 F 
ENDBRANCH   1   7
TORSDOF 3
ENDMDL
MODEL 3
REMARK VINA RESULT:      -5.3      2.031      3.709
REMARK  3 active torsions:
REMARK  status: ('A' for Active; 'I' for Inactive)
REMARK    1  A    between atoms: C1_1  and  C3_3 
REMARK    2  A    between atoms: C1_1  and  C4_4 
REMARK    3  A    between atoms: C2_2  and  C3_3 
ROOT
HETATM    1  C1  UNL     1     -33.875   6.245   4.234  1.00 20.00     0.197 C 
ENDROOT
BRANCH   1   2
HETATM    2  C3  UNL     1     -33.166   6.039   2.900  1.00 20.00     0.264 C 
HETATM    3  F5  UNL     1     -34.090   5.931   1.913  1.00 20.00    -0.205 F 
HETATM    4  F6  UNL     1     -32.477   4.870   2.933  1.00 20.00    -0.205 F 
BRANCH   2   5
HETATM    5  C2  UNL     1     -32.213   7.179   2.580  1.00 20.00     0.193 C 
HETATM    6 CL10 UNL     1     -32.726   8.032   1.104  1.00 20.00    -0.124 Cl
ENDBRANCH   2   5
ENDBRANCH   1   2
BRANCH   1   7
HETATM    7  C4  UNL     1     -34.906   5.171   4.514  1.00 20.00     0.393 C 
HETATM    8  F7  UNL     1     -34.530   3.978   4.009  1.00 20.00    -0.171 F 
HETATM    9  F8  UNL     1     -35.074   5.016   5.847  1.00 20.00    -0.171 F 
HETATM   10  F9  UNL     1     -36.107   5.489   3.986  1.00 20.00    -0.171 F 
ENDBRANCH   1   7
TORSDOF 3
ENDMDL
MODEL 4
REMARK VINA RESULT:      -5.0      2.268      3.679
REMARK  3 active torsions:
REMARK  status: ('A' for Active; 'I' for Inactive)
REMARK    1  A    between atoms: C1_1  and  C3_3 
REMARK    2  A    between atoms: C1_1  and  C4_4 
REMARK    3  A    between atoms: C2_2  and  C3_3 
ROOT
HETATM    1  C1  UNL     1     -34.022   6.291   4.674  1.00 20.00     0.197 C 
ENDROOT
BRANCH   1   2
HETATM    2  C3  UNL     1     -34.358   5.125   3.751  1.00 20.00     0.264 C 
HETATM    3  F5  UNL     1     -35.672   5.180   3.417  1.00 20.00    -0.205 F 
HETATM    4  F6  UNL     1     -34.163   3.957   4.414  1.00 20.00    -0.205 F 
BRANCH   2   5
HETATM    5  C2  UNL     1     -33.512   5.137   2.489  1.00 20.00     0.193 C 
HETATM    6 CL10 UNL     1     -32.641   6.683   2.330  1.00 20.00    -0.124 Cl
ENDBRANCH   2   5
ENDBRANCH   1   2
BRANCH   1   7
HETATM    7  C4  UNL     1     -34.378   6.007   6.120  1.00 20.00     0.393 C 
HETATM    8  F7  UNL     1     -35.539   5.327   6.220  1.00 20.00    -0.171 F 
HETATM    9  F8  UNL     1     -33.415   5.259   6.703  1.00 20.00    -0.171 F 
HETATM   10  F9  UNL     1     -34.497   7.146   6.833  1.00 20.00    -0.171 F 
ENDBRANCH   1   7
TORSDOF 3
ENDMDL
MODEL 5
REMARK VINA RESULT:      -4.7      2.433      3.739
REMARK  3 active torsions:
REMARK  status: ('A' for Active; 'I' for Inactive)
REMARK    1  A    between atoms: C1_1  and  C3_3 
REMARK    2  A    between atoms: C1_1  and  C4_4 
REMARK    3  A    between atoms: C2_2  and  C3_3 
ROOT
HETATM    1  C1  UNL     1     -33.409   5.504   3.001  1.00 20.00     0.197 C 
ENDROOT
BRANCH   1   2
HETATM    2  C3  UNL     1     -32.989   6.968   2.916  1.00 20.00     0.264 C 
HETATM    3  F5  UNL     1     -32.065   7.225   3.876  1.00 20.00    -0.205 F 
HETATM    4  F6  UNL     1     -34.061   7.759   3.171  1.00 20.00    -0.205 F 
BRANCH   2   5
HETATM    5  C2  UNL     1     -32.414   7.316   1.553  1.00 20.00     0.193 C 
HETATM    6 CL10 UNL     1     -32.996   8.912   1.015  1.00 20.00    -0.124 Cl
ENDBRANCH   2   5
ENDBRANCH   1   2
BRANCH   1   7
HETATM    7  C4  UNL     1     -34.388   5.247   4.129  1.00 20.00     0.393 C 
HETATM    8  F7  UNL     1     -35.655   5.530   3.760  1.00 20.00    -0.171 F 
HETATM    9  F8  UNL     1     -34.350   3.947   4.497  1.00 20.00    -0.171 F 
HETATM   10  F9  UNL     1     -34.093   5.988   5.217  1.00 20.00    -0.171 F 
ENDBRANCH   1   7
TORSDOF 3
ENDMDL
MODEL 6
REMARK VINA RESULT:      -4.5      2.636      3.955
REMARK  3 active torsions:
REMARK  status: ('A' for Active; 'I' for Inactive)
REMARK    1  A    between atoms: C1_1  and  C3_3 
REMARK    2  A    between atoms: C1_1  and  C4_4 
REMARK    3  A    between atoms: C2_2  and  C3_3 
ROOT
HETATM    1  C1  UNL     1     -34.368   5.396   4.461  1.00 20.00     0.197 C 
ENDROOT
BRANCH   1   2
HETATM    2  C3  UNL     1     -33.612   6.577   3.862  1.00 20.00     0.264 C 
HETATM    3  F5  UNL     1     -32.728   7.053   4.775  1.00 20.00    -0.205 F 
HETATM    4  F6  UNL     1     -34.486   7.579   3.591  1.00 20.00    -0.205 F 
BRANCH   2   5
HETATM    5  C2  UNL     1     -32.872   6.193   2.592  1.00 20.00     0.193 C 
HETATM    6 CL10 UNL     1     -32.464   7.641   1.639  1.00 20.00    -0.124 Cl
ENDBRANCH   2   5
ENDBRANCH   1   2
BRANCH   1   7
HETATM    7  C4  UNL     1     -34.542   5.520   5.961  1.00 20.00     0.393 C 
HETATM    8  F7  UNL     1     -34.557   6.811   6.354  1.00 20.00    -0.171 F 
HETATM    9  F8  UNL     1     -35.712   4.963   6.347  1.00 20.00    -0.171 F 
HETATM   10  F9  UNL     1     -33.551   4.891   6.627  1.00 20.00    -0.171 F 
ENDBRANCH   1   7
TORSDOF 3
ENDMDL
MODEL 7
REMARK VINA RESULT:      -4.4      2.327      3.625
REMARK  3 active torsions:
REMARK  status: ('A' for Active; 'I' for Inactive)
REMARK    1  A    between atoms: C1_1  and  C3_3 
REMARK    2  A    between atoms: C1_1  and  C4_4 
REMARK    3  A    between atoms: C2_2  and  C3_3 
ROOT
HETATM    1  C1  UNL     1     -33.623   7.702   1.812  1.00 20.00     0.197 C 
ENDROOT
BRANCH   1   2
HETATM    2  C3  UNL     1     -32.807   6.869   2.794  1.00 20.00     0.264 C 
HETATM    3  F5  UNL     1     -31.650   7.518   3.079  1.00 20.00    -0.205 F 
HETATM    4  F6  UNL     1     -32.471   5.690   2.212  1.00 20.00    -0.205 F 
BRANCH   2   5
HETATM    5  C2  UNL     1     -33.568   6.599   4.081  1.00 20.00     0.193 C 
HETATM    6 CL10 UNL     1     -34.604   5.160   3.910  1.00 20.00    -0.124 Cl
ENDBRANCH   2   5
ENDBRANCH   1   2
BRANCH   1   7
HETATM    7  C4  UNL     1     -32.761   8.361   0.754  1.00 20.00     0.393 C 
HETATM    8  F7  UNL     1     -31.571   7.738   0.626  1.00 20.00    -0.171 F 
HETATM    9  F8  UNL     1     -33.377   8.315  -0.449  1.00 20.00    -0.171 F 
HETATM   10  F9  UNL     1     -32.527   9.657   1.043  1.00 20.00    -0.171 F 
ENDBRANCH   1   7
TORSDOF 3
ENDMDL
MODEL 8
REMARK VINA RESULT:      -4.3      8.837      9.465
REMARK  3 active torsions:
REMARK  status: ('A' for Active; 'I' for Inactive)
REMARK    1  A    between atoms: C1_1  and  C3_3 
REMARK    2  A    between atoms: C1_1  and  C4_4 
REMARK    3  A    between atoms: C2_2  and  C3_3 
ROOT
HETATM    1  C1  UNL     1     -41.267   7.158  -1.046  1.00 20.00     0.197 C 
ENDROOT
BRANCH   1   2
HETATM    2  C3  UNL     1     -41.557   5.684  -0.785  1.00 20.00     0.264 C 
HETATM    3  F5  UNL     1     -41.587   5.462   0.553  1.00 20.00    -0.205 F 
HETATM    4  F6  UNL     1     -40.548   4.932  -1.292  1.00 20.00    -0.205 F 
BRANCH   2   5
HETATM    5  C2  UNL     1     -42.875   5.245  -1.402  1.00 20.00     0.193 C 
HETATM    6 CL10 UNL     1     -42.652   3.774  -2.381  1.00 20.00    -0.124 Cl
ENDBRANCH   2   5
ENDBRANCH   1   2
BRANCH   1   7
HETATM    7  C4  UNL     1     -41.604   8.034   0.143  1.00 20.00     0.393 C 
HETATM    8  F7  UNL     1     -40.852   7.721   1.219  1.00 20.00    -0.171 F 
HETATM    9  F8  UNL     1     -41.375   9.334  -0.150  1.00 20.00    -0.171 F 
HETATM   10  F9  UNL     1     -42.902   7.917   0.492  1.00 20.00    -0.171 F 
ENDBRANCH   1   7
TORSDOF 3
ENDMDL
MODEL 9
REMARK VINA RESULT:      -4.2      2.049      2.628
REMARK  3 active torsions:
REMARK  status: ('A' for Active; 'I' for Inactive)
REMARK    1  A    between atoms: C1_1  and  C3_3 
REMARK    2  A    between atoms: C1_1  and  C4_4 
REMARK    3  A    between atoms: C2_2  and  C3_3 
ROOT
HETATM    1  C1  UNL     1     -33.110   6.095   2.786  1.00 20.00     0.197 C 
ENDROOT
BRANCH   1   2
HETATM    2  C3  UNL     1     -33.980   6.339   4.014  1.00 20.00     0.264 C 
HETATM    3  F5  UNL     1     -34.895   7.300   3.733  1.00 20.00    -0.205 F 
HETATM    4  F6  UNL     1     -33.207   6.806   5.027  1.00 20.00    -0.205 F 
BRANCH   2   5
HETATM    5  C2  UNL     1     -34.694   5.075   4.464  1.00 20.00     0.193 C 
HETATM    6 CL10 UNL     1     -34.804   5.014   6.241  1.00 20.00    -0.124 Cl
ENDBRANCH   2   5
ENDBRANCH   1   2
BRANCH   1   7
HETATM    7  C4  UNL     1     -32.384   7.346   2.333  1.00 20.00     0.393 C 
HETATM    8  F7  UNL     1     -31.489   7.760   3.254  1.00 20.00    -0.171 F 
HETATM    9  F8  UNL     1     -31.709   7.109   1.186  1.00 20.00    -0.171 F 
HETATM   10  F9  UNL     1     -33.243   8.359   2.098  1.00 20.00    -0.171 F 
ENDBRANCH   1   7
TORSDOF 3
ENDMDL
