MODEL 1
REMARK VINA RESULT:      -5.9      0.000      0.000
REMARK  0 active torsions:
REMARK  status: ('A' for Active; 'I' for Inactive)
ROOT
HETATM    1  C1  UNL     1     -32.853   6.485   2.719  1.00 20.00     0.003 C 
HETATM    2  C2  UNL     1     -33.542   5.345   2.590  1.00 20.00     0.050 C 
HETATM    3  C3  UNL     1     -32.500   7.175   3.936  1.00 20.00    -0.004 C 
HETATM    4  C4  UNL     1     -33.226   7.240   5.061  1.00 20.00    -0.021 C 
HETATM    5  C5  UNL     1     -34.165   4.602   3.707  1.00 20.00     0.154 C 
HETATM    6  C6  UNL     1     -34.592   5.374   6.124  1.00 20.00     0.022 A 
HETATM    7  C7  UNL     1     -34.537   6.648   5.324  1.00 20.00     0.020 A 
HETATM    8  C8  UNL     1     -34.985   5.371   4.670  1.00 20.00     0.068 A 
HETATM    9  O9  UNL     1     -34.110   3.379   3.767  1.00 20.00    -0.293 OA
ENDROOT
TORSDOF 0
ENDMDL
MODEL 2
REMARK VINA RESULT:      -5.5      1.681      3.366
REMARK  0 active torsions:
REMARK  status: ('A' for Active; 'I' for Inactive)
ROOT
HETATM    1  C1  UNL     1     -34.268   6.530   6.011  1.00 20.00     0.003 C 
HETATM    2  C2  UNL     1     -33.534   7.366   5.266  1.00 20.00     0.050 C 
HETATM    3  C3  UNL     1     -34.476   5.116   5.814  1.00 20.00    -0.004 C 
HETATM    4  C4  UNL     1     -34.552   4.473   4.641  1.00 20.00    -0.021 C 
HETATM    5  C5  UNL     1     -32.848   6.997   4.008  1.00 20.00     0.154 C 
HETATM    6  C6  UNL     1     -33.151   4.894   2.558  1.00 20.00     0.022 A 
HETATM    7  C7  UNL     1     -34.456   5.036   3.295  1.00 20.00     0.020 A 
HETATM    8  C8  UNL     1     -33.629   6.254   2.994  1.00 20.00     0.068 A 
HETATM    9  O9  UNL     1     -31.717   7.397   3.761  1.00 20.00    -0.293 OA
ENDROOT
TORSDOF 0
ENDMDL
MODEL 3
REMARK VINA RESULT:      -5.5      1.670      3.399
REMARK  0 active torsions:
REMARK  status: ('A' for Active; 'I' for Inactive)
ROOT
HETATM    1  C1  UNL     1     -34.898   4.553   4.452  1.00 20.00     0.003 C 
HETATM    2  C2  UNL     1     -34.831   5.659   5.204  1.00 20.00     0.050 C 
HETATM    3  C3  UNL     1     -33.963   4.105   3.448  1.00 20.00    -0.004 C 
HETATM    4  C4  UNL     1     -33.242   4.876   2.623  1.00 20.00    -0.021 C 
HETATM    5  C5  UNL     1     -33.794   6.707   5.076  1.00 20.00     0.154 C 
HETATM    6  C6  UNL     1     -32.097   7.080   3.179  1.00 20.00     0.022 A 
HETATM    7  C7  UNL     1     -33.232   6.335   2.530  1.00 20.00     0.020 A 
HETATM    8  C8  UNL     1     -33.496   7.215   3.719  1.00 20.00     0.068 A 
HETATM    9  O9  UNL     1     -33.288   7.223   6.065  1.00 20.00    -0.293 OA
ENDROOT
TORSDOF 0
ENDMDL
MODEL 4
REMARK VINA RESULT:      -4.6     16.978     17.383
REMARK  0 active torsions:
REMARK  status: ('A' for Active; 'I' for Inactive)
ROOT
HETATM    1  C1  UNL     1     -25.551  19.263   9.331  1.00 20.00     0.003 C 
HETATM    2  C2  UNL     1     -24.398  19.116   8.668  1.00 20.00     0.050 C 
HETATM    3  C3  UNL     1     -25.777  19.162  10.752  1.00 20.00    -0.004 C 
HETATM    4  C4  UNL     1     -25.145  18.347  11.608  1.00 20.00    -0.021 C 
HETATM    5  C5  UNL     1     -23.112  18.723   9.284  1.00 20.00     0.154 C 
HETATM    6  C6  UNL     1     -22.673  17.743  11.622  1.00 20.00     0.022 A 
HETATM    7  C7  UNL     1     -24.098  17.369  11.317  1.00 20.00     0.020 A 
HETATM    8  C8  UNL     1     -23.116  17.557  10.195  1.00 20.00     0.068 A 
HETATM    9  O9  UNL     1     -22.061  19.262   8.960  1.00 20.00    -0.293 OA
ENDROOT
TORSDOF 0
ENDMDL
MODEL 5
REMARK VINA RESULT:      -4.5      1.674      2.725
REMARK  0 active torsions:
REMARK  status: ('A' for Active; 'I' for Inactive)
ROOT
HETATM    1  C1  UNL     1     -34.040   4.404   3.325  1.00 20.00     0.003 C 
HETATM    2  C2  UNL     1     -33.214   5.313   2.792  1.00 20.00     0.050 C 
HETATM    3  C3  UNL     1     -35.001   4.592   4.385  1.00 20.00    -0.004 C 
HETATM    4  C4  UNL     1     -34.882   5.412   5.438  1.00 20.00    -0.021 C 
HETATM    5  C5  UNL     1     -33.070   6.707   3.268  1.00 20.00     0.154 C 
HETATM    6  C6  UNL     1     -33.902   7.760   5.462  1.00 20.00     0.022 A 
HETATM    7  C7  UNL     1     -33.767   6.294   5.774  1.00 20.00     0.020 A 
HETATM    8  C8  UNL     1     -32.895   6.920   4.721  1.00 20.00     0.068 A 
HETATM    9  O9  UNL     1     -32.973   7.640   2.480  1.00 20.00    -0.293 OA
ENDROOT
TORSDOF 0
ENDMDL
MODEL 6
REMARK VINA RESULT:      -4.5     11.881     12.544
REMARK  0 active torsions:
REMARK  status: ('A' for Active; 'I' for Inactive)
ROOT
HETATM    1  C1  UNL     1     -34.150  15.380  -3.191  1.00 20.00     0.003 C 
HETATM    2  C2  UNL     1     -34.320  14.311  -3.979  1.00 20.00     0.050 C 
HETATM    3  C3  UNL     1     -35.165  16.172  -2.540  1.00 20.00    -0.004 C 
HETATM    4  C4  UNL     1     -36.389  16.449  -3.009  1.00 20.00    -0.021 C 
HETATM    5  C5  UNL     1     -35.631  13.780  -4.413  1.00 20.00     0.154 C 
HETATM    6  C6  UNL     1     -37.951  14.881  -4.266  1.00 20.00     0.022 A 
HETATM    7  C7  UNL     1     -36.985  16.035  -4.278  1.00 20.00     0.020 A 
HETATM    8  C8  UNL     1     -36.617  14.742  -4.951  1.00 20.00     0.068 A 
HETATM    9  O9  UNL     1     -35.849  12.575  -4.442  1.00 20.00    -0.293 OA
ENDROOT
TORSDOF 0
ENDMDL
MODEL 7
REMARK VINA RESULT:      -4.4      1.091      1.960
REMARK  0 active torsions:
REMARK  status: ('A' for Active; 'I' for Inactive)
ROOT
HETATM    1  C1  UNL     1     -33.780   4.649   2.652  1.00 20.00     0.003 C 
HETATM    2  C2  UNL     1     -34.536   4.354   3.717  1.00 20.00     0.050 C 
HETATM    3  C3  UNL     1     -32.727   5.631   2.557  1.00 20.00    -0.004 C 
HETATM    4  C4  UNL     1     -32.673   6.812   3.188  1.00 20.00    -0.021 C 
HETATM    5  C5  UNL     1     -34.488   5.066   5.013  1.00 20.00     0.154 C 
HETATM    6  C6  UNL     1     -33.380   7.317   5.580  1.00 20.00     0.022 A 
HETATM    7  C7  UNL     1     -33.654   7.393   4.102  1.00 20.00     0.020 A 
HETATM    8  C8  UNL     1     -34.527   6.545   4.984  1.00 20.00     0.068 A 
HETATM    9  O9  UNL     1     -34.539   4.457   6.074  1.00 20.00    -0.293 OA
ENDROOT
TORSDOF 0
ENDMDL
MODEL 8
REMARK VINA RESULT:      -4.4     16.342     16.869
REMARK  0 active torsions:
REMARK  status: ('A' for Active; 'I' for Inactive)
ROOT
HETATM    1  C1  UNL     1     -25.772  18.999  10.924  1.00 20.00     0.003 C 
HETATM    2  C2  UNL     1     -25.340  17.996  11.698  1.00 20.00     0.050 C 
HETATM    3  C3  UNL     1     -25.436  19.263   9.545  1.00 20.00    -0.004 C 
HETATM    4  C4  UNL     1     -24.261  19.026   8.947  1.00 20.00    -0.021 C 
HETATM    5  C5  UNL     1     -24.336  16.987  11.294  1.00 20.00     0.154 C 
HETATM    6  C6  UNL     1     -22.741  17.011   9.276  1.00 20.00     0.022 A 
HETATM    7  C7  UNL     1     -23.047  18.462   9.534  1.00 20.00     0.020 A 
HETATM    8  C8  UNL     1     -23.088  17.475  10.666  1.00 20.00     0.068 A 
HETATM    9  O9  UNL     1     -24.474  15.804  11.580  1.00 20.00    -0.293 OA
ENDROOT
TORSDOF 0
ENDMDL
MODEL 9
REMARK VINA RESULT:      -4.3     11.923     13.046
REMARK  0 active torsions:
REMARK  status: ('A' for Active; 'I' for Inactive)
ROOT
HETATM    1  C1  UNL     1     -37.043  15.803  -5.188  1.00 20.00     0.003 C 
HETATM    2  C2  UNL     1     -37.040  14.597  -4.607  1.00 20.00     0.050 C 
HETATM    3  C3  UNL     1     -35.918  16.535  -5.720  1.00 20.00    -0.004 C 
HETATM    4  C4  UNL     1     -34.665  16.533  -5.246  1.00 20.00    -0.021 C 
HETATM    5  C5  UNL     1     -35.826  13.803  -4.315  1.00 20.00     0.154 C 
HETATM    6  C6  UNL     1     -33.363  14.545  -4.335  1.00 20.00     0.022 A 
HETATM    7  C7  UNL     1     -34.138  15.812  -4.089  1.00 20.00     0.020 A 
HETATM    8  C8  UNL     1     -34.701  14.491  -3.645  1.00 20.00     0.068 A 
HETATM    9  O9  UNL     1     -35.798  12.593  -4.506  1.00 20.00    -0.293 OA
ENDROOT
TORSDOF 0
ENDMDL
