MODEL 1
REMARK VINA RESULT:      -4.9      0.000      0.000
REMARK  2 active torsions:
REMARK  status: ('A' for Active; 'I' for Inactive)
REMARK    1  A    between atoms: C2_2  and  C3_3 
REMARK    2  A    between atoms: C2_2  and  C4_4 
ROOT
HETATM    1  C2  UNL     1     -33.621   5.969   4.875  1.00 20.00     0.244 C 
HETATM    2 CL9  UNL     1     -33.942   7.258   6.092  1.00 20.00    -0.111 Cl
ENDROOT
BRANCH   1   3
HETATM    3  C3  UNL     1     -33.281   6.593   3.504  1.00 20.00     0.200 C 
HETATM    4  C1  UNL     1     -33.142   5.571   2.378  1.00 20.00     0.072 C 
HETATM    5  F5  UNL     1     -34.274   7.461   3.157  1.00 20.00    -0.224 F 
HETATM    6 CL10 UNL     1     -31.747   7.521   3.579  1.00 20.00    -0.081 Cl
ENDBRANCH   1   3
BRANCH   1   7
HETATM    7  C4  UNL     1     -34.838   5.049   4.869  1.00 20.00     0.408 C 
HETATM    8  F6  UNL     1     -34.547   3.838   4.348  1.00 20.00    -0.169 F 
HETATM    9  F7  UNL     1     -35.304   4.854   6.125  1.00 20.00    -0.169 F 
HETATM   10  F8  UNL     1     -35.860   5.568   4.156  1.00 20.00    -0.169 F 
ENDBRANCH   1   7
TORSDOF 2
ENDMDL
MODEL 2
REMARK VINA RESULT:      -4.9      1.964      3.398
REMARK  2 active torsions:
REMARK  status: ('A' for Active; 'I' for Inactive)
REMARK    1  A    between atoms: C2_2  and  C3_3 
REMARK    2  A    between atoms: C2_2  and  C4_4 
ROOT
HETATM    1  C2  UNL     1     -34.033   6.630   3.919  1.00 20.00     0.244 C 
HETATM    2 CL9  UNL     1     -32.939   7.336   5.163  1.00 20.00    -0.111 Cl
ENDROOT
BRANCH   1   3
HETATM    3  C3  UNL     1     -34.797   5.419   4.495  1.00 20.00     0.200 C 
HETATM    4  C1  UNL     1     -34.808   5.364   6.021  1.00 20.00     0.072 C 
HETATM    5  F5  UNL     1     -36.093   5.474   4.072  1.00 20.00    -0.224 F 
HETATM    6 CL10 UNL     1     -34.098   3.874   3.907  1.00 20.00    -0.081 Cl
ENDBRANCH   1   3
BRANCH   1   7
HETATM    7  C4  UNL     1     -33.174   6.318   2.698  1.00 20.00     0.408 C 
HETATM    8  F6  UNL     1     -33.794   5.463   1.855  1.00 20.00    -0.169 F 
HETATM    9  F7  UNL     1     -32.890   7.444   2.003  1.00 20.00    -0.169 F 
HETATM   10  F8  UNL     1     -31.989   5.768   3.041  1.00 20.00    -0.169 F 
ENDBRANCH   1   7
TORSDOF 2
ENDMDL
MODEL 3
REMARK VINA RESULT:      -4.3      1.734      3.435
REMARK  2 active torsions:
REMARK  status: ('A' for Active; 'I' for Inactive)
REMARK    1  A    between atoms: C2_2  and  C3_3 
REMARK    2  A    between atoms: C2_2  and  C4_4 
ROOT
HETATM    1  C2  UNL     1     -33.834   6.770   4.019  1.00 20.00     0.244 C 
HETATM    2 CL9  UNL     1     -33.032   7.371   5.515  1.00 20.00    -0.111 Cl
ENDROOT
BRANCH   1   3
HETATM    3  C3  UNL     1     -34.566   5.439   4.295  1.00 20.00     0.200 C 
HETATM    4  C1  UNL     1     -36.025   5.431   3.846  1.00 20.00     0.072 C 
HETATM    5  F5  UNL     1     -33.922   4.437   3.630  1.00 20.00    -0.224 F 
HETATM    6 CL10 UNL     1     -34.540   5.037   6.043  1.00 20.00    -0.081 Cl
ENDBRANCH   1   3
BRANCH   1   7
HETATM    7  C4  UNL     1     -32.760   6.693   2.939  1.00 20.00     0.408 C 
HETATM    8  F6  UNL     1     -32.544   5.421   2.538  1.00 20.00    -0.169 F 
HETATM    9  F7  UNL     1     -33.116   7.411   1.848  1.00 20.00    -0.169 F 
HETATM   10  F8  UNL     1     -31.581   7.195   3.362  1.00 20.00    -0.169 F 
ENDBRANCH   1   7
TORSDOF 2
ENDMDL
MODEL 4
REMARK VINA RESULT:      -4.2      2.142      3.863
REMARK  2 active torsions:
REMARK  status: ('A' for Active; 'I' for Inactive)
REMARK    1  A    between atoms: C2_2  and  C3_3 
REMARK    2  A    between atoms: C2_2  and  C4_4 
ROOT
HETATM    1  C2  UNL     1     -33.026   5.855   3.540  1.00 20.00     0.244 C 
HETATM    2 CL9  UNL     1     -33.568   4.718   2.252  1.00 20.00    -0.111 Cl
ENDROOT
BRANCH   1   3
HETATM    3  C3  UNL     1     -34.161   6.100   4.558  1.00 20.00     0.200 C 
HETATM    4  C1  UNL     1     -33.756   6.988   5.732  1.00 20.00     0.072 C 
HETATM    5  F5  UNL     1     -35.202   6.706   3.918  1.00 20.00    -0.224 F 
HETATM    6 CL10 UNL     1     -34.764   4.553   5.238  1.00 20.00    -0.081 Cl
ENDBRANCH   1   3
BRANCH   1   7
HETATM    7  C4  UNL     1     -32.519   7.112   2.839  1.00 20.00     0.408 C 
HETATM    8  F6  UNL     1     -31.571   7.742   3.565  1.00 20.00    -0.169 F 
HETATM    9  F7  UNL     1     -31.981   6.811   1.634  1.00 20.00    -0.169 F 
HETATM   10  F8  UNL     1     -33.513   7.996   2.606  1.00 20.00    -0.169 F 
ENDBRANCH   1   7
TORSDOF 2
ENDMDL
MODEL 5
REMARK VINA RESULT:      -4.2      2.350      2.721
REMARK  2 active torsions:
REMARK  status: ('A' for Active; 'I' for Inactive)
REMARK    1  A    between atoms: C2_2  and  C3_3 
REMARK    2  A    between atoms: C2_2  and  C4_4 
ROOT
HETATM    1  C2  UNL     1     -34.149   6.602   4.133  1.00 20.00     0.244 C 
HETATM    2 CL9  UNL     1     -35.192   5.134   4.155  1.00 20.00    -0.111 Cl
ENDROOT
BRANCH   1   3
HETATM    3  C3  UNL     1     -33.047   6.466   3.060  1.00 20.00     0.200 C 
HETATM    4  C1  UNL     1     -33.219   7.412   1.874  1.00 20.00     0.072 C 
HETATM    5  F5  UNL     1     -31.839   6.736   3.634  1.00 20.00    -0.224 F 
HETATM    6 CL10 UNL     1     -32.980   4.795   2.409  1.00 20.00    -0.081 Cl
ENDBRANCH   1   3
BRANCH   1   7
HETATM    7  C4  UNL     1     -33.631   6.802   5.553  1.00 20.00     0.408 C 
HETATM    8  F6  UNL     1     -32.539   7.595   5.581  1.00 20.00    -0.169 F 
HETATM    9  F7  UNL     1     -34.574   7.375   6.337  1.00 20.00    -0.169 F 
HETATM   10  F8  UNL     1     -33.304   5.631   6.141  1.00 20.00    -0.169 F 
ENDBRANCH   1   7
TORSDOF 2
ENDMDL
MODEL 6
REMARK VINA RESULT:      -4.1      1.776      3.693
REMARK  2 active torsions:
REMARK  status: ('A' for Active; 'I' for Inactive)
REMARK    1  A    between atoms: C2_2  and  C3_3 
REMARK    2  A    between atoms: C2_2  and  C4_4 
ROOT
HETATM    1  C2  UNL     1     -33.150   5.479   3.622  1.00 20.00     0.244 C 
HETATM    2 CL9  UNL     1     -33.533   4.489   2.166  1.00 20.00    -0.111 Cl
ENDROOT
BRANCH   1   3
HETATM    3  C3  UNL     1     -34.295   5.390   4.653  1.00 20.00     0.200 C 
HETATM    4  C1  UNL     1     -35.684   5.592   4.053  1.00 20.00     0.072 C 
HETATM    5  F5  UNL     1     -34.269   4.157   5.235  1.00 20.00    -0.224 F 
HETATM    6 CL10 UNL     1     -34.090   6.610   5.954  1.00 20.00    -0.081 Cl
ENDBRANCH   1   3
BRANCH   1   7
HETATM    7  C4  UNL     1     -32.844   6.890   3.131  1.00 20.00     0.408 C 
HETATM    8  F6  UNL     1     -31.872   7.475   3.864  1.00 20.00    -0.169 F 
HETATM    9  F7  UNL     1     -32.433   6.878   1.842  1.00 20.00    -0.169 F 
HETATM   10  F8  UNL     1     -33.932   7.689   3.180  1.00 20.00    -0.169 F 
ENDBRANCH   1   7
TORSDOF 2
ENDMDL
MODEL 7
REMARK VINA RESULT:      -4.0      8.980      9.617
REMARK  2 active torsions:
REMARK  status: ('A' for Active; 'I' for Inactive)
REMARK    1  A    between atoms: C2_2  and  C3_3 
REMARK    2  A    between atoms: C2_2  and  C4_4 
ROOT
HETATM    1  C2  UNL     1     -41.781   6.395   0.331  1.00 20.00     0.244 C 
HETATM    2 CL9  UNL     1     -42.775   5.085   1.066  1.00 20.00    -0.111 Cl
ENDROOT
BRANCH   1   3
HETATM    3  C3  UNL     1     -42.574   7.719   0.291  1.00 20.00     0.200 C 
HETATM    4  C1  UNL     1     -43.417   7.896  -0.970  1.00 20.00     0.072 C 
HETATM    5  F5  UNL     1     -43.417   7.759   1.363  1.00 20.00    -0.224 F 
HETATM    6 CL10 UNL     1     -41.478   9.134   0.408  1.00 20.00    -0.081 Cl
ENDBRANCH   1   3
BRANCH   1   7
HETATM    7  C4  UNL     1     -41.318   5.891  -1.032  1.00 20.00     0.408 C 
HETATM    8  F6  UNL     1     -40.795   6.884  -1.782  1.00 20.00    -0.169 F 
HETATM    9  F7  UNL     1     -40.369   4.934  -0.899  1.00 20.00    -0.169 F 
HETATM   10  F8  UNL     1     -42.329   5.335  -1.734  1.00 20.00    -0.169 F 
ENDBRANCH   1   7
TORSDOF 2
ENDMDL
MODEL 8
REMARK VINA RESULT:      -4.0     11.650     12.433
REMARK  2 active torsions:
REMARK  status: ('A' for Active; 'I' for Inactive)
REMARK    1  A    between atoms: C2_2  and  C3_3 
REMARK    2  A    between atoms: C2_2  and  C4_4 
ROOT
HETATM    1  C2  UNL     1     -34.606  15.196  -4.345  1.00 20.00     0.244 C 
HETATM    2 CL9  UNL     1     -32.978  14.441  -4.503  1.00 20.00    -0.111 Cl
ENDROOT
BRANCH   1   3
HETATM    3  C3  UNL     1     -34.662  16.104  -3.097  1.00 20.00     0.200 C 
HETATM    4  C1  UNL     1     -35.587  17.308  -3.250  1.00 20.00     0.072 C 
HETATM    5  F5  UNL     1     -35.109  15.369  -2.038  1.00 20.00    -0.224 F 
HETATM    6 CL10 UNL     1     -33.033  16.728  -2.677  1.00 20.00    -0.081 Cl
ENDBRANCH   1   3
BRANCH   1   7
HETATM    7  C4  UNL     1     -35.625  14.062  -4.351  1.00 20.00     0.408 C 
HETATM    8  F6  UNL     1     -36.752  14.398  -3.687  1.00 20.00    -0.169 F 
HETATM    9  F7  UNL     1     -35.978  13.734  -5.616  1.00 20.00    -0.169 F 
HETATM   10  F8  UNL     1     -35.135  12.939  -3.785  1.00 20.00    -0.169 F 
ENDBRANCH   1   7
TORSDOF 2
ENDMDL
MODEL 9
REMARK VINA RESULT:      -4.0      9.085      9.556
REMARK  2 active torsions:
REMARK  status: ('A' for Active; 'I' for Inactive)
REMARK    1  A    between atoms: C2_2  and  C3_3 
REMARK    2  A    between atoms: C2_2  and  C4_4 
ROOT
HETATM    1  C2  UNL     1     -41.881   6.937   0.437  1.00 20.00     0.244 C 
HETATM    2 CL9  UNL     1     -43.404   6.923   1.400  1.00 20.00    -0.111 Cl
ENDROOT
BRANCH   1   3
HETATM    3  C3  UNL     1     -41.799   8.215  -0.427  1.00 20.00     0.200 C 
HETATM    4  C1  UNL     1     -41.224   9.422   0.309  1.00 20.00     0.072 C 
HETATM    5  F5  UNL     1     -41.000   7.966  -1.505  1.00 20.00    -0.224 F 
HETATM    6 CL10 UNL     1     -43.417   8.682  -1.045  1.00 20.00    -0.081 Cl
ENDBRANCH   1   3
BRANCH   1   7
HETATM    7  C4  UNL     1     -41.842   5.633  -0.353  1.00 20.00     0.408 C 
HETATM    8  F6  UNL     1     -42.282   4.589   0.383  1.00 20.00    -0.169 F 
HETATM    9  F7  UNL     1     -42.619   5.711  -1.458  1.00 20.00    -0.169 F 
HETATM   10  F8  UNL     1     -40.595   5.338  -0.779  1.00 20.00    -0.169 F 
ENDBRANCH   1   7
TORSDOF 2
ENDMDL
