MODEL 1
REMARK VINA RESULT:      -4.9      0.000      0.000
REMARK  1 active torsions:
REMARK  status: ('A' for Active; 'I' for Inactive)
REMARK    1  A    between atoms: C7_7  and  O9_9 
ROOT
HETATM    1  C1  UNL     1     -33.954   4.982   3.130  1.00 20.00    -0.019 A 
HETATM    2  C2  UNL     1     -33.374   6.195   3.231  1.00 20.00    -0.080 A 
HETATM    3  C3  UNL     1     -34.949   4.666   5.514  1.00 20.00     0.012 C 
HETATM    4  C4  UNL     1     -33.819   5.417   6.208  1.00 20.00     0.033 C 
HETATM    5  C5  UNL     1     -35.050   5.303   4.126  1.00 20.00     0.019 A 
HETATM    6  C6  UNL     1     -34.400   6.704   4.236  1.00 20.00     0.050 A 
HETATM    7  C7  UNL     1     -33.986   6.847   5.703  1.00 20.00     0.127 C 
HETATM    8  C8  UNL     1     -32.139   6.839   2.572  1.00 20.00     0.043 C 
ENDROOT
BRANCH   7   9
HETATM    9  O9  UNL     1     -32.786   7.589   5.816  1.00 20.00    -0.395 OA
HETATM   10  H21 UNL     1     -32.344   7.549   4.951  1.00 20.00     0.210 HD
ENDBRANCH   7   9
TORSDOF 1
ENDMDL
MODEL 2
REMARK VINA RESULT:      -4.7      1.309      1.553
REMARK  1 active torsions:
REMARK  status: ('A' for Active; 'I' for Inactive)
REMARK    1  A    between atoms: C7_7  and  O9_9 
ROOT
HETATM    1  C1  UNL     1     -34.516   4.120   4.237  1.00 20.00    -0.019 A 
HETATM    2  C2  UNL     1     -33.871   4.823   3.284  1.00 20.00    -0.080 A 
HETATM    3  C3  UNL     1     -34.719   5.876   6.148  1.00 20.00     0.012 C 
HETATM    4  C4  UNL     1     -33.389   6.547   5.826  1.00 20.00     0.033 C 
HETATM    5  C5  UNL     1     -35.221   5.334   4.807  1.00 20.00     0.019 A 
HETATM    6  C6  UNL     1     -34.497   6.147   3.706  1.00 20.00     0.050 A 
HETATM    7  C7  UNL     1     -33.632   7.165   4.453  1.00 20.00     0.127 C 
HETATM    8  C8  UNL     1     -32.877   4.438   2.172  1.00 20.00     0.043 C 
ENDROOT
BRANCH   7   9
HETATM    9  O9  UNL     1     -32.421   7.400   3.759  1.00 20.00    -0.395 OA
HETATM   10  H21 UNL     1     -31.699   7.290   4.401  1.00 20.00     0.210 HD
ENDBRANCH   7   9
TORSDOF 1
ENDMDL
MODEL 3
REMARK VINA RESULT:      -4.5     15.786     16.632
REMARK  1 active torsions:
REMARK  status: ('A' for Active; 'I' for Inactive)
REMARK    1  A    between atoms: C7_7  and  O9_9 
ROOT
HETATM    1  C1  UNL     1     -22.801  18.580   9.514  1.00 20.00    -0.019 A 
HETATM    2  C2  UNL     1     -24.090  18.299   9.234  1.00 20.00    -0.080 A 
HETATM    3  C3  UNL     1     -22.575  17.684  11.947  1.00 20.00     0.012 C 
HETATM    4  C4  UNL     1     -24.006  18.040  12.331  1.00 20.00     0.033 C 
HETATM    5  C5  UNL     1     -22.631  17.397  10.444  1.00 20.00     0.019 A 
HETATM    6  C6  UNL     1     -24.106  17.057  10.116  1.00 20.00     0.050 A 
HETATM    7  C7  UNL     1     -24.845  17.114  11.456  1.00 20.00     0.127 C 
HETATM    8  C8  UNL     1     -25.154  18.972   8.346  1.00 20.00     0.043 C 
ENDROOT
BRANCH   7   9
HETATM    9  O9  UNL     1     -26.162  17.605  11.282  1.00 20.00    -0.395 OA
HETATM   10  H21 UNL     1     -26.360  17.557  10.331  1.00 20.00     0.210 HD
ENDBRANCH   7   9
TORSDOF 1
ENDMDL
MODEL 4
REMARK VINA RESULT:      -4.4     12.131     13.209
REMARK  1 active torsions:
REMARK  status: ('A' for Active; 'I' for Inactive)
REMARK    1  A    between atoms: C7_7  and  O9_9 
ROOT
HETATM    1  C1  UNL     1     -34.849  15.255  -2.884  1.00 20.00    -0.019 A 
HETATM    2  C2  UNL     1     -33.829  15.852  -3.533  1.00 20.00    -0.080 A 
HETATM    3  C3  UNL     1     -36.029  13.969  -4.816  1.00 20.00     0.012 C 
HETATM    4  C4  UNL     1     -35.711  15.026  -5.866  1.00 20.00     0.033 C 
HETATM    5  C5  UNL     1     -34.879  14.056  -3.809  1.00 20.00     0.019 A 
HETATM    6  C6  UNL     1     -33.695  14.726  -4.550  1.00 20.00     0.050 A 
HETATM    7  C7  UNL     1     -34.191  14.962  -5.979  1.00 20.00     0.127 C 
HETATM    8  C8  UNL     1     -33.069  17.175  -3.323  1.00 20.00     0.043 C 
ENDROOT
BRANCH   7   9
HETATM    9  O9  UNL     1     -33.651  16.159  -6.506  1.00 20.00    -0.395 OA
HETATM   10  H21 UNL     1     -32.848  16.358  -5.997  1.00 20.00     0.210 HD
ENDBRANCH   7   9
TORSDOF 1
ENDMDL
MODEL 5
REMARK VINA RESULT:      -4.3      8.909      9.849
REMARK  1 active torsions:
REMARK  status: ('A' for Active; 'I' for Inactive)
REMARK    1  A    between atoms: C7_7  and  O9_9 
ROOT
HETATM    1  C1  UNL     1     -43.282   7.273   1.104  1.00 20.00    -0.019 A 
HETATM    2  C2  UNL     1     -42.149   7.825   0.626  1.00 20.00    -0.080 A 
HETATM    3  C3  UNL     1     -43.300   4.966  -0.102  1.00 20.00     0.012 C 
HETATM    4  C4  UNL     1     -42.651   5.499  -1.374  1.00 20.00     0.033 C 
HETATM    5  C5  UNL     1     -42.755   5.855   1.019  1.00 20.00     0.019 A 
HETATM    6  C6  UNL     1     -41.444   6.482   0.486  1.00 20.00     0.050 A 
HETATM    7  C7  UNL     1     -41.251   5.894  -0.914  1.00 20.00     0.127 C 
HETATM    8  C8  UNL     1     -41.715   9.275   0.338  1.00 20.00     0.043 C 
ENDROOT
BRANCH   7   9
HETATM    9  O9  UNL     1     -40.661   6.846  -1.781  1.00 20.00    -0.395 OA
HETATM   10  H21 UNL     1     -40.529   7.658  -1.264  1.00 20.00     0.210 HD
ENDBRANCH   7   9
TORSDOF 1
ENDMDL
MODEL 6
REMARK VINA RESULT:      -4.3     15.275     16.257
REMARK  1 active torsions:
REMARK  status: ('A' for Active; 'I' for Inactive)
REMARK    1  A    between atoms: C7_7  and  O9_9 
ROOT
HETATM    1  C1  UNL     1     -25.722  18.813  10.663  1.00 20.00    -0.019 A 
HETATM    2  C2  UNL     1     -24.706  18.689   9.786  1.00 20.00    -0.080 A 
HETATM    3  C3  UNL     1     -25.227  16.876  12.330  1.00 20.00     0.012 C 
HETATM    4  C4  UNL     1     -24.650  15.954  11.262  1.00 20.00     0.033 C 
HETATM    5  C5  UNL     1     -24.918  18.291  11.836  1.00 20.00     0.019 A 
HETATM    6  C6  UNL     1     -23.739  18.162  10.840  1.00 20.00     0.050 A 
HETATM    7  C7  UNL     1     -23.378  16.674  10.828  1.00 20.00     0.127 C 
HETATM    8  C8  UNL     1     -24.562  18.981   8.280  1.00 20.00     0.043 C 
ENDROOT
BRANCH   7   9
HETATM    9  O9  UNL     1     -22.958  16.270   9.537  1.00 20.00    -0.395 OA
HETATM   10  H21 UNL     1     -22.045  16.583   9.424  1.00 20.00     0.210 HD
ENDBRANCH   7   9
TORSDOF 1
ENDMDL
MODEL 7
REMARK VINA RESULT:      -4.3      1.703      2.882
REMARK  1 active torsions:
REMARK  status: ('A' for Active; 'I' for Inactive)
REMARK    1  A    between atoms: C7_7  and  O9_9 
ROOT
HETATM    1  C1  UNL     1     -32.609   6.886   3.850  1.00 20.00    -0.019 A 
HETATM    2  C2  UNL     1     -33.571   6.901   4.794  1.00 20.00    -0.080 A 
HETATM    3  C3  UNL     1     -33.268   4.791   2.452  1.00 20.00     0.012 C 
HETATM    4  C4  UNL     1     -33.804   4.019   3.652  1.00 20.00     0.033 C 
HETATM    5  C5  UNL     1     -33.502   6.264   2.796  1.00 20.00     0.019 A 
HETATM    6  C6  UNL     1     -34.618   6.294   3.868  1.00 20.00     0.050 A 
HETATM    7  C7  UNL     1     -35.024   4.832   4.074  1.00 20.00     0.127 C 
HETATM    8  C8  UNL     1     -33.610   7.369   6.261  1.00 20.00     0.043 C 
ENDROOT
BRANCH   7   9
HETATM    9  O9  UNL     1     -35.373   4.594   5.426  1.00 20.00    -0.395 OA
HETATM   10  H21 UNL     1     -34.608   4.167   5.846  1.00 20.00     0.210 HD
ENDBRANCH   7   9
TORSDOF 1
ENDMDL
MODEL 8
REMARK VINA RESULT:      -4.3     11.945     12.888
REMARK  1 active torsions:
REMARK  status: ('A' for Active; 'I' for Inactive)
REMARK    1  A    between atoms: C7_7  and  O9_9 
ROOT
HETATM    1  C1  UNL     1     -36.448  15.315  -3.790  1.00 20.00    -0.019 A 
HETATM    2  C2  UNL     1     -35.307  15.375  -3.074  1.00 20.00    -0.080 A 
HETATM    3  C3  UNL     1     -35.581  14.514  -6.110  1.00 20.00     0.012 C 
HETATM    4  C4  UNL     1     -34.256  15.259  -5.998  1.00 20.00     0.033 C 
HETATM    5  C5  UNL     1     -35.966  14.178  -4.667  1.00 20.00     0.019 A 
HETATM    6  C6  UNL     1     -34.658  14.228  -3.839  1.00 20.00     0.050 A 
HETATM    7  C7  UNL     1     -33.551  14.549  -4.847  1.00 20.00     0.127 C 
HETATM    8  C8  UNL     1     -34.832  16.262  -1.908  1.00 20.00     0.043 C 
ENDROOT
BRANCH   7   9
HETATM    9  O9  UNL     1     -32.555  15.364  -4.256  1.00 20.00    -0.395 OA
HETATM   10  H21 UNL     1     -31.819  14.779  -4.007  1.00 20.00     0.210 HD
ENDBRANCH   7   9
TORSDOF 1
ENDMDL
MODEL 9
REMARK VINA RESULT:      -4.2     15.945     16.835
REMARK  1 active torsions:
REMARK  status: ('A' for Active; 'I' for Inactive)
REMARK    1  A    between atoms: C7_7  and  O9_9 
ROOT
HETATM    1  C1  UNL     1     -25.004  19.213   9.570  1.00 20.00    -0.019 A 
HETATM    2  C2  UNL     1     -25.280  18.540  10.705  1.00 20.00    -0.080 A 
HETATM    3  C3  UNL     1     -22.661  18.267   8.945  1.00 20.00     0.012 C 
HETATM    4  C4  UNL     1     -22.219  18.097  10.393  1.00 20.00     0.033 C 
HETATM    5  C5  UNL     1     -24.181  18.089   8.975  1.00 20.00     0.019 A 
HETATM    6  C6  UNL     1     -24.507  17.302  10.268  1.00 20.00     0.050 A 
HETATM    7  C7  UNL     1     -23.152  17.011  10.920  1.00 20.00     0.127 C 
HETATM    8  C8  UNL     1     -26.086  18.883  11.973  1.00 20.00     0.043 C 
ENDROOT
BRANCH   7   9
HETATM    9  O9  UNL     1     -23.257  17.046  12.331  1.00 20.00    -0.395 OA
HETATM   10  H21 UNL     1     -23.981  16.446  12.578  1.00 20.00     0.210 HD
ENDBRANCH   7   9
TORSDOF 1
ENDMDL
