MODEL 1
REMARK VINA RESULT:      -4.5      0.000      0.000
REMARK  0 active torsions:
REMARK  status: ('A' for Active; 'I' for Inactive)
ROOT
HETATM    1  C1  UNL     1     -24.665  18.152   9.903  1.00 20.00     0.014 C 
HETATM    2  C2  UNL     1     -22.910  17.900  11.710  1.00 20.00     0.014 C 
HETATM    3  C3  UNL     1     -23.511  17.940   8.960  1.00 20.00    -0.004 A 
HETATM    4  C4  UNL     1     -21.962  17.717  10.555  1.00 20.00    -0.004 A 
HETATM    5  C5  UNL     1     -22.394  17.014   9.311  1.00 20.00    -0.001 A 
HETATM    6  C6  UNL     1     -22.186  18.523   9.320  1.00 20.00    -0.001 A 
HETATM    7  C7  UNL     1     -24.382  17.614  11.326  1.00 20.00    -0.046 C 
HETATM    8  C8  UNL     1     -24.667  16.098  11.392  1.00 20.00     0.015 C 
HETATM    9  C9  UNL     1     -25.317  18.310  12.332  1.00 20.00     0.015 C 
ENDROOT
TORSDOF 0
ENDMDL
MODEL 2
REMARK VINA RESULT:      -4.4     23.160     24.299
REMARK  0 active torsions:
REMARK  status: ('A' for Active; 'I' for Inactive)
ROOT
HETATM    1  C1  UNL     1     -43.101   6.759  -1.440  1.00 20.00     0.014 C 
HETATM    2  C2  UNL     1     -42.097   6.362   0.850  1.00 20.00     0.014 C 
HETATM    3  C3  UNL     1     -42.477   8.122  -1.314  1.00 20.00    -0.004 A 
HETATM    4  C4  UNL     1     -41.590   7.773   0.707  1.00 20.00    -0.004 A 
HETATM    5  C5  UNL     1     -41.168   8.307  -0.621  1.00 20.00    -0.001 A 
HETATM    6  C6  UNL     1     -42.463   8.774   0.028  1.00 20.00    -0.001 A 
HETATM    7  C7  UNL     1     -42.442   5.711  -0.511  1.00 20.00    -0.046 C 
HETATM    8  C8  UNL     1     -41.168   5.138  -1.168  1.00 20.00     0.015 C 
HETATM    9  C9  UNL     1     -43.417   4.542  -0.285  1.00 20.00     0.015 C 
ENDROOT
TORSDOF 0
ENDMDL
MODEL 3
REMARK VINA RESULT:      -4.4      1.049      2.231
REMARK  0 active torsions:
REMARK  status: ('A' for Active; 'I' for Inactive)
ROOT
HETATM    1  C1  UNL     1     -23.135  16.666   9.542  1.00 20.00     0.014 C 
HETATM    2  C2  UNL     1     -24.922  18.219  10.438  1.00 20.00     0.014 C 
HETATM    3  C3  UNL     1     -22.874  17.776   8.559  1.00 20.00    -0.004 A 
HETATM    4  C4  UNL     1     -24.451  19.147   9.350  1.00 20.00    -0.004 A 
HETATM    5  C5  UNL     1     -23.011  19.206   8.962  1.00 20.00    -0.001 A 
HETATM    6  C6  UNL     1     -24.037  18.556   8.045  1.00 20.00    -0.001 A 
HETATM    7  C7  UNL     1     -23.863  17.155  10.817  1.00 20.00    -0.046 C 
HETATM    8  C8  UNL     1     -22.849  17.743  11.820  1.00 20.00     0.015 C 
HETATM    9  C9  UNL     1     -24.558  15.962  11.498  1.00 20.00     0.015 C 
ENDROOT
TORSDOF 0
ENDMDL
MODEL 4
REMARK VINA RESULT:      -4.3      0.999      3.186
REMARK  0 active torsions:
REMARK  status: ('A' for Active; 'I' for Inactive)
ROOT
HETATM    1  C1  UNL     1     -23.753  16.630   9.542  1.00 20.00     0.014 C 
HETATM    2  C2  UNL     1     -21.882  17.931  10.644  1.00 20.00     0.014 C 
HETATM    3  C3  UNL     1     -24.367  16.637  10.916  1.00 20.00    -0.004 A 
HETATM    4  C4  UNL     1     -22.716  17.785  11.889  1.00 20.00    -0.004 A 
HETATM    5  C5  UNL     1     -24.206  17.811  11.823  1.00 20.00    -0.001 A 
HETATM    6  C6  UNL     1     -23.463  16.511  12.097  1.00 20.00    -0.001 A 
HETATM    7  C7  UNL     1     -22.709  17.756   9.348  1.00 20.00    -0.046 C 
HETATM    8  C8  UNL     1     -23.411  19.080   8.978  1.00 20.00     0.015 C 
HETATM    9  C9  UNL     1     -21.768  17.386   8.187  1.00 20.00     0.015 C 
ENDROOT
TORSDOF 0
ENDMDL
MODEL 5
REMARK VINA RESULT:      -4.3     23.482     24.681
REMARK  0 active torsions:
REMARK  status: ('A' for Active; 'I' for Inactive)
ROOT
HETATM    1  C1  UNL     1     -41.210   5.625  -0.643  1.00 20.00     0.014 C 
HETATM    2  C2  UNL     1     -43.368   6.727  -1.376  1.00 20.00     0.014 C 
HETATM    3  C3  UNL     1     -40.924   6.954   0.003  1.00 20.00    -0.004 A 
HETATM    4  C4  UNL     1     -42.828   7.928  -0.644  1.00 20.00    -0.004 A 
HETATM    5  C5  UNL     1     -42.021   7.769   0.602  1.00 20.00    -0.001 A 
HETATM    6  C6  UNL     1     -41.361   8.194  -0.703  1.00 20.00    -0.001 A 
HETATM    7  C7  UNL     1     -42.718   5.402  -0.910  1.00 20.00    -0.046 C 
HETATM    8  C8  UNL     1     -43.417   4.882   0.364  1.00 20.00     0.015 C 
HETATM    9  C9  UNL     1     -42.891   4.336  -2.007  1.00 20.00     0.015 C 
ENDROOT
TORSDOF 0
ENDMDL
MODEL 6
REMARK VINA RESULT:      -4.2     16.728     17.997
REMARK  0 active torsions:
REMARK  status: ('A' for Active; 'I' for Inactive)
ROOT
HETATM    1  C1  UNL     1     -32.989  15.718  -3.597  1.00 20.00     0.014 C 
HETATM    2  C2  UNL     1     -35.266  15.994  -2.526  1.00 20.00     0.014 C 
HETATM    3  C3  UNL     1     -33.686  14.707  -4.468  1.00 20.00    -0.004 A 
HETATM    4  C4  UNL     1     -35.696  14.950  -3.523  1.00 20.00    -0.004 A 
HETATM    5  C5  UNL     1     -35.103  14.905  -4.892  1.00 20.00    -0.001 A 
HETATM    6  C6  UNL     1     -34.743  13.851  -3.854  1.00 20.00    -0.001 A 
HETATM    7  C7  UNL     1     -33.969  16.725  -2.948  1.00 20.00    -0.046 C 
HETATM    8  C8  UNL     1     -34.295  17.867  -3.935  1.00 20.00     0.015 C 
HETATM    9  C9  UNL     1     -33.310  17.353  -1.707  1.00 20.00     0.015 C 
ENDROOT
TORSDOF 0
ENDMDL
MODEL 7
REMARK VINA RESULT:      -4.2     17.823     19.046
REMARK  0 active torsions:
REMARK  status: ('A' for Active; 'I' for Inactive)
ROOT
HETATM    1  C1  UNL     1     -35.204  16.490  -4.560  1.00 20.00     0.014 C 
HETATM    2  C2  UNL     1     -34.418  14.228  -3.741  1.00 20.00     0.014 C 
HETATM    3  C3  UNL     1     -36.395  15.725  -5.073  1.00 20.00    -0.004 A 
HETATM    4  C4  UNL     1     -35.702  13.728  -4.350  1.00 20.00    -0.004 A 
HETATM    5  C5  UNL     1     -36.941  14.559  -4.319  1.00 20.00    -0.001 A 
HETATM    6  C6  UNL     1     -36.175  14.354  -5.619  1.00 20.00    -0.001 A 
HETATM    7  C7  UNL     1     -34.455  15.743  -3.431  1.00 20.00    -0.046 C 
HETATM    8  C8  UNL     1     -35.144  15.995  -2.073  1.00 20.00     0.015 C 
HETATM    9  C9  UNL     1     -33.015  16.279  -3.331  1.00 20.00     0.015 C 
ENDROOT
TORSDOF 0
ENDMDL
MODEL 8
REMARK VINA RESULT:      -4.1      0.829      2.140
REMARK  0 active torsions:
REMARK  status: ('A' for Active; 'I' for Inactive)
ROOT
HETATM    1  C1  UNL     1     -22.638  17.427  11.607  1.00 20.00     0.014 C 
HETATM    2  C2  UNL     1     -23.781  16.520   9.538  1.00 20.00     0.014 C 
HETATM    3  C3  UNL     1     -21.758  18.149  10.623  1.00 20.00    -0.004 A 
HETATM    4  C4  UNL     1     -22.766  17.350   8.797  1.00 20.00    -0.004 A 
HETATM    5  C5  UNL     1     -22.307  18.664   9.334  1.00 20.00    -0.001 A 
HETATM    6  C6  UNL     1     -21.387  17.451   9.358  1.00 20.00    -0.001 A 
HETATM    7  C7  UNL     1     -23.993  16.999  10.995  1.00 20.00    -0.046 C 
HETATM    8  C8  UNL     1     -24.993  18.174  11.032  1.00 20.00     0.015 C 
HETATM    9  C9  UNL     1     -24.591  15.850  11.828  1.00 20.00     0.015 C 
ENDROOT
TORSDOF 0
ENDMDL
MODEL 9
REMARK VINA RESULT:      -4.1     16.685     17.905
REMARK  0 active torsions:
REMARK  status: ('A' for Active; 'I' for Inactive)
ROOT
HETATM    1  C1  UNL     1     -33.318  16.268  -2.786  1.00 20.00     0.014 C 
HETATM    2  C2  UNL     1     -35.586  15.173  -3.040  1.00 20.00     0.014 C 
HETATM    3  C3  UNL     1     -32.966  15.485  -4.023  1.00 20.00    -0.004 A 
HETATM    4  C4  UNL     1     -34.968  14.519  -4.248  1.00 20.00    -0.004 A 
HETATM    5  C5  UNL     1     -33.978  15.247  -5.094  1.00 20.00    -0.001 A 
HETATM    6  C6  UNL     1     -33.534  14.114  -4.179  1.00 20.00    -0.001 A 
HETATM    7  C7  UNL     1     -34.843  16.462  -2.614  1.00 20.00    -0.046 C 
HETATM    8  C8  UNL     1     -35.328  17.662  -3.456  1.00 20.00     0.015 C 
HETATM    9  C9  UNL     1     -35.157  16.768  -1.139  1.00 20.00     0.015 C 
ENDROOT
TORSDOF 0
ENDMDL
