MODEL 1
REMARK VINA RESULT:      -5.3      0.000      0.000
REMARK  0 active torsions:
REMARK  status: ('A' for Active; 'I' for Inactive)
ROOT
HETATM    1  C1  UNL     1     -22.570  17.771  11.283  1.00 20.00     0.131 C 
HETATM    2  C2  UNL     1     -22.221  17.800   9.764  1.00 20.00     0.083 C 
HETATM    3  C3  UNL     1     -25.021  18.548  12.326  1.00 20.00     0.013 C 
HETATM    4  C4  UNL     1     -26.216  18.878  11.344  1.00 20.00     0.006 C 
HETATM    5  C5  UNL     1     -24.169  18.884   8.044  1.00 20.00     0.006 C 
HETATM    6  C6  UNL     1     -25.633  19.262   8.602  1.00 20.00     0.005 C 
HETATM    7  C7  UNL     1     -24.078  17.662  11.508  1.00 20.00     0.060 C 
HETATM    8  C8  UNL     1     -23.367  18.672   9.332  1.00 20.00    -0.002 C 
HETATM    9  C9  UNL     1     -25.419  19.219  10.115  1.00 20.00    -0.009 C 
HETATM   10  C10 UNL     1     -24.482  18.046  10.120  1.00 20.00     0.005 C 
HETATM   11  O11 UNL     1     -21.737  17.761  12.180  1.00 20.00    -0.298 OA
ENDROOT
TORSDOF 0
ENDMDL
MODEL 2
REMARK VINA RESULT:      -5.2      1.686      3.226
REMARK  0 active torsions:
REMARK  status: ('A' for Active; 'I' for Inactive)
ROOT
HETATM    1  C1  UNL     1     -23.815  18.332   8.222  1.00 20.00     0.131 C 
HETATM    2  C2  UNL     1     -25.259  18.914   8.320  1.00 20.00     0.083 C 
HETATM    3  C3  UNL     1     -22.348  17.452  10.408  1.00 20.00     0.013 C 
HETATM    4  C4  UNL     1     -23.044  17.356  11.825  1.00 20.00     0.006 C 
HETATM    5  C5  UNL     1     -26.317  19.234  10.908  1.00 20.00     0.006 C 
HETATM    6  C6  UNL     1     -25.531  18.654  12.191  1.00 20.00     0.005 C 
HETATM    7  C7  UNL     1     -23.503  17.412   9.404  1.00 20.00     0.060 C 
HETATM    8  C8  UNL     1     -25.259  19.150   9.804  1.00 20.00    -0.002 C 
HETATM    9  C9  UNL     1     -24.151  18.351  11.609  1.00 20.00    -0.009 C 
HETATM   10  C10 UNL     1     -24.633  17.867  10.272  1.00 20.00     0.005 C 
HETATM   11  O11 UNL     1     -23.057  18.527   7.283  1.00 20.00    -0.298 OA
ENDROOT
TORSDOF 0
ENDMDL
MODEL 3
REMARK VINA RESULT:      -4.9     17.402     18.934
REMARK  0 active torsions:
REMARK  status: ('A' for Active; 'I' for Inactive)
ROOT
HETATM    1  C1  UNL     1     -37.202  14.446  -4.419  1.00 20.00     0.131 C 
HETATM    2  C2  UNL     1     -35.994  13.567  -4.866  1.00 20.00     0.083 C 
HETATM    3  C3  UNL     1     -36.947  16.885  -3.119  1.00 20.00     0.013 C 
HETATM    4  C4  UNL     1     -35.515  17.536  -2.960  1.00 20.00     0.006 C 
HETATM    5  C5  UNL     1     -33.434  14.471  -4.122  1.00 20.00     0.006 C 
HETATM    6  C6  UNL     1     -33.243  15.921  -3.445  1.00 20.00     0.005 C 
HETATM    7  C7  UNL     1     -36.806  15.918  -4.298  1.00 20.00     0.060 C 
HETATM    8  C8  UNL     1     -34.949  14.262  -4.038  1.00 20.00    -0.002 C 
HETATM    9  C9  UNL     1     -34.678  16.292  -3.073  1.00 20.00    -0.009 C 
HETATM   10  C10 UNL     1     -35.328  15.694  -4.288  1.00 20.00     0.005 C 
HETATM   11  O11 UNL     1     -38.339  14.024  -4.260  1.00 20.00    -0.298 OA
ENDROOT
TORSDOF 0
ENDMDL
MODEL 4
REMARK VINA RESULT:      -4.9      1.778      3.060
REMARK  0 active torsions:
REMARK  status: ('A' for Active; 'I' for Inactive)
ROOT
HETATM    1  C1  UNL     1     -22.627  17.969   8.267  1.00 20.00     0.131 C 
HETATM    2  C2  UNL     1     -21.841  17.286   9.427  1.00 20.00     0.083 C 
HETATM    3  C3  UNL     1     -25.136  19.118   8.562  1.00 20.00     0.013 C 
HETATM    4  C4  UNL     1     -25.761  19.263  10.008  1.00 20.00     0.006 C 
HETATM    5  C5  UNL     1     -23.170  17.074  11.899  1.00 20.00     0.006 C 
HETATM    6  C6  UNL     1     -24.588  17.805  12.130  1.00 20.00     0.005 C 
HETATM    7  C7  UNL     1     -23.629  18.994   8.800  1.00 20.00     0.060 C 
HETATM    8  C8  UNL     1     -22.996  17.159  10.379  1.00 20.00    -0.002 C 
HETATM    9  C9  UNL     1     -24.995  18.171  10.704  1.00 20.00    -0.009 C 
HETATM   10  C10 UNL     1     -23.617  18.517  10.218  1.00 20.00     0.005 C 
HETATM   11  O11 UNL     1     -22.417  17.766   7.079  1.00 20.00    -0.298 OA
ENDROOT
TORSDOF 0
ENDMDL
MODEL 5
REMARK VINA RESULT:      -4.8     17.206     18.664
REMARK  0 active torsions:
REMARK  status: ('A' for Active; 'I' for Inactive)
ROOT
HETATM    1  C1  UNL     1     -36.114  13.973  -4.592  1.00 20.00     0.131 C 
HETATM    2  C2  UNL     1     -37.315  14.804  -4.048  1.00 20.00     0.083 C 
HETATM    3  C3  UNL     1     -33.454  14.697  -4.267  1.00 20.00     0.013 C 
HETATM    4  C4  UNL     1     -33.090  15.921  -3.334  1.00 20.00     0.006 C 
HETATM    5  C5  UNL     1     -36.698  17.266  -2.831  1.00 20.00     0.006 C 
HETATM    6  C6  UNL     1     -35.165  17.676  -2.548  1.00 20.00     0.005 C 
HETATM    7  C7  UNL     1     -34.838  14.246  -3.793  1.00 20.00     0.060 C 
HETATM    8  C8  UNL     1     -36.552  16.070  -3.777  1.00 20.00    -0.002 C 
HETATM    9  C9  UNL     1     -34.400  16.657  -3.391  1.00 20.00    -0.009 C 
HETATM   10  C10 UNL     1     -35.320  15.499  -3.133  1.00 20.00     0.005 C 
HETATM   11  O11 UNL     1     -36.197  13.151  -5.494  1.00 20.00    -0.298 OA
ENDROOT
TORSDOF 0
ENDMDL
MODEL 6
REMARK VINA RESULT:      -4.7     16.461     17.008
REMARK  0 active torsions:
REMARK  status: ('A' for Active; 'I' for Inactive)
ROOT
HETATM    1  C1  UNL     1     -34.145   4.307   3.583  1.00 20.00     0.131 C 
HETATM    2  C2  UNL     1     -33.378   4.896   2.360  1.00 20.00     0.083 C 
HETATM    3  C3  UNL     1     -34.458   5.630   6.002  1.00 20.00     0.013 C 
HETATM    4  C4  UNL     1     -33.998   7.138   6.129  1.00 20.00     0.006 C 
HETATM    5  C5  UNL     1     -32.103   7.375   2.748  1.00 20.00     0.006 C 
HETATM    6  C6  UNL     1     -32.335   8.211   4.106  1.00 20.00     0.005 C 
HETATM    7  C7  UNL     1     -34.667   5.412   4.501  1.00 20.00     0.060 C 
HETATM    8  C8  UNL     1     -32.678   6.000   3.101  1.00 20.00    -0.002 C 
HETATM    9  C9  UNL     1     -32.989   7.170   5.014  1.00 20.00    -0.009 C 
HETATM   10  C10 UNL     1     -33.811   6.507   3.947  1.00 20.00     0.005 C 
HETATM   11  O11 UNL     1     -34.366   3.115   3.747  1.00 20.00    -0.298 OA
ENDROOT
TORSDOF 0
ENDMDL
MODEL 7
REMARK VINA RESULT:      -4.7     12.892     14.757
REMARK  0 active torsions:
REMARK  status: ('A' for Active; 'I' for Inactive)
ROOT
HETATM    1  C1  UNL     1     -31.679  18.397  -0.504  1.00 20.00     0.131 C 
HETATM    2  C2  UNL     1     -32.390  18.962   0.763  1.00 20.00     0.083 C 
HETATM    3  C3  UNL     1     -32.957  16.899  -2.460  1.00 20.00     0.013 C 
HETATM    4  C4  UNL     1     -34.529  16.736  -2.412  1.00 20.00     0.006 C 
HETATM    5  C5  UNL     1     -35.085  18.236   1.126  1.00 20.00     0.006 C 
HETATM    6  C6  UNL     1     -35.881  17.443  -0.029  1.00 20.00     0.005 C 
HETATM    7  C7  UNL     1     -32.672  18.162  -1.643  1.00 20.00     0.060 C 
HETATM    8  C8  UNL     1     -33.628  18.116   0.669  1.00 20.00    -0.002 C 
HETATM    9  C9  UNL     1     -34.746  16.988  -0.945  1.00 20.00    -0.009 C 
HETATM   10  C10 UNL     1     -33.908  18.226  -0.803  1.00 20.00     0.005 C 
HETATM   11  O11 UNL     1     -30.470  18.234  -0.600  1.00 20.00    -0.298 OA
ENDROOT
TORSDOF 0
ENDMDL
MODEL 8
REMARK VINA RESULT:      -4.7     16.909     18.653
REMARK  0 active torsions:
REMARK  status: ('A' for Active; 'I' for Inactive)
ROOT
HETATM    1  C1  UNL     1     -35.632  13.894  -4.388  1.00 20.00     0.131 C 
HETATM    2  C2  UNL     1     -34.196  14.210  -3.868  1.00 20.00     0.083 C 
HETATM    3  C3  UNL     1     -37.784  15.630  -4.149  1.00 20.00     0.013 C 
HETATM    4  C4  UNL     1     -37.542  17.101  -3.620  1.00 20.00     0.006 C 
HETATM    5  C5  UNL     1     -33.870  16.621  -2.453  1.00 20.00     0.006 C 
HETATM    6  C6  UNL     1     -35.072  17.691  -2.371  1.00 20.00     0.005 C 
HETATM    7  C7  UNL     1     -36.418  15.175  -4.670  1.00 20.00     0.060 C 
HETATM    8  C8  UNL     1     -34.573  15.371  -2.991  1.00 20.00    -0.002 C 
HETATM    9  C9  UNL     1     -36.264  16.869  -2.861  1.00 20.00    -0.009 C 
HETATM   10  C10 UNL     1     -35.518  16.095  -3.908  1.00 20.00     0.005 C 
HETATM   11  O11 UNL     1     -36.050  12.767  -4.613  1.00 20.00    -0.298 OA
ENDROOT
TORSDOF 0
ENDMDL
MODEL 9
REMARK VINA RESULT:      -4.6     17.250     19.052
REMARK  0 active torsions:
REMARK  status: ('A' for Active; 'I' for Inactive)
ROOT
HETATM    1  C1  UNL     1     -36.396  14.265  -4.541  1.00 20.00     0.131 C 
HETATM    2  C2  UNL     1     -35.045  13.824  -3.902  1.00 20.00     0.083 C 
HETATM    3  C3  UNL     1     -36.997  16.882  -5.245  1.00 20.00     0.013 C 
HETATM    4  C4  UNL     1     -35.868  17.987  -5.171  1.00 20.00     0.006 C 
HETATM    5  C5  UNL     1     -33.216  15.871  -3.281  1.00 20.00     0.006 C 
HETATM    6  C6  UNL     1     -33.493  17.387  -3.754  1.00 20.00     0.005 C 
HETATM    7  C7  UNL     1     -36.238  15.556  -5.346  1.00 20.00     0.060 C 
HETATM    8  C8  UNL     1     -34.571  15.197  -3.515  1.00 20.00    -0.002 C 
HETATM    9  C9  UNL     1     -34.964  17.330  -4.164  1.00 20.00    -0.009 C 
HETATM   10  C10 UNL     1     -34.919  15.955  -4.765  1.00 20.00     0.005 C 
HETATM   11  O11 UNL     1     -37.434  13.621  -4.471  1.00 20.00    -0.298 OA
ENDROOT
TORSDOF 0
ENDMDL
