MODEL 1
REMARK VINA RESULT:      -6.4      0.000      0.000
REMARK  0 active torsions:
REMARK  status: ('A' for Active; 'I' for Inactive)
ROOT
HETATM    1  C1  UNL     1     -34.940   5.565   5.818  1.00 20.00    -0.021 C 
HETATM    2  C2  UNL     1     -34.133   4.145   3.774  1.00 20.00    -0.021 C 
HETATM    3  C3  UNL     1     -34.021   6.517   6.094  1.00 20.00    -0.025 C 
HETATM    4  C4  UNL     1     -33.296   4.618   2.825  1.00 20.00    -0.025 C 
HETATM    5  C5  UNL     1     -32.413   7.760   4.172  1.00 20.00     0.009 C 
HETATM    6  C6  UNL     1     -32.236   7.065   2.778  1.00 20.00     0.009 C 
HETATM    7  C7  UNL     1     -35.012   5.226   4.343  1.00 20.00     0.035 C 
HETATM    8  C8  UNL     1     -33.181   6.682   4.887  1.00 20.00     0.013 C 
HETATM    9  C9  UNL     1     -33.450   6.107   2.594  1.00 20.00     0.013 C 
HETATM   10  C10 UNL     1     -34.267   6.430   3.821  1.00 20.00     0.012 C 
ENDROOT
TORSDOF 0
ENDMDL
MODEL 2
REMARK VINA RESULT:      -5.0      0.594      3.118
REMARK  0 active torsions:
REMARK  status: ('A' for Active; 'I' for Inactive)
ROOT
HETATM    1  C1  UNL     1     -33.580   4.615   2.386  1.00 20.00    -0.021 C 
HETATM    2  C2  UNL     1     -32.330   6.784   3.146  1.00 20.00    -0.021 C 
HETATM    3  C3  UNL     1     -33.982   3.925   3.476  1.00 20.00    -0.025 C 
HETATM    4  C4  UNL     1     -32.556   7.396   4.329  1.00 20.00    -0.025 C 
HETATM    5  C5  UNL     1     -34.731   5.101   5.900  1.00 20.00     0.009 C 
HETATM    6  C6  UNL     1     -34.281   6.574   6.190  1.00 20.00     0.009 C 
HETATM    7  C7  UNL     1     -33.566   6.114   2.610  1.00 20.00     0.035 C 
HETATM    8  C8  UNL     1     -33.979   4.863   4.619  1.00 20.00     0.013 C 
HETATM    9  C9  UNL     1     -33.983   7.235   4.811  1.00 20.00     0.013 C 
HETATM   10  C10 UNL     1     -34.405   6.139   3.864  1.00 20.00     0.012 C 
ENDROOT
TORSDOF 0
ENDMDL
MODEL 3
REMARK VINA RESULT:      -4.9     16.070     16.803
REMARK  0 active torsions:
REMARK  status: ('A' for Active; 'I' for Inactive)
ROOT
HETATM    1  C1  UNL     1     -25.406  18.091  12.332  1.00 20.00    -0.021 C 
HETATM    2  C2  UNL     1     -22.813  17.787  12.180  1.00 20.00    -0.021 C 
HETATM    3  C3  UNL     1     -25.844  18.760  11.242  1.00 20.00    -0.025 C 
HETATM    4  C4  UNL     1     -22.135  17.758  11.012  1.00 20.00    -0.025 C 
HETATM    5  C5  UNL     1     -24.681  18.574   8.706  1.00 20.00     0.009 C 
HETATM    6  C6  UNL     1     -23.219  18.021   8.589  1.00 20.00     0.009 C 
HETATM    7  C7  UNL     1     -24.200  17.220  12.044  1.00 20.00     0.035 C 
HETATM    8  C8  UNL     1     -24.797  18.645  10.204  1.00 20.00     0.013 C 
HETATM    9  C9  UNL     1     -22.951  17.181   9.873  1.00 20.00     0.013 C 
HETATM   10  C10 UNL     1     -24.304  17.222  10.538  1.00 20.00     0.012 C 
ENDROOT
TORSDOF 0
ENDMDL
MODEL 4
REMARK VINA RESULT:      -4.9      8.616      9.760
REMARK  0 active torsions:
REMARK  status: ('A' for Active; 'I' for Inactive)
ROOT
HETATM    1  C1  UNL     1     -42.386   9.122  -0.194  1.00 20.00    -0.021 C 
HETATM    2  C2  UNL     1     -41.208   7.189  -1.503  1.00 20.00    -0.021 C 
HETATM    3  C3  UNL     1     -43.406   8.615   0.534  1.00 20.00    -0.025 C 
HETATM    4  C4  UNL     1     -41.213   5.902  -1.092  1.00 20.00    -0.025 C 
HETATM    5  C5  UNL     1     -43.417   6.056   1.662  1.00 20.00     0.009 C 
HETATM    6  C6  UNL     1     -42.415   4.986   1.106  1.00 20.00     0.009 C 
HETATM    7  C7  UNL     1     -41.232   8.153  -0.348  1.00 20.00     0.035 C 
HETATM    8  C8  UNL     1     -43.168   7.162   0.673  1.00 20.00     0.013 C 
HETATM    9  C9  UNL     1     -41.258   5.767   0.416  1.00 20.00     0.013 C 
HETATM   10  C10 UNL     1     -41.627   7.192   0.747  1.00 20.00     0.012 C 
ENDROOT
TORSDOF 0
ENDMDL
MODEL 5
REMARK VINA RESULT:      -4.8     16.221     17.214
REMARK  0 active torsions:
REMARK  status: ('A' for Active; 'I' for Inactive)
ROOT
HETATM    1  C1  UNL     1     -21.900  17.842   8.571  1.00 20.00    -0.021 C 
HETATM    2  C2  UNL     1     -24.274  18.919   8.784  1.00 20.00    -0.021 C 
HETATM    3  C3  UNL     1     -21.299  17.839   9.781  1.00 20.00    -0.025 C 
HETATM    4  C4  UNL     1     -24.989  18.921   9.931  1.00 20.00    -0.025 C 
HETATM    5  C5  UNL     1     -22.654  17.581  12.215  1.00 20.00     0.009 C 
HETATM    6  C6  UNL     1     -24.193  17.873  12.251  1.00 20.00     0.009 C 
HETATM    7  C7  UNL     1     -23.405  17.697   8.661  1.00 20.00     0.035 C 
HETATM    8  C8  UNL     1     -22.358  18.002  10.801  1.00 20.00     0.013 C 
HETATM    9  C9  UNL     1     -24.719  17.706  10.794  1.00 20.00     0.013 C 
HETATM   10  C10 UNL     1     -23.478  17.216  10.090  1.00 20.00     0.012 C 
ENDROOT
TORSDOF 0
ENDMDL
MODEL 6
REMARK VINA RESULT:      -4.7     15.525     16.413
REMARK  0 active torsions:
REMARK  status: ('A' for Active; 'I' for Inactive)
ROOT
HETATM    1  C1  UNL     1     -25.260  16.886  12.332  1.00 20.00    -0.021 C 
HETATM    2  C2  UNL     1     -26.008  18.879  10.812  1.00 20.00    -0.021 C 
HETATM    3  C3  UNL     1     -24.600  15.975  11.584  1.00 20.00    -0.025 C 
HETATM    4  C4  UNL     1     -25.369  19.226   9.673  1.00 20.00    -0.025 C 
HETATM    5  C5  UNL     1     -23.027  16.603   9.358  1.00 20.00     0.009 C 
HETATM    6  C6  UNL     1     -23.229  17.994   8.664  1.00 20.00     0.009 C 
HETATM    7  C7  UNL     1     -25.068  18.305  11.837  1.00 20.00     0.035 C 
HETATM    8  C8  UNL     1     -24.161  16.655  10.346  1.00 20.00     0.013 C 
HETATM    9  C9  UNL     1     -23.883  18.933   9.720  1.00 20.00     0.013 C 
HETATM   10  C10 UNL     1     -23.879  18.049  10.942  1.00 20.00     0.012 C 
ENDROOT
TORSDOF 0
ENDMDL
MODEL 7
REMARK VINA RESULT:      -4.7     11.470     12.551
REMARK  0 active torsions:
REMARK  status: ('A' for Active; 'I' for Inactive)
ROOT
HETATM    1  C1  UNL     1     -34.866  17.315  -2.394  1.00 20.00    -0.021 C 
HETATM    2  C2  UNL     1     -33.182  15.793  -3.694  1.00 20.00    -0.021 C 
HETATM    3  C3  UNL     1     -36.084  17.231  -2.972  1.00 20.00    -0.025 C 
HETATM    4  C4  UNL     1     -33.557  14.705  -4.402  1.00 20.00    -0.025 C 
HETATM    5  C5  UNL     1     -37.076  14.942  -4.237  1.00 20.00     0.009 C 
HETATM    6  C6  UNL     1     -36.062  13.834  -4.686  1.00 20.00     0.009 C 
HETATM    7  C7  UNL     1     -34.072  16.029  -2.504  1.00 20.00     0.035 C 
HETATM    8  C8  UNL     1     -36.102  15.997  -3.787  1.00 20.00     0.013 C 
HETATM    9  C9  UNL     1     -34.779  14.020  -3.824  1.00 20.00     0.013 C 
HETATM   10  C10 UNL     1     -35.213  15.118  -2.884  1.00 20.00     0.012 C 
ENDROOT
TORSDOF 0
ENDMDL
MODEL 8
REMARK VINA RESULT:      -4.6      0.558      3.092
REMARK  0 active torsions:
REMARK  status: ('A' for Active; 'I' for Inactive)
ROOT
HETATM    1  C1  UNL     1     -32.537   7.931   3.987  1.00 20.00    -0.021 C 
HETATM    2  C2  UNL     1     -33.627   6.678   6.007  1.00 20.00    -0.021 C 
HETATM    3  C3  UNL     1     -32.162   7.032   3.051  1.00 20.00    -0.025 C 
HETATM    4  C4  UNL     1     -34.234   5.476   5.896  1.00 20.00    -0.025 C 
HETATM    5  C5  UNL     1     -33.500   4.628   2.548  1.00 20.00     0.009 C 
HETATM    6  C6  UNL     1     -34.468   4.064   3.645  1.00 20.00     0.009 C 
HETATM    7  C7  UNL     1     -33.769   7.502   4.757  1.00 20.00     0.035 C 
HETATM    8  C8  UNL     1     -32.914   5.785   3.311  1.00 20.00     0.013 C 
HETATM    9  C9  UNL     1     -34.882   5.268   4.543  1.00 20.00     0.013 C 
HETATM   10  C10 UNL     1     -34.228   6.416   3.815  1.00 20.00     0.012 C 
ENDROOT
TORSDOF 0
ENDMDL
MODEL 9
REMARK VINA RESULT:      -4.6     11.833     12.726
REMARK  0 active torsions:
REMARK  status: ('A' for Active; 'I' for Inactive)
ROOT
HETATM    1  C1  UNL     1     -34.059  14.686  -4.155  1.00 20.00    -0.021 C 
HETATM    2  C2  UNL     1     -36.251  16.071  -3.812  1.00 20.00    -0.021 C 
HETATM    3  C3  UNL     1     -32.990  15.452  -3.843  1.00 20.00    -0.025 C 
HETATM    4  C4  UNL     1     -36.349  17.105  -2.948  1.00 20.00    -0.025 C 
HETATM    5  C5  UNL     1     -33.000  17.448  -1.883  1.00 20.00     0.009 C 
HETATM    6  C6  UNL     1     -34.378  18.020  -1.402  1.00 20.00     0.009 C 
HETATM    7  C7  UNL     1     -35.286  15.021  -3.332  1.00 20.00     0.035 C 
HETATM    8  C8  UNL     1     -33.479  16.571  -3.009  1.00 20.00     0.013 C 
HETATM    9  C9  UNL     1     -35.455  16.945  -1.736  1.00 20.00     0.013 C 
HETATM   10  C10 UNL     1     -34.594  15.819  -2.253  1.00 20.00     0.012 C 
ENDROOT
TORSDOF 0
ENDMDL
