MODEL 1
REMARK VINA RESULT:      -4.3      0.000      0.000
REMARK  0 active torsions:
REMARK  status: ('A' for Active; 'I' for Inactive)
ROOT
HETATM    1  C1  UNL     1     -22.024  17.699  11.854  1.00 20.00     0.004 C 
HETATM    2  C2  UNL     1     -21.766  18.138  10.414  1.00 20.00     0.005 C 
HETATM    3  C3  UNL     1     -23.410  18.136  12.332  1.00 20.00     0.042 C 
HETATM    4  C4  UNL     1     -23.991  18.872   9.328  1.00 20.00     0.013 A 
HETATM    5  C5  UNL     1     -22.909  17.833   9.494  1.00 20.00    -0.007 A 
HETATM    6  C6  UNL     1     -24.303  17.572  10.022  1.00 20.00     0.029 A 
HETATM    7  C7  UNL     1     -24.530  17.486  11.506  1.00 20.00     0.117 C 
HETATM    8 CL8  UNL     1     -26.097  18.262  11.891  1.00 20.00    -0.101 Cl
HETATM    9 CL9  UNL     1     -24.662  15.741  11.935  1.00 20.00    -0.101 Cl
ENDROOT
TORSDOF 0
ENDMDL
MODEL 2
REMARK VINA RESULT:      -4.1     17.927     19.084
REMARK  0 active torsions:
REMARK  status: ('A' for Active; 'I' for Inactive)
ROOT
HETATM    1  C1  UNL     1     -36.725  16.669  -3.500  1.00 20.00     0.004 C 
HETATM    2  C2  UNL     1     -35.744  16.947  -2.364  1.00 20.00     0.005 C 
HETATM    3  C3  UNL     1     -35.993  16.357  -4.807  1.00 20.00     0.042 C 
HETATM    4  C4  UNL     1     -33.378  16.185  -3.067  1.00 20.00     0.013 A 
HETATM    5  C5  UNL     1     -34.641  15.935  -2.280  1.00 20.00    -0.007 A 
HETATM    6  C6  UNL     1     -34.288  15.049  -3.454  1.00 20.00     0.029 A 
HETATM    7  C7  UNL     1     -35.138  15.086  -4.693  1.00 20.00     0.117 C 
HETATM    8 CL8  UNL     1     -34.071  14.942  -6.125  1.00 20.00    -0.101 Cl
HETATM    9 CL9  UNL     1     -36.209  13.637  -4.661  1.00 20.00    -0.101 Cl
ENDROOT
TORSDOF 0
ENDMDL
MODEL 3
REMARK VINA RESULT:      -3.9     18.472     19.634
REMARK  0 active torsions:
REMARK  status: ('A' for Active; 'I' for Inactive)
ROOT
HETATM    1  C1  UNL     1     -34.675  15.911  -6.437  1.00 20.00     0.004 C 
HETATM    2  C2  UNL     1     -35.931  15.048  -6.535  1.00 20.00     0.005 C 
HETATM    3  C3  UNL     1     -34.465  16.434  -5.014  1.00 20.00     0.042 C 
HETATM    4  C4  UNL     1     -36.735  14.430  -4.160  1.00 20.00     0.013 A 
HETATM    5  C5  UNL     1     -36.033  14.034  -5.436  1.00 20.00    -0.007 A 
HETATM    6  C6  UNL     1     -35.250  14.179  -4.150  1.00 20.00     0.029 A 
HETATM    7  C7  UNL     1     -34.247  15.290  -4.012  1.00 20.00     0.117 C 
HETATM    8 CL8  UNL     1     -34.322  15.926  -2.340  1.00 20.00    -0.101 Cl
HETATM    9 CL9  UNL     1     -32.610  14.578  -4.256  1.00 20.00    -0.101 Cl
ENDROOT
TORSDOF 0
ENDMDL
MODEL 4
REMARK VINA RESULT:      -3.9      1.252      2.644
REMARK  0 active torsions:
REMARK  status: ('A' for Active; 'I' for Inactive)
ROOT
HETATM    1  C1  UNL     1     -24.795  19.261   9.187  1.00 20.00     0.004 C 
HETATM    2  C2  UNL     1     -23.483  19.190   8.409  1.00 20.00     0.005 C 
HETATM    3  C3  UNL     1     -25.142  17.913   9.821  1.00 20.00     0.042 C 
HETATM    4  C4  UNL     1     -22.230  17.020   9.036  1.00 20.00     0.013 A 
HETATM    5  C5  UNL     1     -22.383  18.515   9.173  1.00 20.00    -0.007 A 
HETATM    6  C6  UNL     1     -22.677  17.608  10.348  1.00 20.00     0.029 A 
HETATM    7  C7  UNL     1     -24.088  17.477  10.850  1.00 20.00     0.117 C 
HETATM    8 CL8  UNL     1     -24.371  15.773  11.324  1.00 20.00    -0.101 Cl
HETATM    9 CL9  UNL     1     -24.235  18.490  12.332  1.00 20.00    -0.101 Cl
ENDROOT
TORSDOF 0
ENDMDL
MODEL 5
REMARK VINA RESULT:      -3.8     17.299     18.433
REMARK  0 active torsions:
REMARK  status: ('A' for Active; 'I' for Inactive)
ROOT
HETATM    1  C1  UNL     1     -32.984  16.045  -3.511  1.00 20.00     0.004 C 
HETATM    2  C2  UNL     1     -33.274  14.733  -4.237  1.00 20.00     0.005 C 
HETATM    3  C3  UNL     1     -34.154  17.023  -3.634  1.00 20.00     0.042 C 
HETATM    4  C4  UNL     1     -35.792  14.603  -4.798  1.00 20.00     0.013 A 
HETATM    5  C5  UNL     1     -34.634  14.181  -3.928  1.00 20.00    -0.007 A 
HETATM    6  C6  UNL     1     -35.733  15.053  -3.362  1.00 20.00     0.029 A 
HETATM    7  C7  UNL     1     -35.429  16.474  -2.976  1.00 20.00     0.117 C 
HETATM    8 CL8  UNL     1     -36.829  17.500  -3.417  1.00 20.00    -0.101 Cl
HETATM    9 CL9  UNL     1     -35.254  16.524  -1.184  1.00 20.00    -0.101 Cl
ENDROOT
TORSDOF 0
ENDMDL
MODEL 6
REMARK VINA RESULT:      -3.8     17.876     19.049
REMARK  0 active torsions:
REMARK  status: ('A' for Active; 'I' for Inactive)
ROOT
HETATM    1  C1  UNL     1     -33.679  16.434  -2.638  1.00 20.00     0.004 C 
HETATM    2  C2  UNL     1     -35.013  15.895  -2.125  1.00 20.00     0.005 C 
HETATM    3  C3  UNL     1     -33.259  15.742  -3.936  1.00 20.00     0.042 C 
HETATM    4  C4  UNL     1     -36.159  14.524  -3.990  1.00 20.00     0.013 A 
HETATM    5  C5  UNL     1     -36.059  15.803  -3.195  1.00 20.00    -0.007 A 
HETATM    6  C6  UNL     1     -35.692  15.789  -4.662  1.00 20.00     0.029 A 
HETATM    7  C7  UNL     1     -34.261  16.001  -5.072  1.00 20.00     0.117 C 
HETATM    8 CL8  UNL     1     -33.897  14.928  -6.459  1.00 20.00    -0.101 Cl
HETATM    9 CL9  UNL     1     -34.105  17.704  -5.639  1.00 20.00    -0.101 Cl
ENDROOT
TORSDOF 0
ENDMDL
MODEL 7
REMARK VINA RESULT:      -3.8     16.712     17.839
REMARK  0 active torsions:
REMARK  status: ('A' for Active; 'I' for Inactive)
ROOT
HETATM    1  C1  UNL     1     -35.285  16.447  -1.518  1.00 20.00     0.004 C 
HETATM    2  C2  UNL     1     -34.070  17.336  -1.260  1.00 20.00     0.005 C 
HETATM    3  C3  UNL     1     -35.707  16.489  -2.988  1.00 20.00     0.042 C 
HETATM    4  C4  UNL     1     -32.994  17.994  -3.514  1.00 20.00     0.013 A 
HETATM    5  C5  UNL     1     -32.977  17.143  -2.268  1.00 20.00    -0.007 A 
HETATM    6  C6  UNL     1     -33.247  16.513  -3.617  1.00 20.00     0.029 A 
HETATM    7  C7  UNL     1     -34.607  15.947  -3.913  1.00 20.00     0.117 C 
HETATM    8 CL8  UNL     1     -35.018  16.307  -5.619  1.00 20.00    -0.101 Cl
HETATM    9 CL9  UNL     1     -34.501  14.157  -3.741  1.00 20.00    -0.101 Cl
ENDROOT
TORSDOF 0
ENDMDL
MODEL 8
REMARK VINA RESULT:      -3.7     17.914     18.983
REMARK  0 active torsions:
REMARK  status: ('A' for Active; 'I' for Inactive)
ROOT
HETATM    1  C1  UNL     1     -33.199  14.917  -4.191  1.00 20.00     0.004 C 
HETATM    2  C2  UNL     1     -33.130  16.064  -3.185  1.00 20.00     0.005 C 
HETATM    3  C3  UNL     1     -34.549  14.201  -4.132  1.00 20.00     0.042 C 
HETATM    4  C4  UNL     1     -35.505  16.583  -2.313  1.00 20.00     0.013 A 
HETATM    5  C5  UNL     1     -34.346  16.940  -3.211  1.00 20.00    -0.007 A 
HETATM    6  C6  UNL     1     -35.652  16.465  -3.807  1.00 20.00     0.029 A 
HETATM    7  C7  UNL     1     -35.709  15.136  -4.507  1.00 20.00     0.117 C 
HETATM    8 CL8  UNL     1     -37.271  14.350  -4.121  1.00 20.00    -0.101 Cl
HETATM    9 CL9  UNL     1     -35.679  15.454  -6.280  1.00 20.00    -0.101 Cl
ENDROOT
TORSDOF 0
ENDMDL
MODEL 9
REMARK VINA RESULT:      -3.7     17.522     18.570
REMARK  0 active torsions:
REMARK  status: ('A' for Active; 'I' for Inactive)
ROOT
HETATM    1  C1  UNL     1     -34.650  17.126  -5.537  1.00 20.00     0.004 C 
HETATM    2  C2  UNL     1     -34.482  15.681  -6.001  1.00 20.00     0.005 C 
HETATM    3  C3  UNL     1     -35.223  17.196  -4.120  1.00 20.00     0.042 C 
HETATM    4  C4  UNL     1     -34.694  14.098  -3.971  1.00 20.00     0.013 A 
HETATM    5  C5  UNL     1     -33.821  14.809  -4.976  1.00 20.00    -0.007 A 
HETATM    6  C6  UNL     1     -33.774  15.200  -3.515  1.00 20.00     0.029 A 
HETATM    7  C7  UNL     1     -34.283  16.549  -3.091  1.00 20.00     0.117 C 
HETATM    8 CL8  UNL     1     -35.128  16.376  -1.522  1.00 20.00    -0.101 Cl
HETATM    9 CL9  UNL     1     -32.852  17.612  -2.829  1.00 20.00    -0.101 Cl
ENDROOT
TORSDOF 0
ENDMDL
