MODEL 1
REMARK VINA RESULT:      -4.6      0.000      0.000
REMARK  2 active torsions:
REMARK  status: ('A' for Active; 'I' for Inactive)
REMARK    1  A    between atoms: C7_7  and  C9_9 
REMARK    2  A    between atoms: C8_8  and  C10_10 
ROOT
HETATM    1  C1  UNL     1     -23.934  18.962   8.047  1.00 20.00    -0.030 C 
HETATM    2  C2  UNL     1     -23.378  18.697   9.251  1.00 20.00    -0.025 C 
HETATM    3  C5  UNL     1     -25.464  18.973   8.116  1.00 20.00     0.032 C 
HETATM    4  C9  UNL     1     -24.476  18.291  10.166  1.00 20.00     0.020 C 
HETATM    5  C10 UNL     1     -25.545  19.261   9.592  1.00 20.00     0.005 C 
ENDROOT
BRANCH   4   6
HETATM    6  C7  UNL     1     -24.821  18.361  11.675  1.00 20.00     0.016 C 
HETATM    7  C3  UNL     1     -23.518  17.896  12.323  1.00 20.00    -0.025 C 
HETATM    8  C4  UNL     1     -23.350  16.597  12.006  1.00 20.00    -0.025 C 
HETATM    9  C8  UNL     1     -24.583  16.145  11.260  1.00 20.00     0.013 C 
HETATM   10  C6  UNL     1     -25.601  17.075  11.989  1.00 20.00     0.018 C 
ENDBRANCH   4   6
TORSDOF 2
ENDMDL
MODEL 2
REMARK VINA RESULT:      -4.4     15.271     17.489
REMARK  2 active torsions:
REMARK  status: ('A' for Active; 'I' for Inactive)
REMARK    1  A    between atoms: C7_7  and  C9_9 
REMARK    2  A    between atoms: C8_8  and  C10_10 
ROOT
HETATM    1  C1  UNL     1     -33.447  17.756  -1.737  1.00 20.00    -0.030 C 
HETATM    2  C2  UNL     1     -33.012  16.806  -2.596  1.00 20.00    -0.025 C 
HETATM    3  C5  UNL     1     -34.933  17.589  -1.406  1.00 20.00     0.032 C 
HETATM    4  C9  UNL     1     -34.206  16.067  -3.080  1.00 20.00     0.020 C 
HETATM    5  C10 UNL     1     -34.996  16.122  -1.743  1.00 20.00     0.005 C 
ENDROOT
BRANCH   4   6
HETATM    6  C7  UNL     1     -34.578  14.643  -3.562  1.00 20.00     0.016 C 
HETATM    7  C3  UNL     1     -33.724  14.498  -4.821  1.00 20.00    -0.025 C 
HETATM    8  C4  UNL     1     -34.197  15.370  -5.732  1.00 20.00    -0.025 C 
HETATM    9  C8  UNL     1     -35.436  16.011  -5.154  1.00 20.00     0.013 C 
HETATM   10  C6  UNL     1     -35.911  14.786  -4.313  1.00 20.00     0.018 C 
ENDBRANCH   4   6
TORSDOF 2
ENDMDL
MODEL 3
REMARK VINA RESULT:      -4.3     16.008     18.408
REMARK  2 active torsions:
REMARK  status: ('A' for Active; 'I' for Inactive)
REMARK    1  A    between atoms: C7_7  and  C9_9 
REMARK    2  A    between atoms: C8_8  and  C10_10 
ROOT
HETATM    1  C1  UNL     1     -33.015  16.494  -2.877  1.00 20.00    -0.030 C 
HETATM    2  C2  UNL     1     -33.472  15.516  -3.692  1.00 20.00    -0.025 C 
HETATM    3  C5  UNL     1     -34.144  17.127  -2.057  1.00 20.00     0.032 C 
HETATM    4  C9  UNL     1     -34.957  15.563  -3.651  1.00 20.00     0.020 C 
HETATM    5  C10 UNL     1     -35.075  15.946  -2.150  1.00 20.00     0.005 C 
ENDROOT
BRANCH   4   6
HETATM    6  C7  UNL     1     -36.157  14.593  -3.784  1.00 20.00     0.016 C 
HETATM    7  C3  UNL     1     -35.922  13.980  -5.164  1.00 20.00    -0.025 C 
HETATM    8  C4  UNL     1     -36.089  14.958  -6.074  1.00 20.00    -0.025 C 
HETATM    9  C8  UNL     1     -36.558  16.192  -5.341  1.00 20.00     0.013 C 
HETATM   10  C6  UNL     1     -37.351  15.457  -4.217  1.00 20.00     0.018 C 
ENDBRANCH   4   6
TORSDOF 2
ENDMDL
MODEL 4
REMARK VINA RESULT:      -4.2      1.403      3.679
REMARK  2 active torsions:
REMARK  status: ('A' for Active; 'I' for Inactive)
REMARK    1  A    between atoms: C7_7  and  C9_9 
REMARK    2  A    between atoms: C8_8  and  C10_10 
ROOT
HETATM    1  C1  UNL     1     -24.840  16.453  12.039  1.00 20.00    -0.030 C 
HETATM    2  C2  UNL     1     -24.309  16.119  10.841  1.00 20.00    -0.025 C 
HETATM    3  C5  UNL     1     -24.900  17.971  12.234  1.00 20.00     0.032 C 
HETATM    4  C9  UNL     1     -23.771  17.365  10.233  1.00 20.00     0.020 C 
HETATM    5  C10 UNL     1     -24.882  18.310  10.767  1.00 20.00     0.005 C 
ENDROOT
BRANCH   4   6
HETATM    6  C7  UNL     1     -23.544  17.971   8.826  1.00 20.00     0.016 C 
HETATM    7  C3  UNL     1     -22.483  17.038   8.243  1.00 20.00    -0.025 C 
HETATM    8  C4  UNL     1     -21.351  17.222   8.950  1.00 20.00    -0.025 C 
HETATM    9  C8  UNL     1     -21.595  18.355   9.918  1.00 20.00     0.013 C 
HETATM   10  C6  UNL     1     -22.591  19.159   9.027  1.00 20.00     0.018 C 
ENDBRANCH   4   6
TORSDOF 2
ENDMDL
MODEL 5
REMARK VINA RESULT:      -4.1     14.815     16.553
REMARK  2 active torsions:
REMARK  status: ('A' for Active; 'I' for Inactive)
REMARK    1  A    between atoms: C7_7  and  C9_9 
REMARK    2  A    between atoms: C8_8  and  C10_10 
ROOT
HETATM    1  C1  UNL     1     -35.086  14.755  -3.611  1.00 20.00    -0.030 C 
HETATM    2  C2  UNL     1     -34.986  15.547  -2.519  1.00 20.00    -0.025 C 
HETATM    3  C5  UNL     1     -33.963  15.025  -4.617  1.00 20.00     0.032 C 
HETATM    4  C9  UNL     1     -33.930  16.556  -2.800  1.00 20.00     0.020 C 
HETATM    5  C10 UNL     1     -33.004  15.612  -3.615  1.00 20.00     0.005 C 
ENDROOT
BRANCH   4   6
HETATM    6  C7  UNL     1     -32.873  17.381  -2.026  1.00 20.00     0.016 C 
HETATM    7  C3  UNL     1     -33.719  18.056  -0.947  1.00 20.00    -0.025 C 
HETATM    8  C4  UNL     1     -34.540  18.927  -1.565  1.00 20.00    -0.025 C 
HETATM    9  C8  UNL     1     -34.173  18.944  -3.030  1.00 20.00     0.013 C 
HETATM   10  C6  UNL     1     -32.650  18.659  -2.849  1.00 20.00     0.018 C 
ENDBRANCH   4   6
TORSDOF 2
ENDMDL
MODEL 6
REMARK VINA RESULT:      -4.1     16.243     18.215
REMARK  2 active torsions:
REMARK  status: ('A' for Active; 'I' for Inactive)
REMARK    1  A    between atoms: C7_7  and  C9_9 
REMARK    2  A    between atoms: C8_8  and  C10_10 
ROOT
HETATM    1  C1  UNL     1     -35.580  14.788  -6.557  1.00 20.00    -0.030 C 
HETATM    2  C2  UNL     1     -35.890  14.860  -5.242  1.00 20.00    -0.025 C 
HETATM    3  C5  UNL     1     -34.107  15.118  -6.815  1.00 20.00     0.032 C 
HETATM    4  C9  UNL     1     -34.720  15.454  -4.544  1.00 20.00     0.020 C 
HETATM    5  C10 UNL     1     -33.633  14.779  -5.426  1.00 20.00     0.005 C 
ENDROOT
BRANCH   4   6
HETATM    6  C7  UNL     1     -34.032  15.386  -3.158  1.00 20.00     0.016 C 
HETATM    7  C3  UNL     1     -35.117  15.941  -2.235  1.00 20.00    -0.025 C 
HETATM    8  C4  UNL     1     -35.281  17.242  -2.542  1.00 20.00    -0.025 C 
HETATM    9  C8  UNL     1     -34.236  17.606  -3.569  1.00 20.00     0.013 C 
HETATM   10  C6  UNL     1     -33.129  16.626  -3.073  1.00 20.00     0.018 C 
ENDBRANCH   4   6
TORSDOF 2
ENDMDL
MODEL 7
REMARK VINA RESULT:      -4.0     15.096     17.393
REMARK  2 active torsions:
REMARK  status: ('A' for Active; 'I' for Inactive)
REMARK    1  A    between atoms: C7_7  and  C9_9 
REMARK    2  A    between atoms: C8_8  and  C10_10 
ROOT
HETATM    1  C1  UNL     1     -33.962  17.313  -1.095  1.00 20.00    -0.030 C 
HETATM    2  C2  UNL     1     -34.962  16.569  -1.622  1.00 20.00    -0.025 C 
HETATM    3  C5  UNL     1     -32.918  17.694  -2.149  1.00 20.00     0.032 C 
HETATM    4  C9  UNL     1     -34.560  16.206  -3.006  1.00 20.00     0.020 C 
HETATM    5  C10 UNL     1     -33.838  17.543  -3.332  1.00 20.00     0.005 C 
ENDROOT
BRANCH   4   6
HETATM    6  C7  UNL     1     -35.226  15.912  -4.374  1.00 20.00     0.016 C 
HETATM    7  C3  UNL     1     -35.907  14.568  -4.116  1.00 20.00    -0.025 C 
HETATM    8  C4  UNL     1     -34.935  13.653  -3.934  1.00 20.00    -0.025 C 
HETATM    9  C8  UNL     1     -33.611  14.332  -4.190  1.00 20.00     0.013 C 
HETATM   10  C6  UNL     1     -34.118  15.339  -5.269  1.00 20.00     0.018 C 
ENDBRANCH   4   6
TORSDOF 2
ENDMDL
MODEL 8
REMARK VINA RESULT:      -4.0     16.681     18.910
REMARK  2 active torsions:
REMARK  status: ('A' for Active; 'I' for Inactive)
REMARK    1  A    between atoms: C7_7  and  C9_9 
REMARK    2  A    between atoms: C8_8  and  C10_10 
ROOT
HETATM    1  C1  UNL     1     -35.957  16.666  -7.076  1.00 20.00    -0.030 C 
HETATM    2  C2  UNL     1     -36.084  16.763  -5.733  1.00 20.00    -0.025 C 
HETATM    3  C5  UNL     1     -35.362  15.319  -7.498  1.00 20.00     0.032 C 
HETATM    4  C9  UNL     1     -35.385  15.594  -5.138  1.00 20.00     0.020 C 
HETATM    5  C10 UNL     1     -35.769  14.580  -6.251  1.00 20.00     0.005 C 
ENDROOT
BRANCH   4   6
HETATM    6  C7  UNL     1     -35.492  14.686  -3.887  1.00 20.00     0.016 C 
HETATM    7  C3  UNL     1     -35.125  15.649  -2.759  1.00 20.00    -0.025 C 
HETATM    8  C4  UNL     1     -33.827  15.976  -2.913  1.00 20.00    -0.025 C 
HETATM    9  C8  UNL     1     -33.279  15.149  -4.052  1.00 20.00     0.013 C 
HETATM   10  C6  UNL     1     -34.177  13.894  -3.828  1.00 20.00     0.018 C 
ENDBRANCH   4   6
TORSDOF 2
ENDMDL
MODEL 9
REMARK VINA RESULT:      -4.0     16.744     18.752
REMARK  2 active torsions:
REMARK  status: ('A' for Active; 'I' for Inactive)
REMARK    1  A    between atoms: C7_7  and  C9_9 
REMARK    2  A    between atoms: C8_8  and  C10_10 
ROOT
HETATM    1  C1  UNL     1     -35.595  16.760  -7.260  1.00 20.00    -0.030 C 
HETATM    2  C2  UNL     1     -35.904  16.264  -6.040  1.00 20.00    -0.025 C 
HETATM    3  C5  UNL     1     -34.183  16.358  -7.698  1.00 20.00     0.032 C 
HETATM    4  C9  UNL     1     -34.660  15.685  -5.469  1.00 20.00     0.020 C 
HETATM    5  C10 UNL     1     -34.092  15.144  -6.811  1.00 20.00     0.005 C 
ENDROOT
BRANCH   4   6
HETATM    6  C7  UNL     1     -34.240  14.543  -4.510  1.00 20.00     0.016 C 
HETATM    7  C3  UNL     1     -34.971  14.922  -3.222  1.00 20.00    -0.025 C 
HETATM    8  C4  UNL     1     -34.417  16.061  -2.764  1.00 20.00    -0.025 C 
HETATM    9  C8  UNL     1     -33.240  16.388  -3.652  1.00 20.00     0.013 C 
HETATM   10  C6  UNL     1     -32.843  14.919  -3.994  1.00 20.00     0.018 C 
ENDBRANCH   4   6
TORSDOF 2
ENDMDL
