MODEL 1
REMARK VINA RESULT:      -4.7      0.000      0.000
REMARK  0 active torsions:
REMARK  status: ('A' for Active; 'I' for Inactive)
ROOT
HETATM    1  C1  UNL     1     -35.322  14.023  -4.390  1.00 20.00     0.132 C 
HETATM    2  C2  UNL     1     -35.890  14.074  -5.781  1.00 20.00     0.079 C 
HETATM    3  C3  UNL     1     -36.422  15.496  -5.853  1.00 20.00     0.017 C 
HETATM    4  C4  UNL     1     -36.688  17.339  -4.110  1.00 20.00     0.011 C 
HETATM    5  C5  UNL     1     -35.204  17.477  -3.795  1.00 20.00     0.010 C 
HETATM    6  C6  UNL     1     -35.856  15.127  -3.494  1.00 20.00     0.071 C 
HETATM    7  C7  UNL     1     -36.867  15.850  -4.419  1.00 20.00    -0.033 C 
HETATM    8  C8  UNL     1     -34.846  16.200  -3.006  1.00 20.00    -0.037 C 
HETATM    9  C9  UNL     1     -38.310  15.400  -4.172  1.00 20.00     0.016 C 
HETATM   10  C10 UNL     1     -33.369  15.847  -3.213  1.00 20.00     0.015 C 
HETATM   11  C11 UNL     1     -35.070  16.446  -1.499  1.00 20.00     0.015 C 
HETATM   12  O12 UNL     1     -34.553  13.147  -4.012  1.00 20.00    -0.298 OA
ENDROOT
TORSDOF 0
ENDMDL
MODEL 2
REMARK VINA RESULT:      -4.5      1.801      3.684
REMARK  0 active torsions:
REMARK  status: ('A' for Active; 'I' for Inactive)
ROOT
HETATM    1  C1  UNL     1     -34.591  16.262  -2.155  1.00 20.00     0.132 C 
HETATM    2  C2  UNL     1     -33.305  16.998  -2.404  1.00 20.00     0.079 C 
HETATM    3  C3  UNL     1     -33.189  16.930  -3.917  1.00 20.00     0.017 C 
HETATM    4  C4  UNL     1     -34.510  15.679  -5.704  1.00 20.00     0.011 C 
HETATM    5  C5  UNL     1     -35.841  16.367  -5.430  1.00 20.00     0.010 C 
HETATM    6  C6  UNL     1     -35.012  15.397  -3.330  1.00 20.00     0.071 C 
HETATM    7  C7  UNL     1     -33.843  15.596  -4.328  1.00 20.00    -0.033 C 
HETATM    8  C8  UNL     1     -36.314  15.793  -4.078  1.00 20.00    -0.037 C 
HETATM    9  C9  UNL     1     -32.826  14.452  -4.272  1.00 20.00     0.016 C 
HETATM   10  C10 UNL     1     -37.198  16.812  -3.351  1.00 20.00     0.015 C 
HETATM   11  C11 UNL     1     -37.154  14.522  -4.323  1.00 20.00     0.015 C 
HETATM   12  O12 UNL     1     -35.201  16.316  -1.094  1.00 20.00    -0.298 OA
ENDROOT
TORSDOF 0
ENDMDL
MODEL 3
REMARK VINA RESULT:      -4.4      1.771      2.874
REMARK  0 active torsions:
REMARK  status: ('A' for Active; 'I' for Inactive)
ROOT
HETATM    1  C1  UNL     1     -36.927  15.841  -3.989  1.00 20.00     0.132 C 
HETATM    2  C2  UNL     1     -37.349  14.429  -4.288  1.00 20.00     0.079 C 
HETATM    3  C3  UNL     1     -36.025  13.769  -4.632  1.00 20.00     0.017 C 
HETATM    4  C4  UNL     1     -33.672  14.686  -4.995  1.00 20.00     0.011 C 
HETATM    5  C5  UNL     1     -33.497  15.237  -3.586  1.00 20.00     0.010 C 
HETATM    6  C6  UNL     1     -35.555  16.176  -4.545  1.00 20.00     0.071 C 
HETATM    7  C7  UNL     1     -35.165  14.871  -5.284  1.00 20.00    -0.033 C 
HETATM    8  C8  UNL     1     -34.423  16.469  -3.524  1.00 20.00    -0.037 C 
HETATM    9  C9  UNL     1     -35.434  14.949  -6.790  1.00 20.00     0.016 C 
HETATM   10  C10 UNL     1     -34.890  16.707  -2.083  1.00 20.00     0.015 C 
HETATM   11  C11 UNL     1     -33.647  17.721  -3.986  1.00 20.00     0.015 C 
HETATM   12  O12 UNL     1     -37.644  16.645  -3.405  1.00 20.00    -0.298 OA
ENDROOT
TORSDOF 0
ENDMDL
MODEL 4
REMARK VINA RESULT:      -4.4      1.977      3.537
REMARK  0 active torsions:
REMARK  status: ('A' for Active; 'I' for Inactive)
ROOT
HETATM    1  C1  UNL     1     -33.624  17.151  -3.075  1.00 20.00     0.132 C 
HETATM    2  C2  UNL     1     -34.263  17.253  -1.718  1.00 20.00     0.079 C 
HETATM    3  C3  UNL     1     -35.340  16.183  -1.795  1.00 20.00     0.017 C 
HETATM    4  C4  UNL     1     -36.217  14.738  -3.705  1.00 20.00     0.011 C 
HETATM    5  C5  UNL     1     -34.904  14.012  -3.971  1.00 20.00     0.010 C 
HETATM    6  C6  UNL     1     -34.500  16.433  -4.086  1.00 20.00     0.071 C 
HETATM    7  C7  UNL     1     -35.785  16.142  -3.271  1.00 20.00    -0.033 C 
HETATM    8  C8  UNL     1     -33.993  15.069  -4.628  1.00 20.00    -0.037 C 
HETATM    9  C9  UNL     1     -36.890  17.169  -3.534  1.00 20.00     0.016 C 
HETATM   10  C10 UNL     1     -32.521  14.757  -4.331  1.00 20.00     0.015 C 
HETATM   11  C11 UNL     1     -34.187  15.037  -6.159  1.00 20.00     0.015 C 
HETATM   12  O12 UNL     1     -32.536  17.647  -3.343  1.00 20.00    -0.298 OA
ENDROOT
TORSDOF 0
ENDMDL
MODEL 5
REMARK VINA RESULT:      -4.4      2.157      4.068
REMARK  0 active torsions:
REMARK  status: ('A' for Active; 'I' for Inactive)
ROOT
HETATM    1  C1  UNL     1     -34.096  18.119  -4.247  1.00 20.00     0.132 C 
HETATM    2  C2  UNL     1     -32.943  17.962  -3.296  1.00 20.00     0.079 C 
HETATM    3  C3  UNL     1     -32.959  16.467  -3.023  1.00 20.00     0.017 C 
HETATM    4  C4  UNL     1     -34.600  14.611  -3.631  1.00 20.00     0.011 C 
HETATM    5  C5  UNL     1     -34.441  14.746  -5.139  1.00 20.00     0.010 C 
HETATM    6  C6  UNL     1     -35.051  16.939  -4.215  1.00 20.00     0.071 C 
HETATM    7  C7  UNL     1     -34.439  16.042  -3.109  1.00 20.00    -0.033 C 
HETATM    8  C8  UNL     1     -35.152  16.068  -5.496  1.00 20.00    -0.037 C 
HETATM    9  C9  UNL     1     -35.136  16.223  -1.758  1.00 20.00     0.016 C 
HETATM   10  C10 UNL     1     -34.525  16.683  -6.753  1.00 20.00     0.015 C 
HETATM   11  C11 UNL     1     -36.640  15.790  -5.794  1.00 20.00     0.015 C 
HETATM   12  O12 UNL     1     -34.269  19.121  -4.930  1.00 20.00    -0.298 OA
ENDROOT
TORSDOF 0
ENDMDL
MODEL 6
REMARK VINA RESULT:      -4.4      1.706      3.208
REMARK  0 active torsions:
REMARK  status: ('A' for Active; 'I' for Inactive)
ROOT
HETATM    1  C1  UNL     1     -36.464  14.195  -4.607  1.00 20.00     0.132 C 
HETATM    2  C2  UNL     1     -35.187  13.681  -4.004  1.00 20.00     0.079 C 
HETATM    3  C3  UNL     1     -34.266  14.882  -4.142  1.00 20.00     0.017 C 
HETATM    4  C4  UNL     1     -34.506  17.124  -5.334  1.00 20.00     0.011 C 
HETATM    5  C5  UNL     1     -35.692  17.614  -4.514  1.00 20.00     0.010 C 
HETATM    6  C6  UNL     1     -36.254  15.423  -5.474  1.00 20.00     0.071 C 
HETATM    7  C7  UNL     1     -34.716  15.610  -5.425  1.00 20.00    -0.033 C 
HETATM    8  C8  UNL     1     -36.884  16.757  -4.988  1.00 20.00    -0.037 C 
HETATM    9  C9  UNL     1     -34.017  15.024  -6.655  1.00 20.00     0.016 C 
HETATM   10  C10 UNL     1     -37.916  16.617  -3.863  1.00 20.00     0.015 C 
HETATM   11  C11 UNL     1     -37.573  17.447  -6.184  1.00 20.00     0.015 C 
HETATM   12  O12 UNL     1     -37.548  13.643  -4.454  1.00 20.00    -0.298 OA
ENDROOT
TORSDOF 0
ENDMDL
MODEL 7
REMARK VINA RESULT:      -4.4      1.635      3.066
REMARK  0 active torsions:
REMARK  status: ('A' for Active; 'I' for Inactive)
ROOT
HETATM    1  C1  UNL     1     -36.149  15.174  -5.611  1.00 20.00     0.132 C 
HETATM    2  C2  UNL     1     -36.089  13.740  -5.164  1.00 20.00     0.079 C 
HETATM    3  C3  UNL     1     -35.403  13.858  -3.813  1.00 20.00     0.017 C 
HETATM    4  C4  UNL     1     -34.281  15.802  -2.601  1.00 20.00     0.011 C 
HETATM    5  C5  UNL     1     -35.530  16.669  -2.499  1.00 20.00     0.010 C 
HETATM    6  C6  UNL     1     -35.181  16.068  -4.856  1.00 20.00     0.071 C 
HETATM    7  C7  UNL     1     -34.448  15.063  -3.932  1.00 20.00    -0.033 C 
HETATM    8  C8  UNL     1     -35.787  17.163  -3.938  1.00 20.00    -0.037 C 
HETATM    9  C9  UNL     1     -33.093  14.628  -4.499  1.00 20.00     0.016 C 
HETATM   10  C10 UNL     1     -37.282  17.432  -4.145  1.00 20.00     0.015 C 
HETATM   11  C11 UNL     1     -35.029  18.486  -4.172  1.00 20.00     0.015 C 
HETATM   12  O12 UNL     1     -36.867  15.562  -6.525  1.00 20.00    -0.298 OA
ENDROOT
TORSDOF 0
ENDMDL
MODEL 8
REMARK VINA RESULT:      -4.3      1.998      3.125
REMARK  0 active torsions:
REMARK  status: ('A' for Active; 'I' for Inactive)
ROOT
HETATM    1  C1  UNL     1     -36.436  16.927  -4.531  1.00 20.00     0.132 C 
HETATM    2  C2  UNL     1     -37.178  16.106  -5.550  1.00 20.00     0.079 C 
HETATM    3  C3  UNL     1     -36.143  15.059  -5.926  1.00 20.00     0.017 C 
HETATM    4  C4  UNL     1     -33.669  14.785  -5.366  1.00 20.00     0.011 C 
HETATM    5  C5  UNL     1     -33.861  14.643  -3.862  1.00 20.00     0.010 C 
HETATM    6  C6  UNL     1     -34.933  16.729  -4.597  1.00 20.00     0.071 C 
HETATM    7  C7  UNL     1     -34.774  15.757  -5.793  1.00 20.00    -0.033 C 
HETATM    8  C8  UNL     1     -34.248  16.056  -3.376  1.00 20.00    -0.037 C 
HETATM    9  C9  UNL     1     -34.405  16.482  -7.090  1.00 20.00     0.016 C 
HETATM   10  C10 UNL     1     -35.112  15.963  -2.114  1.00 20.00     0.015 C 
HETATM   11  C11 UNL     1     -32.971  16.847  -3.022  1.00 20.00     0.015 C 
HETATM   12  O12 UNL     1     -36.991  17.711  -3.770  1.00 20.00    -0.298 OA
ENDROOT
TORSDOF 0
ENDMDL
MODEL 9
REMARK VINA RESULT:      -4.3      1.388      2.816
REMARK  0 active torsions:
REMARK  status: ('A' for Active; 'I' for Inactive)
ROOT
HETATM    1  C1  UNL     1     -36.786  14.788  -3.993  1.00 20.00     0.132 C 
HETATM    2  C2  UNL     1     -37.715  15.916  -3.642  1.00 20.00     0.079 C 
HETATM    3  C3  UNL     1     -36.758  17.090  -3.526  1.00 20.00     0.017 C 
HETATM    4  C4  UNL     1     -34.213  17.262  -3.547  1.00 20.00     0.011 C 
HETATM    5  C5  UNL     1     -34.028  16.725  -4.960  1.00 20.00     0.010 C 
HETATM    6  C6  UNL     1     -35.336  15.096  -3.667  1.00 20.00     0.071 C 
HETATM    7  C7  UNL     1     -35.429  16.498  -3.014  1.00 20.00    -0.033 C 
HETATM    8  C8  UNL     1     -34.347  15.219  -4.858  1.00 20.00    -0.037 C 
HETATM    9  C9  UNL     1     -35.418  16.433  -1.484  1.00 20.00     0.016 C 
HETATM   10  C10 UNL     1     -34.875  14.698  -6.199  1.00 20.00     0.015 C 
HETATM   11  C11 UNL     1     -33.059  14.441  -4.518  1.00 20.00     0.015 C 
HETATM   12  O12 UNL     1     -37.173  13.716  -4.443  1.00 20.00    -0.298 OA
ENDROOT
TORSDOF 0
ENDMDL
