MODEL 1
REMARK VINA RESULT:      -4.3      0.000      0.000
REMARK  0 active torsions:
REMARK  status: ('A' for Active; 'I' for Inactive)
ROOT
HETATM    1  C1  UNL     1     -40.989   5.670  -0.926  1.00 20.00    -0.020 A 
HETATM    2  C2  UNL     1     -40.924   5.750   0.416  1.00 20.00    -0.020 A 
HETATM    3  C3  UNL     1     -41.181   8.702  -0.423  1.00 20.00     0.002 C 
HETATM    4  C4  UNL     1     -41.941   8.008  -1.546  1.00 20.00     0.014 C 
HETATM    5  C5  UNL     1     -41.826   8.150   0.844  1.00 20.00     0.014 C 
HETATM    6  C6  UNL     1     -42.210   6.581  -1.033  1.00 20.00    -0.016 A 
HETATM    7  C7  UNL     1     -42.135   6.674   0.531  1.00 20.00    -0.016 A 
HETATM    8  C8  UNL     1     -43.417   5.937  -1.700  1.00 20.00     0.020 C 
HETATM    9  C9  UNL     1     -43.269   6.121   1.381  1.00 20.00     0.020 C 
ENDROOT
TORSDOF 0
ENDMDL
MODEL 2
REMARK VINA RESULT:      -4.3     22.794     24.043
REMARK  0 active torsions:
REMARK  status: ('A' for Active; 'I' for Inactive)
ROOT
HETATM    1  C1  UNL     1     -24.069  16.256  10.066  1.00 20.00    -0.020 A 
HETATM    2  C2  UNL     1     -24.440  16.263  11.360  1.00 20.00    -0.020 A 
HETATM    3  C3  UNL     1     -21.754  17.770  11.421  1.00 20.00     0.002 C 
HETATM    4  C4  UNL     1     -22.260  18.123  10.028  1.00 20.00     0.014 C 
HETATM    5  C5  UNL     1     -22.921  18.135  12.332  1.00 20.00     0.014 C 
HETATM    6  C6  UNL     1     -23.755  17.750  10.032  1.00 20.00    -0.016 A 
HETATM    7  C7  UNL     1     -24.187  17.759  11.540  1.00 20.00    -0.016 A 
HETATM    8  C8  UNL     1     -24.557  18.537   9.006  1.00 20.00     0.020 C 
HETATM    9  C9  UNL     1     -25.409  18.554  11.976  1.00 20.00     0.020 C 
ENDROOT
TORSDOF 0
ENDMDL
MODEL 3
REMARK VINA RESULT:      -4.3     22.787     23.763
REMARK  0 active torsions:
REMARK  status: ('A' for Active; 'I' for Inactive)
ROOT
HETATM    1  C1  UNL     1     -22.966  17.343  12.172  1.00 20.00    -0.020 A 
HETATM    2  C2  UNL     1     -23.597  18.521  12.332  1.00 20.00    -0.020 A 
HETATM    3  C3  UNL     1     -23.480  18.231   9.268  1.00 20.00     0.002 C 
HETATM    4  C4  UNL     1     -23.539  16.771   9.702  1.00 20.00     0.014 C 
HETATM    5  C5  UNL     1     -24.663  18.869   9.987  1.00 20.00     0.014 C 
HETATM    6  C6  UNL     1     -23.989  16.803  11.175  1.00 20.00    -0.016 A 
HETATM    7  C7  UNL     1     -24.725  18.175  11.361  1.00 20.00    -0.016 A 
HETATM    8  C8  UNL     1     -24.668  15.511  11.607  1.00 20.00     0.020 C 
HETATM    9  C9  UNL     1     -26.116  18.216  11.975  1.00 20.00     0.020 C 
ENDROOT
TORSDOF 0
ENDMDL
MODEL 4
REMARK VINA RESULT:      -4.2     22.672     23.699
REMARK  0 active torsions:
REMARK  status: ('A' for Active; 'I' for Inactive)
ROOT
HETATM    1  C1  UNL     1     -23.582  18.387  12.332  1.00 20.00    -0.020 A 
HETATM    2  C2  UNL     1     -22.864  17.956  11.278  1.00 20.00    -0.020 A 
HETATM    3  C3  UNL     1     -24.699  15.554  11.871  1.00 20.00     0.002 C 
HETATM    4  C4  UNL     1     -25.572  16.715  12.331  1.00 20.00     0.014 C 
HETATM    5  C5  UNL     1     -24.294  15.947  10.455  1.00 20.00     0.014 C 
HETATM    6  C6  UNL     1     -24.923  17.975  11.729  1.00 20.00    -0.016 A 
HETATM    7  C7  UNL     1     -24.088  17.473  10.500  1.00 20.00    -0.016 A 
HETATM    8  C8  UNL     1     -25.913  19.119  11.558  1.00 20.00     0.020 C 
HETATM    9  C9  UNL     1     -24.265  18.129   9.139  1.00 20.00     0.020 C 
ENDROOT
TORSDOF 0
ENDMDL
MODEL 5
REMARK VINA RESULT:      -4.2     22.607     23.927
REMARK  0 active torsions:
REMARK  status: ('A' for Active; 'I' for Inactive)
ROOT
HETATM    1  C1  UNL     1     -25.091  16.626  10.993  1.00 20.00    -0.020 A 
HETATM    2  C2  UNL     1     -23.795  16.263  11.004  1.00 20.00    -0.020 A 
HETATM    3  C3  UNL     1     -23.855  18.484   8.871  1.00 20.00     0.002 C 
HETATM    4  C4  UNL     1     -24.982  18.930   9.794  1.00 20.00     0.014 C 
HETATM    5  C5  UNL     1     -22.674  18.283   9.814  1.00 20.00     0.014 C 
HETATM    6  C6  UNL     1     -24.789  18.120  11.090  1.00 20.00    -0.016 A 
HETATM    7  C7  UNL     1     -23.279  17.698  11.103  1.00 20.00    -0.016 A 
HETATM    8  C8  UNL     1     -25.398  18.806  12.305  1.00 20.00     0.020 C 
HETATM    9  C9  UNL     1     -22.423  17.973  12.329  1.00 20.00     0.020 C 
ENDROOT
TORSDOF 0
ENDMDL
MODEL 6
REMARK VINA RESULT:      -4.1     10.658     12.246
REMARK  0 active torsions:
REMARK  status: ('A' for Active; 'I' for Inactive)
ROOT
HETATM    1  C1  UNL     1     -33.368  14.673  -4.620  1.00 20.00    -0.020 A 
HETATM    2  C2  UNL     1     -34.223  14.030  -3.804  1.00 20.00    -0.020 A 
HETATM    3  C3  UNL     1     -33.641  16.627  -2.255  1.00 20.00     0.002 C 
HETATM    4  C4  UNL     1     -33.485  17.100  -3.696  1.00 20.00     0.014 C 
HETATM    5  C5  UNL     1     -35.008  15.954  -2.243  1.00 20.00     0.014 C 
HETATM    6  C6  UNL     1     -34.128  15.996  -4.557  1.00 20.00    -0.016 A 
HETATM    7  C7  UNL     1     -35.125  15.248  -3.606  1.00 20.00    -0.016 A 
HETATM    8  C8  UNL     1     -34.605  16.511  -5.907  1.00 20.00     0.020 C 
HETATM    9  C9  UNL     1     -36.569  15.035  -4.034  1.00 20.00     0.020 C 
ENDROOT
TORSDOF 0
ENDMDL
MODEL 7
REMARK VINA RESULT:      -4.0     22.885     23.663
REMARK  0 active torsions:
REMARK  status: ('A' for Active; 'I' for Inactive)
ROOT
HETATM    1  C1  UNL     1     -22.661  18.138  11.238  1.00 20.00    -0.020 A 
HETATM    2  C2  UNL     1     -23.294  17.677  12.332  1.00 20.00    -0.020 A 
HETATM    3  C3  UNL     1     -25.546  19.128  10.814  1.00 20.00     0.002 C 
HETATM    4  C4  UNL     1     -24.658  18.673   9.662  1.00 20.00     0.014 C 
HETATM    5  C5  UNL     1     -25.785  17.851  11.612  1.00 20.00     0.014 C 
HETATM    6  C6  UNL     1     -23.718  17.614  10.268  1.00 20.00    -0.016 A 
HETATM    7  C7  UNL     1     -24.456  17.076  11.543  1.00 20.00    -0.016 A 
HETATM    8  C8  UNL     1     -23.188  16.638   9.227  1.00 20.00     0.020 C 
HETATM    9  C9  UNL     1     -24.641  15.579  11.740  1.00 20.00     0.020 C 
ENDROOT
TORSDOF 0
ENDMDL
MODEL 8
REMARK VINA RESULT:      -3.9     11.285     13.136
REMARK  0 active torsions:
REMARK  status: ('A' for Active; 'I' for Inactive)
ROOT
HETATM    1  C1  UNL     1     -34.244  18.222  -3.537  1.00 20.00    -0.020 A 
HETATM    2  C2  UNL     1     -35.469  17.870  -3.105  1.00 20.00    -0.020 A 
HETATM    3  C3  UNL     1     -34.200  15.155  -3.813  1.00 20.00     0.002 C 
HETATM    4  C4  UNL     1     -32.971  15.959  -3.406  1.00 20.00     0.014 C 
HETATM    5  C5  UNL     1     -35.154  15.333  -2.636  1.00 20.00     0.014 C 
HETATM    6  C6  UNL     1     -33.521  17.194  -2.668  1.00 20.00    -0.016 A 
HETATM    7  C7  UNL     1     -34.948  16.784  -2.164  1.00 20.00    -0.016 A 
HETATM    8  C8  UNL     1     -32.513  17.791  -1.696  1.00 20.00     0.020 C 
HETATM    9  C9  UNL     1     -35.326  16.984  -0.705  1.00 20.00     0.020 C 
ENDROOT
TORSDOF 0
ENDMDL
MODEL 9
REMARK VINA RESULT:      -3.9     10.161     12.016
REMARK  0 active torsions:
REMARK  status: ('A' for Active; 'I' for Inactive)
ROOT
HETATM    1  C1  UNL     1     -36.070  16.649  -2.952  1.00 20.00    -0.020 A 
HETATM    2  C2  UNL     1     -35.172  15.913  -2.271  1.00 20.00    -0.020 A 
HETATM    3  C3  UNL     1     -36.217  13.923  -4.377  1.00 20.00     0.002 C 
HETATM    4  C4  UNL     1     -36.366  15.245  -5.119  1.00 20.00     0.014 C 
HETATM    5  C5  UNL     1     -34.767  13.934  -3.907  1.00 20.00     0.014 C 
HETATM    6  C6  UNL     1     -35.521  16.256  -4.321  1.00 20.00    -0.016 A 
HETATM    7  C7  UNL     1     -34.474  15.398  -3.530  1.00 20.00    -0.016 A 
HETATM    8  C8  UNL     1     -35.056  17.429  -5.172  1.00 20.00     0.020 C 
HETATM    9  C9  UNL     1     -32.994  15.739  -3.610  1.00 20.00     0.020 C 
ENDROOT
TORSDOF 0
ENDMDL
