MODEL 1
REMARK VINA RESULT:      -5.1      0.000      0.000
REMARK  0 active torsions:
REMARK  status: ('A' for Active; 'I' for Inactive)
ROOT
HETATM    1  C1  UNL     1     -34.169  17.834  -3.910  1.00 20.00    -0.019 A 
HETATM    2  C2  UNL     1     -35.410  17.624  -3.439  1.00 20.00    -0.019 A 
HETATM    3  C3  UNL     1     -33.838  14.769  -4.391  1.00 20.00    -0.023 C 
HETATM    4  C4  UNL     1     -35.082  14.553  -3.936  1.00 20.00    -0.086 C 
HETATM    5  C5  UNL     1     -32.842  15.637  -3.684  1.00 20.00     0.042 C 
HETATM    6  C6  UNL     1     -35.571  15.175  -2.654  1.00 20.00     0.048 C 
HETATM    7  C7  UNL     1     -33.154  18.599  -1.158  1.00 20.00     0.001 C 
HETATM    8  C8  UNL     1     -34.567  18.355  -0.620  1.00 20.00     0.001 C 
HETATM    9  C9  UNL     1     -32.551  17.422  -1.922  1.00 20.00     0.015 C 
HETATM   10  C10 UNL     1     -35.146  16.978  -0.937  1.00 20.00     0.015 C 
HETATM   11  C11 UNL     1     -33.514  16.821  -2.963  1.00 20.00    -0.009 A 
HETATM   12  C12 UNL     1     -34.967  16.573  -2.413  1.00 20.00    -0.008 A 
HETATM   13  C13 UNL     1     -36.045  13.654  -4.653  1.00 20.00     0.043 C 
ENDROOT
TORSDOF 0
ENDMDL
MODEL 2
REMARK VINA RESULT:      -5.0      0.536      4.292
REMARK  0 active torsions:
REMARK  status: ('A' for Active; 'I' for Inactive)
ROOT
HETATM    1  C1  UNL     1     -35.465  17.386  -3.691  1.00 20.00    -0.019 A 
HETATM    2  C2  UNL     1     -34.216  17.651  -4.111  1.00 20.00    -0.019 A 
HETATM    3  C3  UNL     1     -34.556  17.812  -0.736  1.00 20.00    -0.023 C 
HETATM    4  C4  UNL     1     -33.309  18.093  -1.150  1.00 20.00    -0.086 C 
HETATM    5  C5  UNL     1     -35.341  16.635  -1.229  1.00 20.00     0.042 C 
HETATM    6  C6  UNL     1     -32.597  17.222  -2.152  1.00 20.00     0.048 C 
HETATM    7  C7  UNL     1     -35.211  14.470  -4.476  1.00 20.00     0.001 C 
HETATM    8  C8  UNL     1     -33.786  14.770  -4.951  1.00 20.00     0.001 C 
HETATM    9  C9  UNL     1     -35.501  14.875  -3.032  1.00 20.00     0.015 C 
HETATM   10  C10 UNL     1     -32.887  15.429  -3.908  1.00 20.00     0.015 C 
HETATM   11  C11 UNL     1     -35.024  16.302  -2.699  1.00 20.00    -0.009 A 
HETATM   12  C12 UNL     1     -33.563  16.613  -3.189  1.00 20.00    -0.008 A 
HETATM   13  C13 UNL     1     -32.539  19.262  -0.614  1.00 20.00     0.043 C 
ENDROOT
TORSDOF 0
ENDMDL
MODEL 3
REMARK VINA RESULT:      -4.8      1.628      4.189
REMARK  0 active torsions:
REMARK  status: ('A' for Active; 'I' for Inactive)
ROOT
HETATM    1  C1  UNL     1     -34.993  14.079  -4.142  1.00 20.00    -0.019 A 
HETATM    2  C2  UNL     1     -36.224  14.537  -3.855  1.00 20.00    -0.019 A 
HETATM    3  C3  UNL     1     -33.752  16.280  -2.310  1.00 20.00    -0.023 C 
HETATM    4  C4  UNL     1     -34.980  16.733  -2.007  1.00 20.00    -0.086 C 
HETATM    5  C5  UNL     1     -33.308  15.980  -3.709  1.00 20.00     0.042 C 
HETATM    6  C6  UNL     1     -36.013  16.984  -3.075  1.00 20.00     0.048 C 
HETATM    7  C7  UNL     1     -35.194  15.060  -7.003  1.00 20.00     0.001 C 
HETATM    8  C8  UNL     1     -36.594  15.585  -6.676  1.00 20.00     0.001 C 
HETATM    9  C9  UNL     1     -34.090  15.561  -6.073  1.00 20.00     0.015 C 
HETATM   10  C10 UNL     1     -36.663  16.522  -5.471  1.00 20.00     0.015 C 
HETATM   11  C11 UNL     1     -34.461  15.449  -4.582  1.00 20.00    -0.009 A 
HETATM   12  C12 UNL     1     -35.900  15.985  -4.244  1.00 20.00    -0.008 A 
HETATM   13  C13 UNL     1     -35.382  17.052  -0.598  1.00 20.00     0.043 C 
ENDROOT
TORSDOF 0
ENDMDL
MODEL 4
REMARK VINA RESULT:      -4.8      1.332      2.321
REMARK  0 active torsions:
REMARK  status: ('A' for Active; 'I' for Inactive)
ROOT
HETATM    1  C1  UNL     1     -32.950  16.648  -2.838  1.00 20.00    -0.019 A 
HETATM    2  C2  UNL     1     -33.181  17.656  -3.696  1.00 20.00    -0.019 A 
HETATM    3  C3  UNL     1     -34.173  14.633  -4.881  1.00 20.00    -0.023 C 
HETATM    4  C4  UNL     1     -34.394  15.633  -5.751  1.00 20.00    -0.086 C 
HETATM    5  C5  UNL     1     -34.539  14.708  -3.430  1.00 20.00     0.042 C 
HETATM    6  C6  UNL     1     -35.043  16.922  -5.320  1.00 20.00     0.048 C 
HETATM    7  C7  UNL     1     -35.078  17.660  -0.931  1.00 20.00     0.001 C 
HETATM    8  C8  UNL     1     -35.346  18.806  -1.911  1.00 20.00     0.001 C 
HETATM    9  C9  UNL     1     -35.167  16.263  -1.543  1.00 20.00     0.015 C 
HETATM   10  C10 UNL     1     -35.654  18.369  -3.341  1.00 20.00     0.015 C 
HETATM   11  C11 UNL     1     -34.396  16.135  -2.870  1.00 20.00    -0.009 A 
HETATM   12  C12 UNL     1     -34.666  17.314  -3.877  1.00 20.00    -0.008 A 
HETATM   13  C13 UNL     1     -34.043  15.513  -7.204  1.00 20.00     0.043 C 
ENDROOT
TORSDOF 0
ENDMDL
MODEL 5
REMARK VINA RESULT:      -4.8      1.248      4.269
REMARK  0 active torsions:
REMARK  status: ('A' for Active; 'I' for Inactive)
ROOT
HETATM    1  C1  UNL     1     -33.283  15.251  -5.305  1.00 20.00    -0.019 A 
HETATM    2  C2  UNL     1     -33.327  14.631  -4.113  1.00 20.00    -0.019 A 
HETATM    3  C3  UNL     1     -33.274  18.017  -3.860  1.00 20.00    -0.023 C 
HETATM    4  C4  UNL     1     -33.302  17.404  -2.665  1.00 20.00    -0.086 C 
HETATM    5  C5  UNL     1     -34.179  17.648  -4.996  1.00 20.00     0.042 C 
HETATM    6  C6  UNL     1     -34.269  16.285  -2.376  1.00 20.00     0.048 C 
HETATM    7  C7  UNL     1     -36.117  14.397  -5.957  1.00 20.00     0.001 C 
HETATM    8  C8  UNL     1     -36.169  13.694  -4.598  1.00 20.00     0.001 C 
HETATM    9  C9  UNL     1     -35.733  15.874  -5.898  1.00 20.00     0.015 C 
HETATM   10  C10 UNL     1     -35.824  14.580  -3.403  1.00 20.00     0.015 C 
HETATM   11  C11 UNL     1     -34.499  16.141  -5.015  1.00 20.00    -0.009 A 
HETATM   12  C12 UNL     1     -34.548  15.417  -3.620  1.00 20.00    -0.008 A 
HETATM   13  C13 UNL     1     -32.403  17.818  -1.539  1.00 20.00     0.043 C 
ENDROOT
TORSDOF 0
ENDMDL
MODEL 6
REMARK VINA RESULT:      -4.6      1.195      4.032
REMARK  0 active torsions:
REMARK  status: ('A' for Active; 'I' for Inactive)
ROOT
HETATM    1  C1  UNL     1     -33.198  17.726  -3.613  1.00 20.00    -0.019 A 
HETATM    2  C2  UNL     1     -32.984  16.662  -2.820  1.00 20.00    -0.019 A 
HETATM    3  C3  UNL     1     -35.418  18.728  -1.664  1.00 20.00    -0.023 C 
HETATM    4  C4  UNL     1     -35.200  17.675  -0.859  1.00 20.00    -0.086 C 
HETATM    5  C5  UNL     1     -35.573  18.610  -3.149  1.00 20.00     0.042 C 
HETATM    6  C6  UNL     1     -35.102  16.274  -1.403  1.00 20.00     0.048 C 
HETATM    7  C7  UNL     1     -34.392  15.983  -5.786  1.00 20.00     0.001 C 
HETATM    8  C8  UNL     1     -34.153  14.771  -4.882  1.00 20.00     0.001 C 
HETATM    9  C9  UNL     1     -35.201  17.109  -5.145  1.00 20.00     0.015 C 
HETATM   10  C10 UNL     1     -34.758  14.884  -3.484  1.00 20.00     0.015 C 
HETATM   11  C11 UNL     1     -34.707  17.478  -3.734  1.00 20.00    -0.009 A 
HETATM   12  C12 UNL     1     -34.458  16.234  -2.804  1.00 20.00    -0.008 A 
HETATM   13  C13 UNL     1     -35.080  17.825   0.629  1.00 20.00     0.043 C 
ENDROOT
TORSDOF 0
ENDMDL
MODEL 7
REMARK VINA RESULT:      -4.6      1.797      3.100
REMARK  0 active torsions:
REMARK  status: ('A' for Active; 'I' for Inactive)
ROOT
HETATM    1  C1  UNL     1     -34.471  14.544  -3.484  1.00 20.00    -0.019 A 
HETATM    2  C2  UNL     1     -33.512  15.016  -4.299  1.00 20.00    -0.019 A 
HETATM    3  C3  UNL     1     -36.625  15.210  -5.641  1.00 20.00    -0.023 C 
HETATM    4  C4  UNL     1     -35.670  15.670  -6.466  1.00 20.00    -0.086 C 
HETATM    5  C5  UNL     1     -36.716  15.591  -4.195  1.00 20.00     0.042 C 
HETATM    6  C6  UNL     1     -34.608  16.625  -5.988  1.00 20.00     0.048 C 
HETATM    7  C7  UNL     1     -34.120  16.869  -1.572  1.00 20.00     0.001 C 
HETATM    8  C8  UNL     1     -33.031  17.410  -2.501  1.00 20.00     0.001 C 
HETATM    9  C9  UNL     1     -35.463  16.601  -2.249  1.00 20.00     0.015 C 
HETATM   10  C10 UNL     1     -33.460  17.590  -3.956  1.00 20.00     0.015 C 
HETATM   11  C11 UNL     1     -35.327  15.815  -3.566  1.00 20.00    -0.009 A 
HETATM   12  C12 UNL     1     -34.206  16.366  -4.522  1.00 20.00    -0.008 A 
HETATM   13  C13 UNL     1     -35.627  15.292  -7.917  1.00 20.00     0.043 C 
ENDROOT
TORSDOF 0
ENDMDL
MODEL 8
REMARK VINA RESULT:      -4.4      1.296      3.817
REMARK  0 active torsions:
REMARK  status: ('A' for Active; 'I' for Inactive)
ROOT
HETATM    1  C1  UNL     1     -33.542  15.875  -3.043  1.00 20.00    -0.019 A 
HETATM    2  C2  UNL     1     -34.792  15.513  -2.709  1.00 20.00    -0.019 A 
HETATM    3  C3  UNL     1     -33.545  17.990  -0.750  1.00 20.00    -0.023 C 
HETATM    4  C4  UNL     1     -34.789  17.624  -0.400  1.00 20.00    -0.086 C 
HETATM    5  C5  UNL     1     -33.134  18.263  -2.165  1.00 20.00     0.042 C 
HETATM    6  C6  UNL     1     -35.881  17.465  -1.426  1.00 20.00     0.048 C 
HETATM    7  C7  UNL     1     -34.495  17.113  -5.640  1.00 20.00     0.001 C 
HETATM    8  C8  UNL     1     -35.920  16.706  -5.257  1.00 20.00     0.001 C 
HETATM    9  C9  UNL     1     -33.766  17.948  -4.589  1.00 20.00     0.015 C 
HETATM   10  C10 UNL     1     -36.382  17.195  -3.887  1.00 20.00     0.015 C 
HETATM   11  C11 UNL     1     -33.883  17.365  -3.168  1.00 20.00    -0.009 A 
HETATM   12  C12 UNL     1     -35.346  16.942  -2.774  1.00 20.00    -0.008 A 
HETATM   13  C13 UNL     1     -35.174  17.389   1.030  1.00 20.00     0.043 C 
ENDROOT
TORSDOF 0
ENDMDL
MODEL 9
REMARK VINA RESULT:      -4.4      1.948      3.683
REMARK  0 active torsions:
REMARK  status: ('A' for Active; 'I' for Inactive)
ROOT
HETATM    1  C1  UNL     1     -35.541  15.839  -5.746  1.00 20.00    -0.019 A 
HETATM    2  C2  UNL     1     -35.413  17.035  -5.145  1.00 20.00    -0.019 A 
HETATM    3  C3  UNL     1     -38.286  15.425  -4.321  1.00 20.00    -0.023 C 
HETATM    4  C4  UNL     1     -38.172  16.625  -3.730  1.00 20.00    -0.086 C 
HETATM    5  C5  UNL     1     -37.180  14.415  -4.357  1.00 20.00     0.042 C 
HETATM    6  C6  UNL     1     -36.900  17.045  -3.041  1.00 20.00     0.048 C 
HETATM    7  C7  UNL     1     -33.292  14.662  -4.091  1.00 20.00     0.001 C 
HETATM    8  C8  UNL     1     -33.147  16.022  -3.403  1.00 20.00     0.001 C 
HETATM    9  C9  UNL     1     -34.698  14.069  -4.044  1.00 20.00     0.015 C 
HETATM   10  C10 UNL     1     -34.432  16.569  -2.786  1.00 20.00     0.015 C 
HETATM   11  C11 UNL     1     -35.792  15.080  -4.436  1.00 20.00    -0.009 A 
HETATM   12  C12 UNL     1     -35.644  16.479  -3.734  1.00 20.00    -0.008 A 
HETATM   13  C13 UNL     1     -39.310  17.600  -3.686  1.00 20.00     0.043 C 
ENDROOT
TORSDOF 0
ENDMDL
