MODEL 1
REMARK VINA RESULT:      -4.4      0.000      0.000
REMARK  0 active torsions:
REMARK  status: ('A' for Active; 'I' for Inactive)
ROOT
HETATM    1  C1  UNL     1     -26.701  18.593  11.790  1.00 20.00     0.006 C 
HETATM    2  C2  UNL     1     -25.976  19.200  10.585  1.00 20.00     0.011 C 
HETATM    3  C3  UNL     1     -25.034  16.575  12.142  1.00 20.00     0.010 C 
HETATM    4  C4  UNL     1     -24.528  16.463  10.710  1.00 20.00     0.069 C 
HETATM    5  C5  UNL     1     -21.544  17.759  10.061  1.00 20.00     0.197 C 
HETATM    6  C6  UNL     1     -22.271  18.543   9.004  1.00 20.00     0.197 C 
HETATM    7  C7  UNL     1     -25.362  18.057  12.332  1.00 20.00    -0.005 C 
HETATM    8  C8  UNL     1     -24.615  18.821  11.213  1.00 20.00     0.052 C 
HETATM    9  C9  UNL     1     -23.764  17.768  10.506  1.00 20.00     0.168 C 
HETATM   10  O10 UNL     1     -22.477  17.701  11.139  1.00 20.00    -0.353 OA
HETATM   11  O11 UNL     1     -23.614  18.076   9.119  1.00 20.00    -0.353 OA
ENDROOT
TORSDOF 0
ENDMDL
MODEL 2
REMARK VINA RESULT:      -4.4     18.180     19.127
REMARK  0 active torsions:
REMARK  status: ('A' for Active; 'I' for Inactive)
ROOT
HETATM    1  C1  UNL     1     -35.081  15.927  -2.174  1.00 20.00     0.006 C 
HETATM    2  C2  UNL     1     -36.056  15.409  -3.237  1.00 20.00     0.011 C 
HETATM    3  C3  UNL     1     -32.897  15.671  -3.638  1.00 20.00     0.010 C 
HETATM    4  C4  UNL     1     -33.384  14.557  -4.556  1.00 20.00     0.069 C 
HETATM    5  C5  UNL     1     -34.351  15.430  -7.606  1.00 20.00     0.197 C 
HETATM    6  C6  UNL     1     -35.638  14.742  -7.242  1.00 20.00     0.197 C 
HETATM    7  C7  UNL     1     -34.154  16.466  -3.281  1.00 20.00    -0.005 C 
HETATM    8  C8  UNL     1     -35.223  16.104  -4.339  1.00 20.00     0.052 C 
HETATM    9  C9  UNL     1     -34.499  15.224  -5.356  1.00 20.00     0.168 C 
HETATM   10  O10 UNL     1     -33.947  16.055  -6.388  1.00 20.00    -0.353 OA
HETATM   11  O11 UNL     1     -35.386  14.258  -5.924  1.00 20.00    -0.353 OA
ENDROOT
TORSDOF 0
ENDMDL
MODEL 3
REMARK VINA RESULT:      -4.4     17.606     18.655
REMARK  0 active torsions:
REMARK  status: ('A' for Active; 'I' for Inactive)
ROOT
HETATM    1  C1  UNL     1     -33.860  16.937  -1.726  1.00 20.00     0.006 C 
HETATM    2  C2  UNL     1     -33.089  16.578  -3.000  1.00 20.00     0.011 C 
HETATM    3  C3  UNL     1     -36.270  16.799  -2.800  1.00 20.00     0.010 C 
HETATM    4  C4  UNL     1     -35.880  17.105  -4.240  1.00 20.00     0.069 C 
HETATM    5  C5  UNL     1     -35.686  14.536  -6.329  1.00 20.00     0.197 C 
HETATM    6  C6  UNL     1     -34.288  15.028  -6.580  1.00 20.00     0.197 C 
HETATM    7  C7  UNL     1     -35.054  16.087  -2.204  1.00 20.00    -0.005 C 
HETATM    8  C8  UNL     1     -34.207  15.585  -3.397  1.00 20.00     0.052 C 
HETATM    9  C9  UNL     1     -35.038  15.897  -4.639  1.00 20.00     0.168 C 
HETATM   10  O10 UNL     1     -35.881  14.774  -4.935  1.00 20.00    -0.353 OA
HETATM   11  O11 UNL     1     -34.199  16.191  -5.759  1.00 20.00    -0.353 OA
ENDROOT
TORSDOF 0
ENDMDL
MODEL 4
REMARK VINA RESULT:      -4.4     18.480     19.387
REMARK  0 active torsions:
REMARK  status: ('A' for Active; 'I' for Inactive)
ROOT
HETATM    1  C1  UNL     1     -34.859  15.803  -2.451  1.00 20.00     0.006 C 
HETATM    2  C2  UNL     1     -34.640  16.902  -3.496  1.00 20.00     0.011 C 
HETATM    3  C3  UNL     1     -35.464  13.889  -4.167  1.00 20.00     0.010 C 
HETATM    4  C4  UNL     1     -35.994  14.770  -5.291  1.00 20.00     0.069 C 
HETATM    5  C5  UNL     1     -33.969  15.320  -7.860  1.00 20.00     0.197 C 
HETATM    6  C6  UNL     1     -34.205  16.773  -7.552  1.00 20.00     0.197 C 
HETATM    7  C7  UNL     1     -34.402  14.739  -3.467  1.00 20.00    -0.005 C 
HETATM    8  C8  UNL     1     -34.013  15.864  -4.456  1.00 20.00     0.052 C 
HETATM    9  C9  UNL     1     -34.758  15.538  -5.749  1.00 20.00     0.168 C 
HETATM   10  O10 UNL     1     -33.927  14.706  -6.573  1.00 20.00    -0.353 OA
HETATM   11  O11 UNL     1     -35.112  16.730  -6.452  1.00 20.00    -0.353 OA
ENDROOT
TORSDOF 0
ENDMDL
MODEL 5
REMARK VINA RESULT:      -4.2     17.856     18.855
REMARK  0 active torsions:
REMARK  status: ('A' for Active; 'I' for Inactive)
ROOT
HETATM    1  C1  UNL     1     -35.545  14.753  -6.934  1.00 20.00     0.006 C 
HETATM    2  C2  UNL     1     -34.375  15.618  -6.456  1.00 20.00     0.011 C 
HETATM    3  C3  UNL     1     -36.189  13.800  -4.556  1.00 20.00     0.010 C 
HETATM    4  C4  UNL     1     -34.822  13.928  -3.897  1.00 20.00     0.069 C 
HETATM    5  C5  UNL     1     -34.370  16.498  -1.849  1.00 20.00     0.197 C 
HETATM    6  C6  UNL     1     -33.198  16.816  -2.736  1.00 20.00     0.197 C 
HETATM    7  C7  UNL     1     -36.246  14.940  -5.574  1.00 20.00    -0.005 C 
HETATM    8  C8  UNL     1     -35.153  15.955  -5.163  1.00 20.00     0.052 C 
HETATM    9  C9  UNL     1     -34.602  15.437  -3.836  1.00 20.00     0.168 C 
HETATM   10  O10 UNL     1     -35.356  16.010  -2.758  1.00 20.00    -0.353 OA
HETATM   11  O11 UNL     1     -33.217  15.759  -3.693  1.00 20.00    -0.353 OA
ENDROOT
TORSDOF 0
ENDMDL
MODEL 6
REMARK VINA RESULT:      -4.1     17.114     18.205
REMARK  0 active torsions:
REMARK  status: ('A' for Active; 'I' for Inactive)
ROOT
HETATM    1  C1  UNL     1     -34.250  17.419  -1.334  1.00 20.00     0.006 C 
HETATM    2  C2  UNL     1     -35.226  16.246  -1.471  1.00 20.00     0.011 C 
HETATM    3  C3  UNL     1     -32.992  17.014  -3.621  1.00 20.00     0.010 C 
HETATM    4  C4  UNL     1     -33.253  15.519  -3.747  1.00 20.00     0.069 C 
HETATM    5  C5  UNL     1     -35.654  14.577  -5.833  1.00 20.00     0.197 C 
HETATM    6  C6  UNL     1     -36.221  13.867  -4.635  1.00 20.00     0.197 C 
HETATM    7  C7  UNL     1     -34.204  17.565  -2.868  1.00 20.00    -0.005 C 
HETATM    8  C8  UNL     1     -35.322  16.503  -2.993  1.00 20.00     0.052 C 
HETATM    9  C9  UNL     1     -34.764  15.441  -3.939  1.00 20.00     0.168 C 
HETATM   10  O10 UNL     1     -35.117  15.782  -5.287  1.00 20.00    -0.353 OA
HETATM   11  O11 UNL     1     -35.268  14.145  -3.610  1.00 20.00    -0.353 OA
ENDROOT
TORSDOF 0
ENDMDL
MODEL 7
REMARK VINA RESULT:      -4.1     18.798     19.775
REMARK  0 active torsions:
REMARK  status: ('A' for Active; 'I' for Inactive)
ROOT
HETATM    1  C1  UNL     1     -34.883  15.889  -2.349  1.00 20.00     0.006 C 
HETATM    2  C2  UNL     1     -35.739  16.719  -3.311  1.00 20.00     0.011 C 
HETATM    3  C3  UNL     1     -34.756  13.730  -3.866  1.00 20.00     0.010 C 
HETATM    4  C4  UNL     1     -36.051  13.937  -4.642  1.00 20.00     0.069 C 
HETATM    5  C5  UNL     1     -35.787  15.133  -7.725  1.00 20.00     0.197 C 
HETATM    6  C6  UNL     1     -36.724  16.203  -7.238  1.00 20.00     0.197 C 
HETATM    7  C7  UNL     1     -34.259  15.140  -3.543  1.00 20.00    -0.005 C 
HETATM    8  C8  UNL     1     -34.988  16.099  -4.513  1.00 20.00     0.052 C 
HETATM    9  C9  UNL     1     -35.771  15.194  -5.461  1.00 20.00     0.168 C 
HETATM   10  O10 UNL     1     -34.950  14.880  -6.596  1.00 20.00    -0.353 OA
HETATM   11  O11 UNL     1     -36.982  15.821  -5.888  1.00 20.00    -0.353 OA
ENDROOT
TORSDOF 0
ENDMDL
MODEL 8
REMARK VINA RESULT:      -4.1     19.133     20.289
REMARK  0 active torsions:
REMARK  status: ('A' for Active; 'I' for Inactive)
ROOT
HETATM    1  C1  UNL     1     -33.289  14.484  -4.478  1.00 20.00     0.006 C 
HETATM    2  C2  UNL     1     -34.531  13.938  -3.768  1.00 20.00     0.011 C 
HETATM    3  C3  UNL     1     -34.575  15.579  -6.509  1.00 20.00     0.010 C 
HETATM    4  C4  UNL     1     -35.802  14.676  -6.496  1.00 20.00     0.069 C 
HETATM    5  C5  UNL     1     -38.565  15.905  -5.132  1.00 20.00     0.197 C 
HETATM    6  C6  UNL     1     -38.515  14.677  -4.267  1.00 20.00     0.197 C 
HETATM    7  C7  UNL     1     -34.121  15.649  -5.050  1.00 20.00    -0.005 C 
HETATM    8  C8  UNL     1     -35.325  15.197  -4.189  1.00 20.00     0.052 C 
HETATM    9  C9  UNL     1     -36.480  15.024  -5.174  1.00 20.00     0.168 C 
HETATM   10  O10 UNL     1     -37.192  16.264  -5.286  1.00 20.00    -0.353 OA
HETATM   11  O11 UNL     1     -37.364  13.985  -4.750  1.00 20.00    -0.353 OA
ENDROOT
TORSDOF 0
ENDMDL
MODEL 9
REMARK VINA RESULT:      -4.1     23.498     24.426
REMARK  0 active torsions:
REMARK  status: ('A' for Active; 'I' for Inactive)
ROOT
HETATM    1  C1  UNL     1     -42.311   9.074  -0.043  1.00 20.00     0.006 C 
HETATM    2  C2  UNL     1     -43.284   8.262  -0.904  1.00 20.00     0.011 C 
HETATM    3  C3  UNL     1     -40.836   7.026   0.736  1.00 20.00     0.010 C 
HETATM    4  C4  UNL     1     -41.894   5.939   0.605  1.00 20.00     0.069 C 
HETATM    5  C5  UNL     1     -41.735   3.993  -2.077  1.00 20.00     0.197 C 
HETATM    6  C6  UNL     1     -43.155   4.430  -2.304  1.00 20.00     0.197 C 
HETATM    7  C7  UNL     1     -41.192   8.056  -0.338  1.00 20.00    -0.005 C 
HETATM    8  C8  UNL     1     -42.123   7.340  -1.345  1.00 20.00     0.052 C 
HETATM    9  C9  UNL     1     -42.153   5.880  -0.897  1.00 20.00     0.168 C 
HETATM   10  O10 UNL     1     -41.102   5.163  -1.560  1.00 20.00    -0.353 OA
HETATM   11  O11 UNL     1     -43.417   5.280  -1.188  1.00 20.00    -0.353 OA
ENDROOT
TORSDOF 0
ENDMDL
