MODEL 1
REMARK VINA RESULT:      -4.7      0.000      0.000
REMARK  1 active torsions:
REMARK  status: ('A' for Active; 'I' for Inactive)
REMARK    1  A    between atoms: C1_1  and  C4_4 
ROOT
HETATM    1  C1  UNL     1     -33.987   6.382   4.295  1.00 20.00     0.102 C 
HETATM    2  C2  UNL     1     -33.373   6.101   3.132  1.00 20.00    -0.015 C 
HETATM    3  C3  UNL     1     -33.387   4.765   2.446  1.00 20.00     0.055 C 
HETATM    4  I8  UNL     1     -32.295   7.606   2.157  1.00 20.00    -0.050 I 
ENDROOT
BRANCH   1   5
HETATM    5  C4  UNL     1     -34.789   5.426   5.109  1.00 20.00     0.408 C 
HETATM    6  F5  UNL     1     -35.048   5.902   6.352  1.00 20.00    -0.167 F 
HETATM    7  F6  UNL     1     -34.167   4.229   5.256  1.00 20.00    -0.167 F 
HETATM    8  F7  UNL     1     -35.992   5.170   4.531  1.00 20.00    -0.167 F 
ENDBRANCH   1   5
TORSDOF 1
ENDMDL
MODEL 2
REMARK VINA RESULT:      -3.8     17.322     17.859
REMARK  1 active torsions:
REMARK  status: ('A' for Active; 'I' for Inactive)
REMARK    1  A    between atoms: C1_1  and  C4_4 
ROOT
HETATM    1  C1  UNL     1     -23.703  18.064   9.727  1.00 20.00     0.102 C 
HETATM    2  C2  UNL     1     -23.772  17.967  11.067  1.00 20.00    -0.015 C 
HETATM    3  C3  UNL     1     -22.613  17.667  11.974  1.00 20.00     0.055 C 
HETATM    4  I8  UNL     1     -25.614  18.248  12.018  1.00 20.00    -0.050 I 
ENDROOT
BRANCH   1   5
HETATM    5  C4  UNL     1     -22.473  17.891   8.905  1.00 20.00     0.408 C 
HETATM    6  F5  UNL     1     -21.902  16.674   9.084  1.00 20.00    -0.167 F 
HETATM    7  F6  UNL     1     -21.530  18.824   9.190  1.00 20.00    -0.167 F 
HETATM    8  F7  UNL     1     -22.743  18.004   7.579  1.00 20.00    -0.167 F 
ENDBRANCH   1   5
TORSDOF 1
ENDMDL
MODEL 3
REMARK VINA RESULT:      -3.8     11.892     12.405
REMARK  1 active torsions:
REMARK  status: ('A' for Active; 'I' for Inactive)
REMARK    1  A    between atoms: C1_1  and  C4_4 
ROOT
HETATM    1  C1  UNL     1     -35.396  15.115  -3.014  1.00 20.00     0.102 C 
HETATM    2  C2  UNL     1     -34.561  16.060  -2.543  1.00 20.00    -0.015 C 
HETATM    3  C3  UNL     1     -33.170  16.315  -3.049  1.00 20.00     0.055 C 
HETATM    4  I8  UNL     1     -35.198  17.299  -0.982  1.00 20.00    -0.050 I 
ENDROOT
BRANCH   1   5
HETATM    5  C4  UNL     1     -35.094  14.158  -4.115  1.00 20.00     0.408 C 
HETATM    6  F5  UNL     1     -33.982  13.423  -3.865  1.00 20.00    -0.167 F 
HETATM    7  F6  UNL     1     -34.905  14.785  -5.303  1.00 20.00    -0.167 F 
HETATM    8  F7  UNL     1     -36.111  13.276  -4.298  1.00 20.00    -0.167 F 
ENDBRANCH   1   5
TORSDOF 1
ENDMDL
MODEL 4
REMARK VINA RESULT:      -3.8     11.894     12.431
REMARK  1 active torsions:
REMARK  status: ('A' for Active; 'I' for Inactive)
REMARK    1  A    between atoms: C1_1  and  C4_4 
ROOT
HETATM    1  C1  UNL     1     -35.381  15.121  -3.026  1.00 20.00     0.102 C 
HETATM    2  C2  UNL     1     -34.534  16.058  -2.563  1.00 20.00    -0.015 C 
HETATM    3  C3  UNL     1     -33.141  16.294  -3.072  1.00 20.00     0.055 C 
HETATM    4  I8  UNL     1     -35.154  17.316  -1.009  1.00 20.00    -0.050 I 
ENDROOT
BRANCH   1   5
HETATM    5  C4  UNL     1     -35.092  14.153  -4.121  1.00 20.00     0.408 C 
HETATM    6  F5  UNL     1     -34.884  14.771  -5.310  1.00 20.00    -0.167 F 
HETATM    7  F6  UNL     1     -36.101  13.264  -4.300  1.00 20.00    -0.167 F 
HETATM    8  F7  UNL     1     -33.975  13.426  -3.859  1.00 20.00    -0.167 F 
ENDBRANCH   1   5
TORSDOF 1
ENDMDL
MODEL 5
REMARK VINA RESULT:      -3.8     11.929     12.463
REMARK  1 active torsions:
REMARK  status: ('A' for Active; 'I' for Inactive)
REMARK    1  A    between atoms: C1_1  and  C4_4 
ROOT
HETATM    1  C1  UNL     1     -35.578  15.021  -3.794  1.00 20.00     0.102 C 
HETATM    2  C2  UNL     1     -34.262  15.294  -3.730  1.00 20.00    -0.015 C 
HETATM    3  C3  UNL     1     -33.182  14.520  -4.430  1.00 20.00     0.055 C 
HETATM    4  I8  UNL     1     -33.611  16.914  -2.576  1.00 20.00    -0.050 I 
ENDROOT
BRANCH   1   5
HETATM    5  C4  UNL     1     -36.198  13.908  -4.567  1.00 20.00     0.408 C 
HETATM    6  F5  UNL     1     -35.915  13.983  -5.891  1.00 20.00    -0.167 F 
HETATM    7  F6  UNL     1     -37.549  13.888  -4.444  1.00 20.00    -0.167 F 
HETATM    8  F7  UNL     1     -35.751  12.698  -4.141  1.00 20.00    -0.167 F 
ENDBRANCH   1   5
TORSDOF 1
ENDMDL
MODEL 6
REMARK VINA RESULT:      -3.7     12.282     12.926
REMARK  1 active torsions:
REMARK  status: ('A' for Active; 'I' for Inactive)
REMARK    1  A    between atoms: C1_1  and  C4_4 
ROOT
HETATM    1  C1  UNL     1     -33.268  16.062  -3.502  1.00 20.00     0.102 C 
HETATM    2  C2  UNL     1     -33.754  16.669  -2.405  1.00 20.00    -0.015 C 
HETATM    3  C3  UNL     1     -35.080  16.370  -1.765  1.00 20.00     0.055 C 
HETATM    4  I8  UNL     1     -32.616  18.158  -1.473  1.00 20.00    -0.050 I 
ENDROOT
BRANCH   1   5
HETATM    5  C4  UNL     1     -33.952  14.989  -4.277  1.00 20.00     0.408 C 
HETATM    6  F5  UNL     1     -35.067  15.440  -4.905  1.00 20.00    -0.167 F 
HETATM    7  F6  UNL     1     -34.325  13.947  -3.493  1.00 20.00    -0.167 F 
HETATM    8  F7  UNL     1     -33.142  14.479  -5.241  1.00 20.00    -0.167 F 
ENDBRANCH   1   5
TORSDOF 1
ENDMDL
MODEL 7
REMARK VINA RESULT:      -3.6     16.732     17.338
REMARK  1 active torsions:
REMARK  status: ('A' for Active; 'I' for Inactive)
REMARK    1  A    between atoms: C1_1  and  C4_4 
ROOT
HETATM    1  C1  UNL     1     -24.473  18.353  10.334  1.00 20.00     0.102 C 
HETATM    2  C2  UNL     1     -23.248  17.908  10.668  1.00 20.00    -0.015 C 
HETATM    3  C3  UNL     1     -22.840  17.445  12.037  1.00 20.00     0.055 C 
HETATM    4  I8  UNL     1     -21.753  17.837   9.206  1.00 20.00    -0.050 I 
ENDROOT
BRANCH   1   5
HETATM    5  C4  UNL     1     -25.639  18.464  11.254  1.00 20.00     0.408 C 
HETATM    6  F5  UNL     1     -26.029  17.258  11.737  1.00 20.00    -0.167 F 
HETATM    7  F6  UNL     1     -26.718  19.024  10.652  1.00 20.00    -0.167 F 
HETATM    8  F7  UNL     1     -25.349  19.239  12.331  1.00 20.00    -0.167 F 
ENDBRANCH   1   5
TORSDOF 1
ENDMDL
MODEL 8
REMARK VINA RESULT:      -3.6      9.130      9.680
REMARK  1 active torsions:
REMARK  status: ('A' for Active; 'I' for Inactive)
REMARK    1  A    between atoms: C1_1  and  C4_4 
ROOT
HETATM    1  C1  UNL     1     -42.088   6.788  -0.822  1.00 20.00     0.102 C 
HETATM    2  C2  UNL     1     -42.732   5.680  -0.412  1.00 20.00    -0.015 C 
HETATM    3  C3  UNL     1     -43.013   5.322   1.019  1.00 20.00     0.055 C 
HETATM    4  I8  UNL     1     -43.417   4.310  -1.838  1.00 20.00    -0.050 I 
ENDROOT
BRANCH   1   5
HETATM    5  C4  UNL     1     -41.542   7.854   0.063  1.00 20.00     0.408 C 
HETATM    6  F5  UNL     1     -40.728   7.354   1.026  1.00 20.00    -0.167 F 
HETATM    7  F6  UNL     1     -42.521   8.555   0.688  1.00 20.00    -0.167 F 
HETATM    8  F7  UNL     1     -40.807   8.755  -0.640  1.00 20.00    -0.167 F 
ENDBRANCH   1   5
TORSDOF 1
ENDMDL
MODEL 9
REMARK VINA RESULT:      -3.5     16.940     17.476
REMARK  1 active torsions:
REMARK  status: ('A' for Active; 'I' for Inactive)
REMARK    1  A    between atoms: C1_1  and  C4_4 
ROOT
HETATM    1  C1  UNL     1     -22.907  17.013   9.649  1.00 20.00     0.102 C 
HETATM    2  C2  UNL     1     -24.021  17.374  10.312  1.00 20.00    -0.015 C 
HETATM    3  C3  UNL     1     -24.814  18.624  10.058  1.00 20.00     0.055 C 
HETATM    4  I8  UNL     1     -24.751  16.134  11.831  1.00 20.00    -0.050 I 
ENDROOT
BRANCH   1   5
HETATM    5  C4  UNL     1     -22.264  17.783   8.548  1.00 20.00     0.408 C 
HETATM    6  F5  UNL     1     -21.675  18.921   8.993  1.00 20.00    -0.167 F 
HETATM    7  F6  UNL     1     -23.149  18.138   7.583  1.00 20.00    -0.167 F 
HETATM    8  F7  UNL     1     -21.293  17.056   7.936  1.00 20.00    -0.167 F 
ENDBRANCH   1   5
TORSDOF 1
ENDMDL
