MODEL 1
REMARK VINA RESULT:      -4.4      0.000      0.000
REMARK  0 active torsions:
REMARK  status: ('A' for Active; 'I' for Inactive)
ROOT
HETATM    1  C1  UNL     1     -22.824  18.131  12.329  1.00 20.00     0.006 C 
HETATM    2  C2  UNL     1     -22.139  17.796  10.988  1.00 20.00     0.009 C 
HETATM    3  C3  UNL     1     -24.009  16.215  10.419  1.00 20.00     0.014 C 
HETATM    4  C4  UNL     1     -24.200  18.532   9.747  1.00 20.00     0.014 C 
HETATM    5  C5  UNL     1     -24.320  17.991  12.271  1.00 20.00    -0.006 A 
HETATM    6  C6  UNL     1     -24.909  16.910  11.405  1.00 20.00    -0.005 A 
HETATM    7  C7  UNL     1     -25.026  18.341  10.989  1.00 20.00    -0.005 A 
HETATM    8  C8  UNL     1     -23.150  17.394   9.884  1.00 20.00    -0.043 C 
HETATM    9  C9  UNL     1     -22.454  17.069   8.572  1.00 20.00     0.015 C 
ENDROOT
TORSDOF 0
ENDMDL
MODEL 2
REMARK VINA RESULT:      -4.4     15.765     16.981
REMARK  0 active torsions:
REMARK  status: ('A' for Active; 'I' for Inactive)
ROOT
HETATM    1  C1  UNL     1     -33.960   6.348   6.064  1.00 20.00     0.006 C 
HETATM    2  C2  UNL     1     -33.176   7.001   4.907  1.00 20.00     0.009 C 
HETATM    3  C3  UNL     1     -33.254   4.839   3.625  1.00 20.00     0.014 C 
HETATM    4  C4  UNL     1     -35.044   6.438   3.320  1.00 20.00     0.014 C 
HETATM    5  C5  UNL     1     -34.868   5.242   5.603  1.00 20.00    -0.006 A 
HETATM    6  C6  UNL     1     -34.428   4.383   4.449  1.00 20.00    -0.005 A 
HETATM    7  C7  UNL     1     -35.534   5.371   4.259  1.00 20.00    -0.005 A 
HETATM    8  C8  UNL     1     -33.507   6.369   3.531  1.00 20.00    -0.043 C 
HETATM    9  C9  UNL     1     -32.724   7.028   2.405  1.00 20.00     0.015 C 
ENDROOT
TORSDOF 0
ENDMDL
MODEL 3
REMARK VINA RESULT:      -4.3      0.793      2.992
REMARK  0 active torsions:
REMARK  status: ('A' for Active; 'I' for Inactive)
ROOT
HETATM    1  C1  UNL     1     -24.213  19.144   9.333  1.00 20.00     0.006 C 
HETATM    2  C2  UNL     1     -25.053  18.513  10.462  1.00 20.00     0.009 C 
HETATM    3  C3  UNL     1     -23.918  16.302  10.082  1.00 20.00     0.014 C 
HETATM    4  C4  UNL     1     -22.946  17.852  11.666  1.00 20.00     0.014 C 
HETATM    5  C5  UNL     1     -22.875  18.480   9.161  1.00 20.00    -0.006 A 
HETATM    6  C6  UNL     1     -22.769  16.999   9.403  1.00 20.00    -0.005 A 
HETATM    7  C7  UNL     1     -22.170  17.956  10.383  1.00 20.00    -0.005 A 
HETATM    8  C8  UNL     1     -24.325  17.339  11.165  1.00 20.00    -0.043 C 
HETATM    9  C9  UNL     1     -25.171  16.733  12.274  1.00 20.00     0.015 C 
ENDROOT
TORSDOF 0
ENDMDL
MODEL 4
REMARK VINA RESULT:      -4.3      0.853      2.819
REMARK  0 active torsions:
REMARK  status: ('A' for Active; 'I' for Inactive)
ROOT
HETATM    1  C1  UNL     1     -22.083  18.088  11.503  1.00 20.00     0.006 C 
HETATM    2  C2  UNL     1     -23.384  18.061  12.332  1.00 20.00     0.009 C 
HETATM    3  C3  UNL     1     -24.719  18.575  10.265  1.00 20.00     0.014 C 
HETATM    4  C4  UNL     1     -24.303  16.261  10.835  1.00 20.00     0.014 C 
HETATM    5  C5  UNL     1     -22.297  17.696  10.068  1.00 20.00    -0.006 A 
HETATM    6  C6  UNL     1     -23.590  18.082   9.401  1.00 20.00    -0.005 A 
HETATM    7  C7  UNL     1     -23.334  16.652   9.754  1.00 20.00    -0.005 A 
HETATM    8  C8  UNL     1     -24.616  17.632  11.495  1.00 20.00    -0.043 C 
HETATM    9  C9  UNL     1     -25.887  17.612  12.331  1.00 20.00     0.015 C 
ENDROOT
TORSDOF 0
ENDMDL
MODEL 5
REMARK VINA RESULT:      -4.3     17.349     18.438
REMARK  0 active torsions:
REMARK  status: ('A' for Active; 'I' for Inactive)
ROOT
HETATM    1  C1  UNL     1     -34.479  17.398  -4.797  1.00 20.00     0.006 C 
HETATM    2  C2  UNL     1     -35.397  16.187  -5.063  1.00 20.00     0.009 C 
HETATM    3  C3  UNL     1     -33.598  14.634  -4.243  1.00 20.00     0.014 C 
HETATM    4  C4  UNL     1     -35.199  15.503  -2.651  1.00 20.00     0.014 C 
HETATM    5  C5  UNL     1     -33.501  17.155  -3.682  1.00 20.00    -0.006 A 
HETATM    6  C6  UNL     1     -32.944  15.769  -3.501  1.00 20.00    -0.005 A 
HETATM    7  C7  UNL     1     -33.934  16.305  -2.518  1.00 20.00    -0.005 A 
HETATM    8  C8  UNL     1     -35.103  14.995  -4.116  1.00 20.00    -0.043 C 
HETATM    9  C9  UNL     1     -36.019  13.813  -4.395  1.00 20.00     0.015 C 
ENDROOT
TORSDOF 0
ENDMDL
MODEL 6
REMARK VINA RESULT:      -4.3     23.318     24.402
REMARK  0 active torsions:
REMARK  status: ('A' for Active; 'I' for Inactive)
ROOT
HETATM    1  C1  UNL     1     -43.394   6.141  -1.543  1.00 20.00     0.006 C 
HETATM    2  C2  UNL     1     -42.756   7.535  -1.375  1.00 20.00     0.009 C 
HETATM    3  C3  UNL     1     -43.288   7.490   1.082  1.00 20.00     0.014 C 
HETATM    4  C4  UNL     1     -41.164   6.605   0.335  1.00 20.00     0.014 C 
HETATM    5  C5  UNL     1     -43.305   5.304  -0.297  1.00 20.00    -0.006 A 
HETATM    6  C6  UNL     1     -43.401   5.990   1.039  1.00 20.00    -0.005 A 
HETATM    7  C7  UNL     1     -42.088   5.444   0.578  1.00 20.00    -0.005 A 
HETATM    8  C8  UNL     1     -42.166   7.755   0.042  1.00 20.00    -0.043 C 
HETATM    9  C9  UNL     1     -41.542   9.136   0.185  1.00 20.00     0.015 C 
ENDROOT
TORSDOF 0
ENDMDL
MODEL 7
REMARK VINA RESULT:      -4.2     23.602     24.648
REMARK  0 active torsions:
REMARK  status: ('A' for Active; 'I' for Inactive)
ROOT
HETATM    1  C1  UNL     1     -43.305   5.555   0.982  1.00 20.00     0.006 C 
HETATM    2  C2  UNL     1     -42.608   6.929   1.056  1.00 20.00     0.009 C 
HETATM    3  C3  UNL     1     -41.109   6.280  -0.855  1.00 20.00     0.014 C 
HETATM    4  C4  UNL     1     -43.213   7.370  -1.346  1.00 20.00     0.014 C 
HETATM    5  C5  UNL     1     -43.287   4.966  -0.401  1.00 20.00    -0.006 A 
HETATM    6  C6  UNL     1     -42.091   5.221  -1.277  1.00 20.00    -0.005 A 
HETATM    7  C7  UNL     1     -43.390   5.895  -1.581  1.00 20.00    -0.005 A 
HETATM    8  C8  UNL     1     -42.050   7.391  -0.315  1.00 20.00    -0.043 C 
HETATM    9  C9  UNL     1     -41.368   8.747  -0.218  1.00 20.00     0.015 C 
ENDROOT
TORSDOF 0
ENDMDL
MODEL 8
REMARK VINA RESULT:      -4.2      0.775      1.973
REMARK  0 active torsions:
REMARK  status: ('A' for Active; 'I' for Inactive)
ROOT
HETATM    1  C1  UNL     1     -24.665  15.889  11.357  1.00 20.00     0.006 C 
HETATM    2  C2  UNL     1     -23.899  16.261  10.071  1.00 20.00     0.009 C 
HETATM    3  C3  UNL     1     -24.847  18.588  10.173  1.00 20.00     0.014 C 
HETATM    4  C4  UNL     1     -22.752  18.136  11.295  1.00 20.00     0.014 C 
HETATM    5  C5  UNL     1     -24.896  17.067  12.261  1.00 20.00    -0.006 A 
HETATM    6  C6  UNL     1     -25.136  18.416  11.639  1.00 20.00    -0.005 A 
HETATM    7  C7  UNL     1     -23.841  18.138  12.332  1.00 20.00    -0.005 A 
HETATM    8  C8  UNL     1     -23.538  17.768  10.006  1.00 20.00    -0.043 C 
HETATM    9  C9  UNL     1     -22.783  18.113   8.732  1.00 20.00     0.015 C 
ENDROOT
TORSDOF 0
ENDMDL
MODEL 9
REMARK VINA RESULT:      -4.2     23.743     24.795
REMARK  0 active torsions:
REMARK  status: ('A' for Active; 'I' for Inactive)
ROOT
HETATM    1  C1  UNL     1     -42.989   6.210   1.342  1.00 20.00     0.006 C 
HETATM    2  C2  UNL     1     -43.238   5.059   0.346  1.00 20.00     0.009 C 
HETATM    3  C3  UNL     1     -43.288   6.705  -1.554  1.00 20.00     0.014 C 
HETATM    4  C4  UNL     1     -41.172   5.713  -0.930  1.00 20.00     0.014 C 
HETATM    5  C5  UNL     1     -42.263   7.372   0.723  1.00 20.00    -0.006 A 
HETATM    6  C6  UNL     1     -42.536   7.706  -0.719  1.00 20.00    -0.005 A 
HETATM    7  C7  UNL     1     -41.229   7.092  -0.335  1.00 20.00    -0.005 A 
HETATM    8  C8  UNL     1     -42.679   5.362  -1.068  1.00 20.00    -0.043 C 
HETATM    9  C9  UNL     1     -42.935   4.214  -2.033  1.00 20.00     0.015 C 
ENDROOT
TORSDOF 0
ENDMDL
