MODEL 1
REMARK VINA RESULT:      -5.2      0.000      0.000
REMARK  0 active torsions:
REMARK  status: ('A' for Active; 'I' for Inactive)
ROOT
HETATM    1  C1  UNL     1     -34.585   5.166   5.898  1.00 20.00     0.129 C 
HETATM    2  C2  UNL     1     -34.215   6.656   5.771  1.00 20.00     0.254 C 
HETATM    3  C3  UNL     1     -34.931   5.176   4.395  1.00 20.00     0.313 C 
HETATM    4  C4  UNL     1     -33.987   6.399   4.261  1.00 20.00     0.338 C 
HETATM    5  F5  UNL     1     -33.131   7.060   6.470  1.00 20.00    -0.243 F 
HETATM    6  F6  UNL     1     -34.567   4.076   3.700  1.00 20.00    -0.199 F 
HETATM    7  F7  UNL     1     -36.231   5.415   4.102  1.00 20.00    -0.199 F 
HETATM    8  F8  UNL     1     -32.714   6.109   3.911  1.00 20.00    -0.196 F 
HETATM    9  F9  UNL     1     -34.409   7.376   3.429  1.00 20.00    -0.196 F 
ENDROOT
TORSDOF 0
ENDMDL
MODEL 2
REMARK VINA RESULT:      -5.1      1.010      2.722
REMARK  0 active torsions:
REMARK  status: ('A' for Active; 'I' for Inactive)
ROOT
HETATM    1  C1  UNL     1     -33.991   6.801   5.626  1.00 20.00     0.129 C 
HETATM    2  C2  UNL     1     -34.321   5.306   5.791  1.00 20.00     0.254 C 
HETATM    3  C3  UNL     1     -33.843   6.548   4.111  1.00 20.00     0.313 C 
HETATM    4  C4  UNL     1     -34.752   5.307   4.304  1.00 20.00     0.338 C 
HETATM    5  F5  UNL     1     -35.290   5.009   6.685  1.00 20.00    -0.243 F 
HETATM    6  F6  UNL     1     -34.333   7.513   3.302  1.00 20.00    -0.199 F 
HETATM    7  F7  UNL     1     -32.585   6.282   3.690  1.00 20.00    -0.199 F 
HETATM    8  F8  UNL     1     -36.070   5.518   4.086  1.00 20.00    -0.196 F 
HETATM    9  F9  UNL     1     -34.407   4.212   3.592  1.00 20.00    -0.196 F 
ENDROOT
TORSDOF 0
ENDMDL
MODEL 3
REMARK VINA RESULT:      -5.1      1.391      2.355
REMARK  0 active torsions:
REMARK  status: ('A' for Active; 'I' for Inactive)
ROOT
HETATM    1  C1  UNL     1     -33.380   6.585   5.539  1.00 20.00     0.129 C 
HETATM    2  C2  UNL     1     -34.104   6.789   4.195  1.00 20.00     0.254 C 
HETATM    3  C3  UNL     1     -34.474   5.566   5.916  1.00 20.00     0.313 C 
HETATM    4  C4  UNL     1     -34.726   5.386   4.396  1.00 20.00     0.338 C 
HETATM    5  F5  UNL     1     -33.311   6.931   3.110  1.00 20.00    -0.243 F 
HETATM    6  F6  UNL     1     -34.051   4.464   6.573  1.00 20.00    -0.199 F 
HETATM    7  F7  UNL     1     -35.516   6.068   6.618  1.00 20.00    -0.199 F 
HETATM    8  F8  UNL     1     -34.052   4.367   3.816  1.00 20.00    -0.196 F 
HETATM    9  F9  UNL     1     -36.020   5.259   4.028  1.00 20.00    -0.196 F 
ENDROOT
TORSDOF 0
ENDMDL
MODEL 4
REMARK VINA RESULT:      -5.1      1.729      2.101
REMARK  0 active torsions:
REMARK  status: ('A' for Active; 'I' for Inactive)
ROOT
HETATM    1  C1  UNL     1     -33.693   6.448   4.729  1.00 20.00     0.129 C 
HETATM    2  C2  UNL     1     -33.276   6.810   3.290  1.00 20.00     0.254 C 
HETATM    3  C3  UNL     1     -34.521   5.287   4.142  1.00 20.00     0.313 C 
HETATM    4  C4  UNL     1     -33.587   5.342   2.905  1.00 20.00     0.338 C 
HETATM    5  F5  UNL     1     -31.993   7.202   3.126  1.00 20.00    -0.243 F 
HETATM    6  F6  UNL     1     -34.495   4.132   4.844  1.00 20.00    -0.199 F 
HETATM    7  F7  UNL     1     -35.821   5.569   3.896  1.00 20.00    -0.199 F 
HETATM    8  F8  UNL     1     -32.530   4.499   2.943  1.00 20.00    -0.196 F 
HETATM    9  F9  UNL     1     -34.188   5.164   1.709  1.00 20.00    -0.196 F 
ENDROOT
TORSDOF 0
ENDMDL
MODEL 5
REMARK VINA RESULT:      -4.8      1.351      2.424
REMARK  0 active torsions:
REMARK  status: ('A' for Active; 'I' for Inactive)
ROOT
HETATM    1  C1  UNL     1     -34.182   6.565   3.977  1.00 20.00     0.129 C 
HETATM    2  C2  UNL     1     -33.368   6.427   5.278  1.00 20.00     0.254 C 
HETATM    3  C3  UNL     1     -34.860   5.222   4.319  1.00 20.00     0.313 C 
HETATM    4  C4  UNL     1     -34.491   5.497   5.800  1.00 20.00     0.338 C 
HETATM    5  F5  UNL     1     -33.175   7.566   5.979  1.00 20.00    -0.243 F 
HETATM    6  F6  UNL     1     -36.181   5.144   4.049  1.00 20.00    -0.199 F 
HETATM    7  F7  UNL     1     -34.281   4.127   3.774  1.00 20.00    -0.199 F 
HETATM    8  F8  UNL     1     -35.453   6.107   6.529  1.00 20.00    -0.196 F 
HETATM    9  F9  UNL     1     -34.081   4.423   6.510  1.00 20.00    -0.196 F 
ENDROOT
TORSDOF 0
ENDMDL
MODEL 6
REMARK VINA RESULT:      -4.7      1.203      2.533
REMARK  0 active torsions:
REMARK  status: ('A' for Active; 'I' for Inactive)
ROOT
HETATM    1  C1  UNL     1     -33.941   5.006   2.777  1.00 20.00     0.129 C 
HETATM    2  C2  UNL     1     -32.841   5.978   3.246  1.00 20.00     0.254 C 
HETATM    3  C3  UNL     1     -34.630   5.208   4.142  1.00 20.00     0.313 C 
HETATM    4  C4  UNL     1     -33.877   6.560   4.240  1.00 20.00     0.338 C 
HETATM    5  F5  UNL     1     -32.374   6.838   2.313  1.00 20.00    -0.243 F 
HETATM    6  F6  UNL     1     -35.978   5.289   4.115  1.00 20.00    -0.199 F 
HETATM    7  F7  UNL     1     -34.309   4.299   5.092  1.00 20.00    -0.199 F 
HETATM    8  F8  UNL     1     -34.564   7.636   3.794  1.00 20.00    -0.196 F 
HETATM    9  F9  UNL     1     -33.400   6.878   5.464  1.00 20.00    -0.196 F 
ENDROOT
TORSDOF 0
ENDMDL
MODEL 7
REMARK VINA RESULT:      -4.5      1.492      3.075
REMARK  0 active torsions:
REMARK  status: ('A' for Active; 'I' for Inactive)
ROOT
HETATM    1  C1  UNL     1     -32.840   5.194   2.737  1.00 20.00     0.129 C 
HETATM    2  C2  UNL     1     -34.227   5.181   3.409  1.00 20.00     0.254 C 
HETATM    3  C3  UNL     1     -32.802   6.719   2.963  1.00 20.00     0.313 C 
HETATM    4  C4  UNL     1     -33.823   6.501   4.109  1.00 20.00     0.338 C 
HETATM    5  F5  UNL     1     -34.480   4.134   4.225  1.00 20.00    -0.243 F 
HETATM    6  F6  UNL     1     -31.606   7.229   3.332  1.00 20.00    -0.199 F 
HETATM    7  F7  UNL     1     -33.247   7.469   1.928  1.00 20.00    -0.199 F 
HETATM    8  F8  UNL     1     -33.284   6.359   5.342  1.00 20.00    -0.196 F 
HETATM    9  F9  UNL     1     -34.796   7.433   4.212  1.00 20.00    -0.196 F 
ENDROOT
TORSDOF 0
ENDMDL
MODEL 8
REMARK VINA RESULT:      -4.5      7.962      9.350
REMARK  0 active torsions:
REMARK  status: ('A' for Active; 'I' for Inactive)
ROOT
HETATM    1  C1  UNL     1     -41.562   8.013  -1.318  1.00 20.00     0.129 C 
HETATM    2  C2  UNL     1     -41.821   6.553  -0.900  1.00 20.00     0.254 C 
HETATM    3  C3  UNL     1     -42.032   8.445   0.086  1.00 20.00     0.313 C 
HETATM    4  C4  UNL     1     -41.662   7.018   0.568  1.00 20.00     0.338 C 
HETATM    5  F5  UNL     1     -40.918   5.644  -1.331  1.00 20.00    -0.243 F 
HETATM    6  F6  UNL     1     -41.337   9.454   0.655  1.00 20.00    -0.199 F 
HETATM    7  F7  UNL     1     -43.343   8.764   0.184  1.00 20.00    -0.199 F 
HETATM    8  F8  UNL     1     -40.418   6.888   1.083  1.00 20.00    -0.196 F 
HETATM    9  F9  UNL     1     -42.513   6.460   1.456  1.00 20.00    -0.196 F 
ENDROOT
TORSDOF 0
ENDMDL
MODEL 9
REMARK VINA RESULT:      -4.4      1.781      3.393
REMARK  0 active torsions:
REMARK  status: ('A' for Active; 'I' for Inactive)
ROOT
HETATM    1  C1  UNL     1     -34.030   6.828   4.006  1.00 20.00     0.129 C 
HETATM    2  C2  UNL     1     -34.001   5.288   4.060  1.00 20.00     0.254 C 
HETATM    3  C3  UNL     1     -32.921   6.761   2.937  1.00 20.00     0.313 C 
HETATM    4  C4  UNL     1     -33.404   5.319   2.631  1.00 20.00     0.338 C 
HETATM    5  F5  UNL     1     -35.200   4.677   4.183  1.00 20.00    -0.243 F 
HETATM    6  F6  UNL     1     -33.030   7.643   1.920  1.00 20.00    -0.199 F 
HETATM    7  F7  UNL     1     -31.656   6.858   3.409  1.00 20.00    -0.199 F 
HETATM    8  F8  UNL     1     -34.304   5.214   1.627  1.00 20.00    -0.196 F 
HETATM    9  F9  UNL     1     -32.431   4.416   2.382  1.00 20.00    -0.196 F 
ENDROOT
TORSDOF 0
ENDMDL
