MODEL 1
REMARK VINA RESULT:      -4.5      0.000      0.000
REMARK  0 active torsions:
REMARK  status: ('A' for Active; 'I' for Inactive)
ROOT
HETATM    1  C1  UNL     1     -24.598  18.356   8.664  1.00 20.00     0.006 C 
HETATM    2  C2  UNL     1     -24.696  18.494  10.184  1.00 20.00     0.009 C 
HETATM    3  C3  UNL     1     -23.165  18.206   8.218  1.00 20.00    -0.005 A 
HETATM    4  C4  UNL     1     -22.025  18.446   9.159  1.00 20.00    -0.000 A 
HETATM    5  C5  UNL     1     -22.387  17.030   8.703  1.00 20.00    -0.000 A 
HETATM    6  C6  UNL     1     -22.419  17.398  10.155  1.00 20.00     0.003 A 
HETATM    7  C7  UNL     1     -23.744  17.514  10.914  1.00 20.00    -0.043 C 
HETATM    8  C8  UNL     1     -23.468  18.053  12.331  1.00 20.00     0.015 C 
HETATM    9  C9  UNL     1     -24.402  16.128  11.047  1.00 20.00     0.015 C 
ENDROOT
TORSDOF 0
ENDMDL
MODEL 2
REMARK VINA RESULT:      -4.4     23.072     24.275
REMARK  0 active torsions:
REMARK  status: ('A' for Active; 'I' for Inactive)
ROOT
HETATM    1  C1  UNL     1     -43.300   7.079   1.140  1.00 20.00     0.006 C 
HETATM    2  C2  UNL     1     -42.425   5.908   0.690  1.00 20.00     0.009 C 
HETATM    3  C3  UNL     1     -42.867   8.370   0.491  1.00 20.00    -0.005 A 
HETATM    4  C4  UNL     1     -41.578   8.469  -0.265  1.00 20.00    -0.000 A 
HETATM    5  C5  UNL     1     -42.923   8.473  -0.996  1.00 20.00    -0.000 A 
HETATM    6  C6  UNL     1     -41.904   7.411  -1.275  1.00 20.00     0.003 A 
HETATM    7  C7  UNL     1     -42.128   5.963  -0.829  1.00 20.00    -0.043 C 
HETATM    8  C8  UNL     1     -40.853   5.145  -1.114  1.00 20.00     0.015 C 
HETATM    9  C9  UNL     1     -43.288   5.336  -1.624  1.00 20.00     0.015 C 
ENDROOT
TORSDOF 0
ENDMDL
MODEL 3
REMARK VINA RESULT:      -4.3      1.129      2.402
REMARK  0 active torsions:
REMARK  status: ('A' for Active; 'I' for Inactive)
ROOT
HETATM    1  C1  UNL     1     -21.843  18.050  11.414  1.00 20.00     0.006 C 
HETATM    2  C2  UNL     1     -22.824  17.117  12.124  1.00 20.00     0.009 C 
HETATM    3  C3  UNL     1     -21.997  17.973   9.915  1.00 20.00    -0.005 A 
HETATM    4  C4  UNL     1     -22.825  16.905   9.270  1.00 20.00    -0.000 A 
HETATM    5  C5  UNL     1     -23.306  18.358   9.313  1.00 20.00    -0.000 A 
HETATM    6  C6  UNL     1     -24.109  17.266   9.952  1.00 20.00     0.003 A 
HETATM    7  C7  UNL     1     -24.230  17.159  11.476  1.00 20.00    -0.043 C 
HETATM    8  C8  UNL     1     -24.980  15.861  11.832  1.00 20.00     0.015 C 
HETATM    9  C9  UNL     1     -25.039  18.347  12.027  1.00 20.00     0.015 C 
ENDROOT
TORSDOF 0
ENDMDL
MODEL 4
REMARK VINA RESULT:      -4.2     22.807     23.969
REMARK  0 active torsions:
REMARK  status: ('A' for Active; 'I' for Inactive)
ROOT
HETATM    1  C1  UNL     1     -43.330   7.583  -1.618  1.00 20.00     0.006 C 
HETATM    2  C2  UNL     1     -43.362   6.280  -0.818  1.00 20.00     0.009 C 
HETATM    3  C3  UNL     1     -42.677   8.693  -0.834  1.00 20.00    -0.005 A 
HETATM    4  C4  UNL     1     -42.375   8.545   0.625  1.00 20.00    -0.000 A 
HETATM    5  C5  UNL     1     -41.255   8.531  -0.418  1.00 20.00    -0.000 A 
HETATM    6  C6  UNL     1     -41.478   7.353   0.481  1.00 20.00     0.003 A 
HETATM    7  C7  UNL     1     -42.031   6.033  -0.066  1.00 20.00    -0.043 C 
HETATM    8  C8  UNL     1     -42.296   5.072   1.109  1.00 20.00     0.015 C 
HETATM    9  C9  UNL     1     -41.000   5.375  -1.002  1.00 20.00     0.015 C 
ENDROOT
TORSDOF 0
ENDMDL
MODEL 5
REMARK VINA RESULT:      -4.1     22.771     23.936
REMARK  0 active torsions:
REMARK  status: ('A' for Active; 'I' for Inactive)
ROOT
HETATM    1  C1  UNL     1     -42.999   6.281  -1.727  1.00 20.00     0.006 C 
HETATM    2  C2  UNL     1     -42.535   7.727  -1.540  1.00 20.00     0.009 C 
HETATM    3  C3  UNL     1     -42.133   5.322  -0.949  1.00 20.00    -0.005 A 
HETATM    4  C4  UNL     1     -40.846   5.764  -0.324  1.00 20.00    -0.000 A 
HETATM    5  C5  UNL     1     -42.075   5.457   0.535  1.00 20.00    -0.000 A 
HETATM    6  C6  UNL     1     -41.449   6.818   0.553  1.00 20.00     0.003 A 
HETATM    7  C7  UNL     1     -42.159   8.025  -0.068  1.00 20.00    -0.043 C 
HETATM    8  C8  UNL     1     -41.211   9.239  -0.035  1.00 20.00     0.015 C 
HETATM    9  C9  UNL     1     -43.417   8.376   0.746  1.00 20.00     0.015 C 
ENDROOT
TORSDOF 0
ENDMDL
MODEL 6
REMARK VINA RESULT:      -4.1     16.799     18.527
REMARK  0 active torsions:
REMARK  status: ('A' for Active; 'I' for Inactive)
ROOT
HETATM    1  C1  UNL     1     -33.109  14.891  -4.237  1.00 20.00     0.006 C 
HETATM    2  C2  UNL     1     -34.117  14.925  -5.387  1.00 20.00     0.009 C 
HETATM    3  C3  UNL     1     -33.461  15.894  -3.168  1.00 20.00    -0.005 A 
HETATM    4  C4  UNL     1     -34.509  16.940  -3.393  1.00 20.00    -0.000 A 
HETATM    5  C5  UNL     1     -34.766  15.753  -2.460  1.00 20.00    -0.000 A 
HETATM    6  C6  UNL     1     -35.631  15.984  -3.662  1.00 20.00     0.003 A 
HETATM    7  C7  UNL     1     -35.573  15.046  -4.871  1.00 20.00    -0.043 C 
HETATM    8  C8  UNL     1     -36.451  15.622  -5.999  1.00 20.00     0.015 C 
HETATM    9  C9  UNL     1     -36.125  13.659  -4.494  1.00 20.00     0.015 C 
ENDROOT
TORSDOF 0
ENDMDL
MODEL 7
REMARK VINA RESULT:      -4.1     22.812     24.034
REMARK  0 active torsions:
REMARK  status: ('A' for Active; 'I' for Inactive)
ROOT
HETATM    1  C1  UNL     1     -42.703   6.190   1.310  1.00 20.00     0.006 C 
HETATM    2  C2  UNL     1     -43.405   7.397   0.685  1.00 20.00     0.009 C 
HETATM    3  C3  UNL     1     -41.962   5.387   0.271  1.00 20.00    -0.005 A 
HETATM    4  C4  UNL     1     -42.157   5.635  -1.193  1.00 20.00    -0.000 A 
HETATM    5  C5  UNL     1     -40.861   6.046  -0.488  1.00 20.00    -0.000 A 
HETATM    6  C6  UNL     1     -41.719   7.068  -1.170  1.00 20.00     0.003 A 
HETATM    7  C7  UNL     1     -42.510   8.103  -0.364  1.00 20.00    -0.043 C 
HETATM    8  C8  UNL     1     -43.410   8.908  -1.322  1.00 20.00     0.015 C 
HETATM    9  C9  UNL     1     -41.547   9.085   0.328  1.00 20.00     0.015 C 
ENDROOT
TORSDOF 0
ENDMDL
MODEL 8
REMARK VINA RESULT:      -4.0     23.146     24.363
REMARK  0 active torsions:
REMARK  status: ('A' for Active; 'I' for Inactive)
ROOT
HETATM    1  C1  UNL     1     -41.024   7.357   0.720  1.00 20.00     0.006 C 
HETATM    2  C2  UNL     1     -41.165   6.051  -0.062  1.00 20.00     0.009 C 
HETATM    3  C3  UNL     1     -41.947   8.422   0.182  1.00 20.00    -0.005 A 
HETATM    4  C4  UNL     1     -42.673   8.242  -1.115  1.00 20.00    -0.000 A 
HETATM    5  C5  UNL     1     -43.417   8.176   0.221  1.00 20.00    -0.000 A 
HETATM    6  C6  UNL     1     -43.414   7.003  -0.712  1.00 20.00     0.003 A 
HETATM    7  C7  UNL     1     -42.646   5.722  -0.372  1.00 20.00    -0.043 C 
HETATM    8  C8  UNL     1     -42.700   4.766  -1.579  1.00 20.00     0.015 C 
HETATM    9  C9  UNL     1     -43.301   5.016   0.829  1.00 20.00     0.015 C 
ENDROOT
TORSDOF 0
ENDMDL
MODEL 9
REMARK VINA RESULT:      -4.0     16.603     18.313
REMARK  0 active torsions:
REMARK  status: ('A' for Active; 'I' for Inactive)
ROOT
HETATM    1  C1  UNL     1     -35.424  17.553  -4.178  1.00 20.00     0.006 C 
HETATM    2  C2  UNL     1     -36.136  16.312  -4.720  1.00 20.00     0.009 C 
HETATM    3  C3  UNL     1     -34.704  17.253  -2.888  1.00 20.00    -0.005 A 
HETATM    4  C4  UNL     1     -34.926  15.968  -2.151  1.00 20.00    -0.000 A 
HETATM    5  C5  UNL     1     -33.617  16.232  -2.899  1.00 20.00    -0.000 A 
HETATM    6  C6  UNL     1     -34.486  15.068  -3.265  1.00 20.00     0.003 A 
HETATM    7  C7  UNL     1     -35.261  15.042  -4.586  1.00 20.00    -0.043 C 
HETATM    8  C8  UNL     1     -36.178  13.804  -4.609  1.00 20.00     0.015 C 
HETATM    9  C9  UNL     1     -34.283  14.937  -5.771  1.00 20.00     0.015 C 
ENDROOT
TORSDOF 0
ENDMDL
