MODEL 1
REMARK VINA RESULT:      -5.9      0.000      0.000
REMARK  3 active torsions:
REMARK  status: ('A' for Active; 'I' for Inactive)
REMARK    1  A    between atoms: C2_2  and  C5_5 
REMARK    2  A    between atoms: C4_4  and  C5_5 
REMARK    3  A    between atoms: C4_4  and  C6_6 
ROOT
HETATM    1  C4  UNL     1     -33.719   6.073   4.145  1.00 20.00     0.353 C 
HETATM    2  F7  UNL     1     -34.314   7.300   4.244  1.00 20.00    -0.233 F 
ENDROOT
BRANCH   1   3
HETATM    3  C5  UNL     1     -33.178   5.948   2.724  1.00 20.00     0.300 C 
HETATM    4  F8  UNL     1     -34.160   5.439   1.930  1.00 20.00    -0.198 F 
HETATM    5  F9  UNL     1     -32.192   5.005   2.740  1.00 20.00    -0.198 F 
BRANCH   3   6
HETATM    6  C2  UNL     1     -32.622   7.227   2.173  1.00 20.00     0.050 C 
HETATM    7  C1  UNL     1     -33.196   7.948   1.200  1.00 20.00    -0.029 C 
HETATM    8  C3  UNL     1     -32.626   9.219   0.662  1.00 20.00     0.036 C 
ENDBRANCH   3   6
ENDBRANCH   1   3
BRANCH   1   9
HETATM    9  C6  UNL     1     -34.760   5.043   4.526  1.00 20.00     0.424 C 
HETATM   10  F10 UNL     1     -35.987   5.377   4.076  1.00 20.00    -0.168 F 
HETATM   11  F11 UNL     1     -34.453   3.824   4.036  1.00 20.00    -0.168 F 
HETATM   12  F12 UNL     1     -34.843   4.936   5.872  1.00 20.00    -0.168 F 
ENDBRANCH   1   9
TORSDOF 3
ENDMDL
MODEL 2
REMARK VINA RESULT:      -5.9      0.021      1.086
REMARK  3 active torsions:
REMARK  status: ('A' for Active; 'I' for Inactive)
REMARK    1  A    between atoms: C2_2  and  C5_5 
REMARK    2  A    between atoms: C4_4  and  C5_5 
REMARK    3  A    between atoms: C4_4  and  C6_6 
ROOT
HETATM    1  C4  UNL     1     -33.734   6.090   4.144  1.00 20.00     0.353 C 
HETATM    2  F7  UNL     1     -34.353   7.307   4.226  1.00 20.00    -0.233 F 
ENDROOT
BRANCH   1   3
HETATM    3  C5  UNL     1     -33.192   5.956   2.725  1.00 20.00     0.300 C 
HETATM    4  F8  UNL     1     -34.175   5.449   1.931  1.00 20.00    -0.198 F 
HETATM    5  F9  UNL     1     -32.210   5.008   2.747  1.00 20.00    -0.198 F 
BRANCH   3   6
HETATM    6  C2  UNL     1     -32.628   7.229   2.169  1.00 20.00     0.050 C 
HETATM    7  C1  UNL     1     -33.194   7.946   1.187  1.00 20.00    -0.029 C 
HETATM    8  C3  UNL     1     -32.616   9.211   0.644  1.00 20.00     0.036 C 
ENDBRANCH   3   6
ENDBRANCH   1   3
BRANCH   1   9
HETATM    9  C6  UNL     1     -34.756   5.046   4.540  1.00 20.00     0.424 C 
HETATM   10  F10 UNL     1     -34.464   3.834   4.023  1.00 20.00    -0.168 F 
HETATM   11  F11 UNL     1     -34.839   4.919   5.881  1.00 20.00    -0.168 F 
HETATM   12  F12 UNL     1     -35.981   5.392   4.083  1.00 20.00    -0.168 F 
ENDBRANCH   1   9
TORSDOF 3
ENDMDL
MODEL 3
REMARK VINA RESULT:      -5.2      1.185      2.092
REMARK  3 active torsions:
REMARK  status: ('A' for Active; 'I' for Inactive)
REMARK    1  A    between atoms: C2_2  and  C5_5 
REMARK    2  A    between atoms: C4_4  and  C5_5 
REMARK    3  A    between atoms: C4_4  and  C6_6 
ROOT
HETATM    1  C4  UNL     1     -34.456   5.962   4.163  1.00 20.00     0.353 C 
HETATM    2  F7  UNL     1     -34.650   4.650   3.833  1.00 20.00    -0.233 F 
ENDROOT
BRANCH   1   3
HETATM    3  C5  UNL     1     -33.203   6.432   3.432  1.00 20.00     0.300 C 
HETATM    4  F8  UNL     1     -32.474   5.338   3.074  1.00 20.00    -0.198 F 
HETATM    5  F9  UNL     1     -32.431   7.111   4.329  1.00 20.00    -0.198 F 
BRANCH   3   6
HETATM    6  C2  UNL     1     -33.485   7.321   2.258  1.00 20.00     0.050 C 
HETATM    7  C1  UNL     1     -32.543   7.901   1.500  1.00 20.00    -0.029 C 
HETATM    8  C3  UNL     1     -32.843   8.788   0.337  1.00 20.00     0.036 C 
ENDBRANCH   3   6
ENDBRANCH   1   3
BRANCH   1   9
HETATM    9  C6  UNL     1     -34.379   6.032   5.674  1.00 20.00     0.424 C 
HETATM   10  F10 UNL     1     -33.339   5.322   6.158  1.00 20.00    -0.168 F 
HETATM   11  F11 UNL     1     -34.253   7.304   6.104  1.00 20.00    -0.168 F 
HETATM   12  F12 UNL     1     -35.504   5.522   6.224  1.00 20.00    -0.168 F 
ENDBRANCH   1   9
TORSDOF 3
ENDMDL
MODEL 4
REMARK VINA RESULT:      -5.2      0.934      2.084
REMARK  3 active torsions:
REMARK  status: ('A' for Active; 'I' for Inactive)
REMARK    1  A    between atoms: C2_2  and  C5_5 
REMARK    2  A    between atoms: C4_4  and  C5_5 
REMARK    3  A    between atoms: C4_4  and  C6_6 
ROOT
HETATM    1  C4  UNL     1     -33.640   5.465   2.835  1.00 20.00     0.353 C 
HETATM    2  F7  UNL     1     -32.617   4.580   2.636  1.00 20.00    -0.233 F 
ENDROOT
BRANCH   1   3
HETATM    3  C5  UNL     1     -33.016   6.849   2.984  1.00 20.00     0.300 C 
HETATM    4  F8  UNL     1     -31.995   6.770   3.881  1.00 20.00    -0.198 F 
HETATM    5  F9  UNL     1     -33.949   7.662   3.558  1.00 20.00    -0.198 F 
BRANCH   3   6
HETATM    6  C2  UNL     1     -32.572   7.456   1.686  1.00 20.00     0.050 C 
HETATM    7  C1  UNL     1     -33.083   8.577   1.158  1.00 20.00    -0.029 C 
HETATM    8  C3  UNL     1     -32.631   9.165  -0.138  1.00 20.00     0.036 C 
ENDBRANCH   3   6
ENDBRANCH   1   3
BRANCH   1   9
HETATM    9  C6  UNL     1     -34.417   4.980   4.040  1.00 20.00     0.424 C 
HETATM   10  F10 UNL     1     -34.019   5.591   5.175  1.00 20.00    -0.168 F 
HETATM   11  F11 UNL     1     -35.741   5.193   3.892  1.00 20.00    -0.168 F 
HETATM   12  F12 UNL     1     -34.231   3.652   4.214  1.00 20.00    -0.168 F 
ENDBRANCH   1   9
TORSDOF 3
ENDMDL
MODEL 5
REMARK VINA RESULT:      -4.7      2.123      4.390
REMARK  3 active torsions:
REMARK  status: ('A' for Active; 'I' for Inactive)
REMARK    1  A    between atoms: C2_2  and  C5_5 
REMARK    2  A    between atoms: C4_4  and  C5_5 
REMARK    3  A    between atoms: C4_4  and  C6_6 
ROOT
HETATM    1  C4  UNL     1     -32.911   7.377   2.532  1.00 20.00     0.353 C 
HETATM    2  F7  UNL     1     -31.746   7.496   3.238  1.00 20.00    -0.233 F 
ENDROOT
BRANCH   1   3
HETATM    3  C5  UNL     1     -33.266   5.894   2.493  1.00 20.00     0.300 C 
HETATM    4  F8  UNL     1     -32.117   5.177   2.352  1.00 20.00    -0.198 F 
HETATM    5  F9  UNL     1     -33.982   5.671   1.354  1.00 20.00    -0.198 F 
BRANCH   3   6
HETATM    6  C2  UNL     1     -34.069   5.433   3.673  1.00 20.00     0.050 C 
HETATM    7  C1  UNL     1     -34.142   6.083   4.843  1.00 20.00    -0.029 C 
HETATM    8  C3  UNL     1     -34.944   5.608   6.009  1.00 20.00     0.036 C 
ENDBRANCH   3   6
ENDBRANCH   1   3
BRANCH   1   9
HETATM    9  C6  UNL     1     -32.676   8.014   1.179  1.00 20.00     0.424 C 
HETATM   10  F10 UNL     1     -31.539   7.570   0.604  1.00 20.00    -0.168 F 
HETATM   11  F11 UNL     1     -33.697   7.767   0.333  1.00 20.00    -0.168 F 
HETATM   12  F12 UNL     1     -32.563   9.356   1.306  1.00 20.00    -0.168 F 
ENDBRANCH   1   9
TORSDOF 3
ENDMDL
MODEL 6
REMARK VINA RESULT:      -4.6     11.014     12.412
REMARK  3 active torsions:
REMARK  status: ('A' for Active; 'I' for Inactive)
REMARK    1  A    between atoms: C2_2  and  C5_5 
REMARK    2  A    between atoms: C4_4  and  C5_5 
REMARK    3  A    between atoms: C4_4  and  C6_6 
ROOT
HETATM    1  C4  UNL     1     -34.269  15.263  -5.538  1.00 20.00     0.353 C 
HETATM    2  F7  UNL     1     -33.491  14.637  -6.472  1.00 20.00    -0.233 F 
ENDROOT
BRANCH   1   3
HETATM    3  C5  UNL     1     -33.844  14.735  -4.171  1.00 20.00     0.300 C 
HETATM    4  F8  UNL     1     -32.604  14.185  -4.285  1.00 20.00    -0.198 F 
HETATM    5  F9  UNL     1     -34.678  13.704  -3.850  1.00 20.00    -0.198 F 
BRANCH   3   6
HETATM    6  C2  UNL     1     -33.899  15.764  -3.082  1.00 20.00     0.050 C 
HETATM    7  C1  UNL     1     -34.921  15.912  -2.227  1.00 20.00    -0.029 C 
HETATM    8  C3  UNL     1     -34.960  16.945  -1.149  1.00 20.00     0.036 C 
ENDBRANCH   3   6
ENDBRANCH   1   3
BRANCH   1   9
HETATM    9  C6  UNL     1     -35.711  14.993  -5.909  1.00 20.00     0.424 C 
HETATM   10  F10 UNL     1     -35.948  13.676  -6.083  1.00 20.00    -0.168 F 
HETATM   11  F11 UNL     1     -36.558  15.448  -4.963  1.00 20.00    -0.168 F 
HETATM   12  F12 UNL     1     -36.021  15.612  -7.070  1.00 20.00    -0.168 F 
ENDBRANCH   1   9
TORSDOF 3
ENDMDL
MODEL 7
REMARK VINA RESULT:      -4.6      8.699      9.692
REMARK  3 active torsions:
REMARK  status: ('A' for Active; 'I' for Inactive)
REMARK    1  A    between atoms: C2_2  and  C5_5 
REMARK    2  A    between atoms: C4_4  and  C5_5 
REMARK    3  A    between atoms: C4_4  and  C6_6 
ROOT
HETATM    1  C4  UNL     1     -41.653   7.206  -1.010  1.00 20.00     0.353 C 
HETATM    2  F7  UNL     1     -42.789   7.503  -1.710  1.00 20.00    -0.233 F 
ENDROOT
BRANCH   1   3
HETATM    3  C5  UNL     1     -41.677   5.708  -0.724  1.00 20.00     0.300 C 
HETATM    4  F8  UNL     1     -41.867   5.525   0.612  1.00 20.00    -0.198 F 
HETATM    5  F9  UNL     1     -40.433   5.217  -0.990  1.00 20.00    -0.198 F 
BRANCH   3   6
HETATM    6  C2  UNL     1     -42.685   4.953  -1.539  1.00 20.00     0.050 C 
HETATM    7  C1  UNL     1     -42.401   3.888  -2.300  1.00 20.00    -0.029 C 
HETATM    8  C3  UNL     1     -43.417   3.150  -3.108  1.00 20.00     0.036 C 
ENDBRANCH   3   6
ENDBRANCH   1   3
BRANCH   1   9
HETATM    9  C6  UNL     1     -41.645   8.092   0.218  1.00 20.00     0.424 C 
HETATM   10  F10 UNL     1     -42.861   8.159   0.798  1.00 20.00    -0.168 F 
HETATM   11  F11 UNL     1     -40.766   7.650   1.141  1.00 20.00    -0.168 F 
HETATM   12  F12 UNL     1     -41.290   9.354  -0.116  1.00 20.00    -0.168 F 
ENDBRANCH   1   9
TORSDOF 3
ENDMDL
MODEL 8
REMARK VINA RESULT:      -4.5     10.585     12.581
REMARK  3 active torsions:
REMARK  status: ('A' for Active; 'I' for Inactive)
REMARK    1  A    between atoms: C2_2  and  C5_5 
REMARK    2  A    between atoms: C4_4  and  C5_5 
REMARK    3  A    between atoms: C4_4  and  C6_6 
ROOT
HETATM    1  C4  UNL     1     -35.293  14.507  -5.415  1.00 20.00     0.353 C 
HETATM    2  F7  UNL     1     -36.442  15.179  -5.103  1.00 20.00    -0.233 F 
ENDROOT
BRANCH   1   3
HETATM    3  C5  UNL     1     -34.547  14.259  -4.108  1.00 20.00     0.300 C 
HETATM    4  F8  UNL     1     -33.210  14.250  -4.366  1.00 20.00    -0.198 F 
HETATM    5  F9  UNL     1     -34.851  12.995  -3.694  1.00 20.00    -0.198 F 
BRANCH   3   6
HETATM    6  C2  UNL     1     -34.897  15.227  -3.018  1.00 20.00     0.050 C 
HETATM    7  C1  UNL     1     -34.051  16.131  -2.504  1.00 20.00    -0.029 C 
HETATM    8  C3  UNL     1     -34.417  17.086  -1.416  1.00 20.00     0.036 C 
ENDBRANCH   3   6
ENDBRANCH   1   3
BRANCH   1   9
HETATM    9  C6  UNL     1     -34.547  15.352  -6.426  1.00 20.00     0.424 C 
HETATM   10  F10 UNL     1     -35.330  15.694  -7.471  1.00 20.00    -0.168 F 
HETATM   11  F11 UNL     1     -34.072  16.485  -5.870  1.00 20.00    -0.168 F 
HETATM   12  F12 UNL     1     -33.494  14.665  -6.924  1.00 20.00    -0.168 F 
ENDBRANCH   1   9
TORSDOF 3
ENDMDL
MODEL 9
REMARK VINA RESULT:      -4.4     10.836     11.847
REMARK  3 active torsions:
REMARK  status: ('A' for Active; 'I' for Inactive)
REMARK    1  A    between atoms: C2_2  and  C5_5 
REMARK    2  A    between atoms: C4_4  and  C5_5 
REMARK    3  A    between atoms: C4_4  and  C6_6 
ROOT
HETATM    1  C4  UNL     1     -35.442  15.022  -3.975  1.00 20.00     0.353 C 
HETATM    2  F7  UNL     1     -36.024  16.161  -4.457  1.00 20.00    -0.233 F 
ENDROOT
BRANCH   1   3
HETATM    3  C5  UNL     1     -33.953  15.104  -4.299  1.00 20.00     0.300 C 
HETATM    4  F8  UNL     1     -33.812  15.377  -5.625  1.00 20.00    -0.198 F 
HETATM    5  F9  UNL     1     -33.423  13.860  -4.120  1.00 20.00    -0.198 F 
BRANCH   3   6
HETATM    6  C2  UNL     1     -33.202  16.083  -3.446  1.00 20.00     0.050 C 
HETATM    7  C1  UNL     1     -33.704  16.683  -2.357  1.00 20.00    -0.029 C 
HETATM    8  C3  UNL     1     -32.942  17.657  -1.521  1.00 20.00     0.036 C 
ENDBRANCH   3   6
ENDBRANCH   1   3
BRANCH   1   9
HETATM    9  C6  UNL     1     -36.169  13.852  -4.603  1.00 20.00     0.424 C 
HETATM   10  F10 UNL     1     -35.742  12.670  -4.112  1.00 20.00    -0.168 F 
HETATM   11  F11 UNL     1     -37.501  13.932  -4.401  1.00 20.00    -0.168 F 
HETATM   12  F12 UNL     1     -35.957  13.831  -5.939  1.00 20.00    -0.168 F 
ENDBRANCH   1   9
TORSDOF 3
ENDMDL
