MODEL 1
REMARK VINA RESULT:      -5.3      0.000      0.000
REMARK  0 active torsions:
REMARK  status: ('A' for Active; 'I' for Inactive)
ROOT
HETATM    1  C1  UNL     1     -24.128  16.800   9.745  1.00 20.00    -0.019 A 
HETATM    2  C2  UNL     1     -24.297  16.540  11.053  1.00 20.00    -0.019 A 
HETATM    3  C3  UNL     1     -26.178  19.144   9.953  1.00 20.00    -0.023 C 
HETATM    4  C4  UNL     1     -26.362  18.882  11.258  1.00 20.00    -0.086 C 
HETATM    5  C5  UNL     1     -24.826  19.243   9.315  1.00 20.00     0.042 C 
HETATM    6  C6  UNL     1     -25.198  18.670  12.191  1.00 20.00     0.048 C 
HETATM    7  C7  UNL     1     -21.307  17.806  10.212  1.00 20.00     0.001 C 
HETATM    8  C8  UNL     1     -21.499  17.511  11.702  1.00 20.00     0.001 C 
HETATM    9  C9  UNL     1     -22.374  18.709   9.596  1.00 20.00     0.015 C 
HETATM   10  C10 UNL     1     -22.727  18.166  12.332  1.00 20.00     0.015 C 
HETATM   11  C11 UNL     1     -23.809  18.285   9.964  1.00 20.00    -0.009 A 
HETATM   12  C12 UNL     1     -24.007  17.981  11.494  1.00 20.00    -0.008 A 
HETATM   13  C13 UNL     1     -27.730  18.823  11.870  1.00 20.00     0.043 C 
ENDROOT
TORSDOF 0
ENDMDL
MODEL 2
REMARK VINA RESULT:      -5.2     16.802     18.609
REMARK  0 active torsions:
REMARK  status: ('A' for Active; 'I' for Inactive)
ROOT
HETATM    1  C1  UNL     1     -34.225  14.103  -3.808  1.00 20.00    -0.019 A 
HETATM    2  C2  UNL     1     -33.206  14.757  -4.392  1.00 20.00    -0.019 A 
HETATM    3  C3  UNL     1     -34.614  16.490  -1.834  1.00 20.00    -0.023 C 
HETATM    4  C4  UNL     1     -33.587  17.143  -2.404  1.00 20.00    -0.086 C 
HETATM    5  C5  UNL     1     -35.712  15.839  -2.617  1.00 20.00     0.042 C 
HETATM    6  C6  UNL     1     -33.470  17.273  -3.901  1.00 20.00     0.048 C 
HETATM    7  C7  UNL     1     -35.976  14.450  -6.257  1.00 20.00     0.001 C 
HETATM    8  C8  UNL     1     -34.816  15.194  -6.923  1.00 20.00     0.001 C 
HETATM    9  C9  UNL     1     -36.400  15.009  -4.900  1.00 20.00     0.015 C 
HETATM   10  C10 UNL     1     -34.268  16.375  -6.123  1.00 20.00     0.015 C 
HETATM   11  C11 UNL     1     -35.210  15.271  -3.958  1.00 20.00    -0.009 A 
HETATM   12  C12 UNL     1     -34.017  16.035  -4.641  1.00 20.00    -0.008 A 
HETATM   13  C13 UNL     1     -32.521  17.813  -1.588  1.00 20.00     0.043 C 
ENDROOT
TORSDOF 0
ENDMDL
MODEL 3
REMARK VINA RESULT:      -5.0     14.080     16.027
REMARK  0 active torsions:
REMARK  status: ('A' for Active; 'I' for Inactive)
ROOT
HETATM    1  C1  UNL     1     -34.748  18.996  -1.758  1.00 20.00    -0.019 A 
HETATM    2  C2  UNL     1     -33.644  19.041  -2.524  1.00 20.00    -0.019 A 
HETATM    3  C3  UNL     1     -35.162  16.004  -2.547  1.00 20.00    -0.023 C 
HETATM    4  C4  UNL     1     -34.068  16.046  -3.325  1.00 20.00    -0.086 C 
HETATM    5  C5  UNL     1     -35.198  16.534  -1.146  1.00 20.00     0.042 C 
HETATM    6  C6  UNL     1     -32.772  16.635  -2.831  1.00 20.00     0.048 C 
HETATM    7  C7  UNL     1     -33.109  19.211   0.782  1.00 20.00     0.001 C 
HETATM    8  C8  UNL     1     -31.852  19.263  -0.089  1.00 20.00     0.001 C 
HETATM    9  C9  UNL     1     -34.015  18.008   0.528  1.00 20.00     0.015 C 
HETATM   10  C10 UNL     1     -31.706  18.103  -1.073  1.00 20.00     0.015 C 
HETATM   11  C11 UNL     1     -34.288  17.763  -0.968  1.00 20.00    -0.009 A 
HETATM   12  C12 UNL     1     -32.997  17.817  -1.864  1.00 20.00    -0.008 A 
HETATM   13  C13 UNL     1     -34.059  15.477  -4.712  1.00 20.00     0.043 C 
ENDROOT
TORSDOF 0
ENDMDL
MODEL 4
REMARK VINA RESULT:      -5.0     16.418     18.241
REMARK  0 active torsions:
REMARK  status: ('A' for Active; 'I' for Inactive)
ROOT
HETATM    1  C1  UNL     1     -34.672  17.400  -4.840  1.00 20.00    -0.019 A 
HETATM    2  C2  UNL     1     -35.821  17.333  -4.146  1.00 20.00    -0.019 A 
HETATM    3  C3  UNL     1     -33.058  17.141  -2.181  1.00 20.00    -0.023 C 
HETATM    4  C4  UNL     1     -34.202  17.086  -1.479  1.00 20.00    -0.086 C 
HETATM    5  C5  UNL     1     -32.810  16.330  -3.416  1.00 20.00     0.042 C 
HETATM    6  C6  UNL     1     -35.337  16.183  -1.890  1.00 20.00     0.048 C 
HETATM    7  C7  UNL     1     -35.145  14.671  -6.071  1.00 20.00     0.001 C 
HETATM    8  C8  UNL     1     -36.453  14.593  -5.280  1.00 20.00     0.001 C 
HETATM    9  C9  UNL     1     -33.903  14.950  -5.227  1.00 20.00     0.015 C 
HETATM   10  C10 UNL     1     -36.306  14.809  -3.775  1.00 20.00     0.015 C 
HETATM   11  C11 UNL     1     -34.097  16.113  -4.234  1.00 20.00    -0.009 A 
HETATM   12  C12 UNL     1     -35.441  16.034  -3.422  1.00 20.00    -0.008 A 
HETATM   13  C13 UNL     1     -34.404  17.888  -0.228  1.00 20.00     0.043 C 
ENDROOT
TORSDOF 0
ENDMDL
MODEL 5
REMARK VINA RESULT:      -4.9     15.375     17.168
REMARK  0 active torsions:
REMARK  status: ('A' for Active; 'I' for Inactive)
ROOT
HETATM    1  C1  UNL     1     -34.164  17.688  -4.077  1.00 20.00    -0.019 A 
HETATM    2  C2  UNL     1     -35.414  17.411  -3.667  1.00 20.00    -0.019 A 
HETATM    3  C3  UNL     1     -33.301  18.143  -1.112  1.00 20.00    -0.023 C 
HETATM    4  C4  UNL     1     -34.551  17.881  -0.696  1.00 20.00    -0.086 C 
HETATM    5  C5  UNL     1     -32.564  17.288  -2.097  1.00 20.00     0.042 C 
HETATM    6  C6  UNL     1     -35.313  16.681  -1.197  1.00 20.00     0.048 C 
HETATM    7  C7  UNL     1     -33.693  14.808  -4.894  1.00 20.00     0.001 C 
HETATM    8  C8  UNL     1     -35.116  14.492  -4.428  1.00 20.00     0.001 C 
HETATM    9  C9  UNL     1     -32.811  15.484  -3.846  1.00 20.00     0.015 C 
HETATM   10  C10 UNL     1     -35.425  14.904  -2.990  1.00 20.00     0.015 C 
HETATM   11  C11 UNL     1     -33.508  16.664  -3.142  1.00 20.00    -0.009 A 
HETATM   12  C12 UNL     1     -34.970  16.340  -2.663  1.00 20.00    -0.008 A 
HETATM   13  C13 UNL     1     -35.247  18.741   0.317  1.00 20.00     0.043 C 
ENDROOT
TORSDOF 0
ENDMDL
MODEL 6
REMARK VINA RESULT:      -4.9     16.399     18.245
REMARK  0 active torsions:
REMARK  status: ('A' for Active; 'I' for Inactive)
ROOT
HETATM    1  C1  UNL     1     -36.237  16.724  -3.044  1.00 20.00    -0.019 A 
HETATM    2  C2  UNL     1     -35.442  15.968  -2.266  1.00 20.00    -0.019 A 
HETATM    3  C3  UNL     1     -33.842  18.644  -3.610  1.00 20.00    -0.023 C 
HETATM    4  C4  UNL     1     -33.046  17.902  -2.824  1.00 20.00    -0.086 C 
HETATM    5  C5  UNL     1     -34.739  18.062  -4.659  1.00 20.00     0.042 C 
HETATM    6  C6  UNL     1     -32.994  16.401  -2.948  1.00 20.00     0.048 C 
HETATM    7  C7  UNL     1     -36.388  14.557  -5.157  1.00 20.00     0.001 C 
HETATM    8  C8  UNL     1     -35.483  13.696  -4.273  1.00 20.00     0.001 C 
HETATM    9  C9  UNL     1     -35.832  15.941  -5.486  1.00 20.00     0.015 C 
HETATM   10  C10 UNL     1     -34.171  14.360  -3.860  1.00 20.00     0.015 C 
HETATM   11  C11 UNL     1     -35.288  16.682  -4.250  1.00 20.00    -0.009 A 
HETATM   12  C12 UNL     1     -34.360  15.798  -3.340  1.00 20.00    -0.008 A 
HETATM   13  C13 UNL     1     -32.135  18.521  -1.806  1.00 20.00     0.043 C 
ENDROOT
TORSDOF 0
ENDMDL
MODEL 7
REMARK VINA RESULT:      -4.8     15.819     17.767
REMARK  0 active torsions:
REMARK  status: ('A' for Active; 'I' for Inactive)
ROOT
HETATM    1  C1  UNL     1     -34.426  15.157  -3.048  1.00 20.00    -0.019 A 
HETATM    2  C2  UNL     1     -33.371  15.627  -3.735  1.00 20.00    -0.019 A 
HETATM    3  C3  UNL     1     -34.048  17.422  -0.934  1.00 20.00    -0.023 C 
HETATM    4  C4  UNL     1     -32.984  17.889  -1.608  1.00 20.00    -0.086 C 
HETATM    5  C5  UNL     1     -35.349  17.070  -1.589  1.00 20.00     0.042 C 
HETATM    6  C6  UNL     1     -33.027  18.101  -3.100  1.00 20.00     0.048 C 
HETATM    7  C7  UNL     1     -36.350  16.036  -5.219  1.00 20.00     0.001 C 
HETATM    8  C8  UNL     1     -35.149  16.571  -6.002  1.00 20.00     0.001 C 
HETATM    9  C9  UNL     1     -36.474  16.569  -3.793  1.00 20.00     0.015 C 
HETATM   10  C10 UNL     1     -34.267  17.552  -5.231  1.00 20.00     0.015 C 
HETATM   11  C11 UNL     1     -35.149  16.511  -3.010  1.00 20.00    -0.009 A 
HETATM   12  C12 UNL     1     -33.914  17.060  -3.814  1.00 20.00    -0.008 A 
HETATM   13  C13 UNL     1     -31.708  18.263  -0.915  1.00 20.00     0.043 C 
ENDROOT
TORSDOF 0
ENDMDL
MODEL 8
REMARK VINA RESULT:      -4.8     16.247     18.103
REMARK  0 active torsions:
REMARK  status: ('A' for Active; 'I' for Inactive)
ROOT
HETATM    1  C1  UNL     1     -35.006  15.848  -2.227  1.00 20.00    -0.019 A 
HETATM    2  C2  UNL     1     -35.922  16.543  -2.924  1.00 20.00    -0.019 A 
HETATM    3  C3  UNL     1     -33.774  14.808  -4.899  1.00 20.00    -0.023 C 
HETATM    4  C4  UNL     1     -34.694  15.489  -5.602  1.00 20.00    -0.086 C 
HETATM    5  C5  UNL     1     -32.991  15.405  -3.770  1.00 20.00     0.042 C 
HETATM    6  C6  UNL     1     -35.006  16.932  -5.301  1.00 20.00     0.048 C 
HETATM    7  C7  UNL     1     -33.620  18.390  -1.332  1.00 20.00     0.001 C 
HETATM    8  C8  UNL     1     -34.662  19.182  -2.126  1.00 20.00     0.001 C 
HETATM    9  C9  UNL     1     -32.874  17.328  -2.137  1.00 20.00     0.015 C 
HETATM   10  C10 UNL     1     -34.789  18.781  -3.594  1.00 20.00     0.015 C 
HETATM   11  C11 UNL     1     -33.811  16.444  -2.983  1.00 20.00    -0.009 A 
HETATM   12  C12 UNL     1     -34.883  17.257  -3.798  1.00 20.00    -0.008 A 
HETATM   13  C13 UNL     1     -35.437  14.868  -6.748  1.00 20.00     0.043 C 
ENDROOT
TORSDOF 0
ENDMDL
MODEL 9
REMARK VINA RESULT:      -4.6     16.954     18.763
REMARK  0 active torsions:
REMARK  status: ('A' for Active; 'I' for Inactive)
ROOT
HETATM    1  C1  UNL     1     -35.814  17.729  -3.871  1.00 20.00    -0.019 A 
HETATM    2  C2  UNL     1     -34.701  17.760  -4.624  1.00 20.00    -0.019 A 
HETATM    3  C3  UNL     1     -36.666  15.063  -5.252  1.00 20.00    -0.023 C 
HETATM    4  C4  UNL     1     -35.563  15.095  -6.018  1.00 20.00    -0.086 C 
HETATM    5  C5  UNL     1     -36.648  15.293  -3.772  1.00 20.00     0.042 C 
HETATM    6  C6  UNL     1     -34.202  15.363  -5.429  1.00 20.00     0.048 C 
HETATM    7  C7  UNL     1     -34.212  17.165  -1.360  1.00 20.00     0.001 C 
HETATM    8  C8  UNL     1     -32.945  17.199  -2.217  1.00 20.00     0.001 C 
HETATM    9  C9  UNL     1     -35.287  16.193  -1.845  1.00 20.00     0.015 C 
HETATM   10  C10 UNL     1     -32.959  16.257  -3.420  1.00 20.00     0.015 C 
HETATM   11  C11 UNL     1     -35.564  16.305  -3.356  1.00 20.00    -0.009 A 
HETATM   12  C12 UNL     1     -34.262  16.342  -4.238  1.00 20.00    -0.008 A 
HETATM   13  C13 UNL     1     -35.613  14.827  -7.493  1.00 20.00     0.043 C 
ENDROOT
TORSDOF 0
ENDMDL
