MODEL 1
REMARK VINA RESULT:      -5.3      0.000      0.000
REMARK  1 active torsions:
REMARK  status: ('A' for Active; 'I' for Inactive)
REMARK    1  A    between atoms: C8_8  and  O12_12 
ROOT
HETATM    1  C1  UNL     1     -35.884  14.606  -5.278  1.00 20.00    -0.049 C 
HETATM    2  C2  UNL     1     -33.579  14.666  -4.161  1.00 20.00     0.135 C 
HETATM    3  C3  UNL     1     -35.679  14.565  -6.596  1.00 20.00     0.017 C 
HETATM    4  C4  UNL     1     -33.172  15.926  -3.418  1.00 20.00     0.079 C 
HETATM    5  C5  UNL     1     -34.134  16.282  -2.289  1.00 20.00     0.008 C 
HETATM    6  C6  UNL     1     -35.556  16.426  -2.821  1.00 20.00     0.009 C 
HETATM    7  C7  UNL     1     -35.051  14.201  -4.077  1.00 20.00     0.092 C 
HETATM    8  C8  UNL     1     -37.069  15.057  -4.446  1.00 20.00     0.155 C 
HETATM    9  C9  UNL     1     -36.062  15.052  -3.263  1.00 20.00     0.034 C 
HETATM   10  O11 UNL     1     -32.728  14.071  -4.837  1.00 20.00    -0.297 OA
ENDROOT
BRANCH   8  11
HETATM   11  O12 UNL     1     -38.135  14.093  -4.370  1.00 20.00    -0.386 OA
HETATM   12  C10 UNL     1     -39.393  14.735  -4.297  1.00 20.00     0.202 C 
ENDBRANCH   8  11
TORSDOF 1
ENDMDL
MODEL 2
REMARK VINA RESULT:      -4.8     16.252     18.582
REMARK  1 active torsions:
REMARK  status: ('A' for Active; 'I' for Inactive)
REMARK    1  A    between atoms: C8_8  and  O12_12 
ROOT
HETATM    1  C1  UNL     1     -22.894  18.132   9.409  1.00 20.00    -0.049 C 
HETATM    2  C2  UNL     1     -23.970  17.014  11.448  1.00 20.00     0.135 C 
HETATM    3  C3  UNL     1     -21.581  18.188   9.641  1.00 20.00     0.017 C 
HETATM    4  C4  UNL     1     -24.882  17.850  12.329  1.00 20.00     0.079 C 
HETATM    5  C5  UNL     1     -26.066  18.434  11.567  1.00 20.00     0.008 C 
HETATM    6  C6  UNL     1     -25.585  19.263  10.380  1.00 20.00     0.009 C 
HETATM    7  C7  UNL     1     -24.009  17.240   9.920  1.00 20.00     0.092 C 
HETATM    8  C8  UNL     1     -23.802  18.940   8.502  1.00 20.00     0.155 C 
HETATM    9  C9  UNL     1     -24.955  18.329   9.345  1.00 20.00     0.034 C 
HETATM   10  O11 UNL     1     -23.201  16.205  11.985  1.00 20.00    -0.297 OA
ENDROOT
BRANCH   8  11
HETATM   11  O12 UNL     1     -23.754  18.545   7.119  1.00 20.00    -0.386 OA
HETATM   12  C10 UNL     1     -24.708  19.259   6.357  1.00 20.00     0.202 C 
ENDBRANCH   8  11
TORSDOF 1
ENDMDL
MODEL 3
REMARK VINA RESULT:      -4.8     17.347     18.934
REMARK  1 active torsions:
REMARK  status: ('A' for Active; 'I' for Inactive)
REMARK    1  A    between atoms: C8_8  and  O12_12 
ROOT
HETATM    1  C1  UNL     1     -24.523  18.556   9.392  1.00 20.00    -0.049 C 
HETATM    2  C2  UNL     1     -25.632  18.298  11.687  1.00 20.00     0.135 C 
HETATM    3  C3  UNL     1     -25.361  19.261   8.629  1.00 20.00     0.017 C 
HETATM    4  C4  UNL     1     -26.068  16.910  12.124  1.00 20.00     0.079 C 
HETATM    5  C5  UNL     1     -24.914  15.914  12.163  1.00 20.00     0.008 C 
HETATM    6  C6  UNL     1     -24.222  15.840  10.806  1.00 20.00     0.009 C 
HETATM    7  C7  UNL     1     -24.315  18.443  10.890  1.00 20.00     0.092 C 
HETATM    8  C8  UNL     1     -23.405  17.589   9.050  1.00 20.00     0.155 C 
HETATM    9  C9  UNL     1     -23.505  17.165  10.541  1.00 20.00     0.034 C 
HETATM   10  O11 UNL     1     -26.362  19.263  11.952  1.00 20.00    -0.297 OA
ENDROOT
BRANCH   8  11
HETATM   11  O12 UNL     1     -22.176  18.227   8.657  1.00 20.00    -0.386 OA
HETATM   12  C10 UNL     1     -21.421  17.387   7.805  1.00 20.00     0.202 C 
ENDBRANCH   8  11
TORSDOF 1
ENDMDL
MODEL 4
REMARK VINA RESULT:      -4.4      2.023      3.738
REMARK  1 active torsions:
REMARK  status: ('A' for Active; 'I' for Inactive)
REMARK    1  A    between atoms: C8_8  and  O12_12 
ROOT
HETATM    1  C1  UNL     1     -36.130  16.648  -3.103  1.00 20.00    -0.049 C 
HETATM    2  C2  UNL     1     -35.709  14.833  -4.861  1.00 20.00     0.135 C 
HETATM    3  C3  UNL     1     -37.097  17.437  -3.578  1.00 20.00     0.017 C 
HETATM    4  C4  UNL     1     -34.376  14.829  -5.586  1.00 20.00     0.079 C 
HETATM    5  C5  UNL     1     -33.188  14.701  -4.639  1.00 20.00     0.008 C 
HETATM    6  C6  UNL     1     -33.211  15.813  -3.595  1.00 20.00     0.009 C 
HETATM    7  C7  UNL     1     -35.734  15.207  -3.361  1.00 20.00     0.092 C 
HETATM    8  C8  UNL     1     -35.041  16.882  -2.073  1.00 20.00     0.155 C 
HETATM    9  C9  UNL     1     -34.403  15.594  -2.661  1.00 20.00     0.034 C 
HETATM   10  O11 UNL     1     -36.737  14.569  -5.500  1.00 20.00    -0.297 OA
ENDROOT
BRANCH   8  11
HETATM   11  O12 UNL     1     -35.493  16.795  -0.709  1.00 20.00    -0.386 OA
HETATM   12  C10 UNL     1     -34.922  17.821   0.079  1.00 20.00     0.202 C 
ENDBRANCH   8  11
TORSDOF 1
ENDMDL
MODEL 5
REMARK VINA RESULT:      -4.4     17.551     19.190
REMARK  1 active torsions:
REMARK  status: ('A' for Active; 'I' for Inactive)
REMARK    1  A    between atoms: C8_8  and  O12_12 
ROOT
HETATM    1  C1  UNL     1     -24.830  18.181  10.164  1.00 20.00    -0.049 C 
HETATM    2  C2  UNL     1     -22.491  17.411   9.454  1.00 20.00     0.135 C 
HETATM    3  C3  UNL     1     -25.312  18.933   9.172  1.00 20.00     0.017 C 
HETATM    4  C4  UNL     1     -21.295  17.939  10.226  1.00 20.00     0.079 C 
HETATM    5  C5  UNL     1     -21.355  17.600  11.712  1.00 20.00     0.008 C 
HETATM    6  C6  UNL     1     -22.647  18.124  12.331  1.00 20.00     0.009 C 
HETATM    7  C7  UNL     1     -23.787  17.082  10.232  1.00 20.00     0.092 C 
HETATM    8  C8  UNL     1     -25.164  18.111  11.642  1.00 20.00     0.155 C 
HETATM    9  C9  UNL     1     -23.826  17.330  11.764  1.00 20.00     0.034 C 
HETATM   10  O11 UNL     1     -22.403  17.295   8.224  1.00 20.00    -0.297 OA
ENDROOT
BRANCH   8  11
HETATM   11  O12 UNL     1     -26.358  17.365  11.940  1.00 20.00    -0.386 OA
HETATM   12  C10 UNL     1     -27.429  18.232  12.258  1.00 20.00     0.202 C 
ENDBRANCH   8  11
TORSDOF 1
ENDMDL
MODEL 6
REMARK VINA RESULT:      -4.4      2.343      3.247
REMARK  1 active torsions:
REMARK  status: ('A' for Active; 'I' for Inactive)
REMARK    1  A    between atoms: C8_8  and  O12_12 
ROOT
HETATM    1  C1  UNL     1     -34.268  16.753  -4.133  1.00 20.00    -0.049 C 
HETATM    2  C2  UNL     1     -32.950  18.172  -2.455  1.00 20.00     0.135 C 
HETATM    3  C3  UNL     1     -34.308  17.437  -5.278  1.00 20.00     0.017 C 
HETATM    4  C4  UNL     1     -33.691  18.746  -1.261  1.00 20.00     0.079 C 
HETATM    5  C5  UNL     1     -34.341  17.671  -0.396  1.00 20.00     0.008 C 
HETATM    6  C6  UNL     1     -35.285  16.810  -1.230  1.00 20.00     0.009 C 
HETATM    7  C7  UNL     1     -33.324  16.754  -2.946  1.00 20.00     0.092 C 
HETATM    8  C8  UNL     1     -35.157  15.661  -3.569  1.00 20.00     0.155 C 
HETATM    9  C9  UNL     1     -34.460  15.984  -2.219  1.00 20.00     0.034 C 
HETATM   10  O11 UNL     1     -32.096  18.870  -3.019  1.00 20.00    -0.297 OA
ENDROOT
BRANCH   8  11
HETATM   11  O12 UNL     1     -34.900  14.354  -4.114  1.00 20.00    -0.386 OA
HETATM   12  C10 UNL     1     -36.103  13.728  -4.515  1.00 20.00     0.202 C 
ENDBRANCH   8  11
TORSDOF 1
ENDMDL
MODEL 7
REMARK VINA RESULT:      -4.3     11.354     12.215
REMARK  1 active torsions:
REMARK  status: ('A' for Active; 'I' for Inactive)
REMARK    1  A    between atoms: C8_8  and  O12_12 
ROOT
HETATM    1  C1  UNL     1     -33.287   5.508   2.663  1.00 20.00    -0.049 C 
HETATM    2  C2  UNL     1     -34.829   5.279   4.697  1.00 20.00     0.135 C 
HETATM    3  C3  UNL     1     -32.996   4.272   2.252  1.00 20.00     0.017 C 
HETATM    4  C4  UNL     1     -34.303   5.718   6.052  1.00 20.00     0.079 C 
HETATM    5  C5  UNL     1     -33.884   7.184   6.076  1.00 20.00     0.008 C 
HETATM    6  C6  UNL     1     -32.843   7.462   4.997  1.00 20.00     0.009 C 
HETATM    7  C7  UNL     1     -34.439   6.105   3.449  1.00 20.00     0.092 C 
HETATM    8  C8  UNL     1     -32.578   6.836   2.478  1.00 20.00     0.155 C 
HETATM    9  C9  UNL     1     -33.503   7.331   3.623  1.00 20.00     0.034 C 
HETATM   10  O11 UNL     1     -35.524   4.256   4.630  1.00 20.00    -0.297 OA
ENDROOT
BRANCH   8  11
HETATM   11  O12 UNL     1     -32.790   7.441   1.190  1.00 20.00    -0.386 OA
HETATM   12  C10 UNL     1     -32.563   8.836   1.242  1.00 20.00     0.202 C 
ENDBRANCH   8  11
TORSDOF 1
ENDMDL
MODEL 8
REMARK VINA RESULT:      -4.2      3.868      5.644
REMARK  1 active torsions:
REMARK  status: ('A' for Active; 'I' for Inactive)
REMARK    1  A    between atoms: C8_8  and  O12_12 
ROOT
HETATM    1  C1  UNL     1     -33.881  18.209   0.454  1.00 20.00    -0.049 C 
HETATM    2  C2  UNL     1     -32.825  18.142  -1.880  1.00 20.00     0.135 C 
HETATM    3  C3  UNL     1     -32.884  18.356   1.330  1.00 20.00     0.017 C 
HETATM    4  C4  UNL     1     -32.894  16.843  -2.664  1.00 20.00     0.079 C 
HETATM    5  C5  UNL     1     -34.325  16.371  -2.898  1.00 20.00     0.008 C 
HETATM    6  C6  UNL     1     -35.065  16.220  -1.572  1.00 20.00     0.009 C 
HETATM    7  C7  UNL     1     -34.040  18.550  -1.016  1.00 20.00     0.092 C 
HETATM    8  C8  UNL     1     -35.286  17.657   0.594  1.00 20.00     0.155 C 
HETATM    9  C9  UNL     1     -35.271  17.606  -0.958  1.00 20.00     0.034 C 
HETATM   10  O11 UNL     1     -31.785  18.813  -1.930  1.00 20.00    -0.297 OA
ENDROOT
BRANCH   8  11
HETATM   11  O12 UNL     1     -36.222  18.577   1.185  1.00 20.00    -0.386 OA
HETATM   12  C10 UNL     1     -36.778  18.040   2.370  1.00 20.00     0.202 C 
ENDBRANCH   8  11
TORSDOF 1
ENDMDL
MODEL 9
REMARK VINA RESULT:      -4.2     17.824     19.012
REMARK  1 active torsions:
REMARK  status: ('A' for Active; 'I' for Inactive)
REMARK    1  A    between atoms: C8_8  and  O12_12 
ROOT
HETATM    1  C1  UNL     1     -25.165  17.101  11.865  1.00 20.00    -0.049 C 
HETATM    2  C2  UNL     1     -22.860  17.939  11.122  1.00 20.00     0.135 C 
HETATM    3  C3  UNL     1     -25.000  15.859  12.324  1.00 20.00     0.017 C 
HETATM    4  C4  UNL     1     -22.627  18.184   9.642  1.00 20.00     0.079 C 
HETATM    5  C5  UNL     1     -23.593  19.207   9.053  1.00 20.00     0.008 C 
HETATM    6  C6  UNL     1     -25.038  18.778   9.289  1.00 20.00     0.009 C 
HETATM    7  C7  UNL     1     -24.240  18.295  11.722  1.00 20.00     0.092 C 
HETATM    8  C8  UNL     1     -26.377  17.832  11.319  1.00 20.00     0.155 C 
HETATM    9  C9  UNL     1     -25.342  18.861  10.786  1.00 20.00     0.034 C 
HETATM   10  O11 UNL     1     -21.952  17.430  11.793  1.00 20.00    -0.297 OA
ENDROOT
BRANCH   8  11
HETATM   11  O12 UNL     1     -27.280  18.312  12.332  1.00 20.00    -0.386 OA
HETATM   12  C10 UNL     1     -28.621  18.016  11.995  1.00 20.00     0.202 C 
ENDBRANCH   8  11
TORSDOF 1
ENDMDL
