MODEL 1
REMARK VINA RESULT:      -4.6      0.000      0.000
REMARK  0 active torsions:
REMARK  status: ('A' for Active; 'I' for Inactive)
ROOT
HETATM    1  C1  UNL     1     -34.591  15.246  -6.012  1.00 20.00    -0.080 C 
HETATM    2  C2  UNL     1     -33.769  15.089  -7.057  1.00 20.00     0.015 C 
HETATM    3  C3  UNL     1     -35.842  14.429  -5.809  1.00 20.00     0.043 C 
HETATM    4  C4  UNL     1     -34.027  16.040  -2.535  1.00 20.00     0.002 C 
HETATM    5  C5  UNL     1     -35.422  15.511  -2.807  1.00 20.00     0.006 C 
HETATM    6  C6  UNL     1     -33.356  15.922  -3.895  1.00 20.00     0.014 C 
HETATM    7  C7  UNL     1     -35.803  16.177  -4.137  1.00 20.00     0.006 C 
HETATM    8  C8  UNL     1     -34.455  16.292  -4.920  1.00 20.00    -0.017 C 
HETATM    9  C9  UNL     1     -36.776  15.383  -5.044  1.00 20.00    -0.040 C 
HETATM   10  C10 UNL     1     -34.229  17.713  -5.453  1.00 20.00     0.020 C 
HETATM   11  C11 UNL     1     -37.501  16.327  -6.030  1.00 20.00     0.015 C 
HETATM   12  C12 UNL     1     -37.853  14.610  -4.271  1.00 20.00     0.015 C 
ENDROOT
TORSDOF 0
ENDMDL
MODEL 2
REMARK VINA RESULT:      -4.5      1.252      3.744
REMARK  0 active torsions:
REMARK  status: ('A' for Active; 'I' for Inactive)
ROOT
HETATM    1  C1  UNL     1     -36.343  14.701  -4.665  1.00 20.00    -0.080 C 
HETATM    2  C2  UNL     1     -37.597  14.465  -4.260  1.00 20.00     0.015 C 
HETATM    3  C3  UNL     1     -35.148  13.938  -4.154  1.00 20.00     0.043 C 
HETATM    4  C4  UNL     1     -34.921  15.642  -7.848  1.00 20.00     0.002 C 
HETATM    5  C5  UNL     1     -33.886  15.149  -6.855  1.00 20.00     0.006 C 
HETATM    6  C6  UNL     1     -36.227  15.435  -7.096  1.00 20.00     0.014 C 
HETATM    7  C7  UNL     1     -34.347  15.763  -5.525  1.00 20.00     0.006 C 
HETATM    8  C8  UNL     1     -35.907  15.793  -5.626  1.00 20.00    -0.017 C 
HETATM    9  C9  UNL     1     -34.000  14.959  -4.246  1.00 20.00    -0.040 C 
HETATM   10  C10 UNL     1     -36.470  17.178  -5.279  1.00 20.00     0.020 C 
HETATM   11  C11 UNL     1     -34.000  15.879  -3.005  1.00 20.00     0.015 C 
HETATM   12  C12 UNL     1     -32.635  14.262  -4.303  1.00 20.00     0.015 C 
ENDROOT
TORSDOF 0
ENDMDL
MODEL 3
REMARK VINA RESULT:      -4.5      1.120      3.068
REMARK  0 active torsions:
REMARK  status: ('A' for Active; 'I' for Inactive)
ROOT
HETATM    1  C1  UNL     1     -36.409  15.422  -4.528  1.00 20.00    -0.080 C 
HETATM    2  C2  UNL     1     -37.545  14.755  -4.288  1.00 20.00     0.015 C 
HETATM    3  C3  UNL     1     -36.288  16.511  -5.562  1.00 20.00     0.043 C 
HETATM    4  C4  UNL     1     -33.724  16.555  -2.395  1.00 20.00     0.002 C 
HETATM    5  C5  UNL     1     -33.702  17.193  -3.771  1.00 20.00     0.006 C 
HETATM    6  C6  UNL     1     -34.997  15.723  -2.435  1.00 20.00     0.014 C 
HETATM    7  C7  UNL     1     -34.076  16.034  -4.707  1.00 20.00     0.006 C 
HETATM    8  C8  UNL     1     -35.064  15.157  -3.873  1.00 20.00    -0.017 C 
HETATM    9  C9  UNL     1     -34.819  16.423  -6.010  1.00 20.00    -0.040 C 
HETATM   10  C10 UNL     1     -34.655  13.678  -3.883  1.00 20.00     0.020 C 
HETATM   11  C11 UNL     1     -34.652  15.325  -7.084  1.00 20.00     0.015 C 
HETATM   12  C12 UNL     1     -34.342  17.745  -6.626  1.00 20.00     0.015 C 
ENDROOT
TORSDOF 0
ENDMDL
MODEL 4
REMARK VINA RESULT:      -4.4      1.484      3.622
REMARK  0 active torsions:
REMARK  status: ('A' for Active; 'I' for Inactive)
ROOT
HETATM    1  C1  UNL     1     -35.463  14.819  -4.225  1.00 20.00    -0.080 C 
HETATM    2  C2  UNL     1     -36.031  13.623  -4.423  1.00 20.00     0.015 C 
HETATM    3  C3  UNL     1     -34.173  15.011  -3.471  1.00 20.00     0.043 C 
HETATM    4  C4  UNL     1     -35.216  17.793  -6.259  1.00 20.00     0.002 C 
HETATM    5  C5  UNL     1     -34.264  17.797  -5.079  1.00 20.00     0.006 C 
HETATM    6  C6  UNL     1     -35.857  16.417  -6.164  1.00 20.00     0.014 C 
HETATM    7  C7  UNL     1     -35.102  17.194  -3.943  1.00 20.00     0.006 C 
HETATM    8  C8  UNL     1     -36.037  16.160  -4.649  1.00 20.00    -0.017 C 
HETATM    9  C9  UNL     1     -34.318  16.414  -2.856  1.00 20.00    -0.040 C 
HETATM   10  C10 UNL     1     -37.505  16.356  -4.245  1.00 20.00     0.020 C 
HETATM   11  C11 UNL     1     -35.127  16.343  -1.542  1.00 20.00     0.015 C 
HETATM   12  C12 UNL     1     -32.950  17.023  -2.522  1.00 20.00     0.015 C 
ENDROOT
TORSDOF 0
ENDMDL
MODEL 5
REMARK VINA RESULT:      -4.4      3.102      4.280
REMARK  0 active torsions:
REMARK  status: ('A' for Active; 'I' for Inactive)
ROOT
HETATM    1  C1  UNL     1     -33.696  16.718  -2.399  1.00 20.00    -0.080 C 
HETATM    2  C2  UNL     1     -33.234  15.925  -3.374  1.00 20.00     0.015 C 
HETATM    3  C3  UNL     1     -34.912  16.394  -1.570  1.00 20.00     0.043 C 
HETATM    4  C4  UNL     1     -32.066  18.826   0.039  1.00 20.00     0.002 C 
HETATM    5  C5  UNL     1     -33.528  18.571   0.353  1.00 20.00     0.006 C 
HETATM    6  C6  UNL     1     -31.835  17.961  -1.191  1.00 20.00     0.014 C 
HETATM    7  C7  UNL     1     -34.205  18.642  -1.023  1.00 20.00     0.006 C 
HETATM    8  C8  UNL     1     -33.139  18.078  -2.017  1.00 20.00    -0.017 C 
HETATM    9  C9  UNL     1     -35.479  17.776  -1.201  1.00 20.00    -0.040 C 
HETATM   10  C10 UNL     1     -32.929  19.016  -3.214  1.00 20.00     0.020 C 
HETATM   11  C11 UNL     1     -36.354  18.320  -2.352  1.00 20.00     0.015 C 
HETATM   12  C12 UNL     1     -36.359  17.703   0.053  1.00 20.00     0.015 C 
ENDROOT
TORSDOF 0
ENDMDL
MODEL 6
REMARK VINA RESULT:      -4.3      1.417      3.536
REMARK  0 active torsions:
REMARK  status: ('A' for Active; 'I' for Inactive)
ROOT
HETATM    1  C1  UNL     1     -33.595  15.228  -4.251  1.00 20.00    -0.080 C 
HETATM    2  C2  UNL     1     -32.651  14.282  -4.341  1.00 20.00     0.015 C 
HETATM    3  C3  UNL     1     -33.377  16.556  -3.574  1.00 20.00     0.043 C 
HETATM    4  C4  UNL     1     -36.214  16.311  -6.489  1.00 20.00     0.002 C 
HETATM    5  C5  UNL     1     -35.953  17.288  -5.359  1.00 20.00     0.006 C 
HETATM    6  C6  UNL     1     -35.139  15.257  -6.271  1.00 20.00     0.014 C 
HETATM    7  C7  UNL     1     -35.721  16.376  -4.145  1.00 20.00     0.006 C 
HETATM    8  C8  UNL     1     -35.029  15.105  -4.735  1.00 20.00    -0.017 C 
HETATM    9  C9  UNL     1     -34.775  16.928  -3.049  1.00 20.00    -0.040 C 
HETATM   10  C10 UNL     1     -35.725  13.817  -4.275  1.00 20.00     0.020 C 
HETATM   11  C11 UNL     1     -35.041  16.232  -1.695  1.00 20.00     0.015 C 
HETATM   12  C12 UNL     1     -34.903  18.440  -2.822  1.00 20.00     0.015 C 
ENDROOT
TORSDOF 0
ENDMDL
MODEL 7
REMARK VINA RESULT:      -4.3      1.237      3.273
REMARK  0 active torsions:
REMARK  status: ('A' for Active; 'I' for Inactive)
ROOT
HETATM    1  C1  UNL     1     -34.772  17.026  -5.367  1.00 20.00    -0.080 C 
HETATM    2  C2  UNL     1     -34.572  17.829  -6.420  1.00 20.00     0.015 C 
HETATM    3  C3  UNL     1     -35.003  17.533  -3.967  1.00 20.00     0.043 C 
HETATM    4  C4  UNL     1     -36.491  13.875  -4.970  1.00 20.00     0.002 C 
HETATM    5  C5  UNL     1     -36.179  14.554  -3.650  1.00 20.00     0.006 C 
HETATM    6  C6  UNL     1     -36.018  14.898  -5.991  1.00 20.00     0.014 C 
HETATM    7  C7  UNL     1     -34.771  15.127  -3.869  1.00 20.00     0.006 C 
HETATM    8  C8  UNL     1     -34.731  15.508  -5.384  1.00 20.00    -0.017 C 
HETATM    9  C9  UNL     1     -34.429  16.415  -3.078  1.00 20.00    -0.040 C 
HETATM   10  C10 UNL     1     -33.490  14.933  -6.080  1.00 20.00     0.020 C 
HETATM   11  C11 UNL     1     -32.899  16.579  -2.934  1.00 20.00     0.015 C 
HETATM   12  C12 UNL     1     -35.032  16.457  -1.668  1.00 20.00     0.015 C 
ENDROOT
TORSDOF 0
ENDMDL
MODEL 8
REMARK VINA RESULT:      -4.2      1.649      3.572
REMARK  0 active torsions:
REMARK  status: ('A' for Active; 'I' for Inactive)
ROOT
HETATM    1  C1  UNL     1     -34.340  17.110  -2.362  1.00 20.00    -0.080 C 
HETATM    2  C2  UNL     1     -33.772  17.696  -1.300  1.00 20.00     0.015 C 
HETATM    3  C3  UNL     1     -34.769  15.666  -2.384  1.00 20.00     0.043 C 
HETATM    4  C4  UNL     1     -36.658  18.283  -4.871  1.00 20.00     0.002 C 
HETATM    5  C5  UNL     1     -36.517  16.773  -4.849  1.00 20.00     0.006 C 
HETATM    6  C6  UNL     1     -35.795  18.714  -3.695  1.00 20.00     0.014 C 
HETATM    7  C7  UNL     1     -35.014  16.559  -4.619  1.00 20.00     0.006 C 
HETATM    8  C8  UNL     1     -34.579  17.757  -3.715  1.00 20.00    -0.017 C 
HETATM    9  C9  UNL     1     -34.617  15.266  -3.862  1.00 20.00    -0.040 C 
HETATM   10  C10 UNL     1     -33.345  18.474  -4.280  1.00 20.00     0.020 C 
HETATM   11  C11 UNL     1     -33.152  14.881  -4.165  1.00 20.00     0.015 C 
HETATM   12  C12 UNL     1     -35.492  14.053  -4.205  1.00 20.00     0.015 C 
ENDROOT
TORSDOF 0
ENDMDL
MODEL 9
REMARK VINA RESULT:      -4.2      1.172      3.175
REMARK  0 active torsions:
REMARK  status: ('A' for Active; 'I' for Inactive)
ROOT
HETATM    1  C1  UNL     1     -35.480  15.776  -3.492  1.00 20.00    -0.080 C 
HETATM    2  C2  UNL     1     -34.951  15.893  -2.268  1.00 20.00     0.015 C 
HETATM    3  C3  UNL     1     -36.618  16.629  -3.991  1.00 20.00     0.043 C 
HETATM    4  C4  UNL     1     -34.059  15.024  -6.725  1.00 20.00     0.002 C 
HETATM    5  C5  UNL     1     -35.465  15.586  -6.808  1.00 20.00     0.006 C 
HETATM    6  C6  UNL     1     -33.758  15.101  -5.236  1.00 20.00     0.014 C 
HETATM    7  C7  UNL     1     -36.189  14.909  -5.636  1.00 20.00     0.006 C 
HETATM    8  C8  UNL     1     -35.091  14.744  -4.537  1.00 20.00    -0.017 C 
HETATM    9  C9  UNL     1     -37.345  15.715  -4.991  1.00 20.00    -0.040 C 
HETATM   10  C10 UNL     1     -35.041  13.309  -3.995  1.00 20.00     0.020 C 
HETATM   11  C11 UNL     1     -38.320  14.774  -4.247  1.00 20.00     0.015 C 
HETATM   12  C12 UNL     1     -38.169  16.529  -5.997  1.00 20.00     0.015 C 
ENDROOT
TORSDOF 0
ENDMDL
