MODEL 1
REMARK VINA RESULT:      -4.3      0.000      0.000
REMARK  1 active torsions:
REMARK  status: ('A' for Active; 'I' for Inactive)
REMARK    1  A    between atoms: C1_1  and  C3_3 
ROOT
HETATM    1  C1  UNL     1     -34.051   6.060   3.697  1.00 20.00     0.043 C 
HETATM    2  C2  UNL     1     -33.127   5.921   2.739  1.00 20.00     0.183 C 
HETATM    3  F4  UNL     1     -32.767   4.687   2.322  1.00 20.00    -0.193 F 
HETATM    4 CL5  UNL     1     -32.375   7.293   2.018  1.00 20.00    -0.052 Cl
ENDROOT
BRANCH   1   5
HETATM    5  C3  UNL     1     -34.749   4.916   4.357  1.00 20.00     0.145 C 
HETATM    6 CL6  UNL     1     -34.850   5.198   6.108  1.00 20.00    -0.126 Cl
ENDBRANCH   1   5
TORSDOF 1
ENDMDL
MODEL 2
REMARK VINA RESULT:      -4.0      1.919      3.870
REMARK  1 active torsions:
REMARK  status: ('A' for Active; 'I' for Inactive)
REMARK    1  A    between atoms: C1_1  and  C3_3 
ROOT
HETATM    1  C1  UNL     1     -33.376   6.259   3.136  1.00 20.00     0.043 C 
HETATM    2  C2  UNL     1     -34.016   6.227   4.311  1.00 20.00     0.183 C 
HETATM    3  F4  UNL     1     -33.662   7.081   5.297  1.00 20.00    -0.193 F 
HETATM    4 CL5  UNL     1     -35.294   5.108   4.602  1.00 20.00    -0.052 Cl
ENDROOT
BRANCH   1   5
HETATM    5  C3  UNL     1     -32.269   7.209   2.814  1.00 20.00     0.145 C 
HETATM    6 CL6  UNL     1     -32.579   7.990   1.249  1.00 20.00    -0.126 Cl
ENDBRANCH   1   5
TORSDOF 1
ENDMDL
MODEL 3
REMARK VINA RESULT:      -3.9      1.261      3.496
REMARK  1 active torsions:
REMARK  status: ('A' for Active; 'I' for Inactive)
REMARK    1  A    between atoms: C1_1  and  C3_3 
ROOT
HETATM    1  C1  UNL     1     -33.276   6.627   3.271  1.00 20.00     0.043 C 
HETATM    2  C2  UNL     1     -33.766   5.383   3.236  1.00 20.00     0.183 C 
HETATM    3  F4  UNL     1     -33.277   4.489   2.348  1.00 20.00    -0.193 F 
HETATM    4 CL5  UNL     1     -35.022   4.887   4.306  1.00 20.00    -0.052 Cl
ENDROOT
BRANCH   1   5
HETATM    5  C3  UNL     1     -32.182   7.119   2.381  1.00 20.00     0.145 C 
HETATM    6 CL6  UNL     1     -32.835   8.283   1.208  1.00 20.00    -0.126 Cl
ENDBRANCH   1   5
TORSDOF 1
ENDMDL
MODEL 4
REMARK VINA RESULT:      -3.9      1.590      1.592
REMARK  1 active torsions:
REMARK  status: ('A' for Active; 'I' for Inactive)
REMARK    1  A    between atoms: C1_1  and  C3_3 
ROOT
HETATM    1  C1  UNL     1     -33.499   5.378   2.666  1.00 20.00     0.043 C 
HETATM    2  C2  UNL     1     -32.941   6.570   2.913  1.00 20.00     0.183 C 
HETATM    3  F4  UNL     1     -32.838   7.016   4.184  1.00 20.00    -0.193 F 
HETATM    4 CL5  UNL     1     -32.347   7.560   1.634  1.00 20.00    -0.052 Cl
ENDROOT
BRANCH   1   5
HETATM    5  C3  UNL     1     -34.025   4.467   3.726  1.00 20.00     0.145 C 
HETATM    6 CL6  UNL     1     -35.384   5.240   4.569  1.00 20.00    -0.126 Cl
ENDBRANCH   1   5
TORSDOF 1
ENDMDL
MODEL 5
REMARK VINA RESULT:      -3.9      1.056      3.518
REMARK  1 active torsions:
REMARK  status: ('A' for Active; 'I' for Inactive)
REMARK    1  A    between atoms: C1_1  and  C3_3 
ROOT
HETATM    1  C1  UNL     1     -33.664   6.169   3.825  1.00 20.00     0.043 C 
HETATM    2  C2  UNL     1     -34.346   5.208   4.459  1.00 20.00     0.183 C 
HETATM    3  F4  UNL     1     -34.499   3.996   3.883  1.00 20.00    -0.193 F 
HETATM    4 CL5  UNL     1     -35.043   5.484   6.011  1.00 20.00    -0.052 Cl
ENDROOT
BRANCH   1   5
HETATM    5  C3  UNL     1     -33.026   5.995   2.485  1.00 20.00     0.145 C 
HETATM    6 CL6  UNL     1     -32.518   7.573   1.847  1.00 20.00    -0.126 Cl
ENDBRANCH   1   5
TORSDOF 1
ENDMDL
MODEL 6
REMARK VINA RESULT:      -3.8      1.790      1.914
REMARK  1 active torsions:
REMARK  status: ('A' for Active; 'I' for Inactive)
REMARK    1  A    between atoms: C1_1  and  C3_3 
ROOT
HETATM    1  C1  UNL     1     -34.471   4.664   4.290  1.00 20.00     0.043 C 
HETATM    2  C2  UNL     1     -33.808   5.313   3.326  1.00 20.00     0.183 C 
HETATM    3  F4  UNL     1     -33.717   6.661   3.359  1.00 20.00    -0.193 F 
HETATM    4 CL5  UNL     1     -33.058   4.461   2.029  1.00 20.00    -0.052 Cl
ENDROOT
BRANCH   1   5
HETATM    5  C3  UNL     1     -35.134   5.338   5.447  1.00 20.00     0.145 C 
HETATM    6 CL6  UNL     1     -34.034   6.536   6.160  1.00 20.00    -0.126 Cl
ENDBRANCH   1   5
TORSDOF 1
ENDMDL
MODEL 7
REMARK VINA RESULT:      -3.7      1.986      3.319
REMARK  1 active torsions:
REMARK  status: ('A' for Active; 'I' for Inactive)
REMARK    1  A    between atoms: C1_1  and  C3_3 
ROOT
HETATM    1  C1  UNL     1     -33.211   6.606   3.892  1.00 20.00     0.043 C 
HETATM    2  C2  UNL     1     -34.259   6.228   4.633  1.00 20.00     0.183 C 
HETATM    3  F4  UNL     1     -35.261   5.517   4.072  1.00 20.00    -0.193 F 
HETATM    4 CL5  UNL     1     -34.362   6.633   6.305  1.00 20.00    -0.052 Cl
ENDROOT
BRANCH   1   5
HETATM    5  C3  UNL     1     -33.053   6.281   2.442  1.00 20.00     0.145 C 
HETATM    6 CL6  UNL     1     -33.019   4.519   2.219  1.00 20.00    -0.126 Cl
ENDBRANCH   1   5
TORSDOF 1
ENDMDL
MODEL 8
REMARK VINA RESULT:      -3.3      9.110      9.227
REMARK  1 active torsions:
REMARK  status: ('A' for Active; 'I' for Inactive)
REMARK    1  A    between atoms: C1_1  and  C3_3 
ROOT
HETATM    1  C1  UNL     1     -41.573   7.178   0.597  1.00 20.00     0.043 C 
HETATM    2  C2  UNL     1     -41.638   8.249  -0.203  1.00 20.00     0.183 C 
HETATM    3  F4  UNL     1     -42.040   8.111  -1.485  1.00 20.00    -0.193 F 
HETATM    4 CL5  UNL     1     -41.214   9.818   0.370  1.00 20.00    -0.052 Cl
ENDROOT
BRANCH   1   5
HETATM    5  C3  UNL     1     -41.934   5.793   0.169  1.00 20.00     0.145 C 
HETATM    6 CL6  UNL     1     -40.817   5.241  -1.096  1.00 20.00    -0.126 Cl
ENDBRANCH   1   5
TORSDOF 1
ENDMDL
MODEL 9
REMARK VINA RESULT:      -3.1      9.085      9.246
REMARK  1 active torsions:
REMARK  status: ('A' for Active; 'I' for Inactive)
REMARK    1  A    between atoms: C1_1  and  C3_3 
ROOT
HETATM    1  C1  UNL     1     -42.290   7.390  -0.682  1.00 20.00     0.043 C 
HETATM    2  C2  UNL     1     -41.326   6.537  -0.312  1.00 20.00     0.183 C 
HETATM    3  F4  UNL     1     -40.635   6.753   0.828  1.00 20.00    -0.193 F 
HETATM    4 CL5  UNL     1     -40.941   5.156  -1.268  1.00 20.00    -0.052 Cl
ENDROOT
BRANCH   1   5
HETATM    5  C3  UNL     1     -42.682   8.598   0.103  1.00 20.00     0.145 C 
HETATM    6 CL6  UNL     1     -41.286   9.682   0.282  1.00 20.00    -0.126 Cl
ENDBRANCH   1   5
TORSDOF 1
ENDMDL
