MODEL 1
REMARK VINA RESULT:      -3.5      0.000      0.000
REMARK  0 active torsions:
REMARK  status: ('A' for Active; 'I' for Inactive)
ROOT
HETATM    1  C1  UNL     1     -35.747  13.808  -4.477  1.00 20.00     0.196 C 
HETATM    2  C2  UNL     1     -35.432  14.700  -3.295  1.00 20.00     0.092 C 
HETATM    3  C3  UNL     1     -34.106  15.446  -3.441  1.00 20.00     0.019 C 
HETATM    4  C4  UNL     1     -34.058  16.422  -4.619  1.00 20.00     0.087 C 
HETATM    5  O5  UNL     1     -35.840  12.590  -4.406  1.00 20.00    -0.285 OA
HETATM    6  S6  UNL     1     -36.050  14.680  -5.975  1.00 20.00    -0.020 SA
HETATM    7  S7  UNL     1     -34.203  15.540  -6.201  1.00 20.00    -0.090 SA
ENDROOT
TORSDOF 0
ENDMDL
MODEL 2
REMARK VINA RESULT:      -3.4      1.287      1.441
REMARK  0 active torsions:
REMARK  status: ('A' for Active; 'I' for Inactive)
ROOT
HETATM    1  C1  UNL     1     -35.814  13.764  -4.267  1.00 20.00     0.196 C 
HETATM    2  C2  UNL     1     -34.603  14.522  -3.770  1.00 20.00     0.092 C 
HETATM    3  C3  UNL     1     -34.126  15.602  -4.742  1.00 20.00     0.019 C 
HETATM    4  C4  UNL     1     -35.143  16.718  -4.990  1.00 20.00     0.087 C 
HETATM    5  O5  UNL     1     -35.811  12.566  -4.522  1.00 20.00    -0.285 OA
HETATM    6  S6  UNL     1     -37.275  14.737  -4.382  1.00 20.00    -0.020 SA
HETATM    7  S7  UNL     1     -36.636  16.073  -5.801  1.00 20.00    -0.090 SA
ENDROOT
TORSDOF 0
ENDMDL
MODEL 3
REMARK VINA RESULT:      -3.4      1.321      1.415
REMARK  0 active torsions:
REMARK  status: ('A' for Active; 'I' for Inactive)
ROOT
HETATM    1  C1  UNL     1     -36.314  14.537  -4.463  1.00 20.00     0.196 C 
HETATM    2  C2  UNL     1     -36.303  15.615  -3.401  1.00 20.00     0.092 C 
HETATM    3  C3  UNL     1     -35.033  15.611  -2.550  1.00 20.00     0.019 C 
HETATM    4  C4  UNL     1     -33.750  15.900  -3.334  1.00 20.00     0.087 C 
HETATM    5  O5  UNL     1     -37.118  13.615  -4.491  1.00 20.00    -0.285 OA
HETATM    6  S6  UNL     1     -35.103  14.757  -5.722  1.00 20.00    -0.020 SA
HETATM    7  S7  UNL     1     -33.424  14.596  -4.556  1.00 20.00    -0.090 SA
ENDROOT
TORSDOF 0
ENDMDL
MODEL 4
REMARK VINA RESULT:      -3.3     18.583     19.029
REMARK  0 active torsions:
REMARK  status: ('A' for Active; 'I' for Inactive)
ROOT
HETATM    1  C1  UNL     1     -23.034  18.512   9.246  1.00 20.00     0.196 C 
HETATM    2  C2  UNL     1     -22.850  17.144   9.864  1.00 20.00     0.092 C 
HETATM    3  C3  UNL     1     -23.458  17.027  11.262  1.00 20.00     0.019 C 
HETATM    4  C4  UNL     1     -24.976  17.215  11.307  1.00 20.00     0.087 C 
HETATM    5  O5  UNL     1     -22.109  19.263   8.964  1.00 20.00    -0.285 OA
HETATM    6  S6  UNL     1     -24.707  18.921   8.886  1.00 20.00    -0.020 SA
HETATM    7  S7  UNL     1     -25.440  18.897  10.801  1.00 20.00    -0.090 SA
ENDROOT
TORSDOF 0
ENDMDL
MODEL 5
REMARK VINA RESULT:      -3.3     10.710     11.290
REMARK  0 active torsions:
REMARK  status: ('A' for Active; 'I' for Inactive)
ROOT
HETATM    1  C1  UNL     1     -41.395   6.052  -0.555  1.00 20.00     0.196 C 
HETATM    2  C2  UNL     1     -41.104   6.949   0.629  1.00 20.00     0.092 C 
HETATM    3  C3  UNL     1     -41.407   8.423   0.357  1.00 20.00     0.019 C 
HETATM    4  C4  UNL     1     -42.880   8.719   0.065  1.00 20.00     0.087 C 
HETATM    5  O5  UNL     1     -40.540   5.410  -1.151  1.00 20.00    -0.285 OA
HETATM    6  S6  UNL     1     -43.101   5.941  -0.972  1.00 20.00    -0.020 SA
HETATM    7  S7  UNL     1     -43.417   7.906  -1.468  1.00 20.00    -0.090 SA
ENDROOT
TORSDOF 0
ENDMDL
MODEL 6
REMARK VINA RESULT:      -3.3     18.179     18.583
REMARK  0 active torsions:
REMARK  status: ('A' for Active; 'I' for Inactive)
ROOT
HETATM    1  C1  UNL     1     -22.828  18.171   8.398  1.00 20.00     0.196 C 
HETATM    2  C2  UNL     1     -23.863  19.258   8.591  1.00 20.00     0.092 C 
HETATM    3  C3  UNL     1     -25.127  18.770   9.298  1.00 20.00     0.019 C 
HETATM    4  C4  UNL     1     -24.896  18.269  10.725  1.00 20.00     0.087 C 
HETATM    5  O5  UNL     1     -22.459  17.767   7.303  1.00 20.00    -0.285 OA
HETATM    6  S6  UNL     1     -22.127  17.571   9.896  1.00 20.00    -0.020 SA
HETATM    7  S7  UNL     1     -23.831  16.797  10.736  1.00 20.00    -0.090 SA
ENDROOT
TORSDOF 0
ENDMDL
MODEL 7
REMARK VINA RESULT:      -3.3      2.021      2.117
REMARK  0 active torsions:
REMARK  status: ('A' for Active; 'I' for Inactive)
ROOT
HETATM    1  C1  UNL     1     -36.018  14.121  -4.975  1.00 20.00     0.196 C 
HETATM    2  C2  UNL     1     -34.911  13.871  -3.974  1.00 20.00     0.092 C 
HETATM    3  C3  UNL     1     -34.333  15.156  -3.381  1.00 20.00     0.019 C 
HETATM    4  C4  UNL     1     -35.336  15.983  -2.573  1.00 20.00     0.087 C 
HETATM    5  O5  UNL     1     -35.945  13.824  -6.161  1.00 20.00    -0.285 OA
HETATM    6  S6  UNL     1     -37.475  14.817  -4.278  1.00 20.00    -0.020 SA
HETATM    7  S7  UNL     1     -36.680  16.594  -3.632  1.00 20.00    -0.090 SA
ENDROOT
TORSDOF 0
ENDMDL
MODEL 8
REMARK VINA RESULT:      -3.3      2.113      2.429
REMARK  0 active torsions:
REMARK  status: ('A' for Active; 'I' for Inactive)
ROOT
HETATM    1  C1  UNL     1     -34.198  14.621  -5.213  1.00 20.00     0.196 C 
HETATM    2  C2  UNL     1     -33.105  14.802  -4.182  1.00 20.00     0.092 C 
HETATM    3  C3  UNL     1     -33.312  16.027  -3.292  1.00 20.00     0.019 C 
HETATM    4  C4  UNL     1     -34.578  15.975  -2.433  1.00 20.00     0.087 C 
HETATM    5  O5  UNL     1     -34.012  14.679  -6.421  1.00 20.00    -0.285 OA
HETATM    6  S6  UNL     1     -35.774  14.240  -4.530  1.00 20.00    -0.020 SA
HETATM    7  S7  UNL     1     -36.070  15.970  -3.470  1.00 20.00    -0.090 SA
ENDROOT
TORSDOF 0
ENDMDL
MODEL 9
REMARK VINA RESULT:      -3.2     10.707     11.546
REMARK  0 active torsions:
REMARK  status: ('A' for Active; 'I' for Inactive)
ROOT
HETATM    1  C1  UNL     1     -41.763   8.527  -0.119  1.00 20.00     0.196 C 
HETATM    2  C2  UNL     1     -41.179   7.627  -1.185  1.00 20.00     0.092 C 
HETATM    3  C3  UNL     1     -40.987   6.184  -0.718  1.00 20.00     0.019 C 
HETATM    4  C4  UNL     1     -42.286   5.465  -0.346  1.00 20.00     0.087 C 
HETATM    5  O5  UNL     1     -41.173   9.485   0.364  1.00 20.00    -0.285 OA
HETATM    6  S6  UNL     1     -43.417   8.130   0.331  1.00 20.00    -0.020 SA
HETATM    7  S7  UNL     1     -43.081   6.253   1.085  1.00 20.00    -0.090 SA
ENDROOT
TORSDOF 0
ENDMDL
