MODEL 1
REMARK VINA RESULT:      -4.5      0.000      0.000
REMARK  0 active torsions:
REMARK  status: ('A' for Active; 'I' for Inactive)
ROOT
HETATM    1  C1  UNL     1     -36.186  13.579  -4.896  1.00 20.00     0.147 A 
HETATM    2  C2  UNL     1     -37.342  14.947  -3.732  1.00 20.00     0.214 A 
HETATM    3  C3  UNL     1     -35.272  14.400  -4.279  1.00 20.00     0.057 A 
HETATM    4  C4  UNL     1     -33.860  14.537  -4.241  1.00 20.00     0.033 A 
HETATM    5  C5  UNL     1     -33.311  15.508  -3.484  1.00 20.00     0.023 A 
HETATM    6  C6  UNL     1     -35.474  16.291  -2.742  1.00 20.00     0.117 A 
HETATM    7  C7  UNL     1     -34.136  16.426  -2.702  1.00 20.00     0.027 A 
HETATM    8  N8  UNL     1     -37.469  13.926  -4.551  1.00 20.00    -0.253 NA
HETATM    9  N9  UNL     1     -36.028  15.285  -3.527  1.00 20.00    -0.314 N 
HETATM   10 BR10 UNL     1     -33.286  17.736  -1.687  1.00 20.00    -0.050 Br
ENDROOT
TORSDOF 0
ENDMDL
MODEL 2
REMARK VINA RESULT:      -4.3      1.662      2.534
REMARK  0 active torsions:
REMARK  status: ('A' for Active; 'I' for Inactive)
ROOT
HETATM    1  C1  UNL     1     -35.428  14.363  -3.919  1.00 20.00     0.147 A 
HETATM    2  C2  UNL     1     -33.487  14.770  -4.714  1.00 20.00     0.214 A 
HETATM    3  C3  UNL     1     -34.904  15.351  -3.120  1.00 20.00     0.057 A 
HETATM    4  C4  UNL     1     -35.318  16.099  -1.987  1.00 20.00     0.033 A 
HETATM    5  C5  UNL     1     -34.485  17.022  -1.465  1.00 20.00     0.023 A 
HETATM    6  C6  UNL     1     -32.777  16.560  -3.111  1.00 20.00     0.117 A 
HETATM    7  C7  UNL     1     -33.164  17.271  -2.036  1.00 20.00     0.027 A 
HETATM    8  N8  UNL     1     -34.541  14.008  -4.906  1.00 20.00    -0.253 NA
HETATM    9  N9  UNL     1     -33.645  15.610  -3.641  1.00 20.00    -0.314 N 
HETATM   10 BR10 UNL     1     -32.085  18.566  -1.245  1.00 20.00    -0.050 Br
ENDROOT
TORSDOF 0
ENDMDL
MODEL 3
REMARK VINA RESULT:      -4.2     16.620     17.993
REMARK  0 active torsions:
REMARK  status: ('A' for Active; 'I' for Inactive)
ROOT
HETATM    1  C1  UNL     1     -22.497  17.550  11.406  1.00 20.00     0.147 A 
HETATM    2  C2  UNL     1     -24.540  18.129  11.647  1.00 20.00     0.214 A 
HETATM    3  C3  UNL     1     -22.935  17.886  10.148  1.00 20.00     0.057 A 
HETATM    4  C4  UNL     1     -22.390  17.932   8.838  1.00 20.00     0.033 A 
HETATM    5  C5  UNL     1     -23.169  18.333   7.813  1.00 20.00     0.023 A 
HETATM    6  C6  UNL     1     -25.073  18.676   9.261  1.00 20.00     0.117 A 
HETATM    7  C7  UNL     1     -24.563  18.722   8.017  1.00 20.00     0.027 A 
HETATM    8  N8  UNL     1     -23.501  17.703  12.332  1.00 20.00    -0.253 NA
HETATM    9  N9  UNL     1     -24.259  18.260  10.311  1.00 20.00    -0.314 N 
HETATM   10 BR10 UNL     1     -25.558  19.262   6.540  1.00 20.00    -0.050 Br
ENDROOT
TORSDOF 0
ENDMDL
MODEL 4
REMARK VINA RESULT:      -4.2      1.952      2.655
REMARK  0 active torsions:
REMARK  status: ('A' for Active; 'I' for Inactive)
ROOT
HETATM    1  C1  UNL     1     -32.898  14.969  -4.413  1.00 20.00     0.147 A 
HETATM    2  C2  UNL     1     -34.840  14.261  -3.872  1.00 20.00     0.214 A 
HETATM    3  C3  UNL     1     -33.318  15.791  -3.395  1.00 20.00     0.057 A 
HETATM    4  C4  UNL     1     -32.805  16.905  -2.682  1.00 20.00     0.033 A 
HETATM    5  C5  UNL     1     -33.548  17.466  -1.708  1.00 20.00     0.023 A 
HETATM    6  C6  UNL     1     -35.355  15.896  -2.045  1.00 20.00     0.117 A 
HETATM    7  C7  UNL     1     -34.874  16.953  -1.366  1.00 20.00     0.027 A 
HETATM    8  N8  UNL     1     -33.849  14.022  -4.704  1.00 20.00    -0.253 NA
HETATM    9  N9  UNL     1     -34.578  15.327  -3.049  1.00 20.00    -0.314 N 
HETATM   10 BR10 UNL     1     -35.825  17.793  -0.005  1.00 20.00    -0.050 Br
ENDROOT
TORSDOF 0
ENDMDL
MODEL 5
REMARK VINA RESULT:      -4.1     16.864     17.723
REMARK  0 active torsions:
REMARK  status: ('A' for Active; 'I' for Inactive)
ROOT
HETATM    1  C1  UNL     1     -22.271  17.672   7.551  1.00 20.00     0.147 A 
HETATM    2  C2  UNL     1     -22.039  17.011   9.569  1.00 20.00     0.214 A 
HETATM    3  C3  UNL     1     -23.355  18.175   8.229  1.00 20.00     0.057 A 
HETATM    4  C4  UNL     1     -24.495  18.964   7.924  1.00 20.00     0.033 A 
HETATM    5  C5  UNL     1     -25.374  19.260   8.902  1.00 20.00     0.023 A 
HETATM    6  C6  UNL     1     -24.099  18.042  10.555  1.00 20.00     0.117 A 
HETATM    7  C7  UNL     1     -25.182  18.789  10.272  1.00 20.00     0.027 A 
HETATM    8  N8  UNL     1     -21.459  16.950   8.391  1.00 20.00    -0.253 NA
HETATM    9  N9  UNL     1     -23.200  17.742   9.537  1.00 20.00    -0.314 N 
HETATM   10 BR10 UNL     1     -26.449  19.250  11.555  1.00 20.00    -0.050 Br
ENDROOT
TORSDOF 0
ENDMDL
MODEL 6
REMARK VINA RESULT:      -4.1     11.950     12.153
REMARK  0 active torsions:
REMARK  status: ('A' for Active; 'I' for Inactive)
ROOT
HETATM    1  C1  UNL     1     -34.730   4.685   5.319  1.00 20.00     0.147 A 
HETATM    2  C2  UNL     1     -34.200   6.702   5.782  1.00 20.00     0.214 A 
HETATM    3  C3  UNL     1     -34.143   5.181   4.180  1.00 20.00     0.057 A 
HETATM    4  C4  UNL     1     -33.835   4.705   2.879  1.00 20.00     0.033 A 
HETATM    5  C5  UNL     1     -33.230   5.528   1.999  1.00 20.00     0.023 A 
HETATM    6  C6  UNL     1     -33.177   7.349   3.588  1.00 20.00     0.117 A 
HETATM    7  C7  UNL     1     -32.883   6.903   2.353  1.00 20.00     0.027 A 
HETATM    8  N8  UNL     1     -34.761   5.636   6.309  1.00 20.00    -0.253 NA
HETATM    9  N9  UNL     1     -33.802   6.489   4.486  1.00 20.00    -0.314 N 
HETATM   10 BR10 UNL     1     -32.050   7.965   1.071  1.00 20.00    -0.050 Br
ENDROOT
TORSDOF 0
ENDMDL
MODEL 7
REMARK VINA RESULT:      -4.0      1.620      1.969
REMARK  0 active torsions:
REMARK  status: ('A' for Active; 'I' for Inactive)
ROOT
HETATM    1  C1  UNL     1     -36.092  13.812  -4.734  1.00 20.00     0.147 A 
HETATM    2  C2  UNL     1     -35.475  15.049  -6.363  1.00 20.00     0.214 A 
HETATM    3  C3  UNL     1     -35.396  14.850  -4.163  1.00 20.00     0.057 A 
HETATM    4  C4  UNL     1     -35.024  15.255  -2.855  1.00 20.00     0.033 A 
HETATM    5  C5  UNL     1     -34.307  16.386  -2.692  1.00 20.00     0.023 A 
HETATM    6  C6  UNL     1     -34.258  16.817  -5.070  1.00 20.00     0.117 A 
HETATM    7  C7  UNL     1     -33.902  17.206  -3.832  1.00 20.00     0.027 A 
HETATM    8  N8  UNL     1     -36.136  13.943  -6.100  1.00 20.00    -0.253 NA
HETATM    9  N9  UNL     1     -34.998  15.648  -5.225  1.00 20.00    -0.314 N 
HETATM   10 BR10 UNL     1     -32.914  18.750  -3.507  1.00 20.00    -0.050 Br
ENDROOT
TORSDOF 0
ENDMDL
MODEL 8
REMARK VINA RESULT:      -4.0     17.508     17.993
REMARK  0 active torsions:
REMARK  status: ('A' for Active; 'I' for Inactive)
ROOT
HETATM    1  C1  UNL     1     -26.286  17.673  12.299  1.00 20.00     0.147 A 
HETATM    2  C2  UNL     1     -26.318  19.248  10.856  1.00 20.00     0.214 A 
HETATM    3  C3  UNL     1     -25.236  17.416  11.451  1.00 20.00     0.057 A 
HETATM    4  C4  UNL     1     -24.222  16.431  11.323  1.00 20.00     0.033 A 
HETATM    5  C5  UNL     1     -23.334  16.524  10.313  1.00 20.00     0.023 A 
HETATM    6  C6  UNL     1     -24.351  18.549   9.471  1.00 20.00     0.117 A 
HETATM    7  C7  UNL     1     -23.389  17.617   9.345  1.00 20.00     0.027 A 
HETATM    8  N8  UNL     1     -26.954  18.813  11.922  1.00 20.00    -0.253 NA
HETATM    9  N9  UNL     1     -25.262  18.441  10.518  1.00 20.00    -0.314 N 
HETATM   10 BR10 UNL     1     -22.118  17.662   7.985  1.00 20.00    -0.050 Br
ENDROOT
TORSDOF 0
ENDMDL
MODEL 9
REMARK VINA RESULT:      -4.0     10.849     12.011
REMARK  0 active torsions:
REMARK  status: ('A' for Active; 'I' for Inactive)
ROOT
HETATM    1  C1  UNL     1     -41.338   8.542   0.325  1.00 20.00     0.147 A 
HETATM    2  C2  UNL     1     -43.378   8.490  -0.307  1.00 20.00     0.214 A 
HETATM    3  C3  UNL     1     -41.511   7.309  -0.258  1.00 20.00     0.057 A 
HETATM    4  C4  UNL     1     -40.716   6.162  -0.515  1.00 20.00     0.033 A 
HETATM    5  C5  UNL     1     -41.268   5.101  -1.137  1.00 20.00     0.023 A 
HETATM    6  C6  UNL     1     -43.417   6.194  -1.309  1.00 20.00     0.117 A 
HETATM    7  C7  UNL     1     -42.669   5.103  -1.554  1.00 20.00     0.027 A 
HETATM    8  N8  UNL     1     -42.503   9.269   0.291  1.00 20.00    -0.253 NA
HETATM    9  N9  UNL     1     -42.835   7.282  -0.666  1.00 20.00    -0.314 N 
HETATM   10 BR10 UNL     1     -43.342   3.591  -2.407  1.00 20.00    -0.050 Br
ENDROOT
TORSDOF 0
ENDMDL
