MODEL 1
REMARK VINA RESULT:      -4.6      0.000      0.000
REMARK  0 active torsions:
REMARK  status: ('A' for Active; 'I' for Inactive)
ROOT
HETATM    1  C1  UNL     1     -34.376   6.116   6.002  1.00 20.00    -0.025 C 
HETATM    2  C2  UNL     1     -34.375   4.787   5.818  1.00 20.00    -0.025 C 
HETATM    3  C3  UNL     1     -35.594   5.700   4.083  1.00 20.00     0.017 C 
HETATM    4  C4  UNL     1     -33.397   6.546   3.768  1.00 20.00     0.013 C 
HETATM    5  C5  UNL     1     -34.643   6.752   4.659  1.00 20.00     0.009 C 
HETATM    6  C6  UNL     1     -34.627   4.539   4.346  1.00 20.00     0.012 C 
HETATM    7  C7  UNL     1     -33.354   4.995   3.585  1.00 20.00    -0.010 C 
HETATM    8  C8  UNL     1     -33.359   4.584   2.118  1.00 20.00     0.010 C 
ENDROOT
TORSDOF 0
ENDMDL
MODEL 2
REMARK VINA RESULT:      -4.4      8.615      9.575
REMARK  0 active torsions:
REMARK  status: ('A' for Active; 'I' for Inactive)
ROOT
HETATM    1  C1  UNL     1     -42.202   5.356  -0.483  1.00 20.00    -0.025 C 
HETATM    2  C2  UNL     1     -41.084   5.904  -0.983  1.00 20.00    -0.025 C 
HETATM    3  C3  UNL     1     -42.815   7.346  -1.485  1.00 20.00     0.017 C 
HETATM    4  C4  UNL     1     -42.711   7.355   0.888  1.00 20.00     0.013 C 
HETATM    5  C5  UNL     1     -43.197   6.475  -0.286  1.00 20.00     0.009 C 
HETATM    6  C6  UNL     1     -41.330   7.393  -1.104  1.00 20.00     0.012 C 
HETATM    7  C7  UNL     1     -41.380   7.962   0.339  1.00 20.00    -0.010 C 
HETATM    8  C8  UNL     1     -41.379   9.486   0.377  1.00 20.00     0.010 C 
ENDROOT
TORSDOF 0
ENDMDL
MODEL 3
REMARK VINA RESULT:      -4.4      8.331      9.400
REMARK  0 active torsions:
REMARK  status: ('A' for Active; 'I' for Inactive)
ROOT
HETATM    1  C1  UNL     1     -42.869   8.800   0.053  1.00 20.00    -0.025 C 
HETATM    2  C2  UNL     1     -41.548   8.709   0.266  1.00 20.00    -0.025 C 
HETATM    3  C3  UNL     1     -42.490   6.764   1.077  1.00 20.00     0.017 C 
HETATM    4  C4  UNL     1     -42.924   6.699  -1.257  1.00 20.00     0.013 C 
HETATM    5  C5  UNL     1     -43.416   7.392   0.033  1.00 20.00     0.009 C 
HETATM    6  C6  UNL     1     -41.212   7.236   0.372  1.00 20.00     0.012 C 
HETATM    7  C7  UNL     1     -41.378   6.630  -1.046  1.00 20.00    -0.010 C 
HETATM    8  C8  UNL     1     -40.841   5.208  -1.152  1.00 20.00     0.010 C 
ENDROOT
TORSDOF 0
ENDMDL
MODEL 4
REMARK VINA RESULT:      -4.3      8.360      9.557
REMARK  0 active torsions:
REMARK  status: ('A' for Active; 'I' for Inactive)
ROOT
HETATM    1  C1  UNL     1     -41.177   8.585  -0.472  1.00 20.00    -0.025 C 
HETATM    2  C2  UNL     1     -42.251   8.833   0.293  1.00 20.00    -0.025 C 
HETATM    3  C3  UNL     1     -42.882   7.230  -1.244  1.00 20.00     0.017 C 
HETATM    4  C4  UNL     1     -41.207   6.166   0.061  1.00 20.00     0.013 C 
HETATM    5  C5  UNL     1     -41.362   7.210  -1.069  1.00 20.00     0.009 C 
HETATM    6  C6  UNL     1     -43.145   7.613   0.217  1.00 20.00     0.012 C 
HETATM    7  C7  UNL     1     -42.425   6.476   0.988  1.00 20.00    -0.010 C 
HETATM    8  C8  UNL     1     -43.310   5.255   1.210  1.00 20.00     0.010 C 
ENDROOT
TORSDOF 0
ENDMDL
MODEL 5
REMARK VINA RESULT:      -4.2      8.403      9.604
REMARK  0 active torsions:
REMARK  status: ('A' for Active; 'I' for Inactive)
ROOT
HETATM    1  C1  UNL     1     -43.086   5.407  -0.246  1.00 20.00    -0.025 C 
HETATM    2  C2  UNL     1     -42.317   5.656   0.825  1.00 20.00    -0.025 C 
HETATM    3  C3  UNL     1     -41.173   6.448  -1.017  1.00 20.00     0.017 C 
HETATM    4  C4  UNL     1     -43.129   7.791  -0.917  1.00 20.00     0.013 C 
HETATM    5  C5  UNL     1     -42.669   6.374  -1.329  1.00 20.00     0.009 C 
HETATM    6  C6  UNL     1     -41.397   6.801   0.458  1.00 20.00     0.012 C 
HETATM    7  C7  UNL     1     -42.276   8.075   0.361  1.00 20.00    -0.010 C 
HETATM    8  C8  UNL     1     -41.458   9.355   0.238  1.00 20.00     0.010 C 
ENDROOT
TORSDOF 0
ENDMDL
MODEL 6
REMARK VINA RESULT:      -4.2     11.984     12.817
REMARK  0 active torsions:
REMARK  status: ('A' for Active; 'I' for Inactive)
ROOT
HETATM    1  C1  UNL     1     -33.559  16.481  -2.479  1.00 20.00    -0.025 C 
HETATM    2  C2  UNL     1     -34.775  16.204  -1.985  1.00 20.00    -0.025 C 
HETATM    3  C3  UNL     1     -35.056  16.657  -4.230  1.00 20.00     0.017 C 
HETATM    4  C4  UNL     1     -33.717  14.696  -4.189  1.00 20.00     0.013 C 
HETATM    5  C5  UNL     1     -33.613  16.222  -3.966  1.00 20.00     0.009 C 
HETATM    6  C6  UNL     1     -35.636  15.744  -3.143  1.00 20.00     0.012 C 
HETATM    7  C7  UNL     1     -35.110  14.349  -3.572  1.00 20.00    -0.010 C 
HETATM    8  C8  UNL     1     -36.027  13.648  -4.567  1.00 20.00     0.010 C 
ENDROOT
TORSDOF 0
ENDMDL
MODEL 7
REMARK VINA RESULT:      -4.1      8.073      9.492
REMARK  0 active torsions:
REMARK  status: ('A' for Active; 'I' for Inactive)
ROOT
HETATM    1  C1  UNL     1     -41.688   8.073  -1.216  1.00 20.00    -0.025 C 
HETATM    2  C2  UNL     1     -41.363   6.771  -1.223  1.00 20.00    -0.025 C 
HETATM    3  C3  UNL     1     -41.091   7.515   0.946  1.00 20.00     0.017 C 
HETATM    4  C4  UNL     1     -43.417   7.753   0.529  1.00 20.00     0.013 C 
HETATM    5  C5  UNL     1     -42.066   8.430   0.202  1.00 20.00     0.009 C 
HETATM    6  C6  UNL     1     -41.540   6.258   0.191  1.00 20.00     0.012 C 
HETATM    7  C7  UNL     1     -43.065   6.232   0.475  1.00 20.00    -0.010 C 
HETATM    8  C8  UNL     1     -43.417   5.510   1.770  1.00 20.00     0.010 C 
ENDROOT
TORSDOF 0
ENDMDL
MODEL 8
REMARK VINA RESULT:      -4.1      0.825      2.880
REMARK  0 active torsions:
REMARK  status: ('A' for Active; 'I' for Inactive)
ROOT
HETATM    1  C1  UNL     1     -34.088   4.198   3.603  1.00 20.00    -0.025 C 
HETATM    2  C2  UNL     1     -33.482   5.326   3.201  1.00 20.00    -0.025 C 
HETATM    3  C3  UNL     1     -35.531   5.942   4.069  1.00 20.00     0.017 C 
HETATM    4  C4  UNL     1     -34.358   5.029   5.921  1.00 20.00     0.013 C 
HETATM    5  C5  UNL     1     -35.110   4.588   4.645  1.00 20.00     0.009 C 
HETATM    6  C6  UNL     1     -34.092   6.467   3.989  1.00 20.00     0.012 C 
HETATM    7  C7  UNL     1     -33.606   6.316   5.454  1.00 20.00    -0.010 C 
HETATM    8  C8  UNL     1     -33.937   7.527   6.318  1.00 20.00     0.010 C 
ENDROOT
TORSDOF 0
ENDMDL
MODEL 9
REMARK VINA RESULT:      -4.1     12.030     13.129
REMARK  0 active torsions:
REMARK  status: ('A' for Active; 'I' for Inactive)
ROOT
HETATM    1  C1  UNL     1     -34.834  14.171  -3.862  1.00 20.00    -0.025 C 
HETATM    2  C2  UNL     1     -33.598  14.544  -4.229  1.00 20.00    -0.025 C 
HETATM    3  C3  UNL     1     -34.954  16.396  -4.473  1.00 20.00     0.017 C 
HETATM    4  C4  UNL     1     -34.986  15.946  -2.141  1.00 20.00     0.013 C 
HETATM    5  C5  UNL     1     -35.580  15.425  -3.469  1.00 20.00     0.009 C 
HETATM    6  C6  UNL     1     -33.517  16.047  -4.066  1.00 20.00     0.012 C 
HETATM    7  C7  UNL     1     -33.528  16.338  -2.542  1.00 20.00    -0.010 C 
HETATM    8  C8  UNL     1     -33.207  17.791  -2.212  1.00 20.00     0.010 C 
ENDROOT
TORSDOF 0
ENDMDL
