MODEL 1
REMARK VINA RESULT:      -6.1      0.000      0.000
REMARK  1 active torsions:
REMARK  status: ('A' for Active; 'I' for Inactive)
REMARK    1  A    between atoms: C2_2  and  C10_10 
ROOT
HETATM    1  C1  UNL     1     -33.726   4.952   2.951  1.00 20.00    -0.018 A 
HETATM    2  C2  UNL     1     -33.301   6.227   3.046  1.00 20.00    -0.075 A 
HETATM    3  C3  UNL     1     -34.678   5.716   6.282  1.00 20.00     0.001 C 
HETATM    4  C4  UNL     1     -34.646   4.514   5.346  1.00 20.00     0.009 C 
HETATM    5  C5  UNL     1     -33.897   6.781   5.523  1.00 20.00     0.010 C 
HETATM    6  C6  UNL     1     -34.837   5.131   3.962  1.00 20.00     0.016 A 
HETATM    7  C7  UNL     1     -34.355   6.599   4.076  1.00 20.00     0.022 A 
ENDROOT
BRANCH   2   8
HETATM    8  C10 UNL     1     -32.169   7.024   2.370  1.00 20.00     0.006 C 
HETATM    9  C8  UNL     1     -32.775   7.962   1.352  1.00 20.00     0.014 C 
HETATM   10  C9  UNL     1     -31.370   7.753   3.427  1.00 20.00     0.014 C 
ENDBRANCH   2   8
TORSDOF 1
ENDMDL
MODEL 2
REMARK VINA RESULT:      -4.6     15.310     16.108
REMARK  1 active torsions:
REMARK  status: ('A' for Active; 'I' for Inactive)
REMARK    1  A    between atoms: C2_2  and  C10_10 
ROOT
HETATM    1  C1  UNL     1     -25.889  19.194  10.695  1.00 20.00    -0.018 A 
HETATM    2  C2  UNL     1     -24.858  18.832   9.908  1.00 20.00    -0.075 A 
HETATM    3  C3  UNL     1     -25.077  16.037  12.093  1.00 20.00     0.001 C 
HETATM    4  C4  UNL     1     -26.143  17.116  12.241  1.00 20.00     0.009 C 
HETATM    5  C5  UNL     1     -24.306  16.463  10.851  1.00 20.00     0.010 C 
HETATM    6  C6  UNL     1     -25.401  18.404  11.889  1.00 20.00     0.016 A 
HETATM    7  C7  UNL     1     -24.211  17.982  10.991  1.00 20.00     0.022 A 
ENDROOT
BRANCH   2   8
HETATM    8  C10 UNL     1     -24.467  19.148   8.452  1.00 20.00     0.006 C 
HETATM    9  C8  UNL     1     -23.282  18.291   8.069  1.00 20.00     0.014 C 
HETATM   10  C9  UNL     1     -25.661  18.921   7.552  1.00 20.00     0.014 C 
ENDBRANCH   2   8
TORSDOF 1
ENDMDL
MODEL 3
REMARK VINA RESULT:      -4.5     11.312     12.601
REMARK  1 active torsions:
REMARK  status: ('A' for Active; 'I' for Inactive)
REMARK    1  A    between atoms: C2_2  and  C10_10 
ROOT
HETATM    1  C1  UNL     1     -34.886  15.557  -2.591  1.00 20.00    -0.018 A 
HETATM    2  C2  UNL     1     -33.798  16.060  -3.206  1.00 20.00    -0.075 A 
HETATM    3  C3  UNL     1     -35.472  14.507  -5.929  1.00 20.00     0.001 C 
HETATM    4  C4  UNL     1     -36.188  14.502  -4.583  1.00 20.00     0.009 C 
HETATM    5  C5  UNL     1     -34.255  15.389  -5.684  1.00 20.00     0.010 C 
HETATM    6  C6  UNL     1     -35.047  14.415  -3.570  1.00 20.00     0.016 A 
HETATM    7  C7  UNL     1     -33.796  14.987  -4.283  1.00 20.00     0.022 A 
ENDROOT
BRANCH   2   8
HETATM    8  C10 UNL     1     -32.886  17.272  -2.932  1.00 20.00     0.006 C 
HETATM    9  C8  UNL     1     -33.226  18.368  -3.917  1.00 20.00     0.014 C 
HETATM   10  C9  UNL     1     -33.054  17.711  -1.496  1.00 20.00     0.014 C 
ENDBRANCH   2   8
TORSDOF 1
ENDMDL
MODEL 4
REMARK VINA RESULT:      -4.4     11.533     12.569
REMARK  1 active torsions:
REMARK  status: ('A' for Active; 'I' for Inactive)
REMARK    1  A    between atoms: C2_2  and  C10_10 
ROOT
HETATM    1  C1  UNL     1     -32.635  17.746  -1.861  1.00 20.00    -0.018 A 
HETATM    2  C2  UNL     1     -33.813  17.824  -1.213  1.00 20.00    -0.075 A 
HETATM    3  C3  UNL     1     -34.435  15.138  -3.455  1.00 20.00     0.001 C 
HETATM    4  C4  UNL     1     -33.024  15.714  -3.441  1.00 20.00     0.009 C 
HETATM    5  C5  UNL     1     -35.123  15.846  -2.296  1.00 20.00     0.010 C 
HETATM    6  C6  UNL     1     -33.244  17.194  -3.131  1.00 20.00     0.016 A 
HETATM    7  C7  UNL     1     -34.603  17.280  -2.392  1.00 20.00     0.022 A 
ENDROOT
BRANCH   2   8
HETATM    8  C10 UNL     1     -34.223  18.285   0.199  1.00 20.00     0.006 C 
HETATM    9  C8  UNL     1     -35.257  17.326   0.744  1.00 20.00     0.014 C 
HETATM   10  C9  UNL     1     -32.993  18.370   1.075  1.00 20.00     0.014 C 
ENDBRANCH   2   8
TORSDOF 1
ENDMDL
MODEL 5
REMARK VINA RESULT:      -4.4     11.361     12.522
REMARK  1 active torsions:
REMARK  status: ('A' for Active; 'I' for Inactive)
REMARK    1  A    between atoms: C2_2  and  C10_10 
ROOT
HETATM    1  C1  UNL     1     -33.086  16.413  -2.907  1.00 20.00    -0.018 A 
HETATM    2  C2  UNL     1     -34.073  15.551  -3.221  1.00 20.00    -0.075 A 
HETATM    3  C3  UNL     1     -35.931  18.293  -1.931  1.00 20.00     0.001 C 
HETATM    4  C4  UNL     1     -34.424  18.477  -2.056  1.00 20.00     0.009 C 
HETATM    5  C5  UNL     1     -36.186  16.952  -2.607  1.00 20.00     0.010 C 
HETATM    6  C6  UNL     1     -33.868  17.078  -1.796  1.00 20.00     0.016 A 
HETATM    7  C7  UNL     1     -35.009  16.090  -2.151  1.00 20.00     0.022 A 
ENDROOT
BRANCH   2   8
HETATM    8  C10 UNL     1     -34.216  14.434  -4.272  1.00 20.00     0.006 C 
HETATM    9  C8  UNL     1     -35.587  13.811  -4.136  1.00 20.00     0.014 C 
HETATM   10  C9  UNL     1     -33.975  15.008  -5.649  1.00 20.00     0.014 C 
ENDBRANCH   2   8
TORSDOF 1
ENDMDL
MODEL 6
REMARK VINA RESULT:      -4.4     11.552     12.515
REMARK  1 active torsions:
REMARK  status: ('A' for Active; 'I' for Inactive)
REMARK    1  A    between atoms: C2_2  and  C10_10 
ROOT
HETATM    1  C1  UNL     1     -35.211  16.928  -0.726  1.00 20.00    -0.018 A 
HETATM    2  C2  UNL     1     -34.513  16.646  -1.843  1.00 20.00    -0.075 A 
HETATM    3  C3  UNL     1     -32.241  18.771  -0.124  1.00 20.00     0.001 C 
HETATM    4  C4  UNL     1     -33.527  18.400   0.604  1.00 20.00     0.009 C 
HETATM    5  C5  UNL     1     -32.278  17.909  -1.379  1.00 20.00     0.010 C 
HETATM    6  C6  UNL     1     -34.553  18.274  -0.521  1.00 20.00     0.016 A 
HETATM    7  C7  UNL     1     -33.745  17.958  -1.805  1.00 20.00     0.022 A 
ENDROOT
BRANCH   2   8
HETATM    8  C10 UNL     1     -34.487  15.445  -2.808  1.00 20.00     0.006 C 
HETATM    9  C8  UNL     1     -35.834  15.336  -3.485  1.00 20.00     0.014 C 
HETATM   10  C9  UNL     1     -33.355  15.619  -3.794  1.00 20.00     0.014 C 
ENDBRANCH   2   8
TORSDOF 1
ENDMDL
MODEL 7
REMARK VINA RESULT:      -4.4     11.512     12.636
REMARK  1 active torsions:
REMARK  status: ('A' for Active; 'I' for Inactive)
REMARK    1  A    between atoms: C2_2  and  C10_10 
ROOT
HETATM    1  C1  UNL     1     -33.853  15.470  -4.934  1.00 20.00    -0.018 A 
HETATM    2  C2  UNL     1     -35.094  15.117  -4.546  1.00 20.00    -0.075 A 
HETATM    3  C3  UNL     1     -34.003  17.007  -1.741  1.00 20.00     0.001 C 
HETATM    4  C4  UNL     1     -33.066  16.947  -2.941  1.00 20.00     0.009 C 
HETATM    5  C5  UNL     1     -35.269  16.323  -2.240  1.00 20.00     0.010 C 
HETATM    6  C6  UNL     1     -33.316  15.557  -3.522  1.00 20.00     0.016 A 
HETATM    7  C7  UNL     1     -34.741  15.152  -3.068  1.00 20.00     0.022 A 
ENDROOT
BRANCH   2   8
HETATM    8  C10 UNL     1     -36.396  14.799  -5.305  1.00 20.00     0.006 C 
HETATM    9  C8  UNL     1     -37.454  14.388  -4.305  1.00 20.00     0.014 C 
HETATM   10  C9  UNL     1     -36.807  16.002  -6.122  1.00 20.00     0.014 C 
ENDBRANCH   2   8
TORSDOF 1
ENDMDL
MODEL 8
REMARK VINA RESULT:      -4.4     11.475     12.495
REMARK  1 active torsions:
REMARK  status: ('A' for Active; 'I' for Inactive)
REMARK    1  A    between atoms: C2_2  and  C10_10 
ROOT
HETATM    1  C1  UNL     1     -33.196  17.293  -1.918  1.00 20.00    -0.018 A 
HETATM    2  C2  UNL     1     -34.450  17.087  -1.471  1.00 20.00    -0.075 A 
HETATM    3  C3  UNL     1     -34.244  14.684  -4.081  1.00 20.00     0.001 C 
HETATM    4  C4  UNL     1     -32.978  15.472  -3.765  1.00 20.00     0.009 C 
HETATM    5  C5  UNL     1     -35.209  15.099  -2.979  1.00 20.00     0.010 C 
HETATM    6  C6  UNL     1     -33.505  16.837  -3.327  1.00 20.00     0.016 A 
HETATM    7  C7  UNL     1     -34.950  16.597  -2.820  1.00 20.00     0.022 A 
ENDROOT
BRANCH   2   8
HETATM    8  C10 UNL     1     -35.135  17.271  -0.103  1.00 20.00     0.006 C 
HETATM    9  C8  UNL     1     -34.246  18.119   0.777  1.00 20.00     0.014 C 
HETATM   10  C9  UNL     1     -36.502  17.882  -0.306  1.00 20.00     0.014 C 
ENDBRANCH   2   8
TORSDOF 1
ENDMDL
MODEL 9
REMARK VINA RESULT:      -4.4     11.524     12.534
REMARK  1 active torsions:
REMARK  status: ('A' for Active; 'I' for Inactive)
REMARK    1  A    between atoms: C2_2  and  C10_10 
ROOT
HETATM    1  C1  UNL     1     -33.618  16.145  -4.472  1.00 20.00    -0.018 A 
HETATM    2  C2  UNL     1     -34.784  15.527  -4.201  1.00 20.00    -0.075 A 
HETATM    3  C3  UNL     1     -34.261  17.360  -1.202  1.00 20.00     0.001 C 
HETATM    4  C4  UNL     1     -33.261  17.581  -2.330  1.00 20.00     0.009 C 
HETATM    5  C5  UNL     1     -35.333  16.484  -1.838  1.00 20.00     0.010 C 
HETATM    6  C6  UNL     1     -33.194  16.220  -3.022  1.00 20.00     0.016 A 
HETATM    7  C7  UNL     1     -34.533  15.509  -2.702  1.00 20.00     0.022 A 
ENDROOT
BRANCH   2   8
HETATM    8  C10 UNL     1     -35.949  15.023  -5.075  1.00 20.00     0.006 C 
HETATM    9  C8  UNL     1     -35.479  14.934  -6.509  1.00 20.00     0.014 C 
HETATM   10  C9  UNL     1     -36.437  13.696  -4.541  1.00 20.00     0.014 C 
ENDBRANCH   2   8
TORSDOF 1
ENDMDL
