MODEL 1
REMARK VINA RESULT:      -4.9      0.000      0.000
REMARK  0 active torsions:
REMARK  status: ('A' for Active; 'I' for Inactive)
ROOT
HETATM    1  C1  UNL     1     -37.274  14.519  -4.387  1.00 20.00     0.131 C 
HETATM    2  C2  UNL     1     -35.927  13.885  -4.683  1.00 20.00     0.079 C 
HETATM    3  C3  UNL     1     -34.843  14.392  -3.727  1.00 20.00     0.016 C 
HETATM    4  C4  UNL     1     -36.482  17.905  -3.044  1.00 20.00     0.006 C 
HETATM    5  C5  UNL     1     -38.013  18.011  -3.090  1.00 20.00     0.005 C 
HETATM    6  C6  UNL     1     -37.262  16.029  -4.268  1.00 20.00     0.064 C 
HETATM    7  C7  UNL     1     -36.214  16.414  -3.221  1.00 20.00     0.005 C 
HETATM    8  C8  UNL     1     -38.525  16.698  -3.723  1.00 20.00    -0.007 C 
HETATM    9  C9  UNL     1     -34.787  15.941  -3.585  1.00 20.00    -0.043 C 
HETATM   10  C10 UNL     1     -39.580  16.944  -4.792  1.00 20.00     0.011 C 
HETATM   11  C11 UNL     1     -33.815  16.296  -2.442  1.00 20.00     0.015 C 
HETATM   12  C12 UNL     1     -34.240  16.571  -4.879  1.00 20.00     0.015 C 
HETATM   13  O13 UNL     1     -38.307  13.855  -4.346  1.00 20.00    -0.298 OA
ENDROOT
TORSDOF 0
ENDMDL
MODEL 2
REMARK VINA RESULT:      -4.8      1.310      1.353
REMARK  0 active torsions:
REMARK  status: ('A' for Active; 'I' for Inactive)
ROOT
HETATM    1  C1  UNL     1     -37.154  14.304  -4.588  1.00 20.00     0.131 C 
HETATM    2  C2  UNL     1     -36.009  13.311  -4.506  1.00 20.00     0.079 C 
HETATM    3  C3  UNL     1     -34.774  13.929  -3.845  1.00 20.00     0.016 C 
HETATM    4  C4  UNL     1     -35.526  17.642  -4.912  1.00 20.00     0.006 C 
HETATM    5  C5  UNL     1     -36.994  18.068  -5.064  1.00 20.00     0.005 C 
HETATM    6  C6  UNL     1     -36.794  15.654  -5.172  1.00 20.00     0.064 C 
HETATM    7  C7  UNL     1     -35.614  16.217  -4.376  1.00 20.00     0.005 C 
HETATM    8  C8  UNL     1     -37.831  16.771  -5.046  1.00 20.00    -0.007 C 
HETATM    9  C9  UNL     1     -34.360  15.312  -4.424  1.00 20.00    -0.043 C 
HETATM   10  C10 UNL     1     -38.878  16.742  -6.152  1.00 20.00     0.011 C 
HETATM   11  C11 UNL     1     -33.254  15.911  -3.532  1.00 20.00     0.015 C 
HETATM   12  C12 UNL     1     -33.780  15.140  -5.840  1.00 20.00     0.015 C 
HETATM   13  O13 UNL     1     -38.304  13.991  -4.290  1.00 20.00    -0.298 OA
ENDROOT
TORSDOF 0
ENDMDL
MODEL 3
REMARK VINA RESULT:      -4.8      2.292      3.623
REMARK  0 active torsions:
REMARK  status: ('A' for Active; 'I' for Inactive)
ROOT
HETATM    1  C1  UNL     1     -33.589  15.944  -3.150  1.00 20.00     0.131 C 
HETATM    2  C2  UNL     1     -33.227  14.878  -4.168  1.00 20.00     0.079 C 
HETATM    3  C3  UNL     1     -34.083  14.993  -5.433  1.00 20.00     0.016 C 
HETATM    4  C4  UNL     1     -37.218  16.607  -3.685  1.00 20.00     0.006 C 
HETATM    5  C5  UNL     1     -36.983  17.500  -2.458  1.00 20.00     0.005 C 
HETATM    6  C6  UNL     1     -35.067  16.065  -2.844  1.00 20.00     0.064 C 
HETATM    7  C7  UNL     1     -35.811  16.271  -4.166  1.00 20.00     0.005 C 
HETATM    8  C8  UNL     1     -35.517  17.278  -2.028  1.00 20.00    -0.007 C 
HETATM    9  C9  UNL     1     -35.612  15.106  -5.165  1.00 20.00    -0.043 C 
HETATM   10  C10 UNL     1     -35.378  17.073  -0.526  1.00 20.00     0.011 C 
HETATM   11  C11 UNL     1     -36.322  15.434  -6.493  1.00 20.00     0.015 C 
HETATM   12  C12 UNL     1     -36.160  13.760  -4.658  1.00 20.00     0.015 C 
HETATM   13  O13 UNL     1     -32.729  16.587  -2.553  1.00 20.00    -0.298 OA
ENDROOT
TORSDOF 0
ENDMDL
MODEL 4
REMARK VINA RESULT:      -4.6      3.606      5.646
REMARK  0 active torsions:
REMARK  status: ('A' for Active; 'I' for Inactive)
ROOT
HETATM    1  C1  UNL     1     -32.522  18.436  -2.172  1.00 20.00     0.131 C 
HETATM    2  C2  UNL     1     -32.963  17.858  -3.505  1.00 20.00     0.079 C 
HETATM    3  C3  UNL     1     -34.488  17.827  -3.629  1.00 20.00     0.016 C 
HETATM    4  C4  UNL     1     -35.227  17.526   0.226  1.00 20.00     0.006 C 
HETATM    5  C5  UNL     1     -34.238  18.175   1.205  1.00 20.00     0.005 C 
HETATM    6  C6  UNL     1     -33.193  17.832  -0.957  1.00 20.00     0.064 C 
HETATM    7  C7  UNL     1     -34.708  17.943  -1.147  1.00 20.00     0.005 C 
HETATM    8  C8  UNL     1     -32.983  18.541   0.383  1.00 20.00    -0.007 C 
HETATM    9  C9  UNL     1     -35.219  17.203  -2.405  1.00 20.00    -0.043 C 
HETATM   10  C10 UNL     1     -31.693  18.130   1.080  1.00 20.00     0.011 C 
HETATM   11  C11 UNL     1     -36.735  17.436  -2.564  1.00 20.00     0.015 C 
HETATM   12  C12 UNL     1     -34.979  15.682  -2.366  1.00 20.00     0.015 C 
HETATM   13  O13 UNL     1     -31.616  19.262  -2.094  1.00 20.00    -0.298 OA
ENDROOT
TORSDOF 0
ENDMDL
MODEL 5
REMARK VINA RESULT:      -4.4      2.246      3.836
REMARK  0 active torsions:
REMARK  status: ('A' for Active; 'I' for Inactive)
ROOT
HETATM    1  C1  UNL     1     -33.859  15.076  -4.332  1.00 20.00     0.131 C 
HETATM    2  C2  UNL     1     -33.776  15.748  -2.973  1.00 20.00     0.079 C 
HETATM    3  C3  UNL     1     -35.151  16.216  -2.491  1.00 20.00     0.016 C 
HETATM    4  C4  UNL     1     -36.706  16.743  -6.068  1.00 20.00     0.006 C 
HETATM    5  C5  UNL     1     -36.213  15.842  -7.211  1.00 20.00     0.005 C 
HETATM    6  C6  UNL     1     -34.613  15.855  -5.389  1.00 20.00     0.064 C 
HETATM    7  C7  UNL     1     -36.002  16.185  -4.835  1.00 20.00     0.005 C 
HETATM    8  C8  UNL     1     -34.949  15.125  -6.690  1.00 20.00    -0.007 C 
HETATM    9  C9  UNL     1     -35.956  17.033  -3.542  1.00 20.00    -0.043 C 
HETATM   10  C10 UNL     1     -33.811  15.150  -7.701  1.00 20.00     0.011 C 
HETATM   11  C11 UNL     1     -37.388  17.246  -3.011  1.00 20.00     0.015 C 
HETATM   12  C12 UNL     1     -35.316  18.419  -3.738  1.00 20.00     0.015 C 
HETATM   13  O13 UNL     1     -33.271  14.024  -4.570  1.00 20.00    -0.298 OA
ENDROOT
TORSDOF 0
ENDMDL
MODEL 6
REMARK VINA RESULT:      -4.3      1.498      3.621
REMARK  0 active torsions:
REMARK  status: ('A' for Active; 'I' for Inactive)
ROOT
HETATM    1  C1  UNL     1     -37.140  16.633  -3.702  1.00 20.00     0.131 C 
HETATM    2  C2  UNL     1     -37.499  17.696  -2.680  1.00 20.00     0.079 C 
HETATM    3  C3  UNL     1     -36.289  18.562  -2.318  1.00 20.00     0.016 C 
HETATM    4  C4  UNL     1     -33.565  15.814  -3.040  1.00 20.00     0.006 C 
HETATM    5  C5  UNL     1     -33.858  14.773  -4.130  1.00 20.00     0.005 C 
HETATM    6  C6  UNL     1     -35.914  15.810  -3.370  1.00 20.00     0.064 C 
HETATM    7  C7  UNL     1     -34.749  16.771  -3.122  1.00 20.00     0.005 C 
HETATM    8  C8  UNL     1     -35.358  14.905  -4.471  1.00 20.00    -0.007 C 
HETATM    9  C9  UNL     1     -35.008  17.755  -1.957  1.00 20.00    -0.043 C 
HETATM   10  C10 UNL     1     -36.058  13.555  -4.546  1.00 20.00     0.011 C 
HETATM   11  C11 UNL     1     -33.825  18.736  -1.832  1.00 20.00     0.015 C 
HETATM   12  C12 UNL     1     -35.188  17.061  -0.594  1.00 20.00     0.015 C 
HETATM   13  O13 UNL     1     -37.856  16.403  -4.674  1.00 20.00    -0.298 OA
ENDROOT
TORSDOF 0
ENDMDL
MODEL 7
REMARK VINA RESULT:      -4.3      2.446      3.671
REMARK  0 active torsions:
REMARK  status: ('A' for Active; 'I' for Inactive)
ROOT
HETATM    1  C1  UNL     1     -35.180  14.520  -4.773  1.00 20.00     0.131 C 
HETATM    2  C2  UNL     1     -35.813  14.314  -6.138  1.00 20.00     0.079 C 
HETATM    3  C3  UNL     1     -35.133  15.172  -7.209  1.00 20.00     0.016 C 
HETATM    4  C4  UNL     1     -33.969  18.045  -4.783  1.00 20.00     0.006 C 
HETATM    5  C5  UNL     1     -33.640  17.676  -3.330  1.00 20.00     0.005 C 
HETATM    6  C6  UNL     1     -35.023  15.965  -4.349  1.00 20.00     0.064 C 
HETATM    7  C7  UNL     1     -34.250  16.701  -5.447  1.00 20.00     0.005 C 
HETATM    8  C8  UNL     1     -34.169  16.242  -3.111  1.00 20.00    -0.007 C 
HETATM    9  C9  UNL     1     -34.963  16.669  -6.819  1.00 20.00    -0.043 C 
HETATM   10  C10 UNL     1     -34.943  16.102  -1.807  1.00 20.00     0.011 C 
HETATM   11  C11 UNL     1     -34.079  17.357  -7.879  1.00 20.00     0.015 C 
HETATM   12  C12 UNL     1     -36.332  17.374  -6.819  1.00 20.00     0.015 C 
HETATM   13  O13 UNL     1     -34.911  13.574  -4.037  1.00 20.00    -0.298 OA
ENDROOT
TORSDOF 0
ENDMDL
MODEL 8
REMARK VINA RESULT:      -4.3      1.809      4.451
REMARK  0 active torsions:
REMARK  status: ('A' for Active; 'I' for Inactive)
ROOT
HETATM    1  C1  UNL     1     -36.145  17.318  -2.698  1.00 20.00     0.131 C 
HETATM    2  C2  UNL     1     -37.437  18.009  -3.095  1.00 20.00     0.079 C 
HETATM    3  C3  UNL     1     -38.551  16.998  -3.384  1.00 20.00     0.016 C 
HETATM    4  C4  UNL     1     -36.184  14.062  -4.512  1.00 20.00     0.006 C 
HETATM    5  C5  UNL     1     -34.787  13.975  -3.881  1.00 20.00     0.005 C 
HETATM    6  C6  UNL     1     -35.698  16.208  -3.625  1.00 20.00     0.064 C 
HETATM    7  C7  UNL     1     -36.852  15.211  -3.764  1.00 20.00     0.005 C 
HETATM    8  C8  UNL     1     -34.554  15.313  -3.146  1.00 20.00    -0.007 C 
HETATM    9  C9  UNL     1     -38.138  15.846  -4.344  1.00 20.00    -0.043 C 
HETATM   10  C10 UNL     1     -33.178  15.898  -3.431  1.00 20.00     0.011 C 
HETATM   11  C11 UNL     1     -39.268  14.797  -4.371  1.00 20.00     0.015 C 
HETATM   12  C12 UNL     1     -37.966  16.387  -5.776  1.00 20.00     0.015 C 
HETATM   13  O13 UNL     1     -35.471  17.706  -1.746  1.00 20.00    -0.298 OA
ENDROOT
TORSDOF 0
ENDMDL
MODEL 9
REMARK VINA RESULT:      -4.3      1.688      3.479
REMARK  0 active torsions:
REMARK  status: ('A' for Active; 'I' for Inactive)
ROOT
HETATM    1  C1  UNL     1     -36.961  16.952  -3.206  1.00 20.00     0.131 C 
HETATM    2  C2  UNL     1     -37.664  15.996  -4.153  1.00 20.00     0.079 C 
HETATM    3  C3  UNL     1     -37.011  14.611  -4.143  1.00 20.00     0.016 C 
HETATM    4  C4  UNL     1     -33.402  15.844  -3.171  1.00 20.00     0.006 C 
HETATM    5  C5  UNL     1     -33.278  17.101  -2.296  1.00 20.00     0.005 C 
HETATM    6  C6  UNL     1     -35.456  17.016  -3.358  1.00 20.00     0.064 C 
HETATM    7  C7  UNL     1     -34.905  15.593  -3.237  1.00 20.00     0.005 C 
HETATM    8  C8  UNL     1     -34.674  17.760  -2.274  1.00 20.00    -0.007 C 
HETATM    9  C9  UNL     1     -35.464  14.630  -4.310  1.00 20.00    -0.043 C 
HETATM   10  C10 UNL     1     -34.609  19.263  -2.508  1.00 20.00     0.011 C 
HETATM   11  C11 UNL     1     -34.924  13.207  -4.063  1.00 20.00     0.015 C 
HETATM   12  C12 UNL     1     -35.093  15.030  -5.750  1.00 20.00     0.015 C 
HETATM   13  O13 UNL     1     -37.587  17.685  -2.445  1.00 20.00    -0.298 OA
ENDROOT
TORSDOF 0
ENDMDL
