MODEL 1
REMARK VINA RESULT:      -4.6      0.000      0.000
REMARK  0 active torsions:
REMARK  status: ('A' for Active; 'I' for Inactive)
ROOT
HETATM    1  C1  UNL     1     -36.218  14.947  -4.040  1.00 20.00    -0.080 C 
HETATM    2  C2  UNL     1     -37.500  14.584  -4.176  1.00 20.00     0.015 C 
HETATM    3  C3  UNL     1     -35.063  13.989  -4.188  1.00 20.00     0.043 C 
HETATM    4  C4  UNL     1     -34.546  17.305  -1.876  1.00 20.00     0.002 C 
HETATM    5  C5  UNL     1     -33.593  16.343  -2.559  1.00 20.00     0.006 C 
HETATM    6  C6  UNL     1     -35.908  16.797  -2.324  1.00 20.00     0.014 C 
HETATM    7  C7  UNL     1     -34.165  16.226  -3.980  1.00 20.00     0.006 C 
HETATM    8  C8  UNL     1     -35.711  16.357  -3.794  1.00 20.00    -0.017 C 
HETATM    9  C9  UNL     1     -33.918  14.877  -4.704  1.00 20.00    -0.040 C 
HETATM   10  C10 UNL     1     -36.309  17.401  -4.747  1.00 20.00     0.020 C 
HETATM   11  C11 UNL     1     -34.025  15.052  -6.236  1.00 20.00     0.015 C 
HETATM   12  C12 UNL     1     -32.548  14.254  -4.406  1.00 20.00     0.015 C 
ENDROOT
TORSDOF 0
ENDMDL
MODEL 2
REMARK VINA RESULT:      -4.5      1.046      3.299
REMARK  0 active torsions:
REMARK  status: ('A' for Active; 'I' for Inactive)
ROOT
HETATM    1  C1  UNL     1     -34.903  15.572  -5.469  1.00 20.00    -0.080 C 
HETATM    2  C2  UNL     1     -34.306  15.209  -6.611  1.00 20.00     0.015 C 
HETATM    3  C3  UNL     1     -36.174  16.381  -5.416  1.00 20.00     0.043 C 
HETATM    4  C4  UNL     1     -33.630  16.557  -2.236  1.00 20.00     0.002 C 
HETATM    5  C5  UNL     1     -35.099  16.886  -2.425  1.00 20.00     0.006 C 
HETATM    6  C6  UNL     1     -33.237  16.004  -3.597  1.00 20.00     0.014 C 
HETATM    7  C7  UNL     1     -35.646  15.658  -3.168  1.00 20.00     0.006 C 
HETATM    8  C8  UNL     1     -34.460  15.184  -4.068  1.00 20.00    -0.017 C 
HETATM    9  C9  UNL     1     -36.847  15.913  -4.114  1.00 20.00    -0.040 C 
HETATM   10  C10 UNL     1     -34.190  13.682  -3.904  1.00 20.00     0.020 C 
HETATM   11  C11 UNL     1     -37.638  14.609  -4.359  1.00 20.00     0.015 C 
HETATM   12  C12 UNL     1     -37.838  16.960  -3.589  1.00 20.00     0.015 C 
ENDROOT
TORSDOF 0
ENDMDL
MODEL 3
REMARK VINA RESULT:      -4.5      1.051      3.397
REMARK  0 active torsions:
REMARK  status: ('A' for Active; 'I' for Inactive)
ROOT
HETATM    1  C1  UNL     1     -35.760  17.166  -4.229  1.00 20.00    -0.080 C 
HETATM    2  C2  UNL     1     -36.795  17.642  -4.933  1.00 20.00     0.015 C 
HETATM    3  C3  UNL     1     -34.879  18.028  -3.361  1.00 20.00     0.043 C 
HETATM    4  C4  UNL     1     -33.327  14.577  -4.876  1.00 20.00     0.002 C 
HETATM    5  C5  UNL     1     -32.940  15.485  -3.724  1.00 20.00     0.006 C 
HETATM    6  C6  UNL     1     -34.608  15.218  -5.388  1.00 20.00     0.014 C 
HETATM    7  C7  UNL     1     -34.271  15.716  -2.991  1.00 20.00     0.006 C 
HETATM    8  C8  UNL     1     -35.349  15.707  -4.122  1.00 20.00    -0.017 C 
HETATM    9  C9  UNL     1     -34.414  17.070  -2.251  1.00 20.00    -0.040 C 
HETATM   10  C10 UNL     1     -36.512  14.763  -3.788  1.00 20.00     0.020 C 
HETATM   11  C11 UNL     1     -35.485  16.976  -1.142  1.00 20.00     0.015 C 
HETATM   12  C12 UNL     1     -33.115  17.560  -1.597  1.00 20.00     0.015 C 
ENDROOT
TORSDOF 0
ENDMDL
MODEL 4
REMARK VINA RESULT:      -4.5      1.267      2.513
REMARK  0 active torsions:
REMARK  status: ('A' for Active; 'I' for Inactive)
ROOT
HETATM    1  C1  UNL     1     -35.793  14.796  -4.445  1.00 20.00    -0.080 C 
HETATM    2  C2  UNL     1     -36.614  13.743  -4.541  1.00 20.00     0.015 C 
HETATM    3  C3  UNL     1     -34.990  15.114  -3.210  1.00 20.00     0.043 C 
HETATM    4  C4  UNL     1     -35.957  18.167  -5.730  1.00 20.00     0.002 C 
HETATM    5  C5  UNL     1     -34.909  17.991  -4.649  1.00 20.00     0.006 C 
HETATM    6  C6  UNL     1     -36.624  16.800  -5.771  1.00 20.00     0.014 C 
HETATM    7  C7  UNL     1     -34.293  16.621  -4.970  1.00 20.00     0.006 C 
HETATM    8  C8  UNL     1     -35.477  15.786  -5.554  1.00 20.00    -0.017 C 
HETATM    9  C9  UNL     1     -33.740  15.822  -3.761  1.00 20.00    -0.040 C 
HETATM   10  C10 UNL     1     -35.098  15.119  -6.883  1.00 20.00     0.020 C 
HETATM   11  C11 UNL     1     -32.696  14.783  -4.224  1.00 20.00     0.015 C 
HETATM   12  C12 UNL     1     -33.076  16.698  -2.691  1.00 20.00     0.015 C 
ENDROOT
TORSDOF 0
ENDMDL
MODEL 5
REMARK VINA RESULT:      -4.5      1.160      1.613
REMARK  0 active torsions:
REMARK  status: ('A' for Active; 'I' for Inactive)
ROOT
HETATM    1  C1  UNL     1     -36.654  14.984  -4.583  1.00 20.00    -0.080 C 
HETATM    2  C2  UNL     1     -37.890  14.593  -4.247  1.00 20.00     0.015 C 
HETATM    3  C3  UNL     1     -35.875  14.386  -5.727  1.00 20.00     0.043 C 
HETATM    4  C4  UNL     1     -33.807  16.073  -2.646  1.00 20.00     0.002 C 
HETATM    5  C5  UNL     1     -33.455  15.722  -4.080  1.00 20.00     0.006 C 
HETATM    6  C6  UNL     1     -35.282  15.709  -2.569  1.00 20.00     0.014 C 
HETATM    7  C7  UNL     1     -34.637  16.286  -4.883  1.00 20.00     0.006 C 
HETATM    8  C8  UNL     1     -35.870  16.116  -3.940  1.00 20.00    -0.017 C 
HETATM    9  C9  UNL     1     -34.980  15.544  -6.201  1.00 20.00    -0.040 C 
HETATM   10  C10 UNL     1     -36.669  17.420  -3.811  1.00 20.00     0.020 C 
HETATM   11  C11 UNL     1     -35.762  16.467  -7.161  1.00 20.00     0.015 C 
HETATM   12  C12 UNL     1     -33.750  15.026  -6.959  1.00 20.00     0.015 C 
ENDROOT
TORSDOF 0
ENDMDL
MODEL 6
REMARK VINA RESULT:      -4.4      1.497      3.273
REMARK  0 active torsions:
REMARK  status: ('A' for Active; 'I' for Inactive)
ROOT
HETATM    1  C1  UNL     1     -33.724  18.024  -3.844  1.00 20.00    -0.080 C 
HETATM    2  C2  UNL     1     -33.239  19.098  -4.479  1.00 20.00     0.015 C 
HETATM    3  C3  UNL     1     -34.434  16.894  -4.546  1.00 20.00     0.043 C 
HETATM    4  C4  UNL     1     -35.279  17.570  -0.616  1.00 20.00     0.002 C 
HETATM    5  C5  UNL     1     -35.464  16.381  -1.541  1.00 20.00     0.006 C 
HETATM    6  C6  UNL     1     -34.558  18.572  -1.505  1.00 20.00     0.014 C 
HETATM    7  C7  UNL     1     -34.100  16.256  -2.236  1.00 20.00     0.006 C 
HETATM    8  C8  UNL     1     -33.586  17.726  -2.361  1.00 20.00    -0.017 C 
HETATM    9  C9  UNL     1     -34.118  15.668  -3.671  1.00 20.00    -0.040 C 
HETATM   10  C10 UNL     1     -32.151  17.870  -1.836  1.00 20.00     0.020 C 
HETATM   11  C11 UNL     1     -32.736  15.087  -4.041  1.00 20.00     0.015 C 
HETATM   12  C12 UNL     1     -35.155  14.556  -3.872  1.00 20.00     0.015 C 
ENDROOT
TORSDOF 0
ENDMDL
MODEL 7
REMARK VINA RESULT:      -4.2      1.028      2.959
REMARK  0 active torsions:
REMARK  status: ('A' for Active; 'I' for Inactive)
ROOT
HETATM    1  C1  UNL     1     -35.498  17.382  -4.775  1.00 20.00    -0.080 C 
HETATM    2  C2  UNL     1     -35.786  18.629  -5.171  1.00 20.00     0.015 C 
HETATM    3  C3  UNL     1     -34.230  16.661  -5.156  1.00 20.00     0.043 C 
HETATM    4  C4  UNL     1     -37.525  14.440  -4.250  1.00 20.00     0.002 C 
HETATM    5  C5  UNL     1     -36.040  14.139  -4.308  1.00 20.00     0.006 C 
HETATM    6  C6  UNL     1     -37.573  15.930  -4.553  1.00 20.00     0.014 C 
HETATM    7  C7  UNL     1     -35.410  15.307  -3.535  1.00 20.00     0.006 C 
HETATM    8  C8  UNL     1     -36.337  16.526  -3.841  1.00 20.00    -0.017 C 
HETATM    9  C9  UNL     1     -33.979  15.717  -3.967  1.00 20.00    -0.040 C 
HETATM   10  C10 UNL     1     -36.760  17.252  -2.557  1.00 20.00     0.020 C 
HETATM   11  C11 UNL     1     -33.258  16.471  -2.828  1.00 20.00     0.015 C 
HETATM   12  C12 UNL     1     -33.089  14.534  -4.372  1.00 20.00     0.015 C 
ENDROOT
TORSDOF 0
ENDMDL
MODEL 8
REMARK VINA RESULT:      -4.2      1.052      3.505
REMARK  0 active torsions:
REMARK  status: ('A' for Active; 'I' for Inactive)
ROOT
HETATM    1  C1  UNL     1     -33.742  15.073  -4.155  1.00 20.00    -0.080 C 
HETATM    2  C2  UNL     1     -32.676  14.280  -4.321  1.00 20.00     0.015 C 
HETATM    3  C3  UNL     1     -33.804  16.179  -3.133  1.00 20.00     0.043 C 
HETATM    4  C4  UNL     1     -37.299  14.488  -4.372  1.00 20.00     0.002 C 
HETATM    5  C5  UNL     1     -36.950  15.798  -3.692  1.00 20.00     0.006 C 
HETATM    6  C6  UNL     1     -35.932  13.865  -4.614  1.00 20.00     0.014 C 
HETATM    7  C7  UNL     1     -35.775  16.330  -4.527  1.00 20.00     0.006 C 
HETATM    8  C8  UNL     1     -35.011  15.049  -4.990  1.00 20.00    -0.017 C 
HETATM    9  C9  UNL     1     -34.748  17.212  -3.772  1.00 20.00    -0.040 C 
HETATM   10  C10 UNL     1     -34.751  15.061  -6.503  1.00 20.00     0.020 C 
HETATM   11  C11 UNL     1     -33.969  18.110  -4.758  1.00 20.00     0.015 C 
HETATM   12  C12 UNL     1     -35.376  18.127  -2.713  1.00 20.00     0.015 C 
ENDROOT
TORSDOF 0
ENDMDL
MODEL 9
REMARK VINA RESULT:      -4.1      1.898      3.754
REMARK  0 active torsions:
REMARK  status: ('A' for Active; 'I' for Inactive)
ROOT
HETATM    1  C1  UNL     1     -33.127  17.920  -3.247  1.00 20.00    -0.080 C 
HETATM    2  C2  UNL     1     -32.378  18.804  -2.575  1.00 20.00     0.015 C 
HETATM    3  C3  UNL     1     -32.967  16.427  -3.118  1.00 20.00     0.043 C 
HETATM    4  C4  UNL     1     -34.537  17.916  -6.571  1.00 20.00     0.002 C 
HETATM    5  C5  UNL     1     -34.555  16.549  -5.913  1.00 20.00     0.006 C 
HETATM    6  C6  UNL     1     -33.800  18.767  -5.548  1.00 20.00     0.014 C 
HETATM    7  C7  UNL     1     -34.934  16.861  -4.457  1.00 20.00     0.006 C 
HETATM    8  C8  UNL     1     -34.285  18.253  -4.172  1.00 20.00    -0.017 C 
HETATM    9  C9  UNL     1     -34.381  15.885  -3.387  1.00 20.00    -0.040 C 
HETATM   10  C10 UNL     1     -35.296  19.235  -3.563  1.00 20.00     0.020 C 
HETATM   11  C11 UNL     1     -35.232  15.948  -2.099  1.00 20.00     0.015 C 
HETATM   12  C12 UNL     1     -34.342  14.421  -3.843  1.00 20.00     0.015 C 
ENDROOT
TORSDOF 0
ENDMDL
