MODEL 1
REMARK VINA RESULT:      -4.0      0.000      0.000
REMARK  1 active torsions:
REMARK  status: ('A' for Active; 'I' for Inactive)
REMARK    1  A    between atoms: C2_2  and  C6_6 
ROOT
HETATM    1  C1  UNL     1     -24.749  18.554   9.319  1.00 20.00     0.071 C 
HETATM    2  C2  UNL     1     -23.739  18.111  10.089  1.00 20.00     0.003 C 
HETATM    3 BR7  UNL     1     -24.672  19.171   7.566  1.00 20.00    -0.062 Br
HETATM    4 BR8  UNL     1     -21.964  18.057   9.424  1.00 20.00    -0.054 Br
ENDROOT
BRANCH   2   5
HETATM    5  C6  UNL     1     -23.908  17.617  11.546  1.00 20.00    -0.017 C 
HETATM    6  C3  UNL     1     -24.985  18.407  12.332  1.00 20.00     0.020 C 
HETATM    7  C4  UNL     1     -24.344  16.136  11.574  1.00 20.00     0.020 C 
HETATM    8  C5  UNL     1     -22.587  17.775  12.331  1.00 20.00     0.020 C 
ENDBRANCH   2   5
TORSDOF 1
ENDMDL
MODEL 2
REMARK VINA RESULT:      -3.3     16.708     17.631
REMARK  1 active torsions:
REMARK  status: ('A' for Active; 'I' for Inactive)
REMARK    1  A    between atoms: C2_2  and  C6_6 
ROOT
HETATM    1  C1  UNL     1     -35.221  16.174  -1.802  1.00 20.00     0.071 C 
HETATM    2  C2  UNL     1     -34.290  16.248  -2.770  1.00 20.00     0.003 C 
HETATM    3 BR7  UNL     1     -35.352  17.198  -0.254  1.00 20.00    -0.062 Br
HETATM    4 BR8  UNL     1     -32.878  17.509  -2.664  1.00 20.00    -0.054 Br
ENDROOT
BRANCH   2   5
HETATM    5  C6  UNL     1     -34.268  15.345  -4.026  1.00 20.00    -0.017 C 
HETATM    6  C3  UNL     1     -35.251  14.150  -3.930  1.00 20.00     0.020 C 
HETATM    7  C4  UNL     1     -34.673  16.146  -5.282  1.00 20.00     0.020 C 
HETATM    8  C5  UNL     1     -32.862  14.740  -4.238  1.00 20.00     0.020 C 
ENDBRANCH   2   5
TORSDOF 1
ENDMDL
MODEL 3
REMARK VINA RESULT:      -3.3     16.749     17.684
REMARK  1 active torsions:
REMARK  status: ('A' for Active; 'I' for Inactive)
REMARK    1  A    between atoms: C2_2  and  C6_6 
ROOT
HETATM    1  C1  UNL     1     -35.204  16.140  -1.861  1.00 20.00     0.071 C 
HETATM    2  C2  UNL     1     -34.275  16.209  -2.830  1.00 20.00     0.003 C 
HETATM    3 BR7  UNL     1     -35.342  17.182  -0.326  1.00 20.00    -0.062 Br
HETATM    4 BR8  UNL     1     -32.873  17.483  -2.742  1.00 20.00    -0.054 Br
ENDROOT
BRANCH   2   5
HETATM    5  C6  UNL     1     -34.247  15.291  -4.076  1.00 20.00    -0.017 C 
HETATM    6  C3  UNL     1     -34.592  16.041  -5.388  1.00 20.00     0.020 C 
HETATM    7  C4  UNL     1     -32.842  14.681  -4.275  1.00 20.00     0.020 C 
HETATM    8  C5  UNL     1     -35.282  14.152  -3.936  1.00 20.00     0.020 C 
ENDBRANCH   2   5
TORSDOF 1
ENDMDL
MODEL 4
REMARK VINA RESULT:      -3.3     15.493     17.226
REMARK  1 active torsions:
REMARK  status: ('A' for Active; 'I' for Inactive)
REMARK    1  A    between atoms: C2_2  and  C6_6 
ROOT
HETATM    1  C1  UNL     1     -32.664  17.345  -2.438  1.00 20.00     0.071 C 
HETATM    2  C2  UNL     1     -33.827  16.681  -2.570  1.00 20.00     0.003 C 
HETATM    3 BR7  UNL     1     -32.127  18.454  -1.045  1.00 20.00    -0.062 Br
HETATM    4 BR8  UNL     1     -35.172  16.808  -1.240  1.00 20.00    -0.054 Br
ENDROOT
BRANCH   2   5
HETATM    5  C6  UNL     1     -34.180  15.778  -3.775  1.00 20.00    -0.017 C 
HETATM    6  C3  UNL     1     -33.011  14.854  -4.202  1.00 20.00     0.020 C 
HETATM    7  C4  UNL     1     -35.369  14.852  -3.435  1.00 20.00     0.020 C 
HETATM    8  C5  UNL     1     -34.538  16.633  -5.011  1.00 20.00     0.020 C 
ENDBRANCH   2   5
TORSDOF 1
ENDMDL
MODEL 5
REMARK VINA RESULT:      -3.3     16.165     17.129
REMARK  1 active torsions:
REMARK  status: ('A' for Active; 'I' for Inactive)
REMARK    1  A    between atoms: C2_2  and  C6_6 
ROOT
HETATM    1  C1  UNL     1     -35.212  16.638  -1.208  1.00 20.00     0.071 C 
HETATM    2  C2  UNL     1     -34.242  16.726  -2.136  1.00 20.00     0.003 C 
HETATM    3 BR7  UNL     1     -35.285  17.462   0.458  1.00 20.00    -0.062 Br
HETATM    4 BR8  UNL     1     -32.702  17.789  -1.832  1.00 20.00    -0.054 Br
ENDROOT
BRANCH   2   5
HETATM    5  C6  UNL     1     -34.274  15.996  -3.500  1.00 20.00    -0.017 C 
HETATM    6  C3  UNL     1     -32.927  15.316  -3.855  1.00 20.00     0.020 C 
HETATM    7  C4  UNL     1     -35.342  14.880  -3.498  1.00 20.00     0.020 C 
HETATM    8  C5  UNL     1     -34.579  16.990  -4.643  1.00 20.00     0.020 C 
ENDBRANCH   2   5
TORSDOF 1
ENDMDL
MODEL 6
REMARK VINA RESULT:      -3.2     16.263     17.609
REMARK  1 active torsions:
REMARK  status: ('A' for Active; 'I' for Inactive)
REMARK    1  A    between atoms: C2_2  and  C6_6 
ROOT
HETATM    1  C1  UNL     1     -35.977  15.293  -3.559  1.00 20.00     0.071 C 
HETATM    2  C2  UNL     1     -34.754  15.803  -3.323  1.00 20.00     0.003 C 
HETATM    3 BR7  UNL     1     -36.430  13.853  -4.646  1.00 20.00    -0.062 Br
HETATM    4 BR8  UNL     1     -33.216  15.051  -4.137  1.00 20.00    -0.054 Br
ENDROOT
BRANCH   2   5
HETATM    5  C6  UNL     1     -34.480  17.012  -2.397  1.00 20.00    -0.017 C 
HETATM    6  C3  UNL     1     -35.026  18.346  -2.967  1.00 20.00     0.020 C 
HETATM    7  C4  UNL     1     -35.156  16.813  -1.023  1.00 20.00     0.020 C 
HETATM    8  C5  UNL     1     -32.962  17.210  -2.194  1.00 20.00     0.020 C 
ENDBRANCH   2   5
TORSDOF 1
ENDMDL
MODEL 7
REMARK VINA RESULT:      -3.2     14.010     15.865
REMARK  1 active torsions:
REMARK  status: ('A' for Active; 'I' for Inactive)
REMARK    1  A    between atoms: C2_2  and  C6_6 
ROOT
HETATM    1  C1  UNL     1     -32.052  18.113  -1.105  1.00 20.00     0.071 C 
HETATM    2  C2  UNL     1     -33.349  17.761  -1.155  1.00 20.00     0.003 C 
HETATM    3 BR7  UNL     1     -31.127  18.891   0.309  1.00 20.00    -0.062 Br
HETATM    4 BR8  UNL     1     -34.488  18.040   0.335  1.00 20.00    -0.054 Br
ENDROOT
BRANCH   2   5
HETATM    5  C6  UNL     1     -34.028  17.116  -2.387  1.00 20.00    -0.017 C 
HETATM    6  C3  UNL     1     -33.044  16.298  -3.262  1.00 20.00     0.020 C 
HETATM    7  C4  UNL     1     -35.141  16.139  -1.948  1.00 20.00     0.020 C 
HETATM    8  C5  UNL     1     -34.635  18.200  -3.305  1.00 20.00     0.020 C 
ENDBRANCH   2   5
TORSDOF 1
ENDMDL
MODEL 8
REMARK VINA RESULT:      -3.1     17.767     18.849
REMARK  1 active torsions:
REMARK  status: ('A' for Active; 'I' for Inactive)
REMARK    1  A    between atoms: C2_2  and  C6_6 
ROOT
HETATM    1  C1  UNL     1     -34.683  17.444  -5.043  1.00 20.00     0.071 C 
HETATM    2  C2  UNL     1     -34.436  16.137  -5.242  1.00 20.00     0.003 C 
HETATM    3 BR7  UNL     1     -35.071  18.745  -6.315  1.00 20.00    -0.062 Br
HETATM    4 BR8  UNL     1     -34.452  15.401  -6.989  1.00 20.00    -0.054 Br
ENDROOT
BRANCH   2   5
HETATM    5  C6  UNL     1     -34.121  15.130  -4.110  1.00 20.00    -0.017 C 
HETATM    6  C3  UNL     1     -32.756  14.419  -4.295  1.00 20.00     0.020 C 
HETATM    7  C4  UNL     1     -34.061  15.845  -2.742  1.00 20.00     0.020 C 
HETATM    8  C5  UNL     1     -35.192  14.018  -4.057  1.00 20.00     0.020 C 
ENDBRANCH   2   5
TORSDOF 1
ENDMDL
MODEL 9
REMARK VINA RESULT:      -3.1     17.847     18.838
REMARK  1 active torsions:
REMARK  status: ('A' for Active; 'I' for Inactive)
REMARK    1  A    between atoms: C2_2  and  C6_6 
ROOT
HETATM    1  C1  UNL     1     -34.799  17.441  -5.059  1.00 20.00     0.071 C 
HETATM    2  C2  UNL     1     -34.453  16.157  -5.260  1.00 20.00     0.003 C 
HETATM    3 BR7  UNL     1     -35.127  18.755  -6.334  1.00 20.00    -0.062 Br
HETATM    4 BR8  UNL     1     -34.240  15.473  -7.016  1.00 20.00    -0.054 Br
ENDROOT
BRANCH   2   5
HETATM    5  C6  UNL     1     -34.200  15.136  -4.125  1.00 20.00    -0.017 C 
HETATM    6  C3  UNL     1     -35.279  14.025  -4.058  1.00 20.00     0.020 C 
HETATM    7  C4  UNL     1     -32.846  14.420  -4.325  1.00 20.00     0.020 C 
HETATM    8  C5  UNL     1     -34.207  15.838  -2.749  1.00 20.00     0.020 C 
ENDBRANCH   2   5
TORSDOF 1
ENDMDL
