MODEL 1
REMARK VINA RESULT:      -5.4      0.000      0.000
REMARK  0 active torsions:
REMARK  status: ('A' for Active; 'I' for Inactive)
ROOT
HETATM    1  C1  UNL     1     -33.685   7.028   5.873  1.00 20.00    -0.018 C 
HETATM    2  C2  UNL     1     -33.360   4.870   2.682  1.00 20.00    -0.018 C 
HETATM    3  C3  UNL     1     -34.601   6.060   5.601  1.00 20.00    -0.078 C 
HETATM    4  C4  UNL     1     -33.129   6.196   2.630  1.00 20.00    -0.078 C 
HETATM    5  C5  UNL     1     -34.647   4.688   6.191  1.00 20.00     0.035 C 
HETATM    6  C6  UNL     1     -31.907   7.064   2.428  1.00 20.00     0.035 C 
HETATM    7  C7  UNL     1     -34.097   3.836   5.007  1.00 20.00     0.013 C 
HETATM    8  C8  UNL     1     -31.963   7.979   3.736  1.00 20.00     0.013 C 
HETATM    9  C9  UNL     1     -32.901   7.145   4.604  1.00 20.00     0.017 C 
HETATM   10  C10 UNL     1     -34.486   4.540   3.679  1.00 20.00     0.017 C 
HETATM   11  C11 UNL     1     -34.952   5.919   4.149  1.00 20.00     0.030 C 
HETATM   12  C12 UNL     1     -34.001   6.904   3.573  1.00 20.00     0.030 C 
ENDROOT
TORSDOF 0
ENDMDL
MODEL 2
REMARK VINA RESULT:      -5.1     11.808     13.176
REMARK  0 active torsions:
REMARK  status: ('A' for Active; 'I' for Inactive)
ROOT
HETATM    1  C1  UNL     1     -36.407  16.397  -3.375  1.00 20.00    -0.018 C 
HETATM    2  C2  UNL     1     -33.743  14.878  -5.729  1.00 20.00    -0.018 C 
HETATM    3  C3  UNL     1     -35.354  15.703  -2.866  1.00 20.00    -0.078 C 
HETATM    4  C4  UNL     1     -35.050  14.797  -6.044  1.00 20.00    -0.078 C 
HETATM    5  C5  UNL     1     -34.108  16.283  -2.280  1.00 20.00     0.035 C 
HETATM    6  C6  UNL     1     -35.939  15.418  -7.097  1.00 20.00     0.035 C 
HETATM    7  C7  UNL     1     -33.094  16.042  -3.440  1.00 20.00     0.013 C 
HETATM    8  C8  UNL     1     -37.066  16.093  -6.188  1.00 20.00     0.013 C 
HETATM    9  C9  UNL     1     -36.344  16.114  -4.843  1.00 20.00     0.017 C 
HETATM   10  C10 UNL     1     -33.528  14.765  -4.209  1.00 20.00     0.017 C 
HETATM   11  C11 UNL     1     -34.938  14.510  -3.675  1.00 20.00     0.030 C 
HETATM   12  C12 UNL     1     -35.861  14.666  -4.828  1.00 20.00     0.030 C 
ENDROOT
TORSDOF 0
ENDMDL
MODEL 3
REMARK VINA RESULT:      -5.1     11.898     13.012
REMARK  0 active torsions:
REMARK  status: ('A' for Active; 'I' for Inactive)
ROOT
HETATM    1  C1  UNL     1     -33.080  15.291  -3.954  1.00 20.00    -0.018 C 
HETATM    2  C2  UNL     1     -36.301  17.219  -3.030  1.00 20.00    -0.018 C 
HETATM    3  C3  UNL     1     -34.302  14.771  -4.249  1.00 20.00    -0.078 C 
HETATM    4  C4  UNL     1     -35.274  17.159  -2.160  1.00 20.00    -0.078 C 
HETATM    5  C5  UNL     1     -34.987  14.812  -5.576  1.00 20.00     0.035 C 
HETATM    6  C6  UNL     1     -34.267  18.151  -1.621  1.00 20.00     0.035 C 
HETATM    7  C7  UNL     1     -36.048  15.927  -5.329  1.00 20.00     0.013 C 
HETATM    8  C8  UNL     1     -32.894  17.424  -1.991  1.00 20.00     0.013 C 
HETATM    9  C9  UNL     1     -33.390  16.439  -3.046  1.00 20.00     0.017 C 
HETATM   10  C10 UNL     1     -36.434  15.907  -3.825  1.00 20.00     0.017 C 
HETATM   11  C11 UNL     1     -35.355  15.014  -3.209  1.00 20.00     0.030 C 
HETATM   12  C12 UNL     1     -34.581  15.872  -2.276  1.00 20.00     0.030 C 
ENDROOT
TORSDOF 0
ENDMDL
MODEL 4
REMARK VINA RESULT:      -5.0     11.724     13.026
REMARK  0 active torsions:
REMARK  status: ('A' for Active; 'I' for Inactive)
ROOT
HETATM    1  C1  UNL     1     -36.465  17.192  -3.027  1.00 20.00    -0.018 C 
HETATM    2  C2  UNL     1     -33.384  15.083  -4.028  1.00 20.00    -0.018 C 
HETATM    3  C3  UNL     1     -35.234  17.496  -2.534  1.00 20.00    -0.078 C 
HETATM    4  C4  UNL     1     -34.553  14.480  -3.740  1.00 20.00    -0.078 C 
HETATM    5  C5  UNL     1     -34.318  18.566  -3.030  1.00 20.00     0.035 C 
HETATM    6  C6  UNL     1     -35.596  13.729  -4.537  1.00 20.00     0.035 C 
HETATM    7  C7  UNL     1     -33.271  17.722  -3.818  1.00 20.00     0.013 C 
HETATM    8  C8  UNL     1     -36.910  14.567  -4.186  1.00 20.00     0.013 C 
HETATM    9  C9  UNL     1     -36.274  15.852  -3.664  1.00 20.00     0.017 C 
HETATM   10  C10 UNL     1     -33.166  16.326  -3.146  1.00 20.00     0.017 C 
HETATM   11  C11 UNL     1     -34.377  16.307  -2.211  1.00 20.00     0.030 C 
HETATM   12  C12 UNL     1     -35.269  15.225  -2.699  1.00 20.00     0.030 C 
ENDROOT
TORSDOF 0
ENDMDL
MODEL 5
REMARK VINA RESULT:      -5.0     15.466     16.471
REMARK  0 active torsions:
REMARK  status: ('A' for Active; 'I' for Inactive)
ROOT
HETATM    1  C1  UNL     1     -25.066  19.242   9.514  1.00 20.00    -0.018 C 
HETATM    2  C2  UNL     1     -25.467  16.519  12.229  1.00 20.00    -0.018 C 
HETATM    3  C3  UNL     1     -23.982  18.558   9.968  1.00 20.00    -0.078 C 
HETATM    4  C4  UNL     1     -26.142  17.680  12.329  1.00 20.00    -0.078 C 
HETATM    5  C5  UNL     1     -23.316  17.401   9.297  1.00 20.00     0.035 C 
HETATM    6  C6  UNL     1     -27.593  18.089  12.219  1.00 20.00     0.035 C 
HETATM    7  C7  UNL     1     -23.834  16.215  10.165  1.00 20.00     0.013 C 
HETATM    8  C8  UNL     1     -27.509  19.211  11.084  1.00 20.00     0.013 C 
HETATM    9  C9  UNL     1     -26.149  18.875  10.479  1.00 20.00     0.017 C 
HETATM   10  C10 UNL     1     -24.075  16.736  11.608  1.00 20.00     0.017 C 
HETATM   11  C11 UNL     1     -24.001  18.254  11.437  1.00 20.00     0.030 C 
HETATM   12  C12 UNL     1     -25.347  18.782  11.776  1.00 20.00     0.030 C 
ENDROOT
TORSDOF 0
ENDMDL
MODEL 6
REMARK VINA RESULT:      -5.0     11.948     13.094
REMARK  0 active torsions:
REMARK  status: ('A' for Active; 'I' for Inactive)
ROOT
HETATM    1  C1  UNL     1     -31.998  18.347  -1.397  1.00 20.00    -0.018 C 
HETATM    2  C2  UNL     1     -35.382  16.986  -0.117  1.00 20.00    -0.018 C 
HETATM    3  C3  UNL     1     -32.703  19.031  -0.456  1.00 20.00    -0.078 C 
HETATM    4  C4  UNL     1     -35.083  16.933  -1.429  1.00 20.00    -0.078 C 
HETATM    5  C5  UNL     1     -32.457  19.025   1.017  1.00 20.00     0.035 C 
HETATM    6  C6  UNL     1     -34.766  15.829  -2.412  1.00 20.00     0.035 C 
HETATM    7  C7  UNL     1     -33.612  18.100   1.509  1.00 20.00     0.013 C 
HETATM    8  C8  UNL     1     -33.352  16.317  -2.973  1.00 20.00     0.013 C 
HETATM    9  C9  UNL     1     -32.961  17.309  -1.881  1.00 20.00     0.017 C 
HETATM   10  C10 UNL     1     -34.810  18.258   0.534  1.00 20.00     0.017 C 
HETATM   11  C11 UNL     1     -34.191  19.007  -0.647  1.00 20.00     0.030 C 
HETATM   12  C12 UNL     1     -34.271  18.092  -1.815  1.00 20.00     0.030 C 
ENDROOT
TORSDOF 0
ENDMDL
MODEL 7
REMARK VINA RESULT:      -4.8     12.010     12.898
REMARK  0 active torsions:
REMARK  status: ('A' for Active; 'I' for Inactive)
ROOT
HETATM    1  C1  UNL     1     -35.434  17.162   0.452  1.00 20.00    -0.018 C 
HETATM    2  C2  UNL     1     -32.032  18.121  -1.113  1.00 20.00    -0.018 C 
HETATM    3  C3  UNL     1     -35.330  17.382  -0.886  1.00 20.00    -0.078 C 
HETATM    4  C4  UNL     1     -32.420  18.671   0.054  1.00 20.00    -0.078 C 
HETATM    5  C5  UNL     1     -35.215  16.342  -1.952  1.00 20.00     0.035 C 
HETATM    6  C6  UNL     1     -31.970  18.558   1.493  1.00 20.00     0.035 C 
HETATM    7  C7  UNL     1     -33.699  16.437  -2.299  1.00 20.00     0.013 C 
HETATM    8  C8  UNL     1     -33.336  18.138   2.207  1.00 20.00     0.013 C 
HETATM    9  C9  UNL     1     -34.131  17.656   0.997  1.00 20.00     0.017 C 
HETATM   10  C10 UNL     1     -33.233  17.898  -2.050  1.00 20.00     0.017 C 
HETATM   11  C11 UNL     1     -34.403  18.498  -1.268  1.00 20.00     0.030 C 
HETATM   12  C12 UNL     1     -33.876  18.846   0.076  1.00 20.00     0.030 C 
ENDROOT
TORSDOF 0
ENDMDL
MODEL 8
REMARK VINA RESULT:      -4.8     12.046     13.171
REMARK  0 active torsions:
REMARK  status: ('A' for Active; 'I' for Inactive)
ROOT
HETATM    1  C1  UNL     1     -36.724  16.798  -3.596  1.00 20.00    -0.018 C 
HETATM    2  C2  UNL     1     -32.920  16.354  -3.067  1.00 20.00    -0.018 C 
HETATM    3  C3  UNL     1     -36.141  17.186  -2.429  1.00 20.00    -0.078 C 
HETATM    4  C4  UNL     1     -33.641  15.379  -3.653  1.00 20.00    -0.078 C 
HETATM    5  C5  UNL     1     -35.752  18.577  -2.049  1.00 20.00     0.035 C 
HETATM    6  C6  UNL     1     -33.733  14.805  -5.049  1.00 20.00     0.035 C 
HETATM    7  C7  UNL     1     -34.207  18.520  -2.249  1.00 20.00     0.013 C 
HETATM    8  C8  UNL     1     -35.292  14.977  -5.348  1.00 20.00     0.013 C 
HETATM    9  C9  UNL     1     -35.655  16.009  -4.283  1.00 20.00     0.017 C 
HETATM   10  C10 UNL     1     -33.734  17.067  -1.972  1.00 20.00     0.017 C 
HETATM   11  C11 UNL     1     -35.046  16.282  -1.944  1.00 20.00     0.030 C 
HETATM   12  C12 UNL     1     -34.993  15.332  -3.085  1.00 20.00     0.030 C 
ENDROOT
TORSDOF 0
ENDMDL
MODEL 9
REMARK VINA RESULT:      -4.7     11.646     13.273
REMARK  0 active torsions:
REMARK  status: ('A' for Active; 'I' for Inactive)
ROOT
HETATM    1  C1  UNL     1     -34.348  16.465  -5.928  1.00 20.00    -0.018 C 
HETATM    2  C2  UNL     1     -34.962  15.882  -2.156  1.00 20.00    -0.018 C 
HETATM    3  C3  UNL     1     -34.703  15.234  -5.471  1.00 20.00    -0.078 C 
HETATM    4  C4  UNL     1     -33.921  16.633  -2.565  1.00 20.00    -0.078 C 
HETATM    5  C5  UNL     1     -36.071  14.634  -5.505  1.00 20.00     0.035 C 
HETATM    6  C6  UNL     1     -33.570  18.102  -2.501  1.00 20.00     0.035 C 
HETATM    7  C7  UNL     1     -36.501  14.789  -4.014  1.00 20.00     0.013 C 
HETATM    8  C8  UNL     1     -33.321  18.424  -4.046  1.00 20.00     0.013 C 
HETATM    9  C9  UNL     1     -34.023  17.228  -4.683  1.00 20.00     0.017 C 
HETATM   10  C10 UNL     1     -35.226  14.720  -3.130  1.00 20.00     0.017 C 
HETATM   11  C11 UNL     1     -34.096  14.856  -4.152  1.00 20.00     0.030 C 
HETATM   12  C12 UNL     1     -33.393  16.125  -3.835  1.00 20.00     0.030 C 
ENDROOT
TORSDOF 0
ENDMDL
