MODEL 1
REMARK VINA RESULT:      -5.6      0.000      0.000
REMARK  0 active torsions:
REMARK  status: ('A' for Active; 'I' for Inactive)
ROOT
HETATM    1  C1  UNL     1     -34.855   5.364   6.027  1.00 20.00    -0.021 C 
HETATM    2  C2  UNL     1     -34.017   3.915   3.968  1.00 20.00    -0.021 C 
HETATM    3  C3  UNL     1     -34.131   6.512   6.028  1.00 20.00    -0.023 C 
HETATM    4  C4  UNL     1     -33.335   4.507   2.954  1.00 20.00    -0.023 C 
HETATM    5  C5  UNL     1     -35.066   4.802   4.620  1.00 20.00     0.035 C 
HETATM    6  C6  UNL     1     -33.449   6.534   4.740  1.00 20.00     0.033 C 
HETATM    7  C7  UNL     1     -33.790   5.929   2.722  1.00 20.00     0.033 C 
HETATM    8  C8  UNL     1     -34.766   6.077   3.876  1.00 20.00     0.015 C 
HETATM    9  C9  UNL     1     -33.143   7.230   3.433  1.00 20.00     0.098 C 
HETATM   10 CL10 UNL     1     -31.435   7.628   3.053  1.00 20.00    -0.124 Cl
ENDROOT
TORSDOF 0
ENDMDL
MODEL 2
REMARK VINA RESULT:      -4.6     11.831     13.067
REMARK  0 active torsions:
REMARK  status: ('A' for Active; 'I' for Inactive)
ROOT
HETATM    1  C1  UNL     1     -34.182  17.298  -1.980  1.00 20.00    -0.021 C 
HETATM    2  C2  UNL     1     -34.067  17.549  -4.619  1.00 20.00    -0.021 C 
HETATM    3  C3  UNL     1     -34.907  16.182  -1.716  1.00 20.00    -0.023 C 
HETATM    4  C4  UNL     1     -34.325  16.479  -5.414  1.00 20.00    -0.023 C 
HETATM    5  C5  UNL     1     -33.407  17.199  -3.294  1.00 20.00     0.035 C 
HETATM    6  C6  UNL     1     -35.029  15.494  -2.995  1.00 20.00     0.033 C 
HETATM    7  C7  UNL     1     -33.891  15.181  -4.774  1.00 20.00     0.033 C 
HETATM    8  C8  UNL     1     -33.455  15.699  -3.415  1.00 20.00     0.015 C 
HETATM    9  C9  UNL     1     -34.833  14.255  -3.839  1.00 20.00     0.098 C 
HETATM   10 CL10 UNL     1     -36.272  13.495  -4.594  1.00 20.00    -0.124 Cl
ENDROOT
TORSDOF 0
ENDMDL
MODEL 3
REMARK VINA RESULT:      -4.6      8.986      9.615
REMARK  0 active torsions:
REMARK  status: ('A' for Active; 'I' for Inactive)
ROOT
HETATM    1  C1  UNL     1     -43.307   5.294   0.933  1.00 20.00    -0.021 C 
HETATM    2  C2  UNL     1     -41.258   5.419  -0.748  1.00 20.00    -0.021 C 
HETATM    3  C3  UNL     1     -43.417   6.512   1.520  1.00 20.00    -0.023 C 
HETATM    4  C4  UNL     1     -40.799   6.626  -1.170  1.00 20.00    -0.023 C 
HETATM    5  C5  UNL     1     -42.756   5.374  -0.491  1.00 20.00     0.035 C 
HETATM    6  C6  UNL     1     -42.553   7.390   0.742  1.00 20.00     0.033 C 
HETATM    7  C7  UNL     1     -41.908   7.646  -1.276  1.00 20.00     0.033 C 
HETATM    8  C8  UNL     1     -43.060   6.832  -0.715  1.00 20.00     0.015 C 
HETATM    9  C9  UNL     1     -42.361   8.642  -0.085  1.00 20.00     0.098 C 
HETATM   10 CL10 UNL     1     -41.178   9.868   0.477  1.00 20.00    -0.124 Cl
ENDROOT
TORSDOF 0
ENDMDL
MODEL 4
REMARK VINA RESULT:      -4.6     12.035     12.872
REMARK  0 active torsions:
REMARK  status: ('A' for Active; 'I' for Inactive)
ROOT
HETATM    1  C1  UNL     1     -33.303  15.738  -3.418  1.00 20.00    -0.021 C 
HETATM    2  C2  UNL     1     -33.970  15.074  -5.900  1.00 20.00    -0.021 C 
HETATM    3  C3  UNL     1     -34.454  16.013  -2.755  1.00 20.00    -0.023 C 
HETATM    4  C4  UNL     1     -35.242  14.688  -6.180  1.00 20.00    -0.023 C 
HETATM    5  C5  UNL     1     -33.489  14.684  -4.510  1.00 20.00     0.035 C 
HETATM    6  C6  UNL     1     -35.520  15.534  -3.626  1.00 20.00     0.033 C 
HETATM    7  C7  UNL     1     -35.880  13.959  -5.020  1.00 20.00     0.033 C 
HETATM    8  C8  UNL     1     -34.781  14.114  -3.984  1.00 20.00     0.015 C 
HETATM    9  C9  UNL     1     -36.739  14.668  -3.847  1.00 20.00     0.098 C 
HETATM   10 CL10 UNL     1     -38.283  15.460  -4.304  1.00 20.00    -0.124 Cl
ENDROOT
TORSDOF 0
ENDMDL
MODEL 5
REMARK VINA RESULT:      -4.6      8.861      9.729
REMARK  0 active torsions:
REMARK  status: ('A' for Active; 'I' for Inactive)
ROOT
HETATM    1  C1  UNL     1     -42.483   9.071  -0.109  1.00 20.00    -0.021 C 
HETATM    2  C2  UNL     1     -41.176   7.284  -1.571  1.00 20.00    -0.021 C 
HETATM    3  C3  UNL     1     -43.321   8.383   0.707  1.00 20.00    -0.023 C 
HETATM    4  C4  UNL     1     -41.118   5.988  -1.168  1.00 20.00    -0.023 C 
HETATM    5  C5  UNL     1     -41.208   8.293  -0.434  1.00 20.00     0.035 C 
HETATM    6  C6  UNL     1     -42.899   6.993   0.604  1.00 20.00     0.033 C 
HETATM    7  C7  UNL     1     -41.106   5.866   0.338  1.00 20.00     0.033 C 
HETATM    8  C8  UNL     1     -41.295   7.324   0.716  1.00 20.00     0.015 C 
HETATM    9  C9  UNL     1     -42.425   5.716   1.261  1.00 20.00     0.098 C 
HETATM   10 CL10 UNL     1     -43.417   4.233   1.069  1.00 20.00    -0.124 Cl
ENDROOT
TORSDOF 0
ENDMDL
MODEL 6
REMARK VINA RESULT:      -4.6     12.252     13.019
REMARK  0 active torsions:
REMARK  status: ('A' for Active; 'I' for Inactive)
ROOT
HETATM    1  C1  UNL     1     -36.234  16.728  -2.767  1.00 20.00    -0.021 C 
HETATM    2  C2  UNL     1     -33.607  16.395  -2.592  1.00 20.00    -0.021 C 
HETATM    3  C3  UNL     1     -36.577  16.520  -4.063  1.00 20.00    -0.023 C 
HETATM    4  C4  UNL     1     -32.943  15.718  -3.564  1.00 20.00    -0.023 C 
HETATM    5  C5  UNL     1     -35.022  15.899  -2.339  1.00 20.00     0.035 C 
HETATM    6  C6  UNL     1     -35.397  15.931  -4.682  1.00 20.00     0.033 C 
HETATM    7  C7  UNL     1     -33.790  14.623  -4.170  1.00 20.00     0.033 C 
HETATM    8  C8  UNL     1     -35.101  14.886  -3.451  1.00 20.00     0.015 C 
HETATM    9  C9  UNL     1     -34.749  14.808  -5.459  1.00 20.00     0.098 C 
HETATM   10 CL10 UNL     1     -33.973  15.189  -7.032  1.00 20.00    -0.124 Cl
ENDROOT
TORSDOF 0
ENDMDL
MODEL 7
REMARK VINA RESULT:      -4.6     15.731     16.758
REMARK  0 active torsions:
REMARK  status: ('A' for Active; 'I' for Inactive)
ROOT
HETATM    1  C1  UNL     1     -23.160  17.578   9.454  1.00 20.00    -0.021 C 
HETATM    2  C2  UNL     1     -24.300  15.918  11.183  1.00 20.00    -0.021 C 
HETATM    3  C3  UNL     1     -24.023  18.606   9.260  1.00 20.00    -0.023 C 
HETATM    4  C4  UNL     1     -25.318  16.352  11.970  1.00 20.00    -0.023 C 
HETATM    5  C5  UNL     1     -23.261  16.981  10.859  1.00 20.00     0.035 C 
HETATM    6  C6  UNL     1     -25.029  18.463  10.305  1.00 20.00     0.033 C 
HETATM    7  C7  UNL     1     -25.169  17.811  12.332  1.00 20.00     0.033 C 
HETATM    8  C8  UNL     1     -23.947  18.158  11.500  1.00 20.00     0.015 C 
HETATM    9  C9  UNL     1     -25.787  19.039  11.479  1.00 20.00     0.098 C 
HETATM   10 CL10 UNL     1     -27.574  19.165  11.368  1.00 20.00    -0.124 Cl
ENDROOT
TORSDOF 0
ENDMDL
MODEL 8
REMARK VINA RESULT:      -4.5     15.785     16.843
REMARK  0 active torsions:
REMARK  status: ('A' for Active; 'I' for Inactive)
ROOT
HETATM    1  C1  UNL     1     -24.918  16.841  11.155  1.00 20.00    -0.021 C 
HETATM    2  C2  UNL     1     -25.111  18.952   9.558  1.00 20.00    -0.021 C 
HETATM    3  C3  UNL     1     -23.944  16.044  10.648  1.00 20.00    -0.023 C 
HETATM    4  C4  UNL     1     -24.089  19.263   8.719  1.00 20.00    -0.023 C 
HETATM    5  C5  UNL     1     -24.673  18.324  10.872  1.00 20.00     0.035 C 
HETATM    6  C6  UNL     1     -23.270  16.857   9.643  1.00 20.00     0.033 C 
HETATM    7  C7  UNL     1     -22.745  18.898   9.304  1.00 20.00     0.033 C 
HETATM    8  C8  UNL     1     -23.200  18.204  10.577  1.00 20.00     0.015 C 
HETATM    9  C9  UNL     1     -22.005  17.475   9.093  1.00 20.00     0.098 C 
HETATM   10 CL10 UNL     1     -21.489  17.039   7.431  1.00 20.00    -0.124 Cl
ENDROOT
TORSDOF 0
ENDMDL
MODEL 9
REMARK VINA RESULT:      -4.5     16.272     17.038
REMARK  0 active torsions:
REMARK  status: ('A' for Active; 'I' for Inactive)
ROOT
HETATM    1  C1  UNL     1     -21.352  17.156   8.909  1.00 20.00    -0.021 C 
HETATM    2  C2  UNL     1     -23.403  17.071  10.592  1.00 20.00    -0.021 C 
HETATM    3  C3  UNL     1     -21.843  17.530   7.701  1.00 20.00    -0.023 C 
HETATM    4  C4  UNL     1     -24.555  17.725  10.292  1.00 20.00    -0.023 C 
HETATM    5  C5  UNL     1     -22.144  17.750  10.075  1.00 20.00     0.035 C 
HETATM    6  C6  UNL     1     -23.201  17.988   7.965  1.00 20.00     0.033 C 
HETATM    7  C7  UNL     1     -24.298  18.986   9.500  1.00 20.00     0.033 C 
HETATM    8  C8  UNL     1     -22.799  18.860   9.296  1.00 20.00     0.015 C 
HETATM    9  C9  UNL     1     -24.257  19.067   7.885  1.00 20.00     0.098 C 
HETATM   10 CL10 UNL     1     -25.774  18.718   6.991  1.00 20.00    -0.124 Cl
ENDROOT
TORSDOF 0
ENDMDL
