MODEL 1
REMARK VINA RESULT:      -4.7      0.000      0.000
REMARK  0 active torsions:
REMARK  status: ('A' for Active; 'I' for Inactive)
ROOT
HETATM    1  C1  UNL     1     -33.084  15.761  -3.625  1.00 20.00    -0.019 A 
HETATM    2  C2  UNL     1     -34.062  16.062  -2.761  1.00 20.00    -0.086 A 
HETATM    3  C3  UNL     1     -35.352  14.688  -5.425  1.00 20.00     0.132 C 
HETATM    4  C4  UNL     1     -35.249  15.143  -2.852  1.00 20.00     0.046 A 
HETATM    5  C5  UNL     1     -33.898  14.870  -5.895  1.00 20.00     0.088 C 
HETATM    6  C6  UNL     1     -33.454  14.582  -4.440  1.00 20.00     0.027 A 
HETATM    7  C7  UNL     1     -34.912  14.219  -4.021  1.00 20.00     0.067 A 
HETATM    8  C8  UNL     1     -34.050  17.178  -1.777  1.00 20.00     0.043 C 
HETATM    9  O9  UNL     1     -36.430  14.860  -5.954  1.00 20.00    -0.298 OA
ENDROOT
TORSDOF 0
ENDMDL
MODEL 2
REMARK VINA RESULT:      -4.5      1.662      2.346
REMARK  0 active torsions:
REMARK  status: ('A' for Active; 'I' for Inactive)
ROOT
HETATM    1  C1  UNL     1     -36.390  16.509  -3.234  1.00 20.00    -0.019 A 
HETATM    2  C2  UNL     1     -35.312  16.212  -2.498  1.00 20.00    -0.086 A 
HETATM    3  C3  UNL     1     -35.979  13.723  -4.502  1.00 20.00     0.132 C 
HETATM    4  C4  UNL     1     -34.345  15.291  -3.192  1.00 20.00     0.046 A 
HETATM    5  C5  UNL     1     -37.229  14.592  -4.728  1.00 20.00     0.088 C 
HETATM    6  C6  UNL     1     -36.325  15.836  -4.550  1.00 20.00     0.027 A 
HETATM    7  C7  UNL     1     -35.041  14.951  -4.510  1.00 20.00     0.067 A 
HETATM    8  C8  UNL     1     -35.024  16.705  -1.125  1.00 20.00     0.043 C 
HETATM    9  O9  UNL     1     -35.803  12.532  -4.360  1.00 20.00    -0.298 OA
ENDROOT
TORSDOF 0
ENDMDL
MODEL 3
REMARK VINA RESULT:      -4.5     17.605     18.828
REMARK  0 active torsions:
REMARK  status: ('A' for Active; 'I' for Inactive)
ROOT
HETATM    1  C1  UNL     1     -24.188  17.892  12.256  1.00 20.00    -0.019 A 
HETATM    2  C2  UNL     1     -25.090  18.433  11.428  1.00 20.00    -0.086 A 
HETATM    3  C3  UNL     1     -22.207  18.236   9.912  1.00 20.00     0.132 C 
HETATM    4  C4  UNL     1     -24.820  18.149   9.976  1.00 20.00     0.046 A 
HETATM    5  C5  UNL     1     -21.786  17.848  11.340  1.00 20.00     0.088 C 
HETATM    6  C6  UNL     1     -23.159  17.150  11.493  1.00 20.00     0.027 A 
HETATM    7  C7  UNL     1     -23.496  17.387   9.989  1.00 20.00     0.067 A 
HETATM    8  C8  UNL     1     -26.272  19.244  11.827  1.00 20.00     0.043 C 
HETATM    9  O9  UNL     1     -21.718  18.946   9.059  1.00 20.00    -0.298 OA
ENDROOT
TORSDOF 0
ENDMDL
MODEL 4
REMARK VINA RESULT:      -4.5     16.543     17.810
REMARK  0 active torsions:
REMARK  status: ('A' for Active; 'I' for Inactive)
ROOT
HETATM    1  C1  UNL     1     -24.896  18.365  10.074  1.00 20.00    -0.019 A 
HETATM    2  C2  UNL     1     -24.361  17.411  10.846  1.00 20.00    -0.086 A 
HETATM    3  C3  UNL     1     -22.595  17.717   8.119  1.00 20.00     0.132 C 
HETATM    4  C4  UNL     1     -22.873  17.267  10.680  1.00 20.00     0.046 A 
HETATM    5  C5  UNL     1     -23.791  18.619   7.767  1.00 20.00     0.088 C 
HETATM    6  C6  UNL     1     -23.850  19.024   9.260  1.00 20.00     0.027 A 
HETATM    7  C7  UNL     1     -22.529  18.254   9.566  1.00 20.00     0.067 A 
HETATM    8  C8  UNL     1     -25.098  16.540  11.801  1.00 20.00     0.043 C 
HETATM    9  O9  UNL     1     -21.959  16.891   7.499  1.00 20.00    -0.298 OA
ENDROOT
TORSDOF 0
ENDMDL
MODEL 5
REMARK VINA RESULT:      -4.4      2.168      3.781
REMARK  0 active torsions:
REMARK  status: ('A' for Active; 'I' for Inactive)
ROOT
HETATM    1  C1  UNL     1     -35.147  15.828  -2.351  1.00 20.00    -0.019 A 
HETATM    2  C2  UNL     1     -34.631  15.113  -3.358  1.00 20.00    -0.086 A 
HETATM    3  C3  UNL     1     -33.310  18.097  -3.357  1.00 20.00     0.132 C 
HETATM    4  C4  UNL     1     -33.225  15.508  -3.718  1.00 20.00     0.046 A 
HETATM    5  C5  UNL     1     -34.410  18.290  -2.299  1.00 20.00     0.088 C 
HETATM    6  C6  UNL     1     -34.167  16.824  -1.864  1.00 20.00     0.027 A 
HETATM    7  C7  UNL     1     -32.934  16.702  -2.811  1.00 20.00     0.067 A 
HETATM    8  C8  UNL     1     -35.316  14.018  -4.097  1.00 20.00     0.043 C 
HETATM    9  O9  UNL     1     -32.906  18.777  -4.277  1.00 20.00    -0.298 OA
ENDROOT
TORSDOF 0
ENDMDL
MODEL 6
REMARK VINA RESULT:      -4.3      1.426      2.079
REMARK  0 active torsions:
REMARK  status: ('A' for Active; 'I' for Inactive)
ROOT
HETATM    1  C1  UNL     1     -34.598  15.902  -2.241  1.00 20.00    -0.019 A 
HETATM    2  C2  UNL     1     -33.779  16.883  -2.642  1.00 20.00    -0.086 A 
HETATM    3  C3  UNL     1     -34.345  14.852  -5.134  1.00 20.00     0.132 C 
HETATM    4  C4  UNL     1     -33.911  17.217  -4.103  1.00 20.00     0.046 A 
HETATM    5  C5  UNL     1     -35.000  14.060  -3.988  1.00 20.00     0.088 C 
HETATM    6  C6  UNL     1     -35.421  15.416  -3.370  1.00 20.00     0.027 A 
HETATM    7  C7  UNL     1     -34.919  16.193  -4.625  1.00 20.00     0.067 A 
HETATM    8  C8  UNL     1     -32.808  17.619  -1.789  1.00 20.00     0.043 C 
HETATM    9  O9  UNL     1     -33.638  14.541  -6.069  1.00 20.00    -0.298 OA
ENDROOT
TORSDOF 0
ENDMDL
MODEL 7
REMARK VINA RESULT:      -4.3     11.480     12.817
REMARK  0 active torsions:
REMARK  status: ('A' for Active; 'I' for Inactive)
ROOT
HETATM    1  C1  UNL     1     -43.257   5.285  -0.191  1.00 20.00    -0.019 A 
HETATM    2  C2  UNL     1     -42.412   4.933  -1.168  1.00 20.00    -0.086 A 
HETATM    3  C3  UNL     1     -41.542   7.844   0.025  1.00 20.00     0.132 C 
HETATM    4  C4  UNL     1     -41.026   5.491  -0.994  1.00 20.00     0.046 A 
HETATM    5  C5  UNL     1     -42.891   7.652   0.741  1.00 20.00     0.088 C 
HETATM    6  C6  UNL     1     -42.574   6.138   0.807  1.00 20.00     0.027 A 
HETATM    7  C7  UNL     1     -41.136   6.371   0.250  1.00 20.00     0.067 A 
HETATM    8  C8  UNL     1     -42.735   4.077  -2.341  1.00 20.00     0.043 C 
HETATM    9  O9  UNL     1     -41.012   8.788  -0.520  1.00 20.00    -0.298 OA
ENDROOT
TORSDOF 0
ENDMDL
MODEL 8
REMARK VINA RESULT:      -4.3     11.355     12.334
REMARK  0 active torsions:
REMARK  status: ('A' for Active; 'I' for Inactive)
ROOT
HETATM    1  C1  UNL     1     -42.089   7.741  -1.315  1.00 20.00    -0.019 A 
HETATM    2  C2  UNL     1     -41.554   8.173  -0.166  1.00 20.00    -0.086 A 
HETATM    3  C3  UNL     1     -42.898   5.236   0.299  1.00 20.00     0.132 C 
HETATM    4  C4  UNL     1     -41.077   7.063   0.731  1.00 20.00     0.046 A 
HETATM    5  C5  UNL     1     -43.401   5.539  -1.123  1.00 20.00     0.088 C 
HETATM    6  C6  UNL     1     -42.057   6.263  -1.381  1.00 20.00     0.027 A 
HETATM    7  C7  UNL     1     -41.489   5.790  -0.007  1.00 20.00     0.067 A 
HETATM    8  C8  UNL     1     -41.408   9.593   0.255  1.00 20.00     0.043 C 
HETATM    9  O9  UNL     1     -43.417   4.757   1.285  1.00 20.00    -0.298 OA
ENDROOT
TORSDOF 0
ENDMDL
MODEL 9
REMARK VINA RESULT:      -4.1     12.137     12.839
REMARK  0 active torsions:
REMARK  status: ('A' for Active; 'I' for Inactive)
ROOT
HETATM    1  C1  UNL     1     -33.492   7.187   4.831  1.00 20.00    -0.019 A 
HETATM    2  C2  UNL     1     -32.798   7.022   3.698  1.00 20.00    -0.086 A 
HETATM    3  C3  UNL     1     -34.375   4.257   4.419  1.00 20.00     0.132 C 
HETATM    4  C4  UNL     1     -33.419   6.032   2.752  1.00 20.00     0.046 A 
HETATM    5  C5  UNL     1     -34.635   5.058   5.707  1.00 20.00     0.088 C 
HETATM    6  C6  UNL     1     -34.700   6.333   4.832  1.00 20.00     0.027 A 
HETATM    7  C7  UNL     1     -34.622   5.490   3.522  1.00 20.00     0.067 A 
HETATM    8  C8  UNL     1     -31.532   7.715   3.336  1.00 20.00     0.043 C 
HETATM    9  O9  UNL     1     -34.076   3.103   4.197  1.00 20.00    -0.298 OA
ENDROOT
TORSDOF 0
ENDMDL
