MODEL 1
REMARK VINA RESULT:      -3.7      0.000      0.000
REMARK  1 active torsions:
REMARK  status: ('A' for Active; 'I' for Inactive)
REMARK    1  A    between atoms: C4_4  and  C6_6 
ROOT
HETATM    1  C1  UNL     1     -22.822  17.052   9.158  1.00 20.00     0.279 C 
HETATM    2  C2  UNL     1     -24.112  16.717  11.187  1.00 20.00     0.284 C 
HETATM    3  C3  UNL     1     -23.187  18.521   8.981  1.00 20.00     0.104 C 
HETATM    4  C4  UNL     1     -24.650  18.149  11.277  1.00 20.00     0.075 C 
HETATM    5  N7  UNL     1     -22.790  16.642  10.561  1.00 20.00     0.085 N 
HETATM    6  S8  UNL     1     -24.852  18.872   9.612  1.00 20.00    -0.161 SA
HETATM    7  H21 UNL     1     -22.458  15.678  10.613  1.00 20.00     0.315 HD
ENDROOT
BRANCH   4   8
HETATM    8  C6  UNL     1     -25.998  18.181  11.993  1.00 20.00     0.012 C 
HETATM    9  C5  UNL     1     -26.882  19.262  11.461  1.00 20.00     0.006 C 
ENDBRANCH   4   8
TORSDOF 1
ENDMDL
MODEL 2
REMARK VINA RESULT:      -3.7     16.243     16.719
REMARK  1 active torsions:
REMARK  status: ('A' for Active; 'I' for Inactive)
REMARK    1  A    between atoms: C4_4  and  C6_6 
ROOT
HETATM    1  C1  UNL     1     -34.771   5.181   5.933  1.00 20.00     0.279 C 
HETATM    2  C2  UNL     1     -34.167   4.983   3.590  1.00 20.00     0.284 C 
HETATM    3  C3  UNL     1     -34.394   6.651   6.068  1.00 20.00     0.104 C 
HETATM    4  C4  UNL     1     -33.707   6.435   3.416  1.00 20.00     0.075 C 
HETATM    5  N7  UNL     1     -35.229   4.835   4.588  1.00 20.00     0.085 N 
HETATM    6  S8  UNL     1     -33.013   7.086   4.975  1.00 20.00    -0.161 SA
HETATM    7  H21 UNL     1     -35.543   3.864   4.588  1.00 20.00     0.315 HD
ENDROOT
BRANCH   4   8
HETATM    8  C6  UNL     1     -32.647   6.544   2.323  1.00 20.00     0.012 C 
HETATM    9  C5  UNL     1     -32.684   7.877   1.648  1.00 20.00     0.006 C 
ENDBRANCH   4   8
TORSDOF 1
ENDMDL
MODEL 3
REMARK VINA RESULT:      -3.6     17.657     18.011
REMARK  1 active torsions:
REMARK  status: ('A' for Active; 'I' for Inactive)
REMARK    1  A    between atoms: C4_4  and  C6_6 
ROOT
HETATM    1  C1  UNL     1     -34.192  15.055  -6.496  1.00 20.00     0.279 C 
HETATM    2  C2  UNL     1     -33.276  14.912  -4.252  1.00 20.00     0.284 C 
HETATM    3  C3  UNL     1     -34.545  16.536  -6.426  1.00 20.00     0.104 C 
HETATM    4  C4  UNL     1     -33.511  16.382  -3.885  1.00 20.00     0.075 C 
HETATM    5  N7  UNL     1     -33.026  14.713  -5.681  1.00 20.00     0.085 N 
HETATM    6  S8  UNL     1     -34.988  17.034  -4.738  1.00 20.00    -0.161 SA
HETATM    7  H21 UNL     1     -32.794  13.732  -5.839  1.00 20.00     0.315 HD
ENDROOT
BRANCH   4   8
HETATM    8  C6  UNL     1     -33.702  16.544  -2.379  1.00 20.00     0.012 C 
HETATM    9  C5  UNL     1     -35.065  16.111  -1.945  1.00 20.00     0.006 C 
ENDBRANCH   4   8
TORSDOF 1
ENDMDL
MODEL 4
REMARK VINA RESULT:      -3.5      1.563      2.962
REMARK  1 active torsions:
REMARK  status: ('A' for Active; 'I' for Inactive)
REMARK    1  A    between atoms: C4_4  and  C6_6 
ROOT
HETATM    1  C1  UNL     1     -22.929  17.707  12.222  1.00 20.00     0.279 C 
HETATM    2  C2  UNL     1     -22.388  18.099   9.889  1.00 20.00     0.284 C 
HETATM    3  C3  UNL     1     -24.427  17.528  12.007  1.00 20.00     0.104 C 
HETATM    4  C4  UNL     1     -23.822  17.972   9.364  1.00 20.00     0.075 C 
HETATM    5  N7  UNL     1     -22.137  17.274  11.072  1.00 20.00     0.085 N 
HETATM    6  S8  UNL     1     -25.023  18.534  10.619  1.00 20.00    -0.161 SA
HETATM    7  H21 UNL     1     -21.147  17.340  11.313  1.00 20.00     0.315 HD
ENDROOT
BRANCH   4   8
HETATM    8  C6  UNL     1     -24.014  18.800   8.095  1.00 20.00     0.012 C 
HETATM    9  C5  UNL     1     -25.458  18.941   7.740  1.00 20.00     0.006 C 
ENDBRANCH   4   8
TORSDOF 1
ENDMDL
MODEL 5
REMARK VINA RESULT:      -3.5      1.608      3.276
REMARK  1 active torsions:
REMARK  status: ('A' for Active; 'I' for Inactive)
REMARK    1  A    between atoms: C4_4  and  C6_6 
ROOT
HETATM    1  C1  UNL     1     -24.951  15.961  12.313  1.00 20.00     0.279 C 
HETATM    2  C2  UNL     1     -23.618  16.665  10.410  1.00 20.00     0.284 C 
HETATM    3  C3  UNL     1     -26.049  17.002  12.127  1.00 20.00     0.104 C 
HETATM    4  C4  UNL     1     -24.545  17.804   9.972  1.00 20.00     0.075 C 
HETATM    5  N7  UNL     1     -24.334  15.559  11.050  1.00 20.00     0.085 N 
HETATM    6  S8  UNL     1     -25.397  18.536  11.412  1.00 20.00    -0.161 SA
HETATM    7  H21 UNL     1     -23.672  14.805  11.235  1.00 20.00     0.315 HD
ENDROOT
BRANCH   4   8
HETATM    8  C6  UNL     1     -23.761  18.900   9.255  1.00 20.00     0.012 C 
HETATM    9  C5  UNL     1     -22.304  18.577   9.177  1.00 20.00     0.006 C 
ENDBRANCH   4   8
TORSDOF 1
ENDMDL
MODEL 6
REMARK VINA RESULT:      -3.3     17.770     18.139
REMARK  1 active torsions:
REMARK  status: ('A' for Active; 'I' for Inactive)
REMARK    1  A    between atoms: C4_4  and  C6_6 
ROOT
HETATM    1  C1  UNL     1     -34.618  14.943  -6.564  1.00 20.00     0.279 C 
HETATM    2  C2  UNL     1     -33.383  14.919  -4.474  1.00 20.00     0.284 C 
HETATM    3  C3  UNL     1     -35.228  16.326  -6.368  1.00 20.00     0.104 C 
HETATM    4  C4  UNL     1     -33.834  16.305  -4.001  1.00 20.00     0.075 C 
HETATM    5  N7  UNL     1     -33.306  14.810  -5.932  1.00 20.00     0.085 N 
HETATM    6  S8  UNL     1     -35.512  16.684  -4.613  1.00 20.00    -0.161 SA
HETATM    7  H21 UNL     1     -32.918  13.896  -6.171  1.00 20.00     0.315 HD
ENDROOT
BRANCH   4   8
HETATM    8  C6  UNL     1     -33.837  16.387  -2.476  1.00 20.00     0.012 C 
HETATM    9  C5  UNL     1     -32.868  17.410  -1.976  1.00 20.00     0.006 C 
ENDBRANCH   4   8
TORSDOF 1
ENDMDL
MODEL 7
REMARK VINA RESULT:      -3.3     17.582     17.925
REMARK  1 active torsions:
REMARK  status: ('A' for Active; 'I' for Inactive)
REMARK    1  A    between atoms: C4_4  and  C6_6 
ROOT
HETATM    1  C1  UNL     1     -32.976  16.677  -3.429  1.00 20.00     0.279 C 
HETATM    2  C2  UNL     1     -33.772  14.781  -4.718  1.00 20.00     0.284 C 
HETATM    3  C3  UNL     1     -33.978  16.524  -2.291  1.00 20.00     0.104 C 
HETATM    4  C4  UNL     1     -34.885  14.377  -3.745  1.00 20.00     0.075 C 
HETATM    5  N7  UNL     1     -32.626  15.401  -4.050  1.00 20.00     0.085 N 
HETATM    6  S8  UNL     1     -35.552  15.840  -2.879  1.00 20.00    -0.161 SA
HETATM    7  H21 UNL     1     -31.894  15.563  -4.742  1.00 20.00     0.315 HD
ENDROOT
BRANCH   4   8
HETATM    8  C6  UNL     1     -36.027  13.679  -4.481  1.00 20.00     0.012 C 
HETATM    9  C5  UNL     1     -37.301  14.454  -4.387  1.00 20.00     0.006 C 
ENDBRANCH   4   8
TORSDOF 1
ENDMDL
MODEL 8
REMARK VINA RESULT:      -3.3      1.444      3.638
REMARK  1 active torsions:
REMARK  status: ('A' for Active; 'I' for Inactive)
REMARK    1  A    between atoms: C4_4  and  C6_6 
ROOT
HETATM    1  C1  UNL     1     -24.687  18.136  12.259  1.00 20.00     0.279 C 
HETATM    2  C2  UNL     1     -22.460  17.720  11.386  1.00 20.00     0.284 C 
HETATM    3  C3  UNL     1     -25.397  18.070  10.912  1.00 20.00     0.104 C 
HETATM    4  C4  UNL     1     -22.880  17.600   9.917  1.00 20.00     0.075 C 
HETATM    5  N7  UNL     1     -23.502  17.280  12.316  1.00 20.00     0.085 N 
HETATM    6  S8  UNL     1     -24.328  18.656   9.568  1.00 20.00    -0.161 SA
HETATM    7  H21 UNL     1     -23.126  17.305  13.264  1.00 20.00     0.315 HD
ENDROOT
BRANCH   4   8
HETATM    8  C6  UNL     1     -21.738  18.009   8.988  1.00 20.00     0.012 C 
HETATM    9  C5  UNL     1     -21.961  17.527   7.592  1.00 20.00     0.006 C 
ENDBRANCH   4   8
TORSDOF 1
ENDMDL
MODEL 9
REMARK VINA RESULT:      -3.3     17.676     18.072
REMARK  1 active torsions:
REMARK  status: ('A' for Active; 'I' for Inactive)
REMARK    1  A    between atoms: C4_4  and  C6_6 
ROOT
HETATM    1  C1  UNL     1     -37.088  14.719  -4.542  1.00 20.00     0.279 C 
HETATM    2  C2  UNL     1     -36.014  16.382  -3.138  1.00 20.00     0.284 C 
HETATM    3  C3  UNL     1     -35.990  13.670  -4.409  1.00 20.00     0.104 C 
HETATM    4  C4  UNL     1     -34.768  15.549  -2.820  1.00 20.00     0.075 C 
HETATM    5  N7  UNL     1     -37.209  15.564  -3.355  1.00 20.00     0.085 N 
HETATM    6  S8  UNL     1     -34.359  14.438  -4.211  1.00 20.00    -0.161 SA
HETATM    7  H21 UNL     1     -38.011  16.184  -3.474  1.00 20.00     0.315 HD
ENDROOT
BRANCH   4   8
HETATM    8  C6  UNL     1     -33.566  16.448  -2.539  1.00 20.00     0.012 C 
HETATM    9  C5  UNL     1     -33.864  17.452  -1.473  1.00 20.00     0.006 C 
ENDBRANCH   4   8
TORSDOF 1
ENDMDL
