MODEL 1
REMARK VINA RESULT:      -5.7      0.000      0.000
REMARK  0 active torsions:
REMARK  status: ('A' for Active; 'I' for Inactive)
ROOT
HETATM    1  C1  UNL     1     -32.484   6.655   2.892  1.00 20.00    -0.025 A 
HETATM    2  C2  UNL     1     -32.588   7.330   4.042  1.00 20.00    -0.025 A 
HETATM    3  C3  UNL     1     -33.560   4.372   2.565  1.00 20.00     0.009 C 
HETATM    4  C4  UNL     1     -33.827   6.370   6.032  1.00 20.00     0.009 C 
HETATM    5  C5  UNL     1     -33.788   3.965   4.016  1.00 20.00     0.005 C 
HETATM    6  C6  UNL     1     -34.886   5.277   5.941  1.00 20.00     0.005 C 
HETATM    7  C7  UNL     1     -33.726   5.892   2.552  1.00 20.00     0.013 A 
HETATM    8  C8  UNL     1     -33.911   7.126   4.703  1.00 20.00     0.013 A 
HETATM    9  C9  UNL     1     -34.916   4.892   4.470  1.00 20.00    -0.009 C 
HETATM   10  C10 UNL     1     -34.669   6.208   3.724  1.00 20.00     0.005 A 
ENDROOT
TORSDOF 0
ENDMDL
MODEL 2
REMARK VINA RESULT:      -5.2      0.541      2.832
REMARK  0 active torsions:
REMARK  status: ('A' for Active; 'I' for Inactive)
ROOT
HETATM    1  C1  UNL     1     -34.186   4.203   3.572  1.00 20.00    -0.025 A 
HETATM    2  C2  UNL     1     -33.313   4.812   2.763  1.00 20.00    -0.025 A 
HETATM    3  C3  UNL     1     -34.754   5.118   5.878  1.00 20.00     0.009 C 
HETATM    4  C4  UNL     1     -32.095   6.916   3.474  1.00 20.00     0.009 C 
HETATM    5  C5  UNL     1     -33.566   6.046   6.106  1.00 20.00     0.005 C 
HETATM    6  C6  UNL     1     -32.576   7.860   4.570  1.00 20.00     0.005 C 
HETATM    7  C7  UNL     1     -35.007   5.167   4.371  1.00 20.00     0.013 A 
HETATM    8  C8  UNL     1     -33.367   6.300   2.884  1.00 20.00     0.013 A 
HETATM    9  C9  UNL     1     -33.823   7.195   5.131  1.00 20.00    -0.009 C 
HETATM   10  C10 UNL     1     -34.487   6.539   3.915  1.00 20.00     0.005 A 
ENDROOT
TORSDOF 0
ENDMDL
MODEL 3
REMARK VINA RESULT:      -5.1      0.871      3.428
REMARK  0 active torsions:
REMARK  status: ('A' for Active; 'I' for Inactive)
ROOT
HETATM    1  C1  UNL     1     -34.501   4.474   5.532  1.00 20.00    -0.025 A 
HETATM    2  C2  UNL     1     -34.137   3.911   4.375  1.00 20.00    -0.025 A 
HETATM    3  C3  UNL     1     -33.992   6.910   6.067  1.00 20.00     0.009 C 
HETATM    4  C4  UNL     1     -32.853   5.209   2.619  1.00 20.00     0.009 C 
HETATM    5  C5  UNL     1     -32.890   7.190   5.051  1.00 20.00     0.005 C 
HETATM    6  C6  UNL     1     -32.828   6.730   2.519  1.00 20.00     0.005 C 
HETATM    7  C7  UNL     1     -34.915   5.904   5.377  1.00 20.00     0.013 A 
HETATM    8  C8  UNL     1     -34.215   4.865   3.229  1.00 20.00     0.013 A 
HETATM    9  C9  UNL     1     -33.635   7.207   3.716  1.00 20.00    -0.009 C 
HETATM   10  C10 UNL     1     -34.745   6.162   3.872  1.00 20.00     0.005 A 
ENDROOT
TORSDOF 0
ENDMDL
MODEL 4
REMARK VINA RESULT:      -4.8      0.411      3.080
REMARK  0 active torsions:
REMARK  status: ('A' for Active; 'I' for Inactive)
ROOT
HETATM    1  C1  UNL     1     -34.061   6.393   6.192  1.00 20.00    -0.025 A 
HETATM    2  C2  UNL     1     -34.514   5.159   5.948  1.00 20.00    -0.025 A 
HETATM    3  C3  UNL     1     -32.687   7.688   4.485  1.00 20.00     0.009 C 
HETATM    4  C4  UNL     1     -34.001   3.966   3.774  1.00 20.00     0.009 C 
HETATM    5  C5  UNL     1     -32.230   6.550   3.579  1.00 20.00     0.005 C 
HETATM    6  C6  UNL     1     -33.602   4.668   2.480  1.00 20.00     0.005 C 
HETATM    7  C7  UNL     1     -34.072   7.267   4.977  1.00 20.00     0.013 A 
HETATM    8  C8  UNL     1     -34.893   4.965   4.517  1.00 20.00     0.013 A 
HETATM    9  C9  UNL     1     -33.512   6.139   2.853  1.00 20.00    -0.009 C 
HETATM   10  C10 UNL     1     -34.630   6.344   3.882  1.00 20.00     0.005 A 
ENDROOT
TORSDOF 0
ENDMDL
MODEL 5
REMARK VINA RESULT:      -4.7     16.195     17.261
REMARK  0 active torsions:
REMARK  status: ('A' for Active; 'I' for Inactive)
ROOT
HETATM    1  C1  UNL     1     -23.341  17.714  12.327  1.00 20.00    -0.025 A 
HETATM    2  C2  UNL     1     -22.256  17.788  11.551  1.00 20.00    -0.025 A 
HETATM    3  C3  UNL     1     -25.656  18.337  11.473  1.00 20.00     0.009 C 
HETATM    4  C4  UNL     1     -22.392  18.611   9.159  1.00 20.00     0.009 C 
HETATM    5  C5  UNL     1     -25.284  19.162  10.246  1.00 20.00     0.005 C 
HETATM    6  C6  UNL     1     -23.666  18.612   8.321  1.00 20.00     0.005 C 
HETATM    7  C7  UNL     1     -24.562  17.275  11.579  1.00 20.00     0.013 A 
HETATM    8  C8  UNL     1     -22.547  17.436  10.129  1.00 20.00     0.013 A 
HETATM    9  C9  UNL     1     -24.749  18.117   9.266  1.00 20.00    -0.009 C 
HETATM   10  C10 UNL     1     -24.046  17.077  10.144  1.00 20.00     0.005 A 
ENDROOT
TORSDOF 0
ENDMDL
MODEL 6
REMARK VINA RESULT:      -4.6     15.554     16.604
REMARK  0 active torsions:
REMARK  status: ('A' for Active; 'I' for Inactive)
ROOT
HETATM    1  C1  UNL     1     -23.899  16.523  10.406  1.00 20.00    -0.025 A 
HETATM    2  C2  UNL     1     -24.663  15.927  11.327  1.00 20.00    -0.025 A 
HETATM    3  C3  UNL     1     -24.400  18.867   9.549  1.00 20.00     0.009 C 
HETATM    4  C4  UNL     1     -26.723  17.058  12.272  1.00 20.00     0.009 C 
HETATM    5  C5  UNL     1     -25.858  19.009   9.971  1.00 20.00     0.005 C 
HETATM    6  C6  UNL     1     -26.963  18.564  12.253  1.00 20.00     0.005 C 
HETATM    7  C7  UNL     1     -23.761  17.997  10.632  1.00 20.00     0.013 A 
HETATM    8  C8  UNL     1     -25.202  16.892  12.331  1.00 20.00     0.013 A 
HETATM    9  C9  UNL     1     -25.776  19.133  11.492  1.00 20.00    -0.009 C 
HETATM   10  C10 UNL     1     -24.597  18.242  11.898  1.00 20.00     0.005 A 
ENDROOT
TORSDOF 0
ENDMDL
MODEL 7
REMARK VINA RESULT:      -4.6     11.826     12.966
REMARK  0 active torsions:
REMARK  status: ('A' for Active; 'I' for Inactive)
ROOT
HETATM    1  C1  UNL     1     -33.668  16.478  -2.540  1.00 20.00    -0.025 A 
HETATM    2  C2  UNL     1     -32.964  15.857  -3.491  1.00 20.00    -0.025 A 
HETATM    3  C3  UNL     1     -36.187  16.797  -2.718  1.00 20.00     0.009 C 
HETATM    4  C4  UNL     1     -34.066  14.979  -5.596  1.00 20.00     0.009 C 
HETATM    5  C5  UNL     1     -36.387  16.575  -4.213  1.00 20.00     0.005 C 
HETATM    6  C6  UNL     1     -35.553  14.662  -5.720  1.00 20.00     0.005 C 
HETATM    7  C7  UNL     1     -35.025  15.879  -2.337  1.00 20.00     0.013 A 
HETATM    8  C8  UNL     1     -33.724  14.738  -4.122  1.00 20.00     0.013 A 
HETATM    9  C9  UNL     1     -36.147  15.075  -4.383  1.00 20.00    -0.009 C 
HETATM   10  C10 UNL     1     -35.062  14.731  -3.358  1.00 20.00     0.005 A 
ENDROOT
TORSDOF 0
ENDMDL
MODEL 8
REMARK VINA RESULT:      -4.4     11.762     12.806
REMARK  0 active torsions:
REMARK  status: ('A' for Active; 'I' for Inactive)
ROOT
HETATM    1  C1  UNL     1     -36.919  15.529  -4.223  1.00 20.00    -0.025 A 
HETATM    2  C2  UNL     1     -36.331  16.117  -3.177  1.00 20.00    -0.025 A 
HETATM    3  C3  UNL     1     -35.576  14.513  -6.131  1.00 20.00     0.009 C 
HETATM    4  C4  UNL     1     -33.812  16.328  -3.021  1.00 20.00     0.009 C 
HETATM    5  C5  UNL     1     -34.233  15.203  -5.919  1.00 20.00     0.005 C 
HETATM    6  C6  UNL     1     -32.826  15.444  -3.777  1.00 20.00     0.005 C 
HETATM    7  C7  UNL     1     -36.156  14.343  -4.727  1.00 20.00     0.013 A 
HETATM    8  C8  UNL     1     -35.049  15.453  -2.797  1.00 20.00     0.013 A 
HETATM    9  C9  UNL     1     -33.698  14.550  -4.645  1.00 20.00    -0.009 C 
HETATM   10  C10 UNL     1     -34.940  14.279  -3.789  1.00 20.00     0.005 A 
ENDROOT
TORSDOF 0
ENDMDL
MODEL 9
REMARK VINA RESULT:      -4.4     15.523     16.795
REMARK  0 active torsions:
REMARK  status: ('A' for Active; 'I' for Inactive)
ROOT
HETATM    1  C1  UNL     1     -26.151  18.829  11.181  1.00 20.00    -0.025 A 
HETATM    2  C2  UNL     1     -25.635  19.241  10.018  1.00 20.00    -0.025 A 
HETATM    3  C3  UNL     1     -25.358  16.702  12.332  1.00 20.00     0.009 C 
HETATM    4  C4  UNL     1     -23.847  17.907   8.818  1.00 20.00     0.009 C 
HETATM    5  C5  UNL     1     -24.675  15.997  11.166  1.00 20.00     0.005 C 
HETATM    6  C6  UNL     1     -22.933  16.890   9.493  1.00 20.00     0.005 C 
HETATM    7  C7  UNL     1     -25.133  18.193  12.075  1.00 20.00     0.013 A 
HETATM    8  C8  UNL     1     -24.178  18.936   9.903  1.00 20.00     0.013 A 
HETATM    9  C9  UNL     1     -23.417  16.835  10.933  1.00 20.00    -0.009 C 
HETATM   10  C10 UNL     1     -23.838  18.273  11.252  1.00 20.00     0.005 A 
ENDROOT
TORSDOF 0
ENDMDL
