MODEL 1
REMARK VINA RESULT:      -6.7      0.000      0.000
REMARK  0 active torsions:
REMARK  status: ('A' for Active; 'I' for Inactive)
ROOT
HETATM    1  C1  UNL     1     -34.846   5.462   5.926  1.00 20.00    -0.021 C 
HETATM    2  C2  UNL     1     -34.013   6.527   6.041  1.00 20.00    -0.021 C 
HETATM    3  C3  UNL     1     -34.042   3.993   3.869  1.00 20.00    -0.021 C 
HETATM    4  C4  UNL     1     -33.371   4.518   2.814  1.00 20.00    -0.021 C 
HETATM    5  C5  UNL     1     -32.653   7.593   3.904  1.00 20.00    -0.015 C 
HETATM    6  C6  UNL     1     -32.759   7.100   2.643  1.00 20.00    -0.079 C 
HETATM    7  C7  UNL     1     -35.004   4.981   4.488  1.00 20.00     0.036 C 
HETATM    8  C8  UNL     1     -33.268   6.583   4.777  1.00 20.00     0.036 C 
HETATM    9  C9  UNL     1     -33.765   5.951   2.534  1.00 20.00     0.042 C 
HETATM   10  C10 UNL     1     -34.447   6.221   3.847  1.00 20.00     0.020 C 
HETATM   11  C11 UNL     1     -32.101   7.639   1.424  1.00 20.00     0.044 C 
ENDROOT
TORSDOF 0
ENDMDL
MODEL 2
REMARK VINA RESULT:      -5.1     15.690     16.862
REMARK  0 active torsions:
REMARK  status: ('A' for Active; 'I' for Inactive)
ROOT
HETATM    1  C1  UNL     1     -22.396  17.651  10.363  1.00 20.00    -0.021 C 
HETATM    2  C2  UNL     1     -23.098  18.487   9.558  1.00 20.00    -0.021 C 
HETATM    3  C3  UNL     1     -24.115  16.090  11.646  1.00 20.00    -0.021 C 
HETATM    4  C4  UNL     1     -25.388  16.472  11.916  1.00 20.00    -0.021 C 
HETATM    5  C5  UNL     1     -25.678  19.263  10.104  1.00 20.00    -0.015 C 
HETATM    6  C6  UNL     1     -26.357  18.843  11.202  1.00 20.00    -0.079 C 
HETATM    7  C7  UNL     1     -23.156  17.258  11.625  1.00 20.00     0.036 C 
HETATM    8  C8  UNL     1     -24.489  18.402  10.019  1.00 20.00     0.036 C 
HETATM    9  C9  UNL     1     -25.510  17.965  12.127  1.00 20.00     0.042 C 
HETATM   10  C10 UNL     1     -24.184  18.351  11.532  1.00 20.00     0.020 C 
HETATM   11  C11 UNL     1     -27.731  19.246  11.600  1.00 20.00     0.044 C 
ENDROOT
TORSDOF 0
ENDMDL
MODEL 3
REMARK VINA RESULT:      -5.0     11.684     12.646
REMARK  0 active torsions:
REMARK  status: ('A' for Active; 'I' for Inactive)
ROOT
HETATM    1  C1  UNL     1     -34.181  14.611  -4.303  1.00 20.00    -0.021 C 
HETATM    2  C2  UNL     1     -33.035  15.256  -3.968  1.00 20.00    -0.021 C 
HETATM    3  C3  UNL     1     -36.221  16.238  -3.828  1.00 20.00    -0.021 C 
HETATM    4  C4  UNL     1     -36.176  17.212  -2.886  1.00 20.00    -0.021 C 
HETATM    5  C5  UNL     1     -32.939  17.230  -2.058  1.00 20.00    -0.015 C 
HETATM    6  C6  UNL     1     -34.034  17.642  -1.369  1.00 20.00    -0.079 C 
HETATM    7  C7  UNL     1     -35.376  15.041  -3.459  1.00 20.00     0.036 C 
HETATM    8  C8  UNL     1     -33.453  16.413  -3.166  1.00 20.00     0.036 C 
HETATM    9  C9  UNL     1     -35.293  16.842  -1.715  1.00 20.00     0.042 C 
HETATM   10  C10 UNL     1     -34.570  15.700  -2.374  1.00 20.00     0.020 C 
HETATM   11  C11 UNL     1     -34.067  18.665  -0.291  1.00 20.00     0.044 C 
ENDROOT
TORSDOF 0
ENDMDL
MODEL 4
REMARK VINA RESULT:      -4.8     11.573     13.157
REMARK  0 active torsions:
REMARK  status: ('A' for Active; 'I' for Inactive)
ROOT
HETATM    1  C1  UNL     1     -33.076  19.039  -0.652  1.00 20.00    -0.021 C 
HETATM    2  C2  UNL     1     -34.111  18.246  -0.277  1.00 20.00    -0.021 C 
HETATM    3  C3  UNL     1     -32.889  18.969  -3.297  1.00 20.00    -0.021 C 
HETATM    4  C4  UNL     1     -33.305  17.907  -4.032  1.00 20.00    -0.021 C 
HETATM    5  C5  UNL     1     -34.955  16.094  -1.763  1.00 20.00    -0.015 C 
HETATM    6  C6  UNL     1     -34.370  15.733  -2.934  1.00 20.00    -0.079 C 
HETATM    7  C7  UNL     1     -32.392  18.562  -1.929  1.00 20.00     0.036 C 
HETATM    8  C8  UNL     1     -34.433  17.433  -1.456  1.00 20.00     0.036 C 
HETATM    9  C9  UNL     1     -33.159  16.598  -3.288  1.00 20.00     0.042 C 
HETATM   10  C10 UNL     1     -32.979  17.179  -1.912  1.00 20.00     0.020 C 
HETATM   11  C11 UNL     1     -34.728  14.561  -3.776  1.00 20.00     0.044 C 
ENDROOT
TORSDOF 0
ENDMDL
MODEL 5
REMARK VINA RESULT:      -4.8     11.809     12.488
REMARK  0 active torsions:
REMARK  status: ('A' for Active; 'I' for Inactive)
ROOT
HETATM    1  C1  UNL     1     -35.964  14.381  -5.081  1.00 20.00    -0.021 C 
HETATM    2  C2  UNL     1     -36.510  14.684  -3.877  1.00 20.00    -0.021 C 
HETATM    3  C3  UNL     1     -33.323  14.449  -4.839  1.00 20.00    -0.021 C 
HETATM    4  C4  UNL     1     -32.693  15.222  -3.920  1.00 20.00    -0.021 C 
HETATM    5  C5  UNL     1     -35.235  16.252  -2.014  1.00 20.00    -0.015 C 
HETATM    6  C6  UNL     1     -34.006  16.790  -2.221  1.00 20.00    -0.079 C 
HETATM    7  C7  UNL     1     -34.620  15.063  -5.315  1.00 20.00     0.036 C 
HETATM    8  C8  UNL     1     -35.418  15.258  -3.081  1.00 20.00     0.036 C 
HETATM    9  C9  UNL     1     -33.453  16.495  -3.617  1.00 20.00     0.042 C 
HETATM   10  C10 UNL     1     -34.768  16.079  -4.217  1.00 20.00     0.020 C 
HETATM   11  C11 UNL     1     -33.264  17.685  -1.294  1.00 20.00     0.044 C 
ENDROOT
TORSDOF 0
ENDMDL
MODEL 6
REMARK VINA RESULT:      -4.8     11.524     12.494
REMARK  0 active torsions:
REMARK  status: ('A' for Active; 'I' for Inactive)
ROOT
HETATM    1  C1  UNL     1     -32.720  15.158  -3.954  1.00 20.00    -0.021 C 
HETATM    2  C2  UNL     1     -33.338  14.043  -4.418  1.00 20.00    -0.021 C 
HETATM    3  C3  UNL     1     -34.327  16.334  -2.202  1.00 20.00    -0.021 C 
HETATM    4  C4  UNL     1     -35.676  16.210  -2.249  1.00 20.00    -0.021 C 
HETATM    5  C5  UNL     1     -36.073  13.788  -4.516  1.00 20.00    -0.015 C 
HETATM    6  C6  UNL     1     -36.920  14.767  -4.105  1.00 20.00    -0.079 C 
HETATM    7  C7  UNL     1     -33.695  16.267  -3.573  1.00 20.00     0.036 C 
HETATM    8  C8  UNL     1     -34.746  14.179  -4.022  1.00 20.00     0.036 C 
HETATM    9  C9  UNL     1     -36.191  16.038  -3.662  1.00 20.00     0.042 C 
HETATM   10  C10 UNL     1     -34.876  15.692  -4.304  1.00 20.00     0.020 C 
HETATM   11  C11 UNL     1     -38.405  14.735  -4.165  1.00 20.00     0.044 C 
ENDROOT
TORSDOF 0
ENDMDL
MODEL 7
REMARK VINA RESULT:      -4.8     16.099     17.329
REMARK  0 active torsions:
REMARK  status: ('A' for Active; 'I' for Inactive)
ROOT
HETATM    1  C1  UNL     1     -21.324  17.836   9.605  1.00 20.00    -0.021 C 
HETATM    2  C2  UNL     1     -21.403  17.764  10.958  1.00 20.00    -0.021 C 
HETATM    3  C3  UNL     1     -23.473  19.110   8.712  1.00 20.00    -0.021 C 
HETATM    4  C4  UNL     1     -24.653  19.110   9.380  1.00 20.00    -0.021 C 
HETATM    5  C5  UNL     1     -23.794  17.762  12.313  1.00 20.00    -0.015 C 
HETATM    6  C6  UNL     1     -24.997  17.832  11.686  1.00 20.00    -0.079 C 
HETATM    7  C7  UNL     1     -22.690  17.835   8.927  1.00 20.00     0.036 C 
HETATM    8  C8  UNL     1     -22.794  18.098  11.290  1.00 20.00     0.036 C 
HETATM    9  C9  UNL     1     -24.875  17.833  10.160  1.00 20.00     0.042 C 
HETATM   10  C10 UNL     1     -23.456  17.336  10.121  1.00 20.00     0.020 C 
HETATM   11  C11 UNL     1     -26.335  17.789  12.332  1.00 20.00     0.044 C 
ENDROOT
TORSDOF 0
ENDMDL
MODEL 8
REMARK VINA RESULT:      -4.8     11.555     12.717
REMARK  0 active torsions:
REMARK  status: ('A' for Active; 'I' for Inactive)
ROOT
HETATM    1  C1  UNL     1     -34.670  18.290  -1.687  1.00 20.00    -0.021 C 
HETATM    2  C2  UNL     1     -35.854  18.255  -2.348  1.00 20.00    -0.021 C 
HETATM    3  C3  UNL     1     -32.968  16.688  -2.941  1.00 20.00    -0.021 C 
HETATM    4  C4  UNL     1     -33.372  15.617  -3.668  1.00 20.00    -0.021 C 
HETATM    5  C5  UNL     1     -36.676  16.084  -3.820  1.00 20.00    -0.015 C 
HETATM    6  C6  UNL     1     -35.932  14.955  -3.946  1.00 20.00    -0.079 C 
HETATM    7  C7  UNL     1     -33.894  16.981  -1.783  1.00 20.00     0.036 C 
HETATM    8  C8  UNL     1     -35.776  17.089  -3.237  1.00 20.00     0.036 C 
HETATM    9  C9  UNL     1     -34.641  14.997  -3.125  1.00 20.00     0.042 C 
HETATM   10  C10 UNL     1     -35.055  16.146  -2.248  1.00 20.00     0.020 C 
HETATM   11  C11 UNL     1     -36.316  13.721  -4.679  1.00 20.00     0.044 C 
ENDROOT
TORSDOF 0
ENDMDL
MODEL 9
REMARK VINA RESULT:      -4.7     11.619     12.946
REMARK  0 active torsions:
REMARK  status: ('A' for Active; 'I' for Inactive)
ROOT
HETATM    1  C1  UNL     1     -34.617  18.276  -0.372  1.00 20.00    -0.021 C 
HETATM    2  C2  UNL     1     -35.341  17.146  -0.567  1.00 20.00    -0.021 C 
HETATM    3  C3  UNL     1     -33.677  19.079  -2.719  1.00 20.00    -0.021 C 
HETATM    4  C4  UNL     1     -33.439  18.223  -3.743  1.00 20.00    -0.021 C 
HETATM    5  C5  UNL     1     -34.861  15.408  -2.642  1.00 20.00    -0.015 C 
HETATM    6  C6  UNL     1     -33.878  15.607  -3.557  1.00 20.00    -0.079 C 
HETATM    7  C7  UNL     1     -33.474  18.432  -1.369  1.00 20.00     0.036 C 
HETATM    8  C8  UNL     1     -34.987  16.678  -1.913  1.00 20.00     0.036 C 
HETATM    9  C9  UNL     1     -33.031  16.848  -3.263  1.00 20.00     0.042 C 
HETATM   10  C10 UNL     1     -33.480  17.003  -1.836  1.00 20.00     0.020 C 
HETATM   11  C11 UNL     1     -33.517  14.701  -4.679  1.00 20.00     0.044 C 
ENDROOT
TORSDOF 0
ENDMDL
