MODEL 1
REMARK VINA RESULT:      -5.0      0.000      0.000
REMARK  1 active torsions:
REMARK  status: ('A' for Active; 'I' for Inactive)
REMARK    1  A    between atoms: C7_7  and  C8_8 
ROOT
HETATM    1  C1  UNL     1     -34.677   5.253   6.093  1.00 20.00    -0.026 C 
HETATM    2  C2  UNL     1     -34.046   6.404   5.818  1.00 20.00    -0.025 C 
HETATM    3  C3  UNL     1     -35.550   6.044   4.104  1.00 20.00     0.017 C 
HETATM    4  C4  UNL     1     -34.017   4.239   3.932  1.00 20.00     0.014 C 
HETATM    5  C5  UNL     1     -35.213   4.716   4.787  1.00 20.00     0.009 C 
HETATM    6  C6  UNL     1     -34.148   6.626   4.325  1.00 20.00     0.013 C 
HETATM    7  C7  UNL     1     -33.243   5.564   3.646  1.00 20.00     0.007 C 
ENDROOT
BRANCH   7   8
HETATM    8  C8  UNL     1     -33.050   5.813   2.154  1.00 20.00     0.119 C 
HETATM    9 CL9  UNL     1     -32.461   7.462   1.879  1.00 20.00    -0.130 Cl
ENDBRANCH   7   8
TORSDOF 1
ENDMDL
MODEL 2
REMARK VINA RESULT:      -4.3     16.232     17.099
REMARK  1 active torsions:
REMARK  status: ('A' for Active; 'I' for Inactive)
REMARK    1  A    between atoms: C7_7  and  C8_8 
ROOT
HETATM    1  C1  UNL     1     -25.406  16.735  12.290  1.00 20.00    -0.026 C 
HETATM    2  C2  UNL     1     -24.419  15.994  11.764  1.00 20.00    -0.025 C 
HETATM    3  C3  UNL     1     -23.491  18.029  12.332  1.00 20.00     0.017 C 
HETATM    4  C4  UNL     1     -25.076  18.556  10.644  1.00 20.00     0.014 C 
HETATM    5  C5  UNL     1     -25.002  18.183  12.141  1.00 20.00     0.009 C 
HETATM    6  C6  UNL     1     -23.365  16.950  11.250  1.00 20.00     0.013 C 
HETATM    7  C7  UNL     1     -23.965  17.661  10.008  1.00 20.00     0.007 C 
ENDROOT
BRANCH   7   8
HETATM    8  C8  UNL     1     -22.935  18.477   9.235  1.00 20.00     0.119 C 
HETATM    9 CL9  UNL     1     -21.468  17.518   8.967  1.00 20.00    -0.130 Cl
ENDBRANCH   7   8
TORSDOF 1
ENDMDL
MODEL 3
REMARK VINA RESULT:      -4.1      8.669      9.849
REMARK  1 active torsions:
REMARK  status: ('A' for Active; 'I' for Inactive)
REMARK    1  A    between atoms: C7_7  and  C8_8 
ROOT
HETATM    1  C1  UNL     1     -41.541   8.663   0.075  1.00 20.00    -0.026 C 
HETATM    2  C2  UNL     1     -42.810   8.679  -0.361  1.00 20.00    -0.025 C 
HETATM    3  C3  UNL     1     -42.625   6.887   1.082  1.00 20.00     0.017 C 
HETATM    4  C4  UNL     1     -41.173   6.346  -0.718  1.00 20.00     0.014 C 
HETATM    5  C5  UNL     1     -41.244   7.254   0.530  1.00 20.00     0.009 C 
HETATM    6  C6  UNL     1     -43.353   7.275  -0.211  1.00 20.00     0.013 C 
HETATM    7  C7  UNL     1     -42.634   6.396  -1.268  1.00 20.00     0.007 C 
ENDROOT
BRANCH   7   8
HETATM    8  C8  UNL     1     -43.249   5.007  -1.404  1.00 20.00     0.119 C 
HETATM    9 CL9  UNL     1     -42.151   3.935  -2.293  1.00 20.00    -0.130 Cl
ENDBRANCH   7   8
TORSDOF 1
ENDMDL
MODEL 4
REMARK VINA RESULT:      -4.1     11.809     12.775
REMARK  1 active torsions:
REMARK  status: ('A' for Active; 'I' for Inactive)
REMARK    1  A    between atoms: C7_7  and  C8_8 
ROOT
HETATM    1  C1  UNL     1     -33.620  14.569  -4.241  1.00 20.00    -0.026 C 
HETATM    2  C2  UNL     1     -34.836  14.216  -3.799  1.00 20.00    -0.025 C 
HETATM    3  C3  UNL     1     -34.983  16.423  -4.457  1.00 20.00     0.017 C 
HETATM    4  C4  UNL     1     -33.455  16.451  -2.639  1.00 20.00     0.014 C 
HETATM    5  C5  UNL     1     -33.528  16.073  -4.136  1.00 20.00     0.009 C 
HETATM    6  C6  UNL     1     -35.549  15.484  -3.384  1.00 20.00     0.013 C 
HETATM    7  C7  UNL     1     -34.848  15.998  -2.098  1.00 20.00     0.007 C 
ENDROOT
BRANCH   7   8
HETATM    8  C8  UNL     1     -35.605  17.136  -1.422  1.00 20.00     0.119 C 
HETATM    9 CL9  UNL     1     -35.418  17.036   0.338  1.00 20.00    -0.130 Cl
ENDBRANCH   7   8
TORSDOF 1
ENDMDL
MODEL 5
REMARK VINA RESULT:      -4.0      8.524      9.622
REMARK  1 active torsions:
REMARK  status: ('A' for Active; 'I' for Inactive)
REMARK    1  A    between atoms: C7_7  and  C8_8 
ROOT
HETATM    1  C1  UNL     1     -41.858   4.818  -1.526  1.00 20.00    -0.026 C 
HETATM    2  C2  UNL     1     -40.815   5.422  -0.935  1.00 20.00    -0.025 C 
HETATM    3  C3  UNL     1     -42.561   5.479   0.575  1.00 20.00     0.017 C 
HETATM    4  C4  UNL     1     -43.315   6.801  -1.248  1.00 20.00     0.014 C 
HETATM    5  C5  UNL     1     -43.108   5.323  -0.847  1.00 20.00     0.009 C 
HETATM    6  C6  UNL     1     -41.374   6.342   0.128  1.00 20.00     0.013 C 
HETATM    7  C7  UNL     1     -42.080   7.511  -0.609  1.00 20.00     0.007 C 
ENDROOT
BRANCH   7   8
HETATM    8  C8  UNL     1     -42.483   8.647   0.325  1.00 20.00     0.119 C 
HETATM    9 CL9  UNL     1     -41.204   9.874   0.385  1.00 20.00    -0.130 Cl
ENDBRANCH   7   8
TORSDOF 1
ENDMDL
MODEL 6
REMARK VINA RESULT:      -4.0     11.931     13.012
REMARK  1 active torsions:
REMARK  status: ('A' for Active; 'I' for Inactive)
REMARK    1  A    between atoms: C7_7  and  C8_8 
ROOT
HETATM    1  C1  UNL     1     -33.410  16.145  -2.953  1.00 20.00    -0.026 C 
HETATM    2  C2  UNL     1     -34.581  16.054  -2.306  1.00 20.00    -0.025 C 
HETATM    3  C3  UNL     1     -34.505  14.293  -3.796  1.00 20.00     0.017 C 
HETATM    4  C4  UNL     1     -34.506  16.229  -5.172  1.00 20.00     0.014 C 
HETATM    5  C5  UNL     1     -33.565  15.409  -4.262  1.00 20.00     0.009 C 
HETATM    6  C6  UNL     1     -35.523  15.269  -3.193  1.00 20.00     0.013 C 
HETATM    7  C7  UNL     1     -35.865  16.175  -4.405  1.00 20.00     0.007 C 
ENDROOT
BRANCH   7   8
HETATM    8  C8  UNL     1     -36.994  15.617  -5.265  1.00 20.00     0.119 C 
HETATM    9 CL9  UNL     1     -38.081  14.621  -4.279  1.00 20.00    -0.130 Cl
ENDBRANCH   7   8
TORSDOF 1
ENDMDL
MODEL 7
REMARK VINA RESULT:      -4.0     12.042     13.093
REMARK  1 active torsions:
REMARK  status: ('A' for Active; 'I' for Inactive)
REMARK    1  A    between atoms: C7_7  and  C8_8 
ROOT
HETATM    1  C1  UNL     1     -33.697  16.197  -2.626  1.00 20.00    -0.026 C 
HETATM    2  C2  UNL     1     -34.965  15.977  -2.248  1.00 20.00    -0.025 C 
HETATM    3  C3  UNL     1     -34.424  14.319  -3.761  1.00 20.00     0.017 C 
HETATM    4  C4  UNL     1     -34.309  16.328  -5.022  1.00 20.00     0.014 C 
HETATM    5  C5  UNL     1     -33.509  15.530  -3.968  1.00 20.00     0.009 C 
HETATM    6  C6  UNL     1     -35.627  15.176  -3.348  1.00 20.00     0.013 C 
HETATM    7  C7  UNL     1     -35.788  16.123  -4.566  1.00 20.00     0.007 C 
ENDROOT
BRANCH   7   8
HETATM    8  C8  UNL     1     -36.658  15.531  -5.669  1.00 20.00     0.119 C 
HETATM    9 CL9  UNL     1     -35.648  14.984  -7.019  1.00 20.00    -0.130 Cl
ENDBRANCH   7   8
TORSDOF 1
ENDMDL
MODEL 8
REMARK VINA RESULT:      -3.9      9.064      9.846
REMARK  1 active torsions:
REMARK  status: ('A' for Active; 'I' for Inactive)
REMARK    1  A    between atoms: C7_7  and  C8_8 
ROOT
HETATM    1  C1  UNL     1     -41.954   9.300   0.193  1.00 20.00    -0.026 C 
HETATM    2  C2  UNL     1     -41.003   8.580  -0.420  1.00 20.00    -0.025 C 
HETATM    3  C3  UNL     1     -43.012   7.998  -1.398  1.00 20.00     0.017 C 
HETATM    4  C4  UNL     1     -43.223   7.279   0.856  1.00 20.00     0.014 C 
HETATM    5  C5  UNL     1     -43.261   8.567   0.002  1.00 20.00     0.009 C 
HETATM    6  C6  UNL     1     -41.675   7.357  -1.006  1.00 20.00     0.013 C 
HETATM    7  C7  UNL     1     -42.083   6.450   0.184  1.00 20.00     0.007 C 
ENDROOT
BRANCH   7   8
HETATM    8  C8  UNL     1     -42.554   5.068  -0.255  1.00 20.00     0.119 C 
HETATM    9 CL9  UNL     1     -41.729   4.585  -1.749  1.00 20.00    -0.130 Cl
ENDBRANCH   7   8
TORSDOF 1
ENDMDL
MODEL 9
REMARK VINA RESULT:      -3.9     12.138     13.133
REMARK  1 active torsions:
REMARK  status: ('A' for Active; 'I' for Inactive)
REMARK    1  A    between atoms: C7_7  and  C8_8 
ROOT
HETATM    1  C1  UNL     1     -33.929  17.273  -2.108  1.00 20.00    -0.026 C 
HETATM    2  C2  UNL     1     -34.780  16.268  -1.849  1.00 20.00    -0.025 C 
HETATM    3  C3  UNL     1     -33.331  15.510  -3.478  1.00 20.00     0.017 C 
HETATM    4  C4  UNL     1     -34.503  17.295  -4.517  1.00 20.00     0.014 C 
HETATM    5  C5  UNL     1     -33.374  17.041  -3.493  1.00 20.00     0.009 C 
HETATM    6  C6  UNL     1     -34.803  15.375  -3.070  1.00 20.00     0.013 C 
HETATM    7  C7  UNL     1     -35.528  16.162  -4.194  1.00 20.00     0.007 C 
ENDROOT
BRANCH   7   8
HETATM    8  C8  UNL     1     -35.844  15.302  -5.413  1.00 20.00     0.119 C 
HETATM    9 CL9  UNL     1     -36.331  13.674  -4.905  1.00 20.00    -0.130 Cl
ENDBRANCH   7   8
TORSDOF 1
ENDMDL
