MODEL 1
REMARK VINA RESULT:      -5.0      0.000      0.000
REMARK  3 active torsions:
REMARK  status: ('A' for Active; 'I' for Inactive)
REMARK    1  A    between atoms: C2_2  and  C8_8 
REMARK    2  A    between atoms: C6_6  and  C7_7 
REMARK    3  A    between atoms: C7_7  and  C8_8 
ROOT
HETATM    1  C5  UNL     1     -33.044   5.108   2.660  1.00 20.00     0.014 C 
HETATM    2  C8  UNL     1     -33.343   6.564   3.023  1.00 20.00     0.004 C 
ENDROOT
BRANCH   2   3
HETATM    3  C2  UNL     1     -33.416   6.700   4.525  1.00 20.00    -0.027 C 
HETATM    4  C1  UNL     1     -34.318   6.066   5.288  1.00 20.00    -0.035 C 
HETATM    5  C3  UNL     1     -35.362   5.145   4.749  1.00 20.00     0.036 C 
ENDBRANCH   2   3
BRANCH   2   6
HETATM    6  C7  UNL     1     -32.272   7.492   2.416  1.00 20.00     0.008 C 
BRANCH   6   7
HETATM    7  C6  UNL     1     -32.507   7.792   0.932  1.00 20.00    -0.004 C 
HETATM    8  C4  UNL     1     -32.991   9.219   0.726  1.00 20.00     0.005 C 
ENDBRANCH   6   7
ENDBRANCH   2   6
TORSDOF 3
ENDMDL
MODEL 2
REMARK VINA RESULT:      -4.9      0.904      1.748
REMARK  3 active torsions:
REMARK  status: ('A' for Active; 'I' for Inactive)
REMARK    1  A    between atoms: C2_2  and  C8_8 
REMARK    2  A    between atoms: C6_6  and  C7_7 
REMARK    3  A    between atoms: C7_7  and  C8_8 
ROOT
HETATM    1  C5  UNL     1     -33.237   4.471   2.573  1.00 20.00     0.014 C 
HETATM    2  C8  UNL     1     -34.172   5.445   3.294  1.00 20.00     0.004 C 
ENDROOT
BRANCH   2   3
HETATM    3  C2  UNL     1     -34.766   4.765   4.503  1.00 20.00    -0.027 C 
HETATM    4  C1  UNL     1     -34.762   5.295   5.735  1.00 20.00    -0.035 C 
HETATM    5  C3  UNL     1     -34.168   6.624   6.064  1.00 20.00     0.036 C 
ENDBRANCH   2   3
BRANCH   2   6
HETATM    6  C7  UNL     1     -33.407   6.727   3.677  1.00 20.00     0.008 C 
BRANCH   6   7
HETATM    7  C6  UNL     1     -32.219   7.017   2.755  1.00 20.00    -0.004 C 
HETATM    8  C4  UNL     1     -32.630   7.894   1.582  1.00 20.00     0.005 C 
ENDBRANCH   6   7
ENDBRANCH   2   6
TORSDOF 3
ENDMDL
MODEL 3
REMARK VINA RESULT:      -4.8      1.335      3.972
REMARK  3 active torsions:
REMARK  status: ('A' for Active; 'I' for Inactive)
REMARK    1  A    between atoms: C2_2  and  C8_8 
REMARK    2  A    between atoms: C6_6  and  C7_7 
REMARK    3  A    between atoms: C7_7  and  C8_8 
ROOT
HETATM    1  C5  UNL     1     -33.350   3.962   2.577  1.00 20.00     0.014 C 
HETATM    2  C8  UNL     1     -33.550   5.305   3.283  1.00 20.00     0.004 C 
ENDROOT
BRANCH   2   3
HETATM    3  C2  UNL     1     -33.417   6.423   2.277  1.00 20.00    -0.027 C 
HETATM    4  C1  UNL     1     -32.550   7.438   2.401  1.00 20.00    -0.035 C 
HETATM    5  C3  UNL     1     -31.608   7.591   3.549  1.00 20.00     0.036 C 
ENDBRANCH   2   3
BRANCH   2   6
HETATM    6  C7  UNL     1     -34.919   5.332   3.990  1.00 20.00     0.008 C 
BRANCH   6   7
HETATM    7  C6  UNL     1     -34.807   5.314   5.517  1.00 20.00    -0.004 C 
HETATM    8  C4  UNL     1     -34.116   6.566   6.036  1.00 20.00     0.005 C 
ENDBRANCH   6   7
ENDBRANCH   2   6
TORSDOF 3
ENDMDL
MODEL 4
REMARK VINA RESULT:      -4.6      0.812      4.353
REMARK  3 active torsions:
REMARK  status: ('A' for Active; 'I' for Inactive)
REMARK    1  A    between atoms: C2_2  and  C8_8 
REMARK    2  A    between atoms: C6_6  and  C7_7 
REMARK    3  A    between atoms: C7_7  and  C8_8 
ROOT
HETATM    1  C5  UNL     1     -32.887   7.406   4.602  1.00 20.00     0.014 C 
HETATM    2  C8  UNL     1     -33.399   6.833   3.278  1.00 20.00     0.004 C 
ENDROOT
BRANCH   2   3
HETATM    3  C2  UNL     1     -32.285   6.855   2.260  1.00 20.00    -0.027 C 
HETATM    4  C1  UNL     1     -32.189   7.764   1.279  1.00 20.00    -0.035 C 
HETATM    5  C3  UNL     1     -33.172   8.868   1.070  1.00 20.00     0.036 C 
ENDBRANCH   2   3
BRANCH   2   6
HETATM    6  C7  UNL     1     -33.948   5.409   3.495  1.00 20.00     0.008 C 
BRANCH   6   7
HETATM    7  C6  UNL     1     -35.187   5.373   4.394  1.00 20.00    -0.004 C 
HETATM    8  C4  UNL     1     -34.819   5.035   5.831  1.00 20.00     0.005 C 
ENDBRANCH   6   7
ENDBRANCH   2   6
TORSDOF 3
ENDMDL
MODEL 5
REMARK VINA RESULT:      -4.5      1.039      1.420
REMARK  3 active torsions:
REMARK  status: ('A' for Active; 'I' for Inactive)
REMARK    1  A    between atoms: C2_2  and  C8_8 
REMARK    2  A    between atoms: C6_6  and  C7_7 
REMARK    3  A    between atoms: C7_7  and  C8_8 
ROOT
HETATM    1  C5  UNL     1     -31.718   7.636   3.733  1.00 20.00     0.014 C 
HETATM    2  C8  UNL     1     -32.751   6.628   3.224  1.00 20.00     0.004 C 
ENDROOT
BRANCH   2   3
HETATM    3  C2  UNL     1     -33.980   6.687   4.100  1.00 20.00    -0.027 C 
HETATM    4  C1  UNL     1     -34.682   5.607   4.472  1.00 20.00    -0.035 C 
HETATM    5  C3  UNL     1     -34.338   4.212   4.068  1.00 20.00     0.036 C 
ENDBRANCH   2   3
BRANCH   2   6
HETATM    6  C7  UNL     1     -33.088   6.915   1.747  1.00 20.00     0.008 C 
BRANCH   6   7
HETATM    7  C6  UNL     1     -32.498   8.235   1.242  1.00 20.00    -0.004 C 
HETATM    8  C4  UNL     1     -33.231   8.732   0.005  1.00 20.00     0.005 C 
ENDBRANCH   6   7
ENDBRANCH   2   6
TORSDOF 3
ENDMDL
MODEL 6
REMARK VINA RESULT:      -4.2      1.734      2.988
REMARK  3 active torsions:
REMARK  status: ('A' for Active; 'I' for Inactive)
REMARK    1  A    between atoms: C2_2  and  C8_8 
REMARK    2  A    between atoms: C6_6  and  C7_7 
REMARK    3  A    between atoms: C7_7  and  C8_8 
ROOT
HETATM    1  C5  UNL     1     -36.278   5.496   3.734  1.00 20.00     0.014 C 
HETATM    2  C8  UNL     1     -34.817   5.442   4.185  1.00 20.00     0.004 C 
ENDROOT
BRANCH   2   3
HETATM    3  C2  UNL     1     -34.763   5.272   5.684  1.00 20.00    -0.027 C 
HETATM    4  C1  UNL     1     -34.182   6.151   6.514  1.00 20.00    -0.035 C 
HETATM    5  C3  UNL     1     -33.517   7.408   6.059  1.00 20.00     0.036 C 
ENDBRANCH   2   3
BRANCH   2   6
HETATM    6  C7  UNL     1     -34.080   4.303   3.454  1.00 20.00     0.008 C 
BRANCH   6   7
HETATM    7  C6  UNL     1     -33.085   4.807   2.404  1.00 20.00    -0.004 C 
HETATM    8  C4  UNL     1     -32.807   6.293   2.573  1.00 20.00     0.005 C 
ENDBRANCH   6   7
ENDBRANCH   2   6
TORSDOF 3
ENDMDL
MODEL 7
REMARK VINA RESULT:      -4.2     15.624     16.366
REMARK  3 active torsions:
REMARK  status: ('A' for Active; 'I' for Inactive)
REMARK    1  A    between atoms: C2_2  and  C8_8 
REMARK    2  A    between atoms: C6_6  and  C7_7 
REMARK    3  A    between atoms: C7_7  and  C8_8 
ROOT
HETATM    1  C5  UNL     1     -24.587  15.863  11.322  1.00 20.00     0.014 C 
HETATM    2  C8  UNL     1     -24.459  17.341  10.945  1.00 20.00     0.004 C 
ENDROOT
BRANCH   2   3
HETATM    3  C2  UNL     1     -24.747  18.193  12.158  1.00 20.00    -0.027 C 
HETATM    4  C1  UNL     1     -25.778  19.045  12.242  1.00 20.00    -0.035 C 
HETATM    5  C3  UNL     1     -26.771  19.259  11.148  1.00 20.00     0.036 C 
ENDBRANCH   2   3
BRANCH   2   6
HETATM    6  C7  UNL     1     -23.056  17.620  10.370  1.00 20.00     0.008 C 
BRANCH   6   7
HETATM    7  C6  UNL     1     -23.052  18.723   9.307  1.00 20.00    -0.004 C 
HETATM    8  C4  UNL     1     -24.284  18.641   8.418  1.00 20.00     0.005 C 
ENDBRANCH   6   7
ENDBRANCH   2   6
TORSDOF 3
ENDMDL
MODEL 8
REMARK VINA RESULT:      -4.1     10.460     11.277
REMARK  3 active torsions:
REMARK  status: ('A' for Active; 'I' for Inactive)
REMARK    1  A    between atoms: C2_2  and  C8_8 
REMARK    2  A    between atoms: C6_6  and  C7_7 
REMARK    3  A    between atoms: C7_7  and  C8_8 
ROOT
HETATM    1  C5  UNL     1     -32.598  14.584  -4.313  1.00 20.00     0.014 C 
HETATM    2  C8  UNL     1     -33.934  15.252  -3.980  1.00 20.00     0.004 C 
ENDROOT
BRANCH   2   3
HETATM    3  C2  UNL     1     -34.989  14.190  -3.785  1.00 20.00    -0.027 C 
HETATM    4  C1  UNL     1     -35.892  13.855  -4.719  1.00 20.00    -0.035 C 
HETATM    5  C3  UNL     1     -35.967  14.490  -6.067  1.00 20.00     0.036 C 
ENDBRANCH   2   3
BRANCH   2   6
HETATM    6  C7  UNL     1     -33.783  16.144  -2.733  1.00 20.00     0.008 C 
BRANCH   6   7
HETATM    7  C6  UNL     1     -35.058  16.217  -1.888  1.00 20.00    -0.004 C 
HETATM    8  C4  UNL     1     -34.897  17.183  -0.724  1.00 20.00     0.005 C 
ENDBRANCH   6   7
ENDBRANCH   2   6
TORSDOF 3
ENDMDL
MODEL 9
REMARK VINA RESULT:      -4.0      1.098      2.387
REMARK  3 active torsions:
REMARK  status: ('A' for Active; 'I' for Inactive)
REMARK    1  A    between atoms: C2_2  and  C8_8 
REMARK    2  A    between atoms: C6_6  and  C7_7 
REMARK    3  A    between atoms: C7_7  and  C8_8 
ROOT
HETATM    1  C5  UNL     1     -33.652   7.330   6.295  1.00 20.00     0.014 C 
HETATM    2  C8  UNL     1     -33.666   6.505   5.006  1.00 20.00     0.004 C 
ENDROOT
BRANCH   2   3
HETATM    3  C2  UNL     1     -34.933   5.685   4.952  1.00 20.00    -0.027 C 
HETATM    4  C1  UNL     1     -35.032   4.507   4.318  1.00 20.00    -0.035 C 
HETATM    5  C3  UNL     1     -33.903   3.859   3.588  1.00 20.00     0.036 C 
ENDBRANCH   2   3
BRANCH   2   6
HETATM    6  C7  UNL     1     -33.532   7.433   3.783  1.00 20.00     0.008 C 
BRANCH   6   7
HETATM    7  C6  UNL     1     -32.463   6.967   2.789  1.00 20.00    -0.004 C 
HETATM    8  C4  UNL     1     -32.521   7.768   1.498  1.00 20.00     0.005 C 
ENDBRANCH   6   7
ENDBRANCH   2   6
TORSDOF 3
ENDMDL
