MODEL 1
REMARK VINA RESULT:      -5.6      0.000      0.000
REMARK  0 active torsions:
REMARK  status: ('A' for Active; 'I' for Inactive)
ROOT
HETATM    1  C1  UNL     1     -34.329   5.679   6.034  1.00 20.00    -0.021 C 
HETATM    2  C2  UNL     1     -34.215   3.827   4.353  1.00 20.00    -0.021 C 
HETATM    3  C3  UNL     1     -33.755   6.839   5.687  1.00 20.00    -0.023 C 
HETATM    4  C4  UNL     1     -33.587   4.099   3.201  1.00 20.00    -0.023 C 
HETATM    5  C5  UNL     1     -35.011   4.982   4.890  1.00 20.00     0.035 C 
HETATM    6  C6  UNL     1     -33.963   7.118   4.247  1.00 20.00     0.033 A 
HETATM    7  C7  UNL     1     -33.863   5.489   2.770  1.00 20.00     0.033 A 
HETATM    8  C8  UNL     1     -34.927   6.019   3.753  1.00 20.00     0.015 A 
HETATM    9  C9  UNL     1     -32.878   6.579   3.275  1.00 20.00     0.098 A 
HETATM   10 CL10 UNL     1     -32.221   7.732   2.049  1.00 20.00    -0.124 Cl
ENDROOT
TORSDOF 0
ENDMDL
MODEL 2
REMARK VINA RESULT:      -4.8     16.393     17.383
REMARK  0 active torsions:
REMARK  status: ('A' for Active; 'I' for Inactive)
ROOT
HETATM    1  C1  UNL     1     -21.935  17.783  11.380  1.00 20.00    -0.021 C 
HETATM    2  C2  UNL     1     -22.650  18.732   9.176  1.00 20.00    -0.021 C 
HETATM    3  C3  UNL     1     -22.876  17.699  12.331  1.00 20.00    -0.023 C 
HETATM    4  C4  UNL     1     -23.933  19.103   9.071  1.00 20.00    -0.023 C 
HETATM    5  C5  UNL     1     -22.451  17.491   9.999  1.00 20.00     0.035 C 
HETATM    6  C6  UNL     1     -24.185  17.329  11.742  1.00 20.00     0.033 A 
HETATM    7  C7  UNL     1     -24.813  18.164   9.805  1.00 20.00     0.033 A 
HETATM    8  C8  UNL     1     -23.892  17.013  10.261  1.00 20.00     0.015 A 
HETATM    9  C9  UNL     1     -25.096  18.503  11.294  1.00 20.00     0.098 A 
HETATM   10 CL10 UNL     1     -26.819  18.464  11.836  1.00 20.00    -0.124 Cl
ENDROOT
TORSDOF 0
ENDMDL
MODEL 3
REMARK VINA RESULT:      -4.7     15.772     16.722
REMARK  0 active torsions:
REMARK  status: ('A' for Active; 'I' for Inactive)
ROOT
HETATM    1  C1  UNL     1     -25.604  16.638  12.332  1.00 20.00    -0.021 C 
HETATM    2  C2  UNL     1     -26.097  18.825  11.216  1.00 20.00    -0.021 C 
HETATM    3  C3  UNL     1     -24.685  15.859  11.745  1.00 20.00    -0.023 C 
HETATM    4  C4  UNL     1     -25.415  19.093  10.094  1.00 20.00    -0.023 C 
HETATM    5  C5  UNL     1     -25.284  18.105  12.254  1.00 20.00     0.035 C 
HETATM    6  C6  UNL     1     -23.588  16.678  11.177  1.00 20.00     0.033 A 
HETATM    7  C7  UNL     1     -24.022  18.599  10.196  1.00 20.00     0.033 A 
HETATM    8  C8  UNL     1     -23.864  18.119  11.654  1.00 20.00     0.015 A 
HETATM    9  C9  UNL     1     -23.766  17.148   9.708  1.00 20.00     0.098 A 
HETATM   10 CL10 UNL     1     -22.375  16.888   8.584  1.00 20.00    -0.124 Cl
ENDROOT
TORSDOF 0
ENDMDL
MODEL 4
REMARK VINA RESULT:      -4.6      8.649      9.685
REMARK  0 active torsions:
REMARK  status: ('A' for Active; 'I' for Inactive)
ROOT
HETATM    1  C1  UNL     1     -43.219   6.970   1.347  1.00 20.00    -0.021 C 
HETATM    2  C2  UNL     1     -42.000   8.421  -0.289  1.00 20.00    -0.021 C 
HETATM    3  C3  UNL     1     -43.413   5.693   0.988  1.00 20.00    -0.023 C 
HETATM    4  C4  UNL     1     -41.611   7.840  -1.432  1.00 20.00    -0.023 C 
HETATM    5  C5  UNL     1     -41.891   7.520   0.909  1.00 20.00     0.035 C 
HETATM    6  C6  UNL     1     -42.239   5.172   0.250  1.00 20.00     0.033 A 
HETATM    7  C7  UNL     1     -41.168   6.447  -1.188  1.00 20.00     0.033 A 
HETATM    8  C8  UNL     1     -41.170   6.280   0.345  1.00 20.00     0.015 A 
HETATM    9  C9  UNL     1     -42.259   5.347  -1.292  1.00 20.00     0.098 A 
HETATM   10 CL10 UNL     1     -41.873   3.894  -2.294  1.00 20.00    -0.124 Cl
ENDROOT
TORSDOF 0
ENDMDL
MODEL 5
REMARK VINA RESULT:      -4.5     12.040     13.001
REMARK  0 active torsions:
REMARK  status: ('A' for Active; 'I' for Inactive)
ROOT
HETATM    1  C1  UNL     1     -36.211  17.032  -2.661  1.00 20.00    -0.021 C 
HETATM    2  C2  UNL     1     -33.788  16.976  -2.031  1.00 20.00    -0.021 C 
HETATM    3  C3  UNL     1     -36.517  16.634  -3.903  1.00 20.00    -0.023 C 
HETATM    4  C4  UNL     1     -32.934  16.552  -2.971  1.00 20.00    -0.023 C 
HETATM    5  C5  UNL     1     -35.098  16.240  -2.034  1.00 20.00     0.035 C 
HETATM    6  C6  UNL     1     -35.659  15.499  -4.316  1.00 20.00     0.033 A 
HETATM    7  C7  UNL     1     -33.530  15.451  -3.763  1.00 20.00     0.033 A 
HETATM    8  C8  UNL     1     -34.858  15.111  -3.056  1.00 20.00     0.015 A 
HETATM    9  C9  UNL     1     -34.329  15.864  -5.029  1.00 20.00     0.098 A 
HETATM   10 CL10 UNL     1     -33.949  14.992  -6.565  1.00 20.00    -0.124 Cl
ENDROOT
TORSDOF 0
ENDMDL
MODEL 6
REMARK VINA RESULT:      -4.5     11.934     12.851
REMARK  0 active torsions:
REMARK  status: ('A' for Active; 'I' for Inactive)
ROOT
HETATM    1  C1  UNL     1     -33.232  15.762  -3.491  1.00 20.00    -0.021 C 
HETATM    2  C2  UNL     1     -33.637  14.934  -5.819  1.00 20.00    -0.021 C 
HETATM    3  C3  UNL     1     -34.310  16.146  -2.795  1.00 20.00    -0.023 C 
HETATM    4  C4  UNL     1     -34.910  14.923  -6.239  1.00 20.00    -0.023 C 
HETATM    5  C5  UNL     1     -33.480  14.568  -4.371  1.00 20.00     0.035 C 
HETATM    6  C6  UNL     1     -35.466  15.267  -3.090  1.00 20.00     0.033 A 
HETATM    7  C7  UNL     1     -35.822  14.540  -5.136  1.00 20.00     0.033 A 
HETATM    8  C8  UNL     1     -34.902  14.131  -3.967  1.00 20.00     0.015 A 
HETATM    9  C9  UNL     1     -36.380  15.700  -4.267  1.00 20.00     0.098 A 
HETATM   10 CL10 UNL     1     -38.162  15.722  -3.965  1.00 20.00    -0.124 Cl
ENDROOT
TORSDOF 0
ENDMDL
MODEL 7
REMARK VINA RESULT:      -4.4     15.932     16.954
REMARK  0 active torsions:
REMARK  status: ('A' for Active; 'I' for Inactive)
ROOT
HETATM    1  C1  UNL     1     -24.532  19.263   8.562  1.00 20.00    -0.021 C 
HETATM    2  C2  UNL     1     -22.504  17.880   8.072  1.00 20.00    -0.021 C 
HETATM    3  C3  UNL     1     -25.360  18.800   9.508  1.00 20.00    -0.023 C 
HETATM    4  C4  UNL     1     -22.359  16.753   8.783  1.00 20.00    -0.023 C 
HETATM    5  C5  UNL     1     -23.080  19.019   8.864  1.00 20.00     0.035 C 
HETATM    6  C6  UNL     1     -24.596  18.169  10.610  1.00 20.00     0.033 A 
HETATM    7  C7  UNL     1     -22.813  16.953  10.179  1.00 20.00     0.033 A 
HETATM    8  C8  UNL     1     -23.114  18.461  10.300  1.00 20.00     0.015 A 
HETATM    9  C9  UNL     1     -24.309  16.650  10.470  1.00 20.00     0.098 A 
HETATM   10 CL10 UNL     1     -24.677  15.604  11.897  1.00 20.00    -0.124 Cl
ENDROOT
TORSDOF 0
ENDMDL
MODEL 8
REMARK VINA RESULT:      -4.3     11.908     12.923
REMARK  0 active torsions:
REMARK  status: ('A' for Active; 'I' for Inactive)
ROOT
HETATM    1  C1  UNL     1     -34.082  17.798  -3.255  1.00 20.00    -0.021 C 
HETATM    2  C2  UNL     1     -32.979  15.602  -3.737  1.00 20.00    -0.021 C 
HETATM    3  C3  UNL     1     -35.409  17.854  -3.429  1.00 20.00    -0.023 C 
HETATM    4  C4  UNL     1     -33.778  14.606  -4.143  1.00 20.00    -0.023 C 
HETATM    5  C5  UNL     1     -33.605  16.487  -2.696  1.00 20.00     0.035 C 
HETATM    6  C6  UNL     1     -36.047  16.584  -3.010  1.00 20.00     0.033 A 
HETATM    7  C7  UNL     1     -35.078  14.655  -3.434  1.00 20.00     0.033 A 
HETATM    8  C8  UNL     1     -34.920  15.754  -2.363  1.00 20.00     0.015 A 
HETATM    9  C9  UNL     1     -36.200  15.494  -4.104  1.00 20.00     0.098 A 
HETATM   10 CL10 UNL     1     -37.822  14.716  -4.274  1.00 20.00    -0.124 Cl
ENDROOT
TORSDOF 0
ENDMDL
MODEL 9
REMARK VINA RESULT:      -4.3     11.965     13.221
REMARK  0 active torsions:
REMARK  status: ('A' for Active; 'I' for Inactive)
ROOT
HETATM    1  C1  UNL     1     -33.991  17.386  -1.627  1.00 20.00    -0.021 C 
HETATM    2  C2  UNL     1     -33.445  17.986  -3.996  1.00 20.00    -0.021 C 
HETATM    3  C3  UNL     1     -35.005  16.529  -1.444  1.00 20.00    -0.023 C 
HETATM    4  C4  UNL     1     -34.196  17.417  -4.948  1.00 20.00    -0.023 C 
HETATM    5  C5  UNL     1     -33.154  17.076  -2.836  1.00 20.00     0.035 C 
HETATM    6  C6  UNL     1     -35.013  15.493  -2.503  1.00 20.00     0.033 A 
HETATM    7  C7  UNL     1     -34.532  16.020  -4.585  1.00 20.00     0.033 A 
HETATM    8  C8  UNL     1     -33.718  15.721  -3.310  1.00 20.00     0.015 A 
HETATM    9  C9  UNL     1     -35.842  15.813  -3.776  1.00 20.00     0.098 A 
HETATM   10 CL10 UNL     1     -36.981  14.538  -4.362  1.00 20.00    -0.124 Cl
ENDROOT
TORSDOF 0
ENDMDL
