MODEL 1
REMARK VINA RESULT:      -6.0      0.000      0.000
REMARK  0 active torsions:
REMARK  status: ('A' for Active; 'I' for Inactive)
ROOT
HETATM    1  C1  UNL     1     -34.035   6.754   6.125  1.00 20.00     0.004 C 
HETATM    2  C2  UNL     1     -34.725   5.596   5.899  1.00 20.00    -0.017 C 
HETATM    3  C3  UNL     1     -34.324   4.129   3.535  1.00 20.00    -0.021 C 
HETATM    4  C4  UNL     1     -33.499   4.614   2.552  1.00 20.00    -0.024 C 
HETATM    5  C5  UNL     1     -32.479   7.872   4.230  1.00 20.00    -0.019 C 
HETATM    6  C6  UNL     1     -33.285   7.093   4.950  1.00 20.00    -0.056 C 
HETATM    7  C7  UNL     1     -32.112   7.129   2.901  1.00 20.00     0.036 C 
HETATM    8  C8  UNL     1     -34.755   5.264   4.429  1.00 20.00     0.039 C 
HETATM    9  C9  UNL     1     -33.267   6.107   2.744  1.00 20.00     0.020 C 
HETATM   10  C10 UNL     1     -33.416   5.869   4.204  1.00 20.00     0.037 C 
ENDROOT
TORSDOF 0
ENDMDL
MODEL 2
REMARK VINA RESULT:      -5.8      0.288      3.243
REMARK  0 active torsions:
REMARK  status: ('A' for Active; 'I' for Inactive)
ROOT
HETATM    1  C1  UNL     1     -32.203   6.994   2.710  1.00 20.00     0.004 C 
HETATM    2  C2  UNL     1     -32.354   7.783   3.817  1.00 20.00    -0.017 C 
HETATM    3  C3  UNL     1     -33.877   6.898   6.007  1.00 20.00    -0.021 C 
HETATM    4  C4  UNL     1     -34.553   5.705   5.943  1.00 20.00    -0.024 C 
HETATM    5  C5  UNL     1     -33.568   4.690   2.411  1.00 20.00    -0.019 C 
HETATM    6  C6  UNL     1     -33.037   5.835   2.841  1.00 20.00    -0.056 C 
HETATM    7  C7  UNL     1     -34.391   4.047   3.578  1.00 20.00     0.036 C 
HETATM    8  C8  UNL     1     -33.569   7.372   4.610  1.00 20.00     0.039 C 
HETATM    9  C9  UNL     1     -34.701   5.258   4.494  1.00 20.00     0.020 C 
HETATM   10  C10 UNL     1     -33.409   5.945   4.226  1.00 20.00     0.037 C 
ENDROOT
TORSDOF 0
ENDMDL
MODEL 3
REMARK VINA RESULT:      -5.7      0.234      3.162
REMARK  0 active torsions:
REMARK  status: ('A' for Active; 'I' for Inactive)
ROOT
HETATM    1  C1  UNL     1     -34.273   4.096   3.522  1.00 20.00     0.004 C 
HETATM    2  C2  UNL     1     -33.501   4.621   2.523  1.00 20.00    -0.017 C 
HETATM    3  C3  UNL     1     -32.143   7.054   2.895  1.00 20.00    -0.021 C 
HETATM    4  C4  UNL     1     -32.319   7.775   4.049  1.00 20.00    -0.024 C 
HETATM    5  C5  UNL     1     -34.795   5.466   5.783  1.00 20.00    -0.019 C 
HETATM    6  C6  UNL     1     -34.357   5.040   4.598  1.00 20.00    -0.056 C 
HETATM    7  C7  UNL     1     -34.050   6.793   6.149  1.00 20.00     0.036 C 
HETATM    8  C8  UNL     1     -33.299   6.103   2.720  1.00 20.00     0.039 C 
HETATM    9  C9  UNL     1     -33.583   7.322   4.769  1.00 20.00     0.020 C 
HETATM   10  C10 UNL     1     -33.335   5.970   4.201  1.00 20.00     0.037 C 
ENDROOT
TORSDOF 0
ENDMDL
MODEL 4
REMARK VINA RESULT:      -5.5      0.431      2.625
REMARK  0 active torsions:
REMARK  status: ('A' for Active; 'I' for Inactive)
ROOT
HETATM    1  C1  UNL     1     -34.689   5.761   5.871  1.00 20.00     0.004 C 
HETATM    2  C2  UNL     1     -34.024   6.955   5.926  1.00 20.00    -0.017 C 
HETATM    3  C3  UNL     1     -32.612   7.910   3.691  1.00 20.00    -0.021 C 
HETATM    4  C4  UNL     1     -32.507   7.141   2.560  1.00 20.00    -0.024 C 
HETATM    5  C5  UNL     1     -34.465   4.107   3.756  1.00 20.00    -0.019 C 
HETATM    6  C6  UNL     1     -34.392   5.114   4.626  1.00 20.00    -0.056 C 
HETATM    7  C7  UNL     1     -33.773   4.543   2.421  1.00 20.00     0.036 C 
HETATM    8  C8  UNL     1     -32.957   7.027   4.863  1.00 20.00     0.039 C 
HETATM    9  C9  UNL     1     -32.830   5.687   2.876  1.00 20.00     0.020 C 
HETATM   10  C10 UNL     1     -33.754   6.195   3.924  1.00 20.00     0.037 C 
ENDROOT
TORSDOF 0
ENDMDL
MODEL 5
REMARK VINA RESULT:      -5.3      0.468      2.624
REMARK  0 active torsions:
REMARK  status: ('A' for Active; 'I' for Inactive)
ROOT
HETATM    1  C1  UNL     1     -33.438   4.948   2.362  1.00 20.00     0.004 C 
HETATM    2  C2  UNL     1     -34.266   4.257   3.203  1.00 20.00    -0.017 C 
HETATM    3  C3  UNL     1     -34.992   5.331   5.697  1.00 20.00    -0.021 C 
HETATM    4  C4  UNL     1     -34.448   6.516   6.124  1.00 20.00    -0.024 C 
HETATM    5  C5  UNL     1     -32.213   7.223   3.128  1.00 20.00    -0.019 C 
HETATM    6  C6  UNL     1     -32.952   6.118   3.036  1.00 20.00    -0.056 C 
HETATM    7  C7  UNL     1     -32.581   7.966   4.457  1.00 20.00     0.036 C 
HETATM    8  C8  UNL     1     -34.115   4.738   4.624  1.00 20.00     0.039 C 
HETATM    9  C9  UNL     1     -33.190   6.838   5.329  1.00 20.00     0.020 C 
HETATM   10  C10 UNL     1     -33.818   6.127   4.184  1.00 20.00     0.037 C 
ENDROOT
TORSDOF 0
ENDMDL
MODEL 6
REMARK VINA RESULT:      -5.3      0.435      2.604
REMARK  0 active torsions:
REMARK  status: ('A' for Active; 'I' for Inactive)
ROOT
HETATM    1  C1  UNL     1     -32.510   7.792   3.888  1.00 20.00     0.004 C 
HETATM    2  C2  UNL     1     -32.373   7.047   2.750  1.00 20.00    -0.017 C 
HETATM    3  C3  UNL     1     -33.790   4.640   2.437  1.00 20.00    -0.021 C 
HETATM    4  C4  UNL     1     -34.560   4.153   3.463  1.00 20.00    -0.024 C 
HETATM    5  C5  UNL     1     -33.893   6.890   6.018  1.00 20.00    -0.019 C 
HETATM    6  C6  UNL     1     -33.307   7.066   4.834  1.00 20.00    -0.056 C 
HETATM    7  C7  UNL     1     -34.786   5.606   5.954  1.00 20.00     0.036 C 
HETATM    8  C8  UNL     1     -32.783   5.616   2.989  1.00 20.00     0.039 C 
HETATM    9  C9  UNL     1     -34.164   4.808   4.780  1.00 20.00     0.020 C 
HETATM   10  C10 UNL     1     -33.809   6.016   3.988  1.00 20.00     0.037 C 
ENDROOT
TORSDOF 0
ENDMDL
MODEL 7
REMARK VINA RESULT:      -5.0      0.843      2.642
REMARK  0 active torsions:
REMARK  status: ('A' for Active; 'I' for Inactive)
ROOT
HETATM    1  C1  UNL     1     -34.987   4.415   4.201  1.00 20.00     0.004 C 
HETATM    2  C2  UNL     1     -35.065   4.921   5.469  1.00 20.00    -0.017 C 
HETATM    3  C3  UNL     1     -33.749   7.313   6.138  1.00 20.00    -0.021 C 
HETATM    4  C4  UNL     1     -32.945   7.940   5.219  1.00 20.00    -0.024 C 
HETATM    5  C5  UNL     1     -33.353   5.483   2.344  1.00 20.00    -0.019 C 
HETATM    6  C6  UNL     1     -34.056   5.195   3.439  1.00 20.00    -0.056 C 
HETATM    7  C7  UNL     1     -32.621   6.851   2.558  1.00 20.00     0.036 C 
HETATM    8  C8  UNL     1     -33.925   5.869   5.742  1.00 20.00     0.039 C 
HETATM    9  C9  UNL     1     -32.565   6.976   4.102  1.00 20.00     0.020 C 
HETATM   10  C10 UNL     1     -33.878   6.315   4.325  1.00 20.00     0.037 C 
ENDROOT
TORSDOF 0
ENDMDL
MODEL 8
REMARK VINA RESULT:      -4.8     16.429     16.815
REMARK  0 active torsions:
REMARK  status: ('A' for Active; 'I' for Inactive)
ROOT
HETATM    1  C1  UNL     1     -25.680  19.225   9.865  1.00 20.00     0.004 C 
HETATM    2  C2  UNL     1     -25.058  19.263   8.648  1.00 20.00    -0.017 C 
HETATM    3  C3  UNL     1     -22.690  17.814   8.205  1.00 20.00    -0.021 C 
HETATM    4  C4  UNL     1     -22.095  17.131   9.235  1.00 20.00    -0.024 C 
HETATM    5  C5  UNL     1     -24.554  18.021  11.997  1.00 20.00    -0.019 C 
HETATM    6  C6  UNL     1     -24.855  18.506  10.793  1.00 20.00    -0.056 C 
HETATM    7  C7  UNL     1     -23.279  17.120  11.875  1.00 20.00     0.036 C 
HETATM    8  C8  UNL     1     -23.608  18.868   8.770  1.00 20.00     0.039 C 
HETATM    9  C9  UNL     1     -22.611  17.639  10.575  1.00 20.00     0.020 C 
HETATM   10  C10 UNL     1     -23.897  17.931   9.887  1.00 20.00     0.037 C 
ENDROOT
TORSDOF 0
ENDMDL
MODEL 9
REMARK VINA RESULT:      -4.6     16.019     16.700
REMARK  0 active torsions:
REMARK  status: ('A' for Active; 'I' for Inactive)
ROOT
HETATM    1  C1  UNL     1     -22.356  17.768   8.228  1.00 20.00     0.004 C 
HETATM    2  C2  UNL     1     -22.141  17.424   9.534  1.00 20.00    -0.017 C 
HETATM    3  C3  UNL     1     -24.159  17.778  11.458  1.00 20.00    -0.021 C 
HETATM    4  C4  UNL     1     -25.343  18.383  11.115  1.00 20.00    -0.024 C 
HETATM    5  C5  UNL     1     -24.585  19.067   7.451  1.00 20.00    -0.019 C 
HETATM    6  C6  UNL     1     -23.625  18.427   8.118  1.00 20.00    -0.056 C 
HETATM    7  C7  UNL     1     -25.815  19.263   8.400  1.00 20.00     0.036 C 
HETATM    8  C8  UNL     1     -23.103  18.143  10.446  1.00 20.00     0.039 C 
HETATM    9  C9  UNL     1     -25.185  19.156   9.812  1.00 20.00     0.020 C 
HETATM   10  C10 UNL     1     -24.174  18.139   9.416  1.00 20.00     0.037 C 
ENDROOT
TORSDOF 0
ENDMDL
