MODEL 1
REMARK VINA RESULT:      -4.0      0.000      0.000
REMARK  0 active torsions:
REMARK  status: ('A' for Active; 'I' for Inactive)
ROOT
HETATM    1  C1  UNL     1     -33.951   4.554   2.852  1.00 20.00     0.004 C 
HETATM    2  C2  UNL     1     -34.758   4.630   4.146  1.00 20.00     0.005 C 
HETATM    3  C3  UNL     1     -32.636   5.327   2.968  1.00 20.00     0.042 C 
HETATM    4  C4  UNL     1     -33.787   6.489   5.656  1.00 20.00     0.013 A 
HETATM    5  C5  UNL     1     -34.854   6.023   4.697  1.00 20.00    -0.007 A 
HETATM    6  C6  UNL     1     -33.881   7.105   4.285  1.00 20.00     0.029 A 
HETATM    7  C7  UNL     1     -32.873   6.825   3.206  1.00 20.00     0.117 C 
HETATM    8 CL8  UNL     1     -31.329   7.621   3.644  1.00 20.00    -0.101 Cl
HETATM    9 CL9  UNL     1     -33.472   7.591   1.689  1.00 20.00    -0.101 Cl
ENDROOT
TORSDOF 0
ENDMDL
MODEL 2
REMARK VINA RESULT:      -3.9     11.582     12.574
REMARK  0 active torsions:
REMARK  status: ('A' for Active; 'I' for Inactive)
ROOT
HETATM    1  C1  UNL     1     -32.892  17.295  -2.266  1.00 20.00     0.004 C 
HETATM    2  C2  UNL     1     -34.157  17.190  -1.417  1.00 20.00     0.005 C 
HETATM    3  C3  UNL     1     -33.221  17.305  -3.760  1.00 20.00     0.042 C 
HETATM    4  C4  UNL     1     -36.143  16.494  -2.917  1.00 20.00     0.013 A 
HETATM    5  C5  UNL     1     -35.097  16.123  -1.894  1.00 20.00    -0.007 A 
HETATM    6  C6  UNL     1     -35.017  15.570  -3.300  1.00 20.00     0.029 A 
HETATM    7  C7  UNL     1     -33.896  15.999  -4.205  1.00 20.00     0.117 C 
HETATM    8 CL8  UNL     1     -34.539  16.183  -5.866  1.00 20.00    -0.101 Cl
HETATM    9 CL9  UNL     1     -32.680  14.669  -4.232  1.00 20.00    -0.101 Cl
ENDROOT
TORSDOF 0
ENDMDL
MODEL 3
REMARK VINA RESULT:      -3.8     11.737     12.452
REMARK  0 active torsions:
REMARK  status: ('A' for Active; 'I' for Inactive)
ROOT
HETATM    1  C1  UNL     1     -33.232  15.034  -4.231  1.00 20.00     0.004 C 
HETATM    2  C2  UNL     1     -33.303  15.969  -3.025  1.00 20.00     0.005 C 
HETATM    3  C3  UNL     1     -34.347  15.335  -5.236  1.00 20.00     0.042 C 
HETATM    4  C4  UNL     1     -35.588  17.176  -3.006  1.00 20.00     0.013 A 
HETATM    5  C5  UNL     1     -34.687  16.094  -2.461  1.00 20.00    -0.007 A 
HETATM    6  C6  UNL     1     -35.909  15.729  -3.274  1.00 20.00     0.029 A 
HETATM    7  C7  UNL     1     -35.739  15.105  -4.631  1.00 20.00     0.117 C 
HETATM    8 CL8  UNL     1     -36.993  15.764  -5.727  1.00 20.00    -0.101 Cl
HETATM    9 CL9  UNL     1     -36.038  13.337  -4.458  1.00 20.00    -0.101 Cl
ENDROOT
TORSDOF 0
ENDMDL
MODEL 4
REMARK VINA RESULT:      -3.8      9.272     10.196
REMARK  0 active torsions:
REMARK  status: ('A' for Active; 'I' for Inactive)
ROOT
HETATM    1  C1  UNL     1     -40.794   7.483   0.762  1.00 20.00     0.004 C 
HETATM    2  C2  UNL     1     -41.563   8.713   0.283  1.00 20.00     0.005 C 
HETATM    3  C3  UNL     1     -40.990   6.299  -0.188  1.00 20.00     0.042 C 
HETATM    4  C4  UNL     1     -43.255   8.014  -1.540  1.00 20.00     0.013 A 
HETATM    5  C5  UNL     1     -42.978   8.405  -0.109  1.00 20.00    -0.007 A 
HETATM    6  C6  UNL     1     -43.417   6.997  -0.441  1.00 20.00     0.029 A 
HETATM    7  C7  UNL     1     -42.458   5.855  -0.253  1.00 20.00     0.117 C 
HETATM    8 CL8  UNL     1     -42.681   4.692  -1.596  1.00 20.00    -0.101 Cl
HETATM    9 CL9  UNL     1     -42.904   5.016   1.278  1.00 20.00    -0.101 Cl
ENDROOT
TORSDOF 0
ENDMDL
MODEL 5
REMARK VINA RESULT:      -3.8     11.974     12.714
REMARK  0 active torsions:
REMARK  status: ('A' for Active; 'I' for Inactive)
ROOT
HETATM    1  C1  UNL     1     -35.505  16.307  -2.514  1.00 20.00     0.004 C 
HETATM    2  C2  UNL     1     -33.996  16.134  -2.352  1.00 20.00     0.005 C 
HETATM    3  C3  UNL     1     -36.072  15.321  -3.537  1.00 20.00     0.042 C 
HETATM    4  C4  UNL     1     -33.083  14.691  -4.290  1.00 20.00     0.013 A 
HETATM    5  C5  UNL     1     -33.271  16.050  -3.662  1.00 20.00    -0.007 A 
HETATM    6  C6  UNL     1     -33.992  15.697  -4.944  1.00 20.00     0.029 A 
HETATM    7  C7  UNL     1     -35.489  15.553  -4.939  1.00 20.00     0.117 C 
HETATM    8 CL8  UNL     1     -35.937  14.194  -6.015  1.00 20.00    -0.101 Cl
HETATM    9 CL9  UNL     1     -36.183  17.060  -5.640  1.00 20.00    -0.101 Cl
ENDROOT
TORSDOF 0
ENDMDL
MODEL 6
REMARK VINA RESULT:      -3.7     11.218     12.212
REMARK  0 active torsions:
REMARK  status: ('A' for Active; 'I' for Inactive)
ROOT
HETATM    1  C1  UNL     1     -36.839  15.097  -3.874  1.00 20.00     0.004 C 
HETATM    2  C2  UNL     1     -35.997  13.946  -4.419  1.00 20.00     0.005 C 
HETATM    3  C3  UNL     1     -36.103  16.433  -3.995  1.00 20.00     0.042 C 
HETATM    4  C4  UNL     1     -33.556  14.734  -4.723  1.00 20.00     0.013 A 
HETATM    5  C5  UNL     1     -34.581  13.968  -3.924  1.00 20.00    -0.007 A 
HETATM    6  C6  UNL     1     -33.961  15.227  -3.359  1.00 20.00     0.029 A 
HETATM    7  C7  UNL     1     -34.811  16.451  -3.165  1.00 20.00     0.117 C 
HETATM    8 CL8  UNL     1     -33.840  17.896  -3.585  1.00 20.00    -0.101 Cl
HETATM    9 CL9  UNL     1     -35.221  16.557  -1.413  1.00 20.00    -0.101 Cl
ENDROOT
TORSDOF 0
ENDMDL
MODEL 7
REMARK VINA RESULT:      -3.7      9.213     10.120
REMARK  0 active torsions:
REMARK  status: ('A' for Active; 'I' for Inactive)
ROOT
HETATM    1  C1  UNL     1     -41.948   8.020  -1.391  1.00 20.00     0.004 C 
HETATM    2  C2  UNL     1     -42.251   8.543   0.012  1.00 20.00     0.005 C 
HETATM    3  C3  UNL     1     -42.708   6.724  -1.680  1.00 20.00     0.042 C 
HETATM    4  C4  UNL     1     -43.416   6.691   1.386  1.00 20.00     0.013 A 
HETATM    5  C5  UNL     1     -42.169   7.479   1.066  1.00 20.00    -0.007 A 
HETATM    6  C6  UNL     1     -42.253   6.010   0.714  1.00 20.00     0.029 A 
HETATM    7  C7  UNL     1     -42.290   5.593  -0.730  1.00 20.00     0.117 C 
HETATM    8 CL8  UNL     1     -43.417   4.212  -0.899  1.00 20.00    -0.101 Cl
HETATM    9 CL9  UNL     1     -40.642   5.012  -1.171  1.00 20.00    -0.101 Cl
ENDROOT
TORSDOF 0
ENDMDL
MODEL 8
REMARK VINA RESULT:      -3.7     15.810     16.632
REMARK  0 active torsions:
REMARK  status: ('A' for Active; 'I' for Inactive)
ROOT
HETATM    1  C1  UNL     1     -23.547  18.374   9.222  1.00 20.00     0.004 C 
HETATM    2  C2  UNL     1     -24.779  19.261   9.385  1.00 20.00     0.005 C 
HETATM    3  C3  UNL     1     -23.757  17.002   9.866  1.00 20.00     0.042 C 
HETATM    4  C4  UNL     1     -26.354  18.228  11.154  1.00 20.00     0.013 A 
HETATM    5  C5  UNL     1     -25.320  19.263  10.784  1.00 20.00    -0.007 A 
HETATM    6  C6  UNL     1     -24.979  18.163  11.765  1.00 20.00     0.029 A 
HETATM    7  C7  UNL     1     -23.976  17.111  11.382  1.00 20.00     0.117 C 
HETATM    8 CL8  UNL     1     -24.525  15.533  12.030  1.00 20.00    -0.101 Cl
HETATM    9 CL9  UNL     1     -22.419  17.523  12.190  1.00 20.00    -0.101 Cl
ENDROOT
TORSDOF 0
ENDMDL
MODEL 9
REMARK VINA RESULT:      -3.7     11.675     12.601
REMARK  0 active torsions:
REMARK  status: ('A' for Active; 'I' for Inactive)
ROOT
HETATM    1  C1  UNL     1     -34.911  15.059  -6.077  1.00 20.00     0.004 C 
HETATM    2  C2  UNL     1     -33.676  14.823  -5.209  1.00 20.00     0.005 C 
HETATM    3  C3  UNL     1     -35.823  16.127  -5.471  1.00 20.00     0.042 C 
HETATM    4  C4  UNL     1     -34.036  15.903  -2.890  1.00 20.00     0.013 A 
HETATM    5  C5  UNL     1     -34.003  14.666  -3.754  1.00 20.00    -0.007 A 
HETATM    6  C6  UNL     1     -35.313  15.158  -3.180  1.00 20.00     0.029 A 
HETATM    7  C7  UNL     1     -36.370  15.701  -4.101  1.00 20.00     0.117 C 
HETATM    8 CL8  UNL     1     -37.163  17.095  -3.304  1.00 20.00    -0.101 Cl
HETATM    9 CL9  UNL     1     -37.613  14.415  -4.320  1.00 20.00    -0.101 Cl
ENDROOT
TORSDOF 0
ENDMDL
