MODEL 1
REMARK VINA RESULT:      -4.1      0.000      0.000
REMARK  0 active torsions:
REMARK  status: ('A' for Active; 'I' for Inactive)
ROOT
HETATM    1  C1  UNL     1     -41.358   7.483  -0.958  1.00 20.00    -0.020 C 
HETATM    2  C2  UNL     1     -40.988   7.445   0.364  1.00 20.00    -0.020 C 
HETATM    3  C3  UNL     1     -43.417   4.606   0.251  1.00 20.00     0.002 C 
HETATM    4  C4  UNL     1     -43.231   5.424  -1.064  1.00 20.00     0.014 C 
HETATM    5  C5  UNL     1     -42.447   5.258   1.283  1.00 20.00     0.014 C 
HETATM    6  C6  UNL     1     -41.877   6.056  -0.816  1.00 20.00    -0.016 C 
HETATM    7  C7  UNL     1     -42.237   6.619   0.653  1.00 20.00    -0.016 C 
HETATM    8  C8  UNL     1     -40.754   5.046  -1.170  1.00 20.00     0.020 C 
HETATM    9  C9  UNL     1     -43.417   7.556   1.022  1.00 20.00     0.020 C 
ENDROOT
TORSDOF 0
ENDMDL
MODEL 2
REMARK VINA RESULT:      -4.0     11.064     12.495
REMARK  0 active torsions:
REMARK  status: ('A' for Active; 'I' for Inactive)
ROOT
HETATM    1  C1  UNL     1     -33.904  16.494  -3.221  1.00 20.00    -0.020 C 
HETATM    2  C2  UNL     1     -34.667  15.692  -2.407  1.00 20.00    -0.020 C 
HETATM    3  C3  UNL     1     -35.739  14.472  -5.775  1.00 20.00     0.002 C 
HETATM    4  C4  UNL     1     -34.734  15.664  -5.746  1.00 20.00     0.014 C 
HETATM    5  C5  UNL     1     -35.994  14.113  -4.279  1.00 20.00     0.014 C 
HETATM    6  C6  UNL     1     -34.147  15.509  -4.359  1.00 20.00    -0.016 C 
HETATM    7  C7  UNL     1     -35.568  15.400  -3.602  1.00 20.00    -0.016 C 
HETATM    8  C8  UNL     1     -33.026  14.437  -4.381  1.00 20.00     0.020 C 
HETATM    9  C9  UNL     1     -36.727  16.429  -3.656  1.00 20.00     0.020 C 
ENDROOT
TORSDOF 0
ENDMDL
MODEL 3
REMARK VINA RESULT:      -4.0     11.089     12.722
REMARK  0 active torsions:
REMARK  status: ('A' for Active; 'I' for Inactive)
ROOT
HETATM    1  C1  UNL     1     -34.615  15.746  -2.402  1.00 20.00    -0.020 C 
HETATM    2  C2  UNL     1     -33.856  16.532  -3.234  1.00 20.00    -0.020 C 
HETATM    3  C3  UNL     1     -35.727  14.487  -5.742  1.00 20.00     0.002 C 
HETATM    4  C4  UNL     1     -35.971  14.151  -4.239  1.00 20.00     0.014 C 
HETATM    5  C5  UNL     1     -34.717  15.675  -5.740  1.00 20.00     0.014 C 
HETATM    6  C6  UNL     1     -35.530  15.443  -3.584  1.00 20.00    -0.016 C 
HETATM    7  C7  UNL     1     -34.117  15.533  -4.357  1.00 20.00    -0.016 C 
HETATM    8  C8  UNL     1     -36.684  16.480  -3.640  1.00 20.00     0.020 C 
HETATM    9  C9  UNL     1     -33.001  14.456  -4.377  1.00 20.00     0.020 C 
ENDROOT
TORSDOF 0
ENDMDL
MODEL 4
REMARK VINA RESULT:      -4.0     23.099     24.097
REMARK  0 active torsions:
REMARK  status: ('A' for Active; 'I' for Inactive)
ROOT
HETATM    1  C1  UNL     1     -24.089  19.263   9.377  1.00 20.00    -0.020 C 
HETATM    2  C2  UNL     1     -24.540  18.175   8.670  1.00 20.00    -0.020 C 
HETATM    3  C3  UNL     1     -23.560  16.544  11.887  1.00 20.00     0.002 C 
HETATM    4  C4  UNL     1     -23.276  18.072  11.759  1.00 20.00     0.014 C 
HETATM    5  C5  UNL     1     -24.234  16.136  10.542  1.00 20.00     0.014 C 
HETATM    6  C6  UNL     1     -24.243  18.449  10.657  1.00 20.00    -0.016 C 
HETATM    7  C7  UNL     1     -23.791  17.275   9.647  1.00 20.00    -0.016 C 
HETATM    8  C8  UNL     1     -25.660  18.663  11.253  1.00 20.00     0.020 C 
HETATM    9  C9  UNL     1     -22.356  17.004   9.124  1.00 20.00     0.020 C 
ENDROOT
TORSDOF 0
ENDMDL
MODEL 5
REMARK VINA RESULT:      -4.0     23.077     23.980
REMARK  0 active torsions:
REMARK  status: ('A' for Active; 'I' for Inactive)
ROOT
HETATM    1  C1  UNL     1     -24.593  18.175   8.710  1.00 20.00    -0.020 C 
HETATM    2  C2  UNL     1     -24.113  19.258   9.405  1.00 20.00    -0.020 C 
HETATM    3  C3  UNL     1     -23.558  16.537  11.907  1.00 20.00     0.002 C 
HETATM    4  C4  UNL     1     -24.265  16.134  10.577  1.00 20.00     0.014 C 
HETATM    5  C5  UNL     1     -23.258  18.061  11.770  1.00 20.00     0.014 C 
HETATM    6  C6  UNL     1     -23.832  17.267   9.671  1.00 20.00    -0.016 C 
HETATM    7  C7  UNL     1     -24.247  18.447  10.690  1.00 20.00    -0.016 C 
HETATM    8  C8  UNL     1     -22.411  16.981   9.116  1.00 20.00     0.020 C 
HETATM    9  C9  UNL     1     -25.646  18.679  11.319  1.00 20.00     0.020 C 
ENDROOT
TORSDOF 0
ENDMDL
MODEL 6
REMARK VINA RESULT:      -4.0     11.097     12.972
REMARK  0 active torsions:
REMARK  status: ('A' for Active; 'I' for Inactive)
ROOT
HETATM    1  C1  UNL     1     -33.170  14.674  -4.175  1.00 20.00    -0.020 C 
HETATM    2  C2  UNL     1     -33.830  14.984  -5.339  1.00 20.00    -0.020 C 
HETATM    3  C3  UNL     1     -36.048  16.643  -2.829  1.00 20.00     0.002 C 
HETATM    4  C4  UNL     1     -34.839  15.832  -2.271  1.00 20.00     0.014 C 
HETATM    5  C5  UNL     1     -35.945  16.522  -4.380  1.00 20.00     0.014 C 
HETATM    6  C6  UNL     1     -33.935  15.798  -3.484  1.00 20.00    -0.016 C 
HETATM    7  C7  UNL     1     -35.073  15.291  -4.510  1.00 20.00    -0.016 C 
HETATM    8  C8  UNL     1     -33.130  17.121  -3.576  1.00 20.00     0.020 C 
HETATM    9  C9  UNL     1     -35.944  14.015  -4.370  1.00 20.00     0.020 C 
ENDROOT
TORSDOF 0
ENDMDL
MODEL 7
REMARK VINA RESULT:      -4.0     11.078     12.828
REMARK  0 active torsions:
REMARK  status: ('A' for Active; 'I' for Inactive)
ROOT
HETATM    1  C1  UNL     1     -33.862  14.958  -5.342  1.00 20.00    -0.020 C 
HETATM    2  C2  UNL     1     -33.265  14.575  -4.166  1.00 20.00    -0.020 C 
HETATM    3  C3  UNL     1     -36.088  16.648  -2.860  1.00 20.00     0.002 C 
HETATM    4  C4  UNL     1     -35.931  16.572  -4.409  1.00 20.00     0.014 C 
HETATM    5  C5  UNL     1     -34.947  15.754  -2.285  1.00 20.00     0.014 C 
HETATM    6  C6  UNL     1     -35.119  15.302  -4.550  1.00 20.00    -0.016 C 
HETATM    7  C7  UNL     1     -33.998  15.714  -3.465  1.00 20.00    -0.016 C 
HETATM    8  C8  UNL     1     -36.058  14.068  -4.488  1.00 20.00     0.020 C 
HETATM    9  C9  UNL     1     -33.123  16.995  -3.479  1.00 20.00     0.020 C 
ENDROOT
TORSDOF 0
ENDMDL
MODEL 8
REMARK VINA RESULT:      -3.9     10.952     12.797
REMARK  0 active torsions:
REMARK  status: ('A' for Active; 'I' for Inactive)
ROOT
HETATM    1  C1  UNL     1     -33.200  16.087  -3.786  1.00 20.00    -0.020 C 
HETATM    2  C2  UNL     1     -33.936  16.971  -4.538  1.00 20.00    -0.020 C 
HETATM    3  C3  UNL     1     -36.246  14.032  -4.477  1.00 20.00     0.002 C 
HETATM    4  C4  UNL     1     -34.861  13.852  -3.783  1.00 20.00     0.014 C 
HETATM    5  C5  UNL     1     -36.253  15.498  -5.007  1.00 20.00     0.014 C 
HETATM    6  C6  UNL     1     -34.478  15.295  -3.532  1.00 20.00    -0.016 C 
HETATM    7  C7  UNL     1     -34.768  15.795  -5.039  1.00 20.00    -0.016 C 
HETATM    8  C8  UNL     1     -35.169  15.804  -2.239  1.00 20.00     0.020 C 
HETATM    9  C9  UNL     1     -34.147  15.223  -6.340  1.00 20.00     0.020 C 
ENDROOT
TORSDOF 0
ENDMDL
MODEL 9
REMARK VINA RESULT:      -3.9     10.936     12.601
REMARK  0 active torsions:
REMARK  status: ('A' for Active; 'I' for Inactive)
ROOT
HETATM    1  C1  UNL     1     -33.949  16.955  -4.549  1.00 20.00    -0.020 C 
HETATM    2  C2  UNL     1     -33.217  16.074  -3.791  1.00 20.00    -0.020 C 
HETATM    3  C3  UNL     1     -36.261  14.018  -4.486  1.00 20.00     0.002 C 
HETATM    4  C4  UNL     1     -36.264  15.482  -5.023  1.00 20.00     0.014 C 
HETATM    5  C5  UNL     1     -34.878  13.839  -3.788  1.00 20.00     0.014 C 
HETATM    6  C6  UNL     1     -34.779  15.778  -5.050  1.00 20.00    -0.016 C 
HETATM    7  C7  UNL     1     -34.497  15.283  -3.540  1.00 20.00    -0.016 C 
HETATM    8  C8  UNL     1     -34.152  15.201  -6.346  1.00 20.00     0.020 C 
HETATM    9  C9  UNL     1     -35.192  15.796  -2.252  1.00 20.00     0.020 C 
ENDROOT
TORSDOF 0
ENDMDL
