MODEL 1
REMARK VINA RESULT:      -5.1      0.000      0.000
REMARK  2 active torsions:
REMARK  status: ('A' for Active; 'I' for Inactive)
REMARK    1  A    between atoms: C1_1  and  C2_2 
REMARK    2  A    between atoms: C1_1  and  C3_3 
ROOT
HETATM    1  C1  UNL     1     -33.841   6.492   3.894  1.00 20.00     0.386 C 
HETATM    2  F4  UNL     1     -34.592   7.607   3.656  1.00 20.00    -0.191 F 
HETATM    3  F5  UNL     1     -32.905   6.867   4.814  1.00 20.00    -0.191 F 
ENDROOT
BRANCH   1   4
HETATM    4  C2  UNL     1     -33.109   6.151   2.602  1.00 20.00     0.390 C 
HETATM    5  F6  UNL     1     -33.978   5.508   1.776  1.00 20.00    -0.181 F 
HETATM    6  F7  UNL     1     -32.101   5.277   2.842  1.00 20.00    -0.181 F 
HETATM    7 CL9  UNL     1     -32.472   7.570   1.754  1.00 20.00    -0.042 Cl
ENDBRANCH   1   4
BRANCH   1   8
HETATM    8  C3  UNL     1     -34.735   5.421   4.520  1.00 20.00     0.328 C 
HETATM    9  F8  UNL     1     -36.005   5.555   4.052  1.00 20.00    -0.200 F 
HETATM   10 CL10 UNL     1     -34.774   5.520   6.297  1.00 20.00    -0.059 Cl
HETATM   11 CL11 UNL     1     -34.158   3.792   4.055  1.00 20.00    -0.059 Cl
ENDBRANCH   1   8
TORSDOF 2
ENDMDL
MODEL 2
REMARK VINA RESULT:      -4.7      8.523      9.453
REMARK  2 active torsions:
REMARK  status: ('A' for Active; 'I' for Inactive)
REMARK    1  A    between atoms: C1_1  and  C2_2 
REMARK    2  A    between atoms: C1_1  and  C3_3 
ROOT
HETATM    1  C1  UNL     1     -41.891   7.079  -0.840  1.00 20.00     0.386 C 
HETATM    2  F4  UNL     1     -40.867   7.461  -1.658  1.00 20.00    -0.191 F 
HETATM    3  F5  UNL     1     -43.035   7.467  -1.476  1.00 20.00    -0.191 F 
ENDROOT
BRANCH   1   4
HETATM    4  C2  UNL     1     -41.776   7.892   0.444  1.00 20.00     0.390 C 
HETATM    5  F6  UNL     1     -40.789   7.348   1.207  1.00 20.00    -0.181 F 
HETATM    6  F7  UNL     1     -42.914   7.791   1.174  1.00 20.00    -0.181 F 
HETATM    7 CL9  UNL     1     -41.399   9.600   0.168  1.00 20.00    -0.042 Cl
ENDBRANCH   1   4
BRANCH   1   8
HETATM    8  C3  UNL     1     -41.890   5.553  -0.729  1.00 20.00     0.328 C 
HETATM    9  F8  UNL     1     -40.629   5.082  -0.919  1.00 20.00    -0.200 F 
HETATM   10 CL10 UNL     1     -42.967   4.785  -1.921  1.00 20.00    -0.059 Cl
HETATM   11 CL11 UNL     1     -42.411   5.057   0.909  1.00 20.00    -0.059 Cl
ENDBRANCH   1   8
TORSDOF 2
ENDMDL
MODEL 3
REMARK VINA RESULT:      -4.7      8.705      9.454
REMARK  2 active torsions:
REMARK  status: ('A' for Active; 'I' for Inactive)
REMARK    1  A    between atoms: C1_1  and  C2_2 
REMARK    2  A    between atoms: C1_1  and  C3_3 
ROOT
HETATM    1  C1  UNL     1     -42.103   7.172   0.363  1.00 20.00     0.386 C 
HETATM    2  F4  UNL     1     -42.988   7.317   1.392  1.00 20.00    -0.191 F 
HETATM    3  F5  UNL     1     -40.877   7.035   0.948  1.00 20.00    -0.191 F 
ENDROOT
BRANCH   1   4
HETATM    4  C2  UNL     1     -42.099   8.478  -0.422  1.00 20.00     0.390 C 
HETATM    5  F6  UNL     1     -43.388   8.873  -0.599  1.00 20.00    -0.181 F 
HETATM    6  F7  UNL     1     -41.591   8.284  -1.664  1.00 20.00    -0.181 F 
HETATM    7 CL9  UNL     1     -41.214   9.784   0.383  1.00 20.00    -0.042 Cl
ENDBRANCH   1   4
BRANCH   1   8
HETATM    8  C3  UNL     1     -42.429   5.880  -0.388  1.00 20.00     0.328 C 
HETATM    9  F8  UNL     1     -43.289   6.149  -1.407  1.00 20.00    -0.200 F 
HETATM   10 CL10 UNL     1     -43.167   4.649   0.665  1.00 20.00    -0.059 Cl
HETATM   11 CL11 UNL     1     -40.940   5.195  -1.105  1.00 20.00    -0.059 Cl
ENDBRANCH   1   8
TORSDOF 2
ENDMDL
MODEL 4
REMARK VINA RESULT:      -4.7      8.862      9.721
REMARK  2 active torsions:
REMARK  status: ('A' for Active; 'I' for Inactive)
REMARK    1  A    between atoms: C1_1  and  C2_2 
REMARK    2  A    between atoms: C1_1  and  C3_3 
ROOT
HETATM    1  C1  UNL     1     -42.259   7.345  -0.967  1.00 20.00     0.386 C 
HETATM    2  F4  UNL     1     -41.215   7.699  -1.772  1.00 20.00    -0.191 F 
HETATM    3  F5  UNL     1     -43.364   7.928  -1.517  1.00 20.00    -0.191 F 
ENDROOT
BRANCH   1   4
HETATM    4  C2  UNL     1     -42.024   7.988   0.394  1.00 20.00     0.390 C 
HETATM    5  F6  UNL     1     -41.137   7.219   1.083  1.00 20.00    -0.181 F 
HETATM    6  F7  UNL     1     -43.167   7.989   1.124  1.00 20.00    -0.181 F 
HETATM    7 CL9  UNL     1     -41.382   9.636   0.296  1.00 20.00    -0.042 Cl
ENDBRANCH   1   4
BRANCH   1   8
HETATM    8  C3  UNL     1     -42.432   5.826  -1.025  1.00 20.00     0.328 C 
HETATM    9  F8  UNL     1     -43.180   5.493  -2.111  1.00 20.00    -0.200 F 
HETATM   10 CL10 UNL     1     -43.225   5.175   0.430  1.00 20.00    -0.059 Cl
HETATM   11 CL11 UNL     1     -40.838   5.034  -1.205  1.00 20.00    -0.059 Cl
ENDBRANCH   1   8
TORSDOF 2
ENDMDL
MODEL 5
REMARK VINA RESULT:      -4.6      1.193      3.472
REMARK  2 active torsions:
REMARK  status: ('A' for Active; 'I' for Inactive)
REMARK    1  A    between atoms: C1_1  and  C2_2 
REMARK    2  A    between atoms: C1_1  and  C3_3 
ROOT
HETATM    1  C1  UNL     1     -33.838   6.642   4.072  1.00 20.00     0.386 C 
HETATM    2  F4  UNL     1     -33.135   7.051   5.169  1.00 20.00    -0.191 F 
HETATM    3  F5  UNL     1     -34.707   7.657   3.792  1.00 20.00    -0.191 F 
ENDROOT
BRANCH   1   4
HETATM    4  C2  UNL     1     -34.660   5.428   4.484  1.00 20.00     0.390 C 
HETATM    5  F6  UNL     1     -34.080   4.318   3.952  1.00 20.00    -0.181 F 
HETATM    6  F7  UNL     1     -35.905   5.493   3.951  1.00 20.00    -0.181 F 
HETATM    7 CL9  UNL     1     -34.778   5.215   6.239  1.00 20.00    -0.042 Cl
ENDBRANCH   1   4
BRANCH   1   8
HETATM    8  C3  UNL     1     -32.871   6.493   2.896  1.00 20.00     0.328 C 
HETATM    9  F8  UNL     1     -31.593   6.641   3.334  1.00 20.00    -0.200 F 
HETATM   10 CL10 UNL     1     -33.173   7.689   1.612  1.00 20.00    -0.059 Cl
HETATM   11 CL11 UNL     1     -33.014   4.855   2.190  1.00 20.00    -0.059 Cl
ENDBRANCH   1   8
TORSDOF 2
ENDMDL
MODEL 6
REMARK VINA RESULT:      -4.5     16.032     17.205
REMARK  2 active torsions:
REMARK  status: ('A' for Active; 'I' for Inactive)
REMARK    1  A    between atoms: C1_1  and  C2_2 
REMARK    2  A    between atoms: C1_1  and  C3_3 
ROOT
HETATM    1  C1  UNL     1     -23.503  17.137  10.024  1.00 20.00     0.386 C 
HETATM    2  F4  UNL     1     -23.375  15.901   9.457  1.00 20.00    -0.191 F 
HETATM    3  F5  UNL     1     -24.630  17.679   9.476  1.00 20.00    -0.191 F 
ENDROOT
BRANCH   1   4
HETATM    4  C2  UNL     1     -22.316  17.974   9.567  1.00 20.00     0.390 C 
HETATM    5  F6  UNL     1     -21.397  17.996  10.570  1.00 20.00    -0.181 F 
HETATM    6  F7  UNL     1     -22.689  19.263   9.371  1.00 20.00    -0.181 F 
HETATM    7 CL9  UNL     1     -21.536  17.354   8.102  1.00 20.00    -0.042 Cl
ENDBRANCH   1   4
BRANCH   1   8
HETATM    8  C3  UNL     1     -23.729  16.967  11.528  1.00 20.00     0.328 C 
HETATM    9  F8  UNL     1     -22.534  16.790  12.152  1.00 20.00    -0.200 F 
HETATM   10 CL10 UNL     1     -24.776  15.577  11.906  1.00 20.00    -0.059 Cl
HETATM   11 CL11 UNL     1     -24.479  18.443  12.206  1.00 20.00    -0.059 Cl
ENDBRANCH   1   8
TORSDOF 2
ENDMDL
MODEL 7
REMARK VINA RESULT:      -4.5     11.281     12.154
REMARK  2 active torsions:
REMARK  status: ('A' for Active; 'I' for Inactive)
REMARK    1  A    between atoms: C1_1  and  C2_2 
REMARK    2  A    between atoms: C1_1  and  C3_3 
ROOT
HETATM    1  C1  UNL     1     -34.957  14.290  -4.035  1.00 20.00     0.386 C 
HETATM    2  F4  UNL     1     -35.226  14.867  -2.828  1.00 20.00    -0.191 F 
HETATM    3  F5  UNL     1     -35.018  12.943  -3.822  1.00 20.00    -0.191 F 
ENDROOT
BRANCH   1   4
HETATM    4  C2  UNL     1     -33.518  14.638  -4.395  1.00 20.00     0.390 C 
HETATM    5  F6  UNL     1     -33.464  14.903  -5.729  1.00 20.00    -0.181 F 
HETATM    6  F7  UNL     1     -32.705  13.571  -4.191  1.00 20.00    -0.181 F 
HETATM    7 CL9  UNL     1     -32.887  16.040  -3.516  1.00 20.00    -0.042 Cl
ENDBRANCH   1   4
BRANCH   1   8
HETATM    8  C3  UNL     1     -36.060  14.676  -5.022  1.00 20.00     0.328 C 
HETATM    9  F8  UNL     1     -35.952  13.920  -6.147  1.00 20.00    -0.200 F 
HETATM   10 CL10 UNL     1     -35.989  16.394  -5.484  1.00 20.00    -0.059 Cl
HETATM   11 CL11 UNL     1     -37.666  14.348  -4.304  1.00 20.00    -0.059 Cl
ENDBRANCH   1   8
TORSDOF 2
ENDMDL
MODEL 8
REMARK VINA RESULT:      -4.4      1.269      3.548
REMARK  2 active torsions:
REMARK  status: ('A' for Active; 'I' for Inactive)
REMARK    1  A    between atoms: C1_1  and  C2_2 
REMARK    2  A    between atoms: C1_1  and  C3_3 
ROOT
HETATM    1  C1  UNL     1     -33.479   5.622   2.931  1.00 20.00     0.386 C 
HETATM    2  F4  UNL     1     -34.068   5.236   1.761  1.00 20.00    -0.191 F 
HETATM    3  F5  UNL     1     -32.344   4.871   3.037  1.00 20.00    -0.191 F 
ENDROOT
BRANCH   1   4
HETATM    4  C2  UNL     1     -34.411   5.216   4.065  1.00 20.00     0.390 C 
HETATM    5  F6  UNL     1     -34.272   3.879   4.276  1.00 20.00    -0.181 F 
HETATM    6  F7  UNL     1     -35.706   5.407   3.709  1.00 20.00    -0.181 F 
HETATM    7 CL9  UNL     1     -34.085   6.063   5.586  1.00 20.00    -0.042 Cl
ENDBRANCH   1   4
BRANCH   1   8
HETATM    8  C3  UNL     1     -33.079   7.094   2.818  1.00 20.00     0.328 C 
HETATM    9  F8  UNL     1     -34.086   7.878   3.286  1.00 20.00    -0.200 F 
HETATM   10 CL10 UNL     1     -32.719   7.574   1.142  1.00 20.00    -0.059 Cl
HETATM   11 CL11 UNL     1     -31.634   7.414   3.823  1.00 20.00    -0.059 Cl
ENDBRANCH   1   8
TORSDOF 2
ENDMDL
MODEL 9
REMARK VINA RESULT:      -4.4     11.411     12.364
REMARK  2 active torsions:
REMARK  status: ('A' for Active; 'I' for Inactive)
REMARK    1  A    between atoms: C1_1  and  C2_2 
REMARK    2  A    between atoms: C1_1  and  C3_3 
ROOT
HETATM    1  C1  UNL     1     -34.887  15.777  -3.330  1.00 20.00     0.386 C 
HETATM    2  F4  UNL     1     -35.798  16.749  -3.632  1.00 20.00    -0.191 F 
HETATM    3  F5  UNL     1     -35.137  15.427  -2.035  1.00 20.00    -0.191 F 
ENDROOT
BRANCH   1   4
HETATM    4  C2  UNL     1     -33.506  16.417  -3.379  1.00 20.00     0.390 C 
HETATM    5  F6  UNL     1     -33.478  17.295  -4.418  1.00 20.00    -0.181 F 
HETATM    6  F7  UNL     1     -32.559  15.485  -3.648  1.00 20.00    -0.181 F 
HETATM    7 CL9  UNL     1     -33.076  17.287  -1.896  1.00 20.00    -0.042 Cl
ENDBRANCH   1   4
BRANCH   1   8
HETATM    8  C3  UNL     1     -35.151  14.562  -4.221  1.00 20.00     0.328 C 
HETATM    9  F8  UNL     1     -34.513  13.475  -3.711  1.00 20.00    -0.200 F 
HETATM   10 CL10 UNL     1     -34.595  14.812  -5.894  1.00 20.00    -0.059 Cl
HETATM   11 CL11 UNL     1     -36.901  14.194  -4.254  1.00 20.00    -0.059 Cl
ENDBRANCH   1   8
TORSDOF 2
ENDMDL
