MODEL 1
REMARK VINA RESULT:      -3.7      0.000      0.000
REMARK  1 active torsions:
REMARK  status: ('A' for Active; 'I' for Inactive)
REMARK    1  A    between atoms: C4_4  and  C5_5 
ROOT
HETATM    1  C1  UNL     1     -23.069  16.895   9.790  1.00 20.00     0.069 C 
HETATM    2  C2  UNL     1     -24.575  15.944  11.474  1.00 20.00     0.032 C 
HETATM    3  C3  UNL     1     -22.869  17.649  12.129  1.00 20.00     0.032 C 
HETATM    4  C5  UNL     1     -23.838  17.216  11.015  1.00 20.00     0.054 C 
HETATM    5  N6  UNL     1     -22.467  16.644   8.830  1.00 20.00    -0.196 NA
ENDROOT
BRANCH   4   6
HETATM    6  C4  UNL     1     -24.891  18.306  10.721  1.00 20.00     0.138 C 
HETATM    7 CL7  UNL     1     -25.745  18.893  12.175  1.00 20.00    -0.129 Cl
ENDBRANCH   4   6
TORSDOF 1
ENDMDL
MODEL 2
REMARK VINA RESULT:      -3.7     22.847     23.496
REMARK  1 active torsions:
REMARK  status: ('A' for Active; 'I' for Inactive)
REMARK    1  A    between atoms: C4_4  and  C5_5 
ROOT
HETATM    1  C1  UNL     1     -41.828   8.934   0.195  1.00 20.00     0.069 C 
HETATM    2  C2  UNL     1     -43.415   7.250   1.003  1.00 20.00     0.032 C 
HETATM    3  C3  UNL     1     -42.844   7.379  -1.426  1.00 20.00     0.032 C 
HETATM    4  C5  UNL     1     -42.285   7.539  -0.002  1.00 20.00     0.054 C 
HETATM    5  N6  UNL     1     -41.470  10.027   0.349  1.00 20.00    -0.196 NA
ENDROOT
BRANCH   4   6
HETATM    6  C4  UNL     1     -41.130   6.550   0.271  1.00 20.00     0.138 C 
HETATM    7 CL7  UNL     1     -40.847   5.389  -1.056  1.00 20.00    -0.129 Cl
ENDBRANCH   4   6
TORSDOF 1
ENDMDL
MODEL 3
REMARK VINA RESULT:      -3.6     17.995     18.529
REMARK  1 active torsions:
REMARK  status: ('A' for Active; 'I' for Inactive)
REMARK    1  A    between atoms: C4_4  and  C5_5 
ROOT
HETATM    1  C1  UNL     1     -35.351  13.830  -4.307  1.00 20.00     0.069 C 
HETATM    2  C2  UNL     1     -33.096  14.788  -4.238  1.00 20.00     0.032 C 
HETATM    3  C3  UNL     1     -35.008  16.131  -5.124  1.00 20.00     0.032 C 
HETATM    4  C5  UNL     1     -34.598  15.084  -4.074  1.00 20.00     0.054 C 
HETATM    5  N6  UNL     1     -35.942  12.848  -4.490  1.00 20.00    -0.196 NA
ENDROOT
BRANCH   4   6
HETATM    6  C4  UNL     1     -34.836  15.596  -2.636  1.00 20.00     0.138 C 
HETATM    7 CL7  UNL     1     -33.631  16.795  -2.090  1.00 20.00    -0.129 Cl
ENDBRANCH   4   6
TORSDOF 1
ENDMDL
MODEL 4
REMARK VINA RESULT:      -3.6     18.665     19.143
REMARK  1 active torsions:
REMARK  status: ('A' for Active; 'I' for Inactive)
REMARK    1  A    between atoms: C4_4  and  C5_5 
ROOT
HETATM    1  C1  UNL     1     -35.306  13.825  -4.314  1.00 20.00     0.069 C 
HETATM    2  C2  UNL     1     -34.795  15.582  -2.683  1.00 20.00     0.032 C 
HETATM    3  C3  UNL     1     -33.018  14.742  -4.227  1.00 20.00     0.032 C 
HETATM    4  C5  UNL     1     -34.518  15.063  -4.106  1.00 20.00     0.054 C 
HETATM    5  N6  UNL     1     -35.923  12.856  -4.477  1.00 20.00    -0.196 NA
ENDROOT
BRANCH   4   6
HETATM    6  C4  UNL     1     -34.950  16.152  -5.111  1.00 20.00     0.138 C 
HETATM    7 CL7  UNL     1     -34.514  15.785  -6.803  1.00 20.00    -0.129 Cl
ENDBRANCH   4   6
TORSDOF 1
ENDMDL
MODEL 5
REMARK VINA RESULT:      -3.6     22.792     23.412
REMARK  1 active torsions:
REMARK  status: ('A' for Active; 'I' for Inactive)
REMARK    1  A    between atoms: C4_4  and  C5_5 
ROOT
HETATM    1  C1  UNL     1     -41.757   9.011   0.248  1.00 20.00     0.069 C 
HETATM    2  C2  UNL     1     -42.744   7.478  -1.391  1.00 20.00     0.032 C 
HETATM    3  C3  UNL     1     -41.063   6.645   0.260  1.00 20.00     0.032 C 
HETATM    4  C5  UNL     1     -42.234   7.622   0.055  1.00 20.00     0.054 C 
HETATM    5  N6  UNL     1     -41.384  10.100   0.399  1.00 20.00    -0.196 NA
ENDROOT
BRANCH   4   6
HETATM    6  C4  UNL     1     -43.405   7.315   1.014  1.00 20.00     0.138 C 
HETATM    7 CL7  UNL     1     -43.350   5.677   1.719  1.00 20.00    -0.129 Cl
ENDBRANCH   4   6
TORSDOF 1
ENDMDL
MODEL 6
REMARK VINA RESULT:      -3.5     23.075     23.709
REMARK  1 active torsions:
REMARK  status: ('A' for Active; 'I' for Inactive)
REMARK    1  A    between atoms: C4_4  and  C5_5 
ROOT
HETATM    1  C1  UNL     1     -42.760   7.373  -1.135  1.00 20.00     0.069 C 
HETATM    2  C2  UNL     1     -42.849   5.907   0.827  1.00 20.00     0.032 C 
HETATM    3  C3  UNL     1     -41.015   5.655  -0.852  1.00 20.00     0.032 C 
HETATM    4  C5  UNL     1     -41.921   6.671  -0.136  1.00 20.00     0.054 C 
HETATM    5  N6  UNL     1     -43.417   7.924  -1.918  1.00 20.00    -0.196 NA
ENDROOT
BRANCH   4   6
HETATM    6  C4  UNL     1     -41.100   7.687   0.687  1.00 20.00     0.138 C 
HETATM    7 CL7  UNL     1     -41.448   9.391   0.284  1.00 20.00    -0.129 Cl
ENDBRANCH   4   6
TORSDOF 1
ENDMDL
MODEL 7
REMARK VINA RESULT:      -3.4      2.426      3.069
REMARK  1 active torsions:
REMARK  status: ('A' for Active; 'I' for Inactive)
REMARK    1  A    between atoms: C4_4  and  C5_5 
ROOT
HETATM    1  C1  UNL     1     -24.942  18.190  10.949  1.00 20.00     0.069 C 
HETATM    2  C2  UNL     1     -22.916  17.651  12.219  1.00 20.00     0.032 C 
HETATM    3  C3  UNL     1     -24.512  15.842  11.567  1.00 20.00     0.032 C 
HETATM    4  C5  UNL     1     -23.880  17.171  11.118  1.00 20.00     0.054 C 
HETATM    5  N6  UNL     1     -25.774  18.988  10.815  1.00 20.00    -0.196 NA
ENDROOT
BRANCH   4   6
HETATM    6  C4  UNL     1     -23.077  17.006   9.810  1.00 20.00     0.138 C 
HETATM    7 CL7  UNL     1     -22.261  18.501   9.273  1.00 20.00    -0.129 Cl
ENDBRANCH   4   6
TORSDOF 1
ENDMDL
MODEL 8
REMARK VINA RESULT:      -3.4     18.828     19.385
REMARK  1 active torsions:
REMARK  status: ('A' for Active; 'I' for Inactive)
REMARK    1  A    between atoms: C4_4  and  C5_5 
ROOT
HETATM    1  C1  UNL     1     -36.671  14.544  -4.323  1.00 20.00     0.069 C 
HETATM    2  C2  UNL     1     -35.899  16.845  -4.668  1.00 20.00     0.032 C 
HETATM    3  C3  UNL     1     -35.018  15.493  -2.759  1.00 20.00     0.032 C 
HETATM    4  C5  UNL     1     -35.487  15.429  -4.223  1.00 20.00     0.054 C 
HETATM    5  N6  UNL     1     -37.598  13.850  -4.402  1.00 20.00    -0.196 NA
ENDROOT
BRANCH   4   6
HETATM    6  C4  UNL     1     -34.363  14.935  -5.160  1.00 20.00     0.138 C 
HETATM    7 CL7  UNL     1     -32.829  14.578  -4.320  1.00 20.00    -0.129 Cl
ENDBRANCH   4   6
TORSDOF 1
ENDMDL
MODEL 9
REMARK VINA RESULT:      -3.4     18.902     19.423
REMARK  1 active torsions:
REMARK  status: ('A' for Active; 'I' for Inactive)
REMARK    1  A    between atoms: C4_4  and  C5_5 
ROOT
HETATM    1  C1  UNL     1     -35.680  13.922  -4.275  1.00 20.00     0.069 C 
HETATM    2  C2  UNL     1     -36.424  16.241  -4.547  1.00 20.00     0.032 C 
HETATM    3  C3  UNL     1     -35.001  15.595  -2.597  1.00 20.00     0.032 C 
HETATM    4  C5  UNL     1     -35.268  15.332  -4.089  1.00 20.00     0.054 C 
HETATM    5  N6  UNL     1     -36.002  12.816  -4.422  1.00 20.00    -0.196 NA
ENDROOT
BRANCH   4   6
HETATM    6  C4  UNL     1     -34.030  15.651  -4.954  1.00 20.00     0.138 C 
HETATM    7 CL7  UNL     1     -34.095  14.946  -6.593  1.00 20.00    -0.129 Cl
ENDBRANCH   4   6
TORSDOF 1
ENDMDL
