MODEL 1
REMARK VINA RESULT:      -5.2      0.000      0.000
REMARK  0 active torsions:
REMARK  status: ('A' for Active; 'I' for Inactive)
ROOT
HETATM    1  C1  UNL     1     -24.985  19.263   9.291  1.00 20.00    -0.018 C 
HETATM    2  C2  UNL     1     -24.109  16.022  11.354  1.00 20.00    -0.018 C 
HETATM    3  C3  UNL     1     -23.717  18.758   9.249  1.00 20.00    -0.078 C 
HETATM    4  C4  UNL     1     -24.852  17.010  11.932  1.00 20.00    -0.078 C 
HETATM    5  C5  UNL     1     -22.897  18.033   8.195  1.00 20.00     0.035 C 
HETATM    6  C6  UNL     1     -26.312  17.145  12.332  1.00 20.00     0.035 C 
HETATM    7  C7  UNL     1     -22.481  16.668   8.960  1.00 20.00     0.013 C 
HETATM    8  C8  UNL     1     -26.768  18.473  11.525  1.00 20.00     0.013 C 
HETATM    9  C9  UNL     1     -25.705  18.530  10.424  1.00 20.00     0.017 C 
HETATM   10  C10 UNL     1     -23.552  16.604  10.054  1.00 20.00     0.017 C 
HETATM   11  C11 UNL     1     -23.387  18.049  10.495  1.00 20.00     0.030 C 
HETATM   12  C12 UNL     1     -24.525  18.325  11.359  1.00 20.00     0.030 C 
ENDROOT
TORSDOF 0
ENDMDL
MODEL 2
REMARK VINA RESULT:      -5.2      0.041      3.989
REMARK  0 active torsions:
REMARK  status: ('A' for Active; 'I' for Inactive)
ROOT
HETATM    1  C1  UNL     1     -24.111  16.002  11.369  1.00 20.00    -0.018 C 
HETATM    2  C2  UNL     1     -24.934  19.263   9.315  1.00 20.00    -0.018 C 
HETATM    3  C3  UNL     1     -24.850  16.994  11.946  1.00 20.00    -0.078 C 
HETATM    4  C4  UNL     1     -23.672  18.745   9.283  1.00 20.00    -0.078 C 
HETATM    5  C5  UNL     1     -26.312  17.142  12.331  1.00 20.00     0.035 C 
HETATM    6  C6  UNL     1     -22.849  18.019   8.233  1.00 20.00     0.035 C 
HETATM    7  C7  UNL     1     -26.748  18.479  11.528  1.00 20.00     0.013 C 
HETATM    8  C8  UNL     1     -22.454  16.645   8.995  1.00 20.00     0.013 C 
HETATM    9  C9  UNL     1     -23.536  16.586  10.077  1.00 20.00     0.017 C 
HETATM   10  C10 UNL     1     -25.673  18.531  10.437  1.00 20.00     0.017 C 
HETATM   11  C11 UNL     1     -24.505  18.309  11.382  1.00 20.00     0.030 C 
HETATM   12  C12 UNL     1     -23.361  18.027  10.528  1.00 20.00     0.030 C 
ENDROOT
TORSDOF 0
ENDMDL
MODEL 3
REMARK VINA RESULT:      -5.1     16.361     17.457
REMARK  0 active torsions:
REMARK  status: ('A' for Active; 'I' for Inactive)
ROOT
HETATM    1  C1  UNL     1     -36.380  17.276  -2.710  1.00 20.00    -0.018 C 
HETATM    2  C2  UNL     1     -33.266  15.224  -3.983  1.00 20.00    -0.018 C 
HETATM    3  C3  UNL     1     -35.256  17.207  -1.938  1.00 20.00    -0.078 C 
HETATM    4  C4  UNL     1     -34.518  14.696  -4.105  1.00 20.00    -0.078 C 
HETATM    5  C5  UNL     1     -34.164  18.195  -1.561  1.00 20.00     0.035 C 
HETATM    6  C6  UNL     1     -35.453  14.438  -5.275  1.00 20.00     0.035 C 
HETATM    7  C7  UNL     1     -32.823  17.429  -2.048  1.00 20.00     0.013 C 
HETATM    8  C8  UNL     1     -36.784  15.250  -4.837  1.00 20.00     0.013 C 
HETATM    9  C9  UNL     1     -36.206  16.239  -3.821  1.00 20.00     0.017 C 
HETATM   10  C10 UNL     1     -33.399  16.447  -3.074  1.00 20.00     0.017 C 
HETATM   11  C11 UNL     1     -34.523  15.955  -2.179  1.00 20.00     0.030 C 
HETATM   12  C12 UNL     1     -35.411  15.199  -3.049  1.00 20.00     0.030 C 
ENDROOT
TORSDOF 0
ENDMDL
MODEL 4
REMARK VINA RESULT:      -5.1     16.492     17.619
REMARK  0 active torsions:
REMARK  status: ('A' for Active; 'I' for Inactive)
ROOT
HETATM    1  C1  UNL     1     -33.333  15.136  -4.112  1.00 20.00    -0.018 C 
HETATM    2  C2  UNL     1     -36.418  17.197  -2.785  1.00 20.00    -0.018 C 
HETATM    3  C3  UNL     1     -34.593  14.632  -4.255  1.00 20.00    -0.078 C 
HETATM    4  C4  UNL     1     -35.298  17.085  -2.013  1.00 20.00    -0.078 C 
HETATM    5  C5  UNL     1     -35.527  14.427  -5.435  1.00 20.00     0.035 C 
HETATM    6  C6  UNL     1     -34.192  18.042  -1.600  1.00 20.00     0.035 C 
HETATM    7  C7  UNL     1     -36.847  15.247  -4.978  1.00 20.00     0.013 C 
HETATM    8  C8  UNL     1     -32.861  17.270  -2.107  1.00 20.00     0.013 C 
HETATM    9  C9  UNL     1     -33.450  16.331  -3.165  1.00 20.00     0.017 C 
HETATM   10  C10 UNL     1     -36.257  16.193  -3.928  1.00 20.00     0.017 C 
HETATM   11  C11 UNL     1     -35.482  15.116  -3.188  1.00 20.00     0.030 C 
HETATM   12  C12 UNL     1     -34.586  15.828  -2.290  1.00 20.00     0.030 C 
ENDROOT
TORSDOF 0
ENDMDL
MODEL 5
REMARK VINA RESULT:      -5.0      1.280      3.244
REMARK  0 active torsions:
REMARK  status: ('A' for Active; 'I' for Inactive)
ROOT
HETATM    1  C1  UNL     1     -25.099  18.417  11.150  1.00 20.00    -0.018 C 
HETATM    2  C2  UNL     1     -22.201  18.340   8.482  1.00 20.00    -0.018 C 
HETATM    3  C3  UNL     1     -23.984  17.665  11.386  1.00 20.00    -0.078 C 
HETATM    4  C4  UNL     1     -23.499  18.237   8.072  1.00 20.00    -0.078 C 
HETATM    5  C5  UNL     1     -22.802  17.786  12.332  1.00 20.00     0.035 C 
HETATM    6  C6  UNL     1     -24.458  19.159   7.339  1.00 20.00     0.035 C 
HETATM    7  C7  UNL     1     -21.541  17.760  11.315  1.00 20.00     0.013 C 
HETATM    8  C8  UNL     1     -25.703  19.251   8.370  1.00 20.00     0.013 C 
HETATM    9  C9  UNL     1     -25.029  18.846   9.684  1.00 20.00     0.017 C 
HETATM   10  C10 UNL     1     -22.213  18.177  10.003  1.00 20.00     0.017 C 
HETATM   11  C11 UNL     1     -23.376  17.209  10.126  1.00 20.00     0.030 C 
HETATM   12  C12 UNL     1     -24.336  17.620   9.113  1.00 20.00     0.030 C 
ENDROOT
TORSDOF 0
ENDMDL
MODEL 6
REMARK VINA RESULT:      -5.0     13.550     14.868
REMARK  0 active torsions:
REMARK  status: ('A' for Active; 'I' for Inactive)
ROOT
HETATM    1  C1  UNL     1     -31.921  18.237  -1.343  1.00 20.00    -0.018 C 
HETATM    2  C2  UNL     1     -35.414  17.039   0.033  1.00 20.00    -0.018 C 
HETATM    3  C3  UNL     1     -32.557  18.972  -0.385  1.00 20.00    -0.078 C 
HETATM    4  C4  UNL     1     -35.170  17.007  -1.309  1.00 20.00    -0.078 C 
HETATM    5  C5  UNL     1     -32.316  19.224   1.094  1.00 20.00     0.035 C 
HETATM    6  C6  UNL     1     -34.932  15.897  -2.319  1.00 20.00     0.035 C 
HETATM    7  C7  UNL     1     -33.719  18.759   1.757  1.00 20.00     0.013 C 
HETATM    8  C8  UNL     1     -33.499  16.308  -2.952  1.00 20.00     0.013 C 
HETATM    9  C9  UNL     1     -32.939  17.215  -1.851  1.00 20.00     0.017 C 
HETATM   10  C10 UNL     1     -34.273  17.843   0.661  1.00 20.00     0.017 C 
HETATM   11  C11 UNL     1     -34.017  18.815  -0.478  1.00 20.00     0.030 C 
HETATM   12  C12 UNL     1     -34.203  18.045  -1.698  1.00 20.00     0.030 C 
ENDROOT
TORSDOF 0
ENDMDL
MODEL 7
REMARK VINA RESULT:      -4.9     13.680     14.890
REMARK  0 active torsions:
REMARK  status: ('A' for Active; 'I' for Inactive)
ROOT
HETATM    1  C1  UNL     1     -35.455  16.990  -0.141  1.00 20.00    -0.018 C 
HETATM    2  C2  UNL     1     -31.948  18.234  -1.438  1.00 20.00    -0.018 C 
HETATM    3  C3  UNL     1     -35.171  16.934  -1.475  1.00 20.00    -0.078 C 
HETATM    4  C4  UNL     1     -32.628  18.974  -0.515  1.00 20.00    -0.078 C 
HETATM    5  C5  UNL     1     -34.879  15.809  -2.453  1.00 20.00     0.035 C 
HETATM    6  C6  UNL     1     -32.438  19.263   0.964  1.00 20.00     0.035 C 
HETATM    7  C7  UNL     1     -33.435  16.237  -3.052  1.00 20.00     0.013 C 
HETATM    8  C8  UNL     1     -33.851  18.781   1.593  1.00 20.00     0.013 C 
HETATM    9  C9  UNL     1     -34.352  17.831   0.502  1.00 20.00     0.017 C 
HETATM   10  C10 UNL     1     -32.929  17.179  -1.954  1.00 20.00     0.017 C 
HETATM   11  C11 UNL     1     -34.213  17.984  -1.857  1.00 20.00     0.030 C 
HETATM   12  C12 UNL     1     -34.081  18.785  -0.649  1.00 20.00     0.030 C 
ENDROOT
TORSDOF 0
ENDMDL
MODEL 8
REMARK VINA RESULT:      -4.9     16.659     17.759
REMARK  0 active torsions:
REMARK  status: ('A' for Active; 'I' for Inactive)
ROOT
HETATM    1  C1  UNL     1     -34.141  16.495  -5.772  1.00 20.00    -0.018 C 
HETATM    2  C2  UNL     1     -35.092  15.905  -1.994  1.00 20.00    -0.018 C 
HETATM    3  C3  UNL     1     -34.623  15.280  -5.380  1.00 20.00    -0.078 C 
HETATM    4  C4  UNL     1     -33.930  16.550  -2.305  1.00 20.00    -0.078 C 
HETATM    5  C5  UNL     1     -35.932  14.538  -5.588  1.00 20.00     0.035 C 
HETATM    6  C6  UNL     1     -33.451  17.988  -2.196  1.00 20.00     0.035 C 
HETATM    7  C7  UNL     1     -36.408  14.243  -4.069  1.00 20.00     0.013 C 
HETATM    8  C8  UNL     1     -33.028  18.327  -3.723  1.00 20.00     0.013 C 
HETATM    9  C9  UNL     1     -33.828  17.271  -4.492  1.00 20.00     0.017 C 
HETATM   10  C10 UNL     1     -35.617  15.307  -3.300  1.00 20.00     0.017 C 
HETATM   11  C11 UNL     1     -34.289  15.007  -3.973  1.00 20.00     0.030 C 
HETATM   12  C12 UNL     1     -33.410  16.107  -3.608  1.00 20.00     0.030 C 
ENDROOT
TORSDOF 0
ENDMDL
MODEL 9
REMARK VINA RESULT:      -4.9     16.705     17.850
REMARK  0 active torsions:
REMARK  status: ('A' for Active; 'I' for Inactive)
ROOT
HETATM    1  C1  UNL     1     -35.151  15.882  -2.024  1.00 20.00    -0.018 C 
HETATM    2  C2  UNL     1     -34.172  16.513  -5.789  1.00 20.00    -0.018 C 
HETATM    3  C3  UNL     1     -33.978  16.515  -2.319  1.00 20.00    -0.078 C 
HETATM    4  C4  UNL     1     -34.672  15.299  -5.416  1.00 20.00    -0.078 C 
HETATM    5  C5  UNL     1     -33.480  17.944  -2.188  1.00 20.00     0.035 C 
HETATM    6  C6  UNL     1     -35.990  14.579  -5.642  1.00 20.00     0.035 C 
HETATM    7  C7  UNL     1     -33.044  18.300  -3.706  1.00 20.00     0.013 C 
HETATM    8  C8  UNL     1     -36.478  14.268  -4.129  1.00 20.00     0.013 C 
HETATM    9  C9  UNL     1     -35.677  15.310  -3.341  1.00 20.00     0.017 C 
HETATM   10  C10 UNL     1     -33.854  17.266  -4.495  1.00 20.00     0.017 C 
HETATM   11  C11 UNL     1     -33.458  16.085  -3.626  1.00 20.00     0.030 C 
HETATM   12  C12 UNL     1     -34.349  15.001  -4.012  1.00 20.00     0.030 C 
ENDROOT
TORSDOF 0
ENDMDL
