MODEL 1
REMARK VINA RESULT:      -5.1      0.000      0.000
REMARK  1 active torsions:
REMARK  status: ('A' for Active; 'I' for Inactive)
REMARK    1  A    between atoms: C1_1  and  C2_2 
ROOT
HETATM    1  C2  UNL     1     -34.756   5.243   4.342  1.00 20.00     0.363 C 
HETATM    2  F4  UNL     1     -34.511   3.916   4.206  1.00 20.00    -0.183 F 
HETATM    3  F5  UNL     1     -36.017   5.452   3.879  1.00 20.00    -0.183 F 
HETATM    4 CL7  UNL     1     -33.620   6.169   3.346  1.00 20.00    -0.044 Cl
ENDROOT
BRANCH   1   5
HETATM    5  C1  UNL     1     -34.706   5.633   5.808  1.00 20.00     0.353 C 
HETATM    6  F3  UNL     1     -34.160   4.596   6.502  1.00 20.00    -0.225 F 
HETATM    7 CL6  UNL     1     -33.711   7.077   6.095  1.00 20.00    -0.082 Cl
ENDBRANCH   1   5
TORSDOF 1
ENDMDL
MODEL 2
REMARK VINA RESULT:      -5.0      1.576      2.598
REMARK  1 active torsions:
REMARK  status: ('A' for Active; 'I' for Inactive)
REMARK    1  A    between atoms: C1_1  and  C2_2 
ROOT
HETATM    1  C2  UNL     1     -34.794   5.366   4.452  1.00 20.00     0.363 C 
HETATM    2  F4  UNL     1     -36.083   5.511   4.055  1.00 20.00    -0.183 F 
HETATM    3  F5  UNL     1     -34.337   4.225   3.869  1.00 20.00    -0.183 F 
HETATM    4 CL7  UNL     1     -34.725   5.175   6.212  1.00 20.00    -0.044 Cl
ENDROOT
BRANCH   1   5
HETATM    5  C1  UNL     1     -33.962   6.532   3.954  1.00 20.00     0.353 C 
HETATM    6  F3  UNL     1     -33.204   6.984   4.993  1.00 20.00    -0.225 F 
HETATM    7 CL6  UNL     1     -32.871   6.075   2.629  1.00 20.00    -0.082 Cl
ENDBRANCH   1   5
TORSDOF 1
ENDMDL
MODEL 3
REMARK VINA RESULT:      -5.0      1.607      2.045
REMARK  1 active torsions:
REMARK  status: ('A' for Active; 'I' for Inactive)
REMARK    1  A    between atoms: C1_1  and  C2_2 
ROOT
HETATM    1  C2  UNL     1     -34.916   5.387   4.688  1.00 20.00     0.363 C 
HETATM    2  F4  UNL     1     -35.143   5.130   6.001  1.00 20.00    -0.183 F 
HETATM    3  F5  UNL     1     -36.136   5.565   4.114  1.00 20.00    -0.183 F 
HETATM    4 CL7  UNL     1     -34.126   3.993   3.931  1.00 20.00    -0.044 Cl
ENDROOT
BRANCH   1   5
HETATM    5  C1  UNL     1     -34.117   6.668   4.540  1.00 20.00     0.353 C 
HETATM    6  F3  UNL     1     -33.409   6.858   5.689  1.00 20.00    -0.225 F 
HETATM    7 CL6  UNL     1     -32.969   6.603   3.186  1.00 20.00    -0.082 Cl
ENDBRANCH   1   5
TORSDOF 1
ENDMDL
MODEL 4
REMARK VINA RESULT:      -4.5      0.841      2.563
REMARK  1 active torsions:
REMARK  status: ('A' for Active; 'I' for Inactive)
REMARK    1  A    between atoms: C1_1  and  C2_2 
ROOT
HETATM    1  C2  UNL     1     -34.725   5.460   4.959  1.00 20.00     0.363 C 
HETATM    2  F4  UNL     1     -35.856   5.769   4.275  1.00 20.00    -0.183 F 
HETATM    3  F5  UNL     1     -35.103   4.654   5.986  1.00 20.00    -0.183 F 
HETATM    4 CL7  UNL     1     -34.004   6.935   5.625  1.00 20.00    -0.044 Cl
ENDROOT
BRANCH   1   5
HETATM    5  C1  UNL     1     -33.771   4.692   4.064  1.00 20.00     0.353 C 
HETATM    6  F3  UNL     1     -34.388   3.540   3.680  1.00 20.00    -0.225 F 
HETATM    7 CL6  UNL     1     -33.327   5.598   2.602  1.00 20.00    -0.082 Cl
ENDBRANCH   1   5
TORSDOF 1
ENDMDL
MODEL 5
REMARK VINA RESULT:      -4.4      1.576      2.760
REMARK  1 active torsions:
REMARK  status: ('A' for Active; 'I' for Inactive)
REMARK    1  A    between atoms: C1_1  and  C2_2 
ROOT
HETATM    1  C2  UNL     1     -34.686   5.696   4.507  1.00 20.00     0.363 C 
HETATM    2  F4  UNL     1     -34.336   6.972   4.206  1.00 20.00    -0.183 F 
HETATM    3  F5  UNL     1     -35.942   5.515   4.017  1.00 20.00    -0.183 F 
HETATM    4 CL7  UNL     1     -34.722   5.482   6.265  1.00 20.00    -0.044 Cl
ENDROOT
BRANCH   1   5
HETATM    5  C1  UNL     1     -33.749   4.724   3.815  1.00 20.00     0.353 C 
HETATM    6  F3  UNL     1     -34.401   3.535   3.677  1.00 20.00    -0.225 F 
HETATM    7 CL6  UNL     1     -33.262   5.279   2.200  1.00 20.00    -0.082 Cl
ENDBRANCH   1   5
TORSDOF 1
ENDMDL
MODEL 6
REMARK VINA RESULT:      -4.3      1.852      2.186
REMARK  1 active torsions:
REMARK  status: ('A' for Active; 'I' for Inactive)
REMARK    1  A    between atoms: C1_1  and  C2_2 
ROOT
HETATM    1  C2  UNL     1     -33.448   5.382   2.743  1.00 20.00     0.363 C 
HETATM    2  F4  UNL     1     -32.573   4.356   2.596  1.00 20.00    -0.183 F 
HETATM    3  F5  UNL     1     -34.114   5.493   1.562  1.00 20.00    -0.183 F 
HETATM    4 CL7  UNL     1     -32.564   6.887   3.044  1.00 20.00    -0.044 Cl
ENDROOT
BRANCH   1   5
HETATM    5  C1  UNL     1     -34.449   5.059   3.836  1.00 20.00     0.353 C 
HETATM    6  F3  UNL     1     -34.207   3.789   4.268  1.00 20.00    -0.225 F 
HETATM    7 CL6  UNL     1     -34.313   6.153   5.229  1.00 20.00    -0.082 Cl
ENDBRANCH   1   5
TORSDOF 1
ENDMDL
MODEL 7
REMARK VINA RESULT:      -4.1      2.726      3.081
REMARK  1 active torsions:
REMARK  status: ('A' for Active; 'I' for Inactive)
REMARK    1  A    between atoms: C1_1  and  C2_2 
ROOT
HETATM    1  C2  UNL     1     -32.676   6.841   2.962  1.00 20.00     0.363 C 
HETATM    2  F4  UNL     1     -31.667   7.333   3.724  1.00 20.00    -0.183 F 
HETATM    3  F5  UNL     1     -32.285   5.602   2.559  1.00 20.00    -0.183 F 
HETATM    4 CL7  UNL     1     -32.901   7.862   1.531  1.00 20.00    -0.044 Cl
ENDROOT
BRANCH   1   5
HETATM    5  C1  UNL     1     -33.938   6.707   3.792  1.00 20.00     0.353 C 
HETATM    6  F3  UNL     1     -34.428   5.448   3.614  1.00 20.00    -0.225 F 
HETATM    7 CL6  UNL     1     -33.641   6.945   5.528  1.00 20.00    -0.082 Cl
ENDBRANCH   1   5
TORSDOF 1
ENDMDL
MODEL 8
REMARK VINA RESULT:      -4.1      1.807      2.441
REMARK  1 active torsions:
REMARK  status: ('A' for Active; 'I' for Inactive)
REMARK    1  A    between atoms: C1_1  and  C2_2 
ROOT
HETATM    1  C2  UNL     1     -33.883   6.378   3.949  1.00 20.00     0.363 C 
HETATM    2  F4  UNL     1     -34.609   7.463   3.580  1.00 20.00    -0.183 F 
HETATM    3  F5  UNL     1     -33.087   6.778   4.976  1.00 20.00    -0.183 F 
HETATM    4 CL7  UNL     1     -32.858   5.856   2.601  1.00 20.00    -0.044 Cl
ENDROOT
BRANCH   1   5
HETATM    5  C1  UNL     1     -34.804   5.280   4.446  1.00 20.00     0.353 C 
HETATM    6  F3  UNL     1     -34.356   4.094   3.947  1.00 20.00    -0.225 F 
HETATM    7 CL6  UNL     1     -34.829   5.162   6.219  1.00 20.00    -0.082 Cl
ENDBRANCH   1   5
TORSDOF 1
ENDMDL
MODEL 9
REMARK VINA RESULT:      -4.0      2.238      3.146
REMARK  1 active torsions:
REMARK  status: ('A' for Active; 'I' for Inactive)
REMARK    1  A    between atoms: C1_1  and  C2_2 
ROOT
HETATM    1  C2  UNL     1     -33.938   6.315   4.250  1.00 20.00     0.363 C 
HETATM    2  F4  UNL     1     -33.216   6.893   5.243  1.00 20.00    -0.183 F 
HETATM    3  F5  UNL     1     -34.834   7.248   3.831  1.00 20.00    -0.183 F 
HETATM    4 CL7  UNL     1     -34.823   4.918   4.886  1.00 20.00    -0.044 Cl
ENDROOT
BRANCH   1   5
HETATM    5  C1  UNL     1     -33.030   5.957   3.089  1.00 20.00     0.353 C 
HETATM    6  F3  UNL     1     -33.719   5.129   2.254  1.00 20.00    -0.225 F 
HETATM    7 CL6  UNL     1     -32.517   7.381   2.159  1.00 20.00    -0.082 Cl
ENDBRANCH   1   5
TORSDOF 1
ENDMDL
