MODEL 1
REMARK VINA RESULT:      -4.2      0.000      0.000
REMARK  1 active torsions:
REMARK  status: ('A' for Active; 'I' for Inactive)
REMARK    1  A    between atoms: C4_4  and  C5_5 
ROOT
HETATM    1  C1  UNL     1     -32.903   6.465   2.578  1.00 20.00     0.059 C 
HETATM    2  C5  UNL     1     -33.615   5.298   3.088  1.00 20.00     0.132 C 
HETATM    3  N6  UNL     1     -32.326   7.380   2.157  1.00 20.00    -0.197 NA
ENDROOT
BRANCH   2   4
HETATM    4  C4  UNL     1     -34.544   5.848   4.150  1.00 20.00     0.046 C 
HETATM    5  C2  UNL     1     -33.899   6.683   5.262  1.00 20.00     0.175 C 
HETATM    6  O7  UNL     1     -34.511   5.862   6.285  1.00 20.00    -0.390 OA
HETATM    7  C3  UNL     1     -34.928   4.897   5.288  1.00 20.00     0.175 C 
ENDBRANCH   2   4
TORSDOF 1
ENDMDL
MODEL 2
REMARK VINA RESULT:      -3.7      1.122      1.564
REMARK  1 active torsions:
REMARK  status: ('A' for Active; 'I' for Inactive)
REMARK    1  A    between atoms: C4_4  and  C5_5 
ROOT
HETATM    1  C1  UNL     1     -32.742   7.156   3.185  1.00 20.00     0.059 C 
HETATM    2  C5  UNL     1     -33.164   7.057   4.578  1.00 20.00     0.132 C 
HETATM    3  N6  UNL     1     -32.388   7.246   2.082  1.00 20.00    -0.197 NA
ENDROOT
BRANCH   2   4
HETATM    4  C4  UNL     1     -34.449   6.257   4.535  1.00 20.00     0.046 C 
HETATM    5  C2  UNL     1     -34.727   5.337   5.728  1.00 20.00     0.175 C 
HETATM    6  O7  UNL     1     -34.927   4.201   4.854  1.00 20.00    -0.390 OA
HETATM    7  C3  UNL     1     -34.423   4.956   3.726  1.00 20.00     0.175 C 
ENDBRANCH   2   4
TORSDOF 1
ENDMDL
MODEL 3
REMARK VINA RESULT:      -3.7     11.861     12.192
REMARK  1 active torsions:
REMARK  status: ('A' for Active; 'I' for Inactive)
REMARK    1  A    between atoms: C4_4  and  C5_5 
ROOT
HETATM    1  C1  UNL     1     -36.466  14.003  -4.277  1.00 20.00     0.059 C 
HETATM    2  C5  UNL     1     -35.025  14.069  -4.054  1.00 20.00     0.132 C 
HETATM    3  N6  UNL     1     -37.610  13.929  -4.458  1.00 20.00    -0.197 NA
ENDROOT
BRANCH   2   4
HETATM    4  C4  UNL     1     -34.755  15.518  -3.707  1.00 20.00     0.046 C 
HETATM    5  C2  UNL     1     -33.298  15.897  -3.424  1.00 20.00     0.175 C 
HETATM    6  O7  UNL     1     -33.659  16.490  -2.154  1.00 20.00    -0.390 OA
HETATM    7  C3  UNL     1     -34.992  15.931  -2.250  1.00 20.00     0.175 C 
ENDBRANCH   2   4
TORSDOF 1
ENDMDL
MODEL 4
REMARK VINA RESULT:      -3.7     11.876     12.216
REMARK  1 active torsions:
REMARK  status: ('A' for Active; 'I' for Inactive)
REMARK    1  A    between atoms: C4_4  and  C5_5 
ROOT
HETATM    1  C1  UNL     1     -35.845  13.943  -4.246  1.00 20.00     0.059 C 
HETATM    2  C5  UNL     1     -35.773  15.321  -3.770  1.00 20.00     0.132 C 
HETATM    3  N6  UNL     1     -35.921  12.852  -4.636  1.00 20.00    -0.197 NA
ENDROOT
BRANCH   2   4
HETATM    4  C4  UNL     1     -34.537  15.361  -2.895  1.00 20.00     0.046 C 
HETATM    5  C2  UNL     1     -34.360  16.601  -2.013  1.00 20.00     0.175 C 
HETATM    6  O7  UNL     1     -33.026  16.825  -2.531  1.00 20.00    -0.390 OA
HETATM    7  C3  UNL     1     -33.238  15.828  -3.560  1.00 20.00     0.175 C 
ENDBRANCH   2   4
TORSDOF 1
ENDMDL
MODEL 5
REMARK VINA RESULT:      -3.6      9.179      9.592
REMARK  1 active torsions:
REMARK  status: ('A' for Active; 'I' for Inactive)
REMARK    1  A    between atoms: C4_4  and  C5_5 
ROOT
HETATM    1  C1  UNL     1     -41.466   8.949   0.403  1.00 20.00     0.059 C 
HETATM    2  C5  UNL     1     -41.317   7.510   0.593  1.00 20.00     0.132 C 
HETATM    3  N6  UNL     1     -41.581  10.098   0.274  1.00 20.00    -0.197 NA
ENDROOT
BRANCH   2   4
HETATM    4  C4  UNL     1     -41.458   6.923  -0.796  1.00 20.00     0.046 C 
HETATM    5  C2  UNL     1     -42.832   6.354  -1.165  1.00 20.00     0.175 C 
HETATM    6  O7  UNL     1     -42.245   5.089  -1.556  1.00 20.00    -0.390 OA
HETATM    7  C3  UNL     1     -40.973   5.481  -0.985  1.00 20.00     0.175 C 
ENDBRANCH   2   4
TORSDOF 1
ENDMDL
MODEL 6
REMARK VINA RESULT:      -3.6     16.343     17.036
REMARK  1 active torsions:
REMARK  status: ('A' for Active; 'I' for Inactive)
REMARK    1  A    between atoms: C4_4  and  C5_5 
ROOT
HETATM    1  C1  UNL     1     -21.561  17.389   8.243  1.00 20.00     0.059 C 
HETATM    2  C5  UNL     1     -21.293  17.904   9.581  1.00 20.00     0.132 C 
HETATM    3  N6  UNL     1     -21.752  16.978   7.173  1.00 20.00    -0.197 NA
ENDROOT
BRANCH   2   4
HETATM    4  C4  UNL     1     -22.652  17.975  10.245  1.00 20.00     0.046 C 
HETATM    5  C2  UNL     1     -22.697  17.696  11.751  1.00 20.00     0.175 C 
HETATM    6  O7  UNL     1     -23.722  16.690  11.572  1.00 20.00    -0.390 OA
HETATM    7  C3  UNL     1     -23.536  16.729  10.136  1.00 20.00     0.175 C 
ENDBRANCH   2   4
TORSDOF 1
ENDMDL
MODEL 7
REMARK VINA RESULT:      -3.5      2.345      3.219
REMARK  1 active torsions:
REMARK  status: ('A' for Active; 'I' for Inactive)
REMARK    1  A    between atoms: C4_4  and  C5_5 
ROOT
HETATM    1  C1  UNL     1     -34.194   6.407   6.012  1.00 20.00     0.059 C 
HETATM    2  C5  UNL     1     -34.867   5.149   5.706  1.00 20.00     0.132 C 
HETATM    3  N6  UNL     1     -33.661   7.404   6.278  1.00 20.00    -0.197 NA
ENDROOT
BRANCH   2   4
HETATM    4  C4  UNL     1     -34.879   5.078   4.193  1.00 20.00     0.046 C 
HETATM    5  C2  UNL     1     -34.069   3.946   3.551  1.00 20.00     0.175 C 
HETATM    6  O7  UNL     1     -33.359   4.883   2.706  1.00 20.00    -0.390 OA
HETATM    7  C3  UNL     1     -33.902   5.999   3.454  1.00 20.00     0.175 C 
ENDBRANCH   2   4
TORSDOF 1
ENDMDL
MODEL 8
REMARK VINA RESULT:      -3.4      9.194      9.534
REMARK  1 active torsions:
REMARK  status: ('A' for Active; 'I' for Inactive)
REMARK    1  A    between atoms: C4_4  and  C5_5 
ROOT
HETATM    1  C1  UNL     1     -40.989   5.732  -0.692  1.00 20.00     0.059 C 
HETATM    2  C5  UNL     1     -41.147   6.770   0.321  1.00 20.00     0.132 C 
HETATM    3  N6  UNL     1     -40.860   4.891  -1.482  1.00 20.00    -0.197 NA
ENDROOT
BRANCH   2   4
HETATM    4  C4  UNL     1     -41.495   8.020  -0.460  1.00 20.00     0.046 C 
HETATM    5  C2  UNL     1     -41.510   9.338   0.322  1.00 20.00     0.175 C 
HETATM    6  O7  UNL     1     -42.849   9.640  -0.140  1.00 20.00    -0.390 OA
HETATM    7  C3  UNL     1     -42.985   8.302  -0.678  1.00 20.00     0.175 C 
ENDBRANCH   2   4
TORSDOF 1
ENDMDL
MODEL 9
REMARK VINA RESULT:      -3.4      2.759      3.648
REMARK  1 active torsions:
REMARK  status: ('A' for Active; 'I' for Inactive)
REMARK    1  A    between atoms: C4_4  and  C5_5 
ROOT
HETATM    1  C1  UNL     1     -34.431   5.843   5.901  1.00 20.00     0.059 C 
HETATM    2  C5  UNL     1     -33.648   6.915   5.294  1.00 20.00     0.132 C 
HETATM    3  N6  UNL     1     -35.049   4.998   6.403  1.00 20.00    -0.197 NA
ENDROOT
BRANCH   2   4
HETATM    4  C4  UNL     1     -33.832   6.728   3.803  1.00 20.00     0.046 C 
HETATM    5  C2  UNL     1     -33.864   5.285   3.289  1.00 20.00     0.175 C 
HETATM    6  O7  UNL     1     -32.827   5.567   2.319  1.00 20.00    -0.390 OA
HETATM    7  C3  UNL     1     -32.575   6.854   2.934  1.00 20.00     0.175 C 
ENDBRANCH   2   4
TORSDOF 1
ENDMDL
