MODEL 1
REMARK VINA RESULT:      -4.2      0.000      0.000
REMARK  1 active torsions:
REMARK  status: ('A' for Active; 'I' for Inactive)
REMARK    1  A    between atoms: C2_2  and  C6_6 
ROOT
HETATM    1  C1  UNL     1     -24.680  19.126   7.559  1.00 20.00     0.167 A 
HETATM    2  C2  UNL     1     -23.700  18.351   9.619  1.00 20.00     0.024 A 
HETATM    3  C3  UNL     1     -22.971  18.102   8.475  1.00 20.00     0.116 A 
HETATM    4  N7  UNL     1     -23.531  18.546   7.293  1.00 20.00    -0.245 NA
HETATM    5  S8  UNL     1     -25.148  19.175   9.210  1.00 20.00    -0.084 SA
HETATM    6 BR9  UNL     1     -21.293  17.213   8.450  1.00 20.00    -0.028 Br
ENDROOT
BRANCH   2   7
HETATM    7  C6  UNL     1     -23.311  17.968  11.057  1.00 20.00     0.028 A 
HETATM    8  C4  UNL     1     -23.775  16.636  11.600  1.00 20.00     0.010 A 
HETATM    9  C5  UNL     1     -24.395  17.901  12.106  1.00 20.00     0.010 A 
ENDBRANCH   2   7
TORSDOF 1
ENDMDL
MODEL 2
REMARK VINA RESULT:      -3.8      2.159      2.537
REMARK  1 active torsions:
REMARK  status: ('A' for Active; 'I' for Inactive)
REMARK    1  A    between atoms: C2_2  and  C6_6 
ROOT
HETATM    1  C1  UNL     1     -23.665  18.510   8.560  1.00 20.00     0.167 A 
HETATM    2  C2  UNL     1     -24.776  18.632  10.694  1.00 20.00     0.024 A 
HETATM    3  C3  UNL     1     -23.474  18.175  10.718  1.00 20.00     0.116 A 
HETATM    4  N7  UNL     1     -22.836  18.104   9.495  1.00 20.00    -0.245 NA
HETATM    5  S8  UNL     1     -25.228  18.992   9.080  1.00 20.00    -0.084 SA
HETATM    6 BR9  UNL     1     -22.552  17.659  12.296  1.00 20.00    -0.028 Br
ENDROOT
BRANCH   2   7
HETATM    7  C6  UNL     1     -25.708  18.807  11.904  1.00 20.00     0.028 A 
HETATM    8  C4  UNL     1     -26.604  17.655  12.299  1.00 20.00     0.010 A 
HETATM    9  C5  UNL     1     -27.198  18.874  11.665  1.00 20.00     0.010 A 
ENDBRANCH   2   7
TORSDOF 1
ENDMDL
MODEL 3
REMARK VINA RESULT:      -3.8      2.749      3.704
REMARK  1 active torsions:
REMARK  status: ('A' for Active; 'I' for Inactive)
REMARK    1  A    between atoms: C2_2  and  C6_6 
ROOT
HETATM    1  C1  UNL     1     -24.876  17.961  12.193  1.00 20.00     0.167 A 
HETATM    2  C2  UNL     1     -23.512  18.313  10.239  1.00 20.00     0.024 A 
HETATM    3  C3  UNL     1     -24.852  18.605  10.098  1.00 20.00     0.116 A 
HETATM    4  N7  UNL     1     -25.636  18.404  11.217  1.00 20.00    -0.245 NA
HETATM    5  S8  UNL     1     -23.209  17.764  11.835  1.00 20.00    -0.084 SA
HETATM    6 BR9  UNL     1     -25.642  19.251   8.496  1.00 20.00    -0.028 Br
ENDROOT
BRANCH   2   7
HETATM    7  C6  UNL     1     -22.425  18.447   9.160  1.00 20.00     0.028 A 
HETATM    8  C4  UNL     1     -22.344  17.391   8.082  1.00 20.00     0.010 A 
HETATM    9  C5  UNL     1     -21.293  17.448   9.145  1.00 20.00     0.010 A 
ENDBRANCH   2   7
TORSDOF 1
ENDMDL
MODEL 4
REMARK VINA RESULT:      -3.7      2.190      2.456
REMARK  1 active torsions:
REMARK  status: ('A' for Active; 'I' for Inactive)
REMARK    1  A    between atoms: C2_2  and  C6_6 
ROOT
HETATM    1  C1  UNL     1     -22.149  17.740   8.138  1.00 20.00     0.167 A 
HETATM    2  C2  UNL     1     -23.953  18.041   9.707  1.00 20.00     0.024 A 
HETATM    3  C3  UNL     1     -24.198  18.471   8.419  1.00 20.00     0.116 A 
HETATM    4  N7  UNL     1     -23.165  18.299   7.518  1.00 20.00    -0.245 NA
HETATM    5  S8  UNL     1     -22.368  17.393   9.804  1.00 20.00    -0.084 SA
HETATM    6 BR9  UNL     1     -25.829  19.255   7.846  1.00 20.00    -0.028 Br
ENDROOT
BRANCH   2   7
HETATM    7  C6  UNL     1     -24.923  18.112  10.897  1.00 20.00     0.028 A 
HETATM    8  C4  UNL     1     -24.350  18.138  12.296  1.00 20.00     0.010 A 
HETATM    9  C5  UNL     1     -25.047  16.909  11.802  1.00 20.00     0.010 A 
ENDBRANCH   2   7
TORSDOF 1
ENDMDL
MODEL 5
REMARK VINA RESULT:      -3.7     17.771     19.056
REMARK  1 active torsions:
REMARK  status: ('A' for Active; 'I' for Inactive)
REMARK    1  A    between atoms: C2_2  and  C6_6 
ROOT
HETATM    1  C1  UNL     1     -35.472  15.179  -7.562  1.00 20.00     0.167 A 
HETATM    2  C2  UNL     1     -34.917  14.926  -5.232  1.00 20.00     0.024 A 
HETATM    3  C3  UNL     1     -36.260  14.859  -5.541  1.00 20.00     0.116 A 
HETATM    4  N7  UNL     1     -36.579  15.004  -6.877  1.00 20.00    -0.245 NA
HETATM    5  S8  UNL     1     -34.009  15.180  -6.664  1.00 20.00    -0.084 SA
HETATM    6 BR9  UNL     1     -37.639  14.584  -4.265  1.00 20.00    -0.028 Br
ENDROOT
BRANCH   2   7
HETATM    7  C6  UNL     1     -34.292  14.797  -3.833  1.00 20.00     0.028 A 
HETATM    8  C4  UNL     1     -34.459  15.941  -2.859  1.00 20.00     0.010 A 
HETATM    9  C5  UNL     1     -33.121  15.684  -3.479  1.00 20.00     0.010 A 
ENDBRANCH   2   7
TORSDOF 1
ENDMDL
MODEL 6
REMARK VINA RESULT:      -3.4     16.920     18.201
REMARK  1 active torsions:
REMARK  status: ('A' for Active; 'I' for Inactive)
REMARK    1  A    between atoms: C2_2  and  C6_6 
ROOT
HETATM    1  C1  UNL     1     -35.493  17.114  -6.564  1.00 20.00     0.167 A 
HETATM    2  C2  UNL     1     -34.777  16.174  -4.464  1.00 20.00     0.024 A 
HETATM    3  C3  UNL     1     -35.670  15.414  -5.190  1.00 20.00     0.116 A 
HETATM    4  N7  UNL     1     -36.082  15.951  -6.394  1.00 20.00    -0.245 NA
HETATM    5  S8  UNL     1     -34.431  17.622  -5.316  1.00 20.00    -0.084 SA
HETATM    6 BR9  UNL     1     -36.334  13.724  -4.634  1.00 20.00    -0.028 Br
ENDROOT
BRANCH   2   7
HETATM    7  C6  UNL     1     -34.162  15.815  -3.101  1.00 20.00     0.028 A 
HETATM    8  C4  UNL     1     -34.892  16.235  -1.847  1.00 20.00     0.010 A 
HETATM    9  C5  UNL     1     -33.625  16.928  -2.234  1.00 20.00     0.010 A 
ENDBRANCH   2   7
TORSDOF 1
ENDMDL
MODEL 7
REMARK VINA RESULT:      -3.3     16.767     17.935
REMARK  1 active torsions:
REMARK  status: ('A' for Active; 'I' for Inactive)
REMARK    1  A    between atoms: C2_2  and  C6_6 
ROOT
HETATM    1  C1  UNL     1     -37.862  17.312  -3.504  1.00 20.00     0.167 A 
HETATM    2  C2  UNL     1     -35.752  16.256  -3.017  1.00 20.00     0.024 A 
HETATM    3  C3  UNL     1     -36.603  15.548  -3.840  1.00 20.00     0.116 A 
HETATM    4  N7  UNL     1     -37.813  16.153  -4.120  1.00 20.00    -0.245 NA
HETATM    5  S8  UNL     1     -36.487  17.740  -2.570  1.00 20.00    -0.084 SA
HETATM    6 BR9  UNL     1     -36.203  13.847  -4.581  1.00 20.00    -0.028 Br
ENDROOT
BRANCH   2   7
HETATM    7  C6  UNL     1     -34.354  15.819  -2.550  1.00 20.00     0.028 A 
HETATM    8  C4  UNL     1     -33.245  16.845  -2.530  1.00 20.00     0.010 A 
HETATM    9  C5  UNL     1     -33.237  15.764  -3.565  1.00 20.00     0.010 A 
ENDBRANCH   2   7
TORSDOF 1
ENDMDL
MODEL 8
REMARK VINA RESULT:      -3.3     17.137     18.351
REMARK  1 active torsions:
REMARK  status: ('A' for Active; 'I' for Inactive)
REMARK    1  A    between atoms: C2_2  and  C6_6 
ROOT
HETATM    1  C1  UNL     1     -36.215  13.324  -4.626  1.00 20.00     0.167 A 
HETATM    2  C2  UNL     1     -35.816  15.449  -3.563  1.00 20.00     0.024 A 
HETATM    3  C3  UNL     1     -37.112  15.216  -3.974  1.00 20.00     0.116 A 
HETATM    4  N7  UNL     1     -37.342  13.998  -4.584  1.00 20.00    -0.245 NA
HETATM    5  S8  UNL     1     -34.838  14.094  -3.950  1.00 20.00    -0.084 SA
HETATM    6 BR9  UNL     1     -38.542  16.444  -3.747  1.00 20.00    -0.028 Br
ENDROOT
BRANCH   2   7
HETATM    7  C6  UNL     1     -35.289  16.712  -2.862  1.00 20.00     0.028 A 
HETATM    8  C4  UNL     1     -33.935  16.656  -2.193  1.00 20.00     0.010 A 
HETATM    9  C5  UNL     1     -35.174  16.709  -1.356  1.00 20.00     0.010 A 
ENDBRANCH   2   7
TORSDOF 1
ENDMDL
MODEL 9
REMARK VINA RESULT:      -3.2     12.071     13.689
REMARK  1 active torsions:
REMARK  status: ('A' for Active; 'I' for Inactive)
REMARK    1  A    between atoms: C2_2  and  C6_6 
ROOT
HETATM    1  C1  UNL     1     -30.722  18.423   0.787  1.00 20.00     0.167 A 
HETATM    2  C2  UNL     1     -33.042  18.365   0.139  1.00 20.00     0.024 A 
HETATM    3  C3  UNL     1     -32.129  18.422  -0.894  1.00 20.00     0.116 A 
HETATM    4  N7  UNL     1     -30.799  18.455  -0.524  1.00 20.00    -0.245 NA
HETATM    5  S8  UNL     1     -32.210  18.352   1.639  1.00 20.00    -0.084 SA
HETATM    6 BR9  UNL     1     -32.599  18.451  -2.734  1.00 20.00    -0.028 Br
ENDROOT
BRANCH   2   7
HETATM    7  C6  UNL     1     -34.573  18.318   0.009  1.00 20.00     0.028 A 
HETATM    8  C4  UNL     1     -35.339  17.322   0.849  1.00 20.00     0.010 A 
HETATM    9  C5  UNL     1     -35.208  17.103  -0.625  1.00 20.00     0.010 A 
ENDBRANCH   2   7
TORSDOF 1
ENDMDL
