MODEL 1
REMARK VINA RESULT:      -3.8      0.000      0.000
REMARK  1 active torsions:
REMARK  status: ('A' for Active; 'I' for Inactive)
REMARK    1  A    between atoms: C3_3  and  C5_5 
ROOT
HETATM    1  C1  UNL     1     -36.651  13.745  -4.604  1.00 20.00     0.144 A 
HETATM    2  C2  UNL     1     -37.317  14.882  -4.197  1.00 20.00     0.071 A 
HETATM    3  C3  UNL     1     -34.918  14.941  -3.989  1.00 20.00     0.103 A 
HETATM    4  N7  UNL     1     -35.274  13.777  -4.484  1.00 20.00    -0.251 NA
HETATM    5  S8  UNL     1     -36.185  16.044  -3.641  1.00 20.00    -0.061 SA
HETATM    6 BR9  UNL     1     -39.190  15.137  -4.239  1.00 20.00    -0.041 Br
ENDROOT
BRANCH   3   7
HETATM    7  C5  UNL     1     -33.565  15.359  -3.716  1.00 20.00    -0.035 C 
HETATM    8  C4  UNL     1     -32.566  14.670  -4.301  1.00 20.00     0.021 C 
HETATM    9  C6  UNL     1     -33.225  16.514  -2.805  1.00 20.00     0.050 C 
ENDBRANCH   3   7
TORSDOF 1
ENDMDL
MODEL 2
REMARK VINA RESULT:      -3.7      2.254      3.194
REMARK  1 active torsions:
REMARK  status: ('A' for Active; 'I' for Inactive)
REMARK    1  A    between atoms: C3_3  and  C5_5 
ROOT
HETATM    1  C1  UNL     1     -33.573  15.239  -4.119  1.00 20.00     0.144 A 
HETATM    2  C2  UNL     1     -34.873  15.003  -3.723  1.00 20.00     0.071 A 
HETATM    3  C3  UNL     1     -33.658  16.626  -2.422  1.00 20.00     0.103 A 
HETATM    4  N7  UNL     1     -32.874  16.169  -3.374  1.00 20.00    -0.251 NA
HETATM    5  S8  UNL     1     -35.246  15.980  -2.363  1.00 20.00    -0.061 SA
HETATM    6 BR9  UNL     1     -36.074  13.794  -4.542  1.00 20.00    -0.041 Br
ENDROOT
BRANCH   3   7
HETATM    7  C5  UNL     1     -33.292  17.612  -1.436  1.00 20.00    -0.035 C 
HETATM    8  C4  UNL     1     -32.051  18.130  -1.497  1.00 20.00     0.021 C 
HETATM    9  C6  UNL     1     -34.228  18.073  -0.344  1.00 20.00     0.050 C 
ENDBRANCH   3   7
TORSDOF 1
ENDMDL
MODEL 3
REMARK VINA RESULT:      -3.6      5.650      7.059
REMARK  1 active torsions:
REMARK  status: ('A' for Active; 'I' for Inactive)
REMARK    1  A    between atoms: C3_3  and  C5_5 
ROOT
HETATM    1  C1  UNL     1     -30.607  18.471   0.937  1.00 20.00     0.144 A 
HETATM    2  C2  UNL     1     -31.798  18.575   1.625  1.00 20.00     0.071 A 
HETATM    3  C3  UNL     1     -31.986  18.311  -0.762  1.00 20.00     0.103 A 
HETATM    4  N7  UNL     1     -30.713  18.320  -0.433  1.00 20.00    -0.251 NA
HETATM    5  S8  UNL     1     -33.109  18.481   0.523  1.00 20.00    -0.061 SA
HETATM    6 BR9  UNL     1     -31.976  18.788   3.495  1.00 20.00    -0.041 Br
ENDROOT
BRANCH   3   7
HETATM    7  C5  UNL     1     -32.506  18.172  -2.100  1.00 20.00    -0.035 C 
HETATM    8  C4  UNL     1     -32.464  19.251  -2.904  1.00 20.00     0.021 C 
HETATM    9  C6  UNL     1     -33.098  16.886  -2.626  1.00 20.00     0.050 C 
ENDBRANCH   3   7
TORSDOF 1
ENDMDL
MODEL 4
REMARK VINA RESULT:      -3.6      3.478      4.369
REMARK  1 active torsions:
REMARK  status: ('A' for Active; 'I' for Inactive)
REMARK    1  A    between atoms: C3_3  and  C5_5 
ROOT
HETATM    1  C1  UNL     1     -34.931  17.138  -0.953  1.00 20.00     0.144 A 
HETATM    2  C2  UNL     1     -33.752  17.782  -1.267  1.00 20.00     0.071 A 
HETATM    3  C3  UNL     1     -34.348  15.930  -2.688  1.00 20.00     0.103 A 
HETATM    4  N7  UNL     1     -35.274  16.075  -1.767  1.00 20.00    -0.251 NA
HETATM    5  S8  UNL     1     -33.037  17.034  -2.635  1.00 20.00    -0.061 SA
HETATM    6 BR9  UNL     1     -33.023  19.262  -0.343  1.00 20.00    -0.041 Br
ENDROOT
BRANCH   3   7
HETATM    7  C5  UNL     1     -34.347  14.929  -3.726  1.00 20.00    -0.035 C 
HETATM    8  C4  UNL     1     -35.517  14.334  -4.024  1.00 20.00     0.021 C 
HETATM    9  C6  UNL     1     -33.102  14.517  -4.474  1.00 20.00     0.050 C 
ENDBRANCH   3   7
TORSDOF 1
ENDMDL
MODEL 5
REMARK VINA RESULT:      -3.6      3.176      4.250
REMARK  1 active torsions:
REMARK  status: ('A' for Active; 'I' for Inactive)
REMARK    1  A    between atoms: C3_3  and  C5_5 
ROOT
HETATM    1  C1  UNL     1     -32.919  17.730  -1.734  1.00 20.00     0.144 A 
HETATM    2  C2  UNL     1     -34.106  17.721  -1.032  1.00 20.00     0.071 A 
HETATM    3  C3  UNL     1     -33.912  16.081  -2.786  1.00 20.00     0.103 A 
HETATM    4  N7  UNL     1     -32.806  16.790  -2.741  1.00 20.00    -0.251 NA
HETATM    5  S8  UNL     1     -35.129  16.490  -1.649  1.00 20.00    -0.061 SA
HETATM    6 BR9  UNL     1     -34.552  18.879   0.394  1.00 20.00    -0.041 Br
ENDROOT
BRANCH   3   7
HETATM    7  C5  UNL     1     -34.179  15.001  -3.703  1.00 20.00    -0.035 C 
HETATM    8  C4  UNL     1     -33.145  14.509  -4.411  1.00 20.00     0.021 C 
HETATM    9  C6  UNL     1     -35.556  14.415  -3.909  1.00 20.00     0.050 C 
ENDBRANCH   3   7
TORSDOF 1
ENDMDL
MODEL 6
REMARK VINA RESULT:      -3.5      1.553      1.755
REMARK  1 active torsions:
REMARK  status: ('A' for Active; 'I' for Inactive)
REMARK    1  A    between atoms: C3_3  and  C5_5 
ROOT
HETATM    1  C1  UNL     1     -38.526  14.577  -4.361  1.00 20.00     0.144 A 
HETATM    2  C2  UNL     1     -38.653  15.950  -4.329  1.00 20.00     0.071 A 
HETATM    3  C3  UNL     1     -36.462  15.086  -3.821  1.00 20.00     0.103 A 
HETATM    4  N7  UNL     1     -37.271  14.080  -4.069  1.00 20.00    -0.251 NA
HETATM    5  S8  UNL     1     -37.145  16.657  -3.918  1.00 20.00    -0.061 SA
HETATM    6 BR9  UNL     1     -40.237  16.920  -4.682  1.00 20.00    -0.041 Br
ENDROOT
BRANCH   3   7
HETATM    7  C5  UNL     1     -35.067  14.976  -3.476  1.00 20.00    -0.035 C 
HETATM    8  C4  UNL     1     -34.356  13.984  -4.045  1.00 20.00     0.021 C 
HETATM    9  C6  UNL     1     -34.380  15.908  -2.506  1.00 20.00     0.050 C 
ENDBRANCH   3   7
TORSDOF 1
ENDMDL
MODEL 7
REMARK VINA RESULT:      -3.4     10.520     11.689
REMARK  1 active torsions:
REMARK  status: ('A' for Active; 'I' for Inactive)
REMARK    1  A    between atoms: C3_3  and  C5_5 
ROOT
HETATM    1  C1  UNL     1     -40.973   5.037  -1.166  1.00 20.00     0.144 A 
HETATM    2  C2  UNL     1     -42.235   4.805  -1.673  1.00 20.00     0.071 A 
HETATM    3  C3  UNL     1     -41.957   6.863  -0.452  1.00 20.00     0.103 A 
HETATM    4  N7  UNL     1     -40.812   6.217  -0.465  1.00 20.00    -0.251 NA
HETATM    5  S8  UNL     1     -43.269   6.110  -1.260  1.00 20.00    -0.061 SA
HETATM    6 BR9  UNL     1     -42.760   3.287  -2.671  1.00 20.00    -0.041 Br
ENDROOT
BRANCH   3   7
HETATM    7  C5  UNL     1     -42.195   8.136   0.181  1.00 20.00    -0.035 C 
HETATM    8  C4  UNL     1     -43.417   8.361   0.699  1.00 20.00     0.021 C 
HETATM    9  C6  UNL     1     -41.146   9.219   0.277  1.00 20.00     0.050 C 
ENDBRANCH   3   7
TORSDOF 1
ENDMDL
MODEL 8
REMARK VINA RESULT:      -3.4      2.938      3.791
REMARK  1 active torsions:
REMARK  status: ('A' for Active; 'I' for Inactive)
REMARK    1  A    between atoms: C3_3  and  C5_5 
ROOT
HETATM    1  C1  UNL     1     -35.175  16.011  -1.909  1.00 20.00     0.144 A 
HETATM    2  C2  UNL     1     -34.632  15.453  -3.048  1.00 20.00     0.071 A 
HETATM    3  C3  UNL     1     -33.374  17.255  -2.060  1.00 20.00     0.103 A 
HETATM    4  N7  UNL     1     -34.455  17.045  -1.341  1.00 20.00    -0.251 NA
HETATM    5  S8  UNL     1     -33.162  16.248  -3.432  1.00 20.00    -0.061 SA
HETATM    6 BR9  UNL     1     -35.381  14.031  -4.044  1.00 20.00    -0.041 Br
ENDROOT
BRANCH   3   7
HETATM    7  C5  UNL     1     -32.368  18.251  -1.791  1.00 20.00    -0.035 C 
HETATM    8  C4  UNL     1     -32.231  19.259  -2.674  1.00 20.00     0.021 C 
HETATM    9  C6  UNL     1     -31.465  18.207  -0.581  1.00 20.00     0.050 C 
ENDBRANCH   3   7
TORSDOF 1
ENDMDL
MODEL 9
REMARK VINA RESULT:      -3.4      2.603      4.416
REMARK  1 active torsions:
REMARK  status: ('A' for Active; 'I' for Inactive)
REMARK    1  A    between atoms: C3_3  and  C5_5 
ROOT
HETATM    1  C1  UNL     1     -36.182  13.618  -4.542  1.00 20.00     0.144 A 
HETATM    2  C2  UNL     1     -35.392  14.725  -4.310  1.00 20.00     0.071 A 
HETATM    3  C3  UNL     1     -37.771  15.097  -4.224  1.00 20.00     0.103 A 
HETATM    4  N7  UNL     1     -37.547  13.830  -4.494  1.00 20.00    -0.251 NA
HETATM    5  S8  UNL     1     -36.388  16.091  -4.019  1.00 20.00    -0.061 SA
HETATM    6 BR9  UNL     1     -33.501  14.750  -4.310  1.00 20.00    -0.041 Br
ENDROOT
BRANCH   3   7
HETATM    7  C5  UNL     1     -39.069  15.710  -4.090  1.00 20.00    -0.035 C 
HETATM    8  C4  UNL     1     -40.133  15.032  -4.560  1.00 20.00     0.021 C 
HETATM    9  C6  UNL     1     -39.280  17.068  -3.464  1.00 20.00     0.050 C 
ENDBRANCH   3   7
TORSDOF 1
ENDMDL
