MODEL 1
REMARK VINA RESULT:      -4.4      0.000      0.000
REMARK  0 active torsions:
REMARK  status: ('A' for Active; 'I' for Inactive)
ROOT
HETATM    1  C1  UNL     1     -36.381  14.130  -4.677  1.00 20.00     0.136 C 
HETATM    2  C2  UNL     1     -35.445  14.363  -3.509  1.00 20.00     0.088 C 
HETATM    3  C3  UNL     1     -35.843  14.301  -6.067  1.00 20.00     0.152 C 
HETATM    4  C4  UNL     1     -34.956  16.571  -4.680  1.00 20.00     0.083 C 
HETATM    5  C5  UNL     1     -34.409  15.489  -3.727  1.00 20.00    -0.033 C 
HETATM    6  C6  UNL     1     -33.069  14.914  -4.232  1.00 20.00     0.016 C 
HETATM    7  C7  UNL     1     -34.125  16.157  -2.363  1.00 20.00     0.016 C 
HETATM    8  O8  UNL     1     -37.532  13.731  -4.490  1.00 20.00    -0.297 OA
HETATM    9  S9  UNL     1     -35.371  16.018  -6.369  1.00 20.00    -0.161 SA
ENDROOT
TORSDOF 0
ENDMDL
MODEL 2
REMARK VINA RESULT:      -4.2     10.663     11.768
REMARK  0 active torsions:
REMARK  status: ('A' for Active; 'I' for Inactive)
ROOT
HETATM    1  C1  UNL     1     -41.376   5.754  -1.020  1.00 20.00     0.136 C 
HETATM    2  C2  UNL     1     -41.207   7.258  -1.083  1.00 20.00     0.088 C 
HETATM    3  C3  UNL     1     -42.757   5.199  -0.826  1.00 20.00     0.152 C 
HETATM    4  C4  UNL     1     -42.534   7.235   1.091  1.00 20.00     0.083 C 
HETATM    5  C5  UNL     1     -42.159   8.053  -0.161  1.00 20.00    -0.033 C 
HETATM    6  C6  UNL     1     -43.413   8.516  -0.932  1.00 20.00     0.016 C 
HETATM    7  C7  UNL     1     -41.425   9.330   0.309  1.00 20.00     0.016 C 
HETATM    8  O8  UNL     1     -40.415   5.005  -1.206  1.00 20.00    -0.297 OA
HETATM    9  S9  UNL     1     -43.417   5.666   0.789  1.00 20.00    -0.161 SA
ENDROOT
TORSDOF 0
ENDMDL
MODEL 3
REMARK VINA RESULT:      -4.2      1.295      1.436
REMARK  0 active torsions:
REMARK  status: ('A' for Active; 'I' for Inactive)
ROOT
HETATM    1  C1  UNL     1     -35.580  13.830  -4.614  1.00 20.00     0.136 C 
HETATM    2  C2  UNL     1     -34.740  14.493  -3.540  1.00 20.00     0.088 C 
HETATM    3  C3  UNL     1     -35.935  14.627  -5.834  1.00 20.00     0.152 C 
HETATM    4  C4  UNL     1     -36.488  16.340  -3.683  1.00 20.00     0.083 C 
HETATM    5  C5  UNL     1     -35.025  15.999  -3.337  1.00 20.00    -0.033 C 
HETATM    6  C6  UNL     1     -34.035  16.860  -4.148  1.00 20.00     0.016 C 
HETATM    7  C7  UNL     1     -34.798  16.337  -1.846  1.00 20.00     0.016 C 
HETATM    8  O8  UNL     1     -35.892  12.642  -4.523  1.00 20.00    -0.297 OA
HETATM    9  S9  UNL     1     -37.001  16.021  -5.406  1.00 20.00    -0.161 SA
ENDROOT
TORSDOF 0
ENDMDL
MODEL 4
REMARK VINA RESULT:      -4.2      1.223      1.271
REMARK  0 active torsions:
REMARK  status: ('A' for Active; 'I' for Inactive)
ROOT
HETATM    1  C1  UNL     1     -35.262  14.443  -5.257  1.00 20.00     0.136 C 
HETATM    2  C2  UNL     1     -34.972  14.557  -3.774  1.00 20.00     0.088 C 
HETATM    3  C3  UNL     1     -34.450  15.270  -6.209  1.00 20.00     0.152 C 
HETATM    4  C4  UNL     1     -35.213  17.058  -4.188  1.00 20.00     0.083 C 
HETATM    5  C5  UNL     1     -34.567  15.973  -3.304  1.00 20.00    -0.033 C 
HETATM    6  C6  UNL     1     -33.031  16.119  -3.258  1.00 20.00     0.016 C 
HETATM    7  C7  UNL     1     -35.079  16.168  -1.859  1.00 20.00     0.016 C 
HETATM    8  O8  UNL     1     -36.089  13.629  -5.675  1.00 20.00    -0.297 OA
HETATM    9  S9  UNL     1     -34.757  17.032  -5.955  1.00 20.00    -0.161 SA
ENDROOT
TORSDOF 0
ENDMDL
MODEL 5
REMARK VINA RESULT:      -4.2     18.704     19.531
REMARK  0 active torsions:
REMARK  status: ('A' for Active; 'I' for Inactive)
ROOT
HETATM    1  C1  UNL     1     -23.241  18.386   9.544  1.00 20.00     0.136 C 
HETATM    2  C2  UNL     1     -24.654  18.056   9.980  1.00 20.00     0.088 C 
HETATM    3  C3  UNL     1     -22.115  17.556  10.086  1.00 20.00     0.152 C 
HETATM    4  C4  UNL     1     -23.678  18.182  12.329  1.00 20.00     0.083 C 
HETATM    5  C5  UNL     1     -24.780  17.570  11.442  1.00 20.00    -0.033 C 
HETATM    6  C6  UNL     1     -24.774  16.028  11.512  1.00 20.00     0.016 C 
HETATM    7  C7  UNL     1     -26.147  18.038  11.992  1.00 20.00     0.016 C 
HETATM    8  O8  UNL     1     -23.032  19.262   8.702  1.00 20.00    -0.297 OA
HETATM    9  S9  UNL     1     -21.959  17.769  11.872  1.00 20.00    -0.161 SA
ENDROOT
TORSDOF 0
ENDMDL
MODEL 6
REMARK VINA RESULT:      -3.8      1.704      2.807
REMARK  0 active torsions:
REMARK  status: ('A' for Active; 'I' for Inactive)
ROOT
HETATM    1  C1  UNL     1     -36.573  14.532  -4.662  1.00 20.00     0.136 C 
HETATM    2  C2  UNL     1     -35.982  14.854  -6.020  1.00 20.00     0.088 C 
HETATM    3  C3  UNL     1     -36.284  15.461  -3.520  1.00 20.00     0.152 C 
HETATM    4  C4  UNL     1     -33.792  15.032  -4.733  1.00 20.00     0.083 C 
HETATM    5  C5  UNL     1     -34.577  15.497  -5.976  1.00 20.00    -0.033 C 
HETATM    6  C6  UNL     1     -34.673  17.035  -6.044  1.00 20.00     0.016 C 
HETATM    7  C7  UNL     1     -33.796  15.040  -7.229  1.00 20.00     0.016 C 
HETATM    8  O8  UNL     1     -37.337  13.576  -4.520  1.00 20.00    -0.297 OA
HETATM    9  S9  UNL     1     -34.524  15.457  -3.116  1.00 20.00    -0.161 SA
ENDROOT
TORSDOF 0
ENDMDL
MODEL 7
REMARK VINA RESULT:      -3.7     18.060     18.844
REMARK  0 active torsions:
REMARK  status: ('A' for Active; 'I' for Inactive)
ROOT
HETATM    1  C1  UNL     1     -22.747  17.546   8.770  1.00 20.00     0.136 C 
HETATM    2  C2  UNL     1     -22.853  16.703  10.024  1.00 20.00     0.088 C 
HETATM    3  C3  UNL     1     -23.067  19.009   8.865  1.00 20.00     0.152 C 
HETATM    4  C4  UNL     1     -25.175  17.734  10.204  1.00 20.00     0.083 C 
HETATM    5  C5  UNL     1     -23.998  17.111  10.980  1.00 20.00    -0.033 C 
HETATM    6  C6  UNL     1     -23.482  18.058  12.084  1.00 20.00     0.016 C 
HETATM    7  C7  UNL     1     -24.515  15.838  11.687  1.00 20.00     0.016 C 
HETATM    8  O8  UNL     1     -22.329  17.058   7.718  1.00 20.00    -0.297 OA
HETATM    9  S9  UNL     1     -24.806  19.263   9.277  1.00 20.00    -0.161 SA
ENDROOT
TORSDOF 0
ENDMDL
MODEL 8
REMARK VINA RESULT:      -3.7      2.628      3.688
REMARK  0 active torsions:
REMARK  status: ('A' for Active; 'I' for Inactive)
ROOT
HETATM    1  C1  UNL     1     -33.582  16.482  -2.563  1.00 20.00     0.136 C 
HETATM    2  C2  UNL     1     -33.317  15.527  -3.709  1.00 20.00     0.088 C 
HETATM    3  C3  UNL     1     -34.917  16.426  -1.882  1.00 20.00     0.152 C 
HETATM    4  C4  UNL     1     -35.518  16.426  -4.621  1.00 20.00     0.083 C 
HETATM    5  C5  UNL     1     -34.547  15.230  -4.597  1.00 20.00    -0.033 C 
HETATM    6  C6  UNL     1     -35.253  13.935  -4.144  1.00 20.00     0.016 C 
HETATM    7  C7  UNL     1     -34.053  14.989  -6.042  1.00 20.00     0.016 C 
HETATM    8  O8  UNL     1     -32.693  17.229  -2.149  1.00 20.00    -0.297 OA
HETATM    9  S9  UNL     1     -36.239  16.907  -3.014  1.00 20.00    -0.161 SA
ENDROOT
TORSDOF 0
ENDMDL
MODEL 9
REMARK VINA RESULT:      -3.6      3.283      4.331
REMARK  0 active torsions:
REMARK  status: ('A' for Active; 'I' for Inactive)
ROOT
HETATM    1  C1  UNL     1     -32.976  18.325  -2.682  1.00 20.00     0.136 C 
HETATM    2  C2  UNL     1     -32.821  16.818  -2.714  1.00 20.00     0.088 C 
HETATM    3  C3  UNL     1     -34.362  18.900  -2.694  1.00 20.00     0.152 C 
HETATM    4  C4  UNL     1     -34.380  16.964  -4.723  1.00 20.00     0.083 C 
HETATM    5  C5  UNL     1     -33.881  16.079  -3.563  1.00 20.00    -0.033 C 
HETATM    6  C6  UNL     1     -35.047  15.588  -2.682  1.00 20.00     0.016 C 
HETATM    7  C7  UNL     1     -33.220  14.823  -4.175  1.00 20.00     0.016 C 
HETATM    8  O8  UNL     1     -31.991  19.056  -2.566  1.00 20.00    -0.297 OA
HETATM    9  S9  UNL     1     -35.203  18.522  -4.246  1.00 20.00    -0.161 SA
ENDROOT
TORSDOF 0
ENDMDL
