MODEL 1
REMARK VINA RESULT:      -4.7      0.000      0.000
REMARK  1 active torsions:
REMARK  status: ('A' for Active; 'I' for Inactive)
REMARK    1  A    between atoms: C3_3  and  C9_9 
ROOT
HETATM    1  C1  UNL     1     -31.364  18.241  -0.556  1.00 20.00     0.017 A 
HETATM    2  C2  UNL     1     -30.788  18.574   0.704  1.00 20.00     0.028 A 
HETATM    3  C3  UNL     1     -32.738  18.168  -0.494  1.00 20.00    -0.012 A 
HETATM    4  C4  UNL     1     -31.745  18.743   1.681  1.00 20.00     0.051 A 
HETATM    5  S10 UNL     1     -33.329  18.499   1.078  1.00 20.00    -0.087 SA
HETATM    6 BR11 UNL     1     -31.369  19.191   3.487  1.00 20.00    -0.043 Br
ENDROOT
BRANCH   3   7
HETATM    7  C9  UNL     1     -33.711  17.845  -1.599  1.00 20.00     0.026 C 
HETATM    8  C7  UNL     1     -34.871  16.939  -1.147  1.00 20.00     0.010 C 
HETATM    9  C5  UNL     1     -35.160  16.053  -2.350  1.00 20.00     0.001 C 
HETATM   10  C6  UNL     1     -33.779  15.790  -2.923  1.00 20.00     0.001 C 
HETATM   11  C8  UNL     1     -33.079  17.140  -2.816  1.00 20.00     0.010 C 
ENDBRANCH   3   7
TORSDOF 1
ENDMDL
MODEL 2
REMARK VINA RESULT:      -4.6      1.168      1.453
REMARK  1 active torsions:
REMARK  status: ('A' for Active; 'I' for Inactive)
REMARK    1  A    between atoms: C3_3  and  C9_9 
ROOT
HETATM    1  C1  UNL     1     -33.644  18.155   1.035  1.00 20.00     0.017 A 
HETATM    2  C2  UNL     1     -32.595  18.522   1.927  1.00 20.00     0.028 A 
HETATM    3  C3  UNL     1     -33.221  18.121  -0.275  1.00 20.00    -0.012 A 
HETATM    4  C4  UNL     1     -31.410  18.753   1.263  1.00 20.00     0.051 A 
HETATM    5  S10 UNL     1     -31.565  18.530  -0.427  1.00 20.00    -0.087 SA
HETATM    6 BR11 UNL     1     -29.787  19.263   2.108  1.00 20.00    -0.043 Br
ENDROOT
BRANCH   3   7
HETATM    7  C9  UNL     1     -34.018  17.782  -1.509  1.00 20.00     0.026 C 
HETATM    8  C7  UNL     1     -35.074  16.687  -1.273  1.00 20.00     0.010 C 
HETATM    9  C5  UNL     1     -35.105  15.895  -2.572  1.00 20.00     0.001 C 
HETATM   10  C6  UNL     1     -33.650  15.880  -3.001  1.00 20.00     0.001 C 
HETATM   11  C8  UNL     1     -33.168  17.294  -2.700  1.00 20.00     0.010 C 
ENDBRANCH   3   7
TORSDOF 1
ENDMDL
MODEL 3
REMARK VINA RESULT:      -4.6      3.217      5.200
REMARK  1 active torsions:
REMARK  status: ('A' for Active; 'I' for Inactive)
REMARK    1  A    between atoms: C3_3  and  C9_9 
ROOT
HETATM    1  C1  UNL     1     -34.864  17.043  -1.012  1.00 20.00     0.017 A 
HETATM    2  C2  UNL     1     -35.282  16.073  -1.968  1.00 20.00     0.028 A 
HETATM    3  C3  UNL     1     -33.615  17.547  -1.298  1.00 20.00    -0.012 A 
HETATM    4  C4  UNL     1     -34.336  15.873  -2.949  1.00 20.00     0.051 A 
HETATM    5  S10 UNL     1     -32.950  16.851  -2.715  1.00 20.00    -0.087 SA
HETATM    6 BR11 UNL     1     -34.529  14.658  -4.396  1.00 20.00    -0.043 Br
ENDROOT
BRANCH   3   7
HETATM    7  C9  UNL     1     -32.824  18.581  -0.539  1.00 20.00     0.026 C 
HETATM    8  C7  UNL     1     -31.302  18.355  -0.602  1.00 20.00     0.010 C 
HETATM    9  C5  UNL     1     -30.790  18.795   0.761  1.00 20.00     0.001 C 
HETATM   10  C6  UNL     1     -31.886  18.335   1.705  1.00 20.00     0.001 C 
HETATM   11  C8  UNL     1     -33.172  18.672   0.960  1.00 20.00     0.010 C 
ENDBRANCH   3   7
TORSDOF 1
ENDMDL
MODEL 4
REMARK VINA RESULT:      -4.5      9.510     12.401
REMARK  1 active torsions:
REMARK  status: ('A' for Active; 'I' for Inactive)
REMARK    1  A    between atoms: C3_3  and  C9_9 
ROOT
HETATM    1  C1  UNL     1     -26.654  19.218   7.554  1.00 20.00     0.017 A 
HETATM    2  C2  UNL     1     -27.074  19.203   6.192  1.00 20.00     0.028 A 
HETATM    3  C3  UNL     1     -25.282  19.242   7.672  1.00 20.00    -0.012 A 
HETATM    4  C4  UNL     1     -26.006  19.218   5.322  1.00 20.00     0.051 A 
HETATM    5  S10 UNL     1     -24.506  19.247   6.146  1.00 20.00    -0.087 SA
HETATM    6 BR11 UNL     1     -26.162  19.205   3.429  1.00 20.00    -0.043 Br
ENDROOT
BRANCH   3   7
HETATM    7  C9  UNL     1     -24.449  19.263   8.928  1.00 20.00     0.026 C 
HETATM    8  C7  UNL     1     -23.125  18.487   8.796  1.00 20.00     0.010 C 
HETATM    9  C5  UNL     1     -22.903  17.868  10.168  1.00 20.00     0.001 C 
HETATM   10  C6  UNL     1     -24.306  17.491  10.607  1.00 20.00     0.001 C 
HETATM   11  C8  UNL     1     -25.155  18.678  10.168  1.00 20.00     0.010 C 
ENDBRANCH   3   7
TORSDOF 1
ENDMDL
MODEL 5
REMARK VINA RESULT:      -4.4      1.044      1.131
REMARK  1 active torsions:
REMARK  status: ('A' for Active; 'I' for Inactive)
REMARK    1  A    between atoms: C3_3  and  C9_9 
ROOT
HETATM    1  C1  UNL     1     -32.124  18.217  -0.857  1.00 20.00     0.017 A 
HETATM    2  C2  UNL     1     -31.848  18.690   0.458  1.00 20.00     0.028 A 
HETATM    3  C3  UNL     1     -33.449  17.879  -1.018  1.00 20.00    -0.012 A 
HETATM    4  C4  UNL     1     -32.975  18.697   1.252  1.00 20.00     0.051 A 
HETATM    5  S10 UNL     1     -34.356  18.133   0.412  1.00 20.00    -0.087 SA
HETATM    6 BR11 UNL     1     -33.008  19.260   3.065  1.00 20.00    -0.043 Br
ENDROOT
BRANCH   3   7
HETATM    7  C9  UNL     1     -34.137  17.343  -2.247  1.00 20.00     0.026 C 
HETATM    8  C7  UNL     1     -34.949  16.061  -1.983  1.00 20.00     0.010 C 
HETATM    9  C5  UNL     1     -34.795  15.238  -3.252  1.00 20.00     0.001 C 
HETATM   10  C6  UNL     1     -33.360  15.509  -3.666  1.00 20.00     0.001 C 
HETATM   11  C8  UNL     1     -33.185  17.002  -3.411  1.00 20.00     0.010 C 
ENDBRANCH   3   7
TORSDOF 1
ENDMDL
MODEL 6
REMARK VINA RESULT:      -4.4      2.617      4.021
REMARK  1 active torsions:
REMARK  status: ('A' for Active; 'I' for Inactive)
REMARK    1  A    between atoms: C3_3  and  C9_9 
ROOT
HETATM    1  C1  UNL     1     -35.228  16.149  -1.880  1.00 20.00     0.017 A 
HETATM    2  C2  UNL     1     -34.860  17.127  -0.911  1.00 20.00     0.028 A 
HETATM    3  C3  UNL     1     -34.296  16.044  -2.888  1.00 20.00    -0.012 A 
HETATM    4  C4  UNL     1     -33.661  17.733  -1.217  1.00 20.00     0.051 A 
HETATM    5  S10 UNL     1     -32.985  17.123  -2.667  1.00 20.00    -0.087 SA
HETATM    6 BR11 UNL     1     -32.841  19.086  -0.167  1.00 20.00    -0.043 Br
ENDROOT
BRANCH   3   7
HETATM    7  C9  UNL     1     -34.315  15.136  -4.091  1.00 20.00     0.026 C 
HETATM    8  C7  UNL     1     -35.012  15.757  -5.316  1.00 20.00     0.010 C 
HETATM    9  C5  UNL     1     -35.705  14.588  -5.999  1.00 20.00     0.001 C 
HETATM   10  C6  UNL     1     -36.182  13.742  -4.832  1.00 20.00     0.001 C 
HETATM   11  C8  UNL     1     -35.013  13.782  -3.854  1.00 20.00     0.010 C 
ENDBRANCH   3   7
TORSDOF 1
ENDMDL
MODEL 7
REMARK VINA RESULT:      -4.3      2.757      3.916
REMARK  1 active torsions:
REMARK  status: ('A' for Active; 'I' for Inactive)
REMARK    1  A    between atoms: C3_3  and  C9_9 
ROOT
HETATM    1  C1  UNL     1     -32.818  16.864  -2.890  1.00 20.00     0.017 A 
HETATM    2  C2  UNL     1     -32.997  17.659  -1.721  1.00 20.00     0.028 A 
HETATM    3  C3  UNL     1     -33.906  16.057  -3.138  1.00 20.00    -0.012 A 
HETATM    4  C4  UNL     1     -34.216  17.430  -1.121  1.00 20.00     0.051 A 
HETATM    5  S10 UNL     1     -35.137  16.260  -1.965  1.00 20.00    -0.087 SA
HETATM    6 BR11 UNL     1     -34.817  18.299   0.457  1.00 20.00    -0.043 Br
ENDROOT
BRANCH   3   7
HETATM    7  C9  UNL     1     -34.110  15.077  -4.264  1.00 20.00     0.026 C 
HETATM    8  C7  UNL     1     -34.820  15.688  -5.486  1.00 20.00     0.010 C 
HETATM    9  C5  UNL     1     -35.685  14.563  -6.033  1.00 20.00     0.001 C 
HETATM   10  C6  UNL     1     -36.166  13.858  -4.778  1.00 20.00     0.001 C 
HETATM   11  C8  UNL     1     -34.934  13.831  -3.882  1.00 20.00     0.010 C 
ENDBRANCH   3   7
TORSDOF 1
ENDMDL
MODEL 8
REMARK VINA RESULT:      -4.3      3.660      5.296
REMARK  1 active torsions:
REMARK  status: ('A' for Active; 'I' for Inactive)
REMARK    1  A    between atoms: C3_3  and  C9_9 
ROOT
HETATM    1  C1  UNL     1     -32.930  16.262  -3.148  1.00 20.00     0.017 A 
HETATM    2  C2  UNL     1     -33.560  15.207  -3.870  1.00 20.00     0.028 A 
HETATM    3  C3  UNL     1     -33.826  16.968  -2.377  1.00 20.00    -0.012 A 
HETATM    4  C4  UNL     1     -34.914  15.147  -3.621  1.00 20.00     0.051 A 
HETATM    5  S10 UNL     1     -35.420  16.360  -2.524  1.00 20.00    -0.087 SA
HETATM    6 BR11 UNL     1     -36.094  13.878  -4.398  1.00 20.00    -0.043 Br
ENDROOT
BRANCH   3   7
HETATM    7  C9  UNL     1     -33.562  18.146  -1.475  1.00 20.00     0.026 C 
HETATM    8  C7  UNL     1     -32.110  18.214  -0.966  1.00 20.00     0.010 C 
HETATM    9  C5  UNL     1     -32.223  18.766   0.447  1.00 20.00     0.001 C 
HETATM   10  C6  UNL     1     -33.493  18.121   0.969  1.00 20.00     0.001 C 
HETATM   11  C8  UNL     1     -34.450  18.194  -0.216  1.00 20.00     0.010 C 
ENDBRANCH   3   7
TORSDOF 1
ENDMDL
MODEL 9
REMARK VINA RESULT:      -4.2      4.467      6.362
REMARK  1 active torsions:
REMARK  status: ('A' for Active; 'I' for Inactive)
REMARK    1  A    between atoms: C3_3  and  C9_9 
ROOT
HETATM    1  C1  UNL     1     -35.997  14.379  -3.901  1.00 20.00     0.017 A 
HETATM    2  C2  UNL     1     -37.233  14.484  -4.601  1.00 20.00     0.028 A 
HETATM    3  C3  UNL     1     -35.655  15.558  -3.276  1.00 20.00    -0.012 A 
HETATM    4  C4  UNL     1     -37.789  15.739  -4.484  1.00 20.00     0.051 A 
HETATM    5  S10 UNL     1     -36.821  16.784  -3.535  1.00 20.00    -0.087 SA
HETATM    6 BR11 UNL     1     -39.433  16.264  -5.277  1.00 20.00    -0.043 Br
ENDROOT
BRANCH   3   7
HETATM    7  C9  UNL     1     -34.435  15.858  -2.443  1.00 20.00     0.026 C 
HETATM    8  C7  UNL     1     -34.660  16.980  -1.412  1.00 20.00     0.010 C 
HETATM    9  C5  UNL     1     -33.331  17.717  -1.348  1.00 20.00     0.001 C 
HETATM   10  C6  UNL     1     -32.853  17.690  -2.788  1.00 20.00     0.001 C 
HETATM   11  C8  UNL     1     -33.197  16.282  -3.258  1.00 20.00     0.010 C 
ENDBRANCH   3   7
TORSDOF 1
ENDMDL
