MODEL 1
REMARK VINA RESULT:      -5.0      0.000      0.000
REMARK  1 active torsions:
REMARK  status: ('A' for Active; 'I' for Inactive)
REMARK    1  A    between atoms: C2_2  and  C3_3 
ROOT
HETATM    1  C1  UNL     1     -34.215   4.099   3.945  1.00 20.00     0.080 C 
HETATM    2  C2  UNL     1     -34.597   5.483   4.444  1.00 20.00     0.272 C 
HETATM    3  F4  UNL     1     -35.909   5.695   4.143  1.00 20.00    -0.216 F 
HETATM    4 CL8  UNL     1     -33.623   6.717   3.604  1.00 20.00    -0.073 Cl
ENDROOT
BRANCH   2   5
HETATM    5  C3  UNL     1     -34.432   5.619   5.944  1.00 20.00     0.437 C 
HETATM    6  F5  UNL     1     -35.624   5.795   6.555  1.00 20.00    -0.166 F 
HETATM    7  F6  UNL     1     -33.868   4.509   6.469  1.00 20.00    -0.166 F 
HETATM    8  F7  UNL     1     -33.643   6.667   6.267  1.00 20.00    -0.166 F 
ENDBRANCH   2   5
TORSDOF 1
ENDMDL
MODEL 2
REMARK VINA RESULT:      -4.7      1.841      2.653
REMARK  1 active torsions:
REMARK  status: ('A' for Active; 'I' for Inactive)
REMARK    1  A    between atoms: C2_2  and  C3_3 
ROOT
HETATM    1  C1  UNL     1     -34.750   5.176   6.067  1.00 20.00     0.080 C 
HETATM    2  C2  UNL     1     -34.693   5.383   4.563  1.00 20.00     0.272 C 
HETATM    3  F4  UNL     1     -35.956   5.642   4.122  1.00 20.00    -0.216 F 
HETATM    4 CL8  UNL     1     -34.118   3.893   3.771  1.00 20.00    -0.073 Cl
ENDROOT
BRANCH   2   5
HETATM    5  C3  UNL     1     -33.812   6.554   4.177  1.00 20.00     0.437 C 
HETATM    6  F5  UNL     1     -32.866   6.184   3.286  1.00 20.00    -0.166 F 
HETATM    7  F6  UNL     1     -34.543   7.538   3.606  1.00 20.00    -0.166 F 
HETATM    8  F7  UNL     1     -33.186   7.083   5.250  1.00 20.00    -0.166 F 
ENDBRANCH   2   5
TORSDOF 1
ENDMDL
MODEL 3
REMARK VINA RESULT:      -4.7      1.837      2.491
REMARK  1 active torsions:
REMARK  status: ('A' for Active; 'I' for Inactive)
REMARK    1  A    between atoms: C2_2  and  C3_3 
ROOT
HETATM    1  C1  UNL     1     -34.757   5.177   6.069  1.00 20.00     0.080 C 
HETATM    2  C2  UNL     1     -34.696   5.381   4.564  1.00 20.00     0.272 C 
HETATM    3  F4  UNL     1     -35.958   5.632   4.118  1.00 20.00    -0.216 F 
HETATM    4 CL8  UNL     1     -34.111   3.891   3.779  1.00 20.00    -0.073 Cl
ENDROOT
BRANCH   2   5
HETATM    5  C3  UNL     1     -33.819   6.554   4.178  1.00 20.00     0.437 C 
HETATM    6  F5  UNL     1     -34.543   7.542   3.607  1.00 20.00    -0.166 F 
HETATM    7  F6  UNL     1     -33.208   7.076   5.264  1.00 20.00    -0.166 F 
HETATM    8  F7  UNL     1     -32.854   6.191   3.304  1.00 20.00    -0.166 F 
ENDBRANCH   2   5
TORSDOF 1
ENDMDL
MODEL 4
REMARK VINA RESULT:      -4.7      1.637      2.362
REMARK  1 active torsions:
REMARK  status: ('A' for Active; 'I' for Inactive)
REMARK    1  A    between atoms: C2_2  and  C3_3 
ROOT
HETATM    1  C1  UNL     1     -32.998   6.123   3.216  1.00 20.00     0.080 C 
HETATM    2  C2  UNL     1     -34.071   6.387   4.260  1.00 20.00     0.272 C 
HETATM    3  F4  UNL     1     -34.886   7.372   3.790  1.00 20.00    -0.216 F 
HETATM    4 CL8  UNL     1     -33.314   6.958   5.770  1.00 20.00    -0.073 Cl
ENDROOT
BRANCH   2   5
HETATM    5  C3  UNL     1     -34.921   5.163   4.532  1.00 20.00     0.437 C 
HETATM    6  F5  UNL     1     -35.047   4.937   5.858  1.00 20.00    -0.166 F 
HETATM    7  F6  UNL     1     -36.166   5.321   4.029  1.00 20.00    -0.166 F 
HETATM    8  F7  UNL     1     -34.393   4.053   3.972  1.00 20.00    -0.166 F 
ENDBRANCH   2   5
TORSDOF 1
ENDMDL
MODEL 5
REMARK VINA RESULT:      -4.1      2.633      3.361
REMARK  1 active torsions:
REMARK  status: ('A' for Active; 'I' for Inactive)
REMARK    1  A    between atoms: C2_2  and  C3_3 
ROOT
HETATM    1  C1  UNL     1     -33.606   6.788   5.614  1.00 20.00     0.080 C 
HETATM    2  C2  UNL     1     -33.993   6.426   4.189  1.00 20.00     0.272 C 
HETATM    3  F4  UNL     1     -35.082   7.169   3.845  1.00 20.00    -0.216 F 
HETATM    4 CL8  UNL     1     -34.443   4.702   4.108  1.00 20.00    -0.073 Cl
ENDROOT
BRANCH   2   5
HETATM    5  C3  UNL     1     -32.887   6.725   3.199  1.00 20.00     0.437 C 
HETATM    6  F5  UNL     1     -31.824   7.296   3.807  1.00 20.00    -0.166 F 
HETATM    7  F6  UNL     1     -32.453   5.591   2.605  1.00 20.00    -0.166 F 
HETATM    8  F7  UNL     1     -33.303   7.561   2.222  1.00 20.00    -0.166 F 
ENDBRANCH   2   5
TORSDOF 1
ENDMDL
MODEL 6
REMARK VINA RESULT:      -4.1      1.404      1.509
REMARK  1 active torsions:
REMARK  status: ('A' for Active; 'I' for Inactive)
REMARK    1  A    between atoms: C2_2  and  C3_3 
ROOT
HETATM    1  C1  UNL     1     -33.527   6.087   3.565  1.00 20.00     0.080 C 
HETATM    2  C2  UNL     1     -34.513   5.285   4.399  1.00 20.00     0.272 C 
HETATM    3  F4  UNL     1     -34.254   3.962   4.203  1.00 20.00    -0.216 F 
HETATM    4 CL8  UNL     1     -36.176   5.618   3.850  1.00 20.00    -0.073 Cl
ENDROOT
BRANCH   2   5
HETATM    5  C3  UNL     1     -34.383   5.575   5.880  1.00 20.00     0.437 C 
HETATM    6  F5  UNL     1     -35.594   5.739   6.456  1.00 20.00    -0.166 F 
HETATM    7  F6  UNL     1     -33.766   4.556   6.518  1.00 20.00    -0.166 F 
HETATM    8  F7  UNL     1     -33.662   6.695   6.108  1.00 20.00    -0.166 F 
ENDBRANCH   2   5
TORSDOF 1
ENDMDL
MODEL 7
REMARK VINA RESULT:      -4.0      8.414      9.648
REMARK  1 active torsions:
REMARK  status: ('A' for Active; 'I' for Inactive)
REMARK    1  A    between atoms: C2_2  and  C3_3 
ROOT
HETATM    1  C1  UNL     1     -42.926   6.913   1.099  1.00 20.00     0.080 C 
HETATM    2  C2  UNL     1     -41.698   7.408   0.352  1.00 20.00     0.272 C 
HETATM    3  F4  UNL     1     -40.594   6.902   0.970  1.00 20.00    -0.216 F 
HETATM    4 CL8  UNL     1     -41.620   9.187   0.435  1.00 20.00    -0.073 Cl
ENDROOT
BRANCH   2   5
HETATM    5  C3  UNL     1     -41.679   6.951  -1.092  1.00 20.00     0.437 C 
HETATM    6  F5  UNL     1     -41.456   7.985  -1.932  1.00 20.00    -0.166 F 
HETATM    7  F6  UNL     1     -40.698   6.044  -1.297  1.00 20.00    -0.166 F 
HETATM    8  F7  UNL     1     -42.848   6.374  -1.448  1.00 20.00    -0.166 F 
ENDBRANCH   2   5
TORSDOF 1
ENDMDL
MODEL 8
REMARK VINA RESULT:      -3.9      1.421      1.563
REMARK  1 active torsions:
REMARK  status: ('A' for Active; 'I' for Inactive)
REMARK    1  A    between atoms: C2_2  and  C3_3 
ROOT
HETATM    1  C1  UNL     1     -35.909   5.757   3.913  1.00 20.00     0.080 C 
HETATM    2  C2  UNL     1     -34.494   5.497   4.405  1.00 20.00     0.272 C 
HETATM    3  F4  UNL     1     -33.672   6.420   3.833  1.00 20.00    -0.216 F 
HETATM    4 CL8  UNL     1     -33.965   3.876   3.885  1.00 20.00    -0.073 Cl
ENDROOT
BRANCH   2   5
HETATM    5  C3  UNL     1     -34.375   5.628   5.909  1.00 20.00     0.437 C 
HETATM    6  F5  UNL     1     -35.587   5.779   6.487  1.00 20.00    -0.166 F 
HETATM    7  F6  UNL     1     -33.806   4.526   6.445  1.00 20.00    -0.166 F 
HETATM    8  F7  UNL     1     -33.616   6.689   6.259  1.00 20.00    -0.166 F 
ENDBRANCH   2   5
TORSDOF 1
ENDMDL
MODEL 9
REMARK VINA RESULT:      -3.9      8.392      9.558
REMARK  1 active torsions:
REMARK  status: ('A' for Active; 'I' for Inactive)
REMARK    1  A    between atoms: C2_2  and  C3_3 
ROOT
HETATM    1  C1  UNL     1     -41.138   5.756  -0.816  1.00 20.00     0.080 C 
HETATM    2  C2  UNL     1     -41.531   6.852   0.162  1.00 20.00     0.272 C 
HETATM    3  F4  UNL     1     -40.489   7.049   1.017  1.00 20.00    -0.216 F 
HETATM    4 CL8  UNL     1     -42.946   6.331   1.113  1.00 20.00    -0.073 Cl
ENDROOT
BRANCH   2   5
HETATM    5  C3  UNL     1     -41.823   8.165  -0.534  1.00 20.00     0.437 C 
HETATM    6  F5  UNL     1     -42.004   7.988  -1.861  1.00 20.00    -0.166 F 
HETATM    7  F6  UNL     1     -42.949   8.729  -0.043  1.00 20.00    -0.166 F 
HETATM    8  F7  UNL     1     -40.818   9.053  -0.368  1.00 20.00    -0.166 F 
ENDBRANCH   2   5
TORSDOF 1
ENDMDL
