MODEL 1
REMARK VINA RESULT:      -4.2      0.000      0.000
REMARK  1 active torsions:
REMARK  status: ('A' for Active; 'I' for Inactive)
REMARK    1  A    between atoms: C4_4  and  C8_8 
ROOT
HETATM    1  C5  UNL     1     -33.756  14.801  -5.690  1.00 20.00     0.033 C 
HETATM    2  C6  UNL     1     -33.383  14.643  -4.224  1.00 20.00     0.042 C 
HETATM    3  C7  UNL     1     -35.271  14.773  -5.678  1.00 20.00     0.273 C 
HETATM    4  C8  UNL     1     -34.625  15.108  -3.440  1.00 20.00     0.256 C 
HETATM    5  C9  UNL     1     -36.971  15.404  -4.072  1.00 20.00     0.310 C 
HETATM    6  N10 UNL     1     -35.579  15.548  -4.477  1.00 20.00     0.093 N 
ENDROOT
BRANCH   4   7
HETATM    7  C4  UNL     1     -34.308  16.199  -2.438  1.00 20.00    -0.018 A 
HETATM    8  C1  UNL     1     -33.131  17.001  -2.483  1.00 20.00     0.017 A 
HETATM    9  C2  UNL     1     -33.091  17.917  -1.455  1.00 20.00     0.050 A 
HETATM   10  S11 UNL     1     -34.466  17.807  -0.441  1.00 20.00    -0.113 SA
HETATM   11  C3  UNL     1     -35.122  16.532  -1.377  1.00 20.00     0.058 A 
ENDBRANCH   4   7
TORSDOF 1
ENDMDL
MODEL 2
REMARK VINA RESULT:      -4.2      0.667      1.226
REMARK  1 active torsions:
REMARK  status: ('A' for Active; 'I' for Inactive)
REMARK    1  A    between atoms: C4_4  and  C8_8 
ROOT
HETATM    1  C5  UNL     1     -33.722  14.776  -5.671  1.00 20.00     0.033 C 
HETATM    2  C6  UNL     1     -33.358  14.627  -4.201  1.00 20.00     0.042 C 
HETATM    3  C7  UNL     1     -35.237  14.784  -5.665  1.00 20.00     0.273 C 
HETATM    4  C8  UNL     1     -34.592  15.131  -3.428  1.00 20.00     0.256 C 
HETATM    5  C9  UNL     1     -36.929  15.475  -4.074  1.00 20.00     0.310 C 
HETATM    6  N10 UNL     1     -35.532  15.581  -4.474  1.00 20.00     0.093 N 
ENDROOT
BRANCH   4   7
HETATM    7  C4  UNL     1     -34.254  16.226  -2.438  1.00 20.00    -0.018 A 
HETATM    8  C1  UNL     1     -35.075  16.571  -1.325  1.00 20.00     0.017 A 
HETATM    9  C2  UNL     1     -34.536  17.601  -0.585  1.00 20.00     0.050 A 
HETATM   10  S11 UNL     1     -33.048  18.147  -1.233  1.00 20.00    -0.113 SA
HETATM   11  C3  UNL     1     -33.121  17.005  -2.507  1.00 20.00     0.058 A 
ENDBRANCH   4   7
TORSDOF 1
ENDMDL
MODEL 3
REMARK VINA RESULT:      -4.1     16.822     17.839
REMARK  1 active torsions:
REMARK  status: ('A' for Active; 'I' for Inactive)
REMARK    1  A    between atoms: C4_4  and  C8_8 
ROOT
HETATM    1  C5  UNL     1     -22.745  17.751   8.265  1.00 20.00     0.033 C 
HETATM    2  C6  UNL     1     -23.807  18.631   8.906  1.00 20.00     0.042 C 
HETATM    3  C7  UNL     1     -21.665  17.665   9.325  1.00 20.00     0.273 C 
HETATM    4  C8  UNL     1     -23.566  18.513  10.423  1.00 20.00     0.256 C 
HETATM    5  C9  UNL     1     -21.645  17.767  11.745  1.00 20.00     0.310 C 
HETATM    6  N10 UNL     1     -22.453  17.552  10.552  1.00 20.00     0.093 N 
ENDROOT
BRANCH   4   7
HETATM    7  C4  UNL     1     -24.804  18.076  11.179  1.00 20.00    -0.018 A 
HETATM    8  C1  UNL     1     -25.007  16.756  11.675  1.00 20.00     0.017 A 
HETATM    9  C2  UNL     1     -26.215  16.628  12.323  1.00 20.00     0.050 A 
HETATM   10  S11 UNL     1     -27.099  18.094  12.332  1.00 20.00    -0.113 SA
HETATM   11  C3  UNL     1     -25.865  18.906  11.467  1.00 20.00     0.058 A 
ENDBRANCH   4   7
TORSDOF 1
ENDMDL
MODEL 4
REMARK VINA RESULT:      -4.0      2.170      3.311
REMARK  1 active torsions:
REMARK  status: ('A' for Active; 'I' for Inactive)
REMARK    1  A    between atoms: C4_4  and  C8_8 
ROOT
HETATM    1  C5  UNL     1     -34.228  15.611  -3.000  1.00 20.00     0.033 C 
HETATM    2  C6  UNL     1     -34.605  16.458  -1.794  1.00 20.00     0.042 C 
HETATM    3  C7  UNL     1     -33.811  16.633  -4.039  1.00 20.00     0.273 C 
HETATM    4  C8  UNL     1     -33.860  17.793  -1.991  1.00 20.00     0.256 C 
HETATM    5  C9  UNL     1     -32.840  18.850  -3.949  1.00 20.00     0.310 C 
HETATM    6  N10 UNL     1     -33.079  17.606  -3.230  1.00 20.00     0.093 N 
ENDROOT
BRANCH   4   7
HETATM    7  C4  UNL     1     -32.993  18.159  -0.804  1.00 20.00    -0.018 A 
HETATM    8  C1  UNL     1     -31.571  18.228  -0.851  1.00 20.00     0.017 A 
HETATM    9  C2  UNL     1     -31.030  18.582   0.365  1.00 20.00     0.050 A 
HETATM   10  S11 UNL     1     -32.235  18.829   1.557  1.00 20.00    -0.113 SA
HETATM   11  C3  UNL     1     -33.485  18.462   0.446  1.00 20.00     0.058 A 
ENDBRANCH   4   7
TORSDOF 1
ENDMDL
MODEL 5
REMARK VINA RESULT:      -3.9      2.954      5.288
REMARK  1 active torsions:
REMARK  status: ('A' for Active; 'I' for Inactive)
REMARK    1  A    between atoms: C4_4  and  C8_8 
ROOT
HETATM    1  C5  UNL     1     -31.018  18.255   0.719  1.00 20.00     0.033 C 
HETATM    2  C6  UNL     1     -31.413  18.380  -0.745  1.00 20.00     0.042 C 
HETATM    3  C7  UNL     1     -32.225  18.791   1.462  1.00 20.00     0.273 C 
HETATM    4  C8  UNL     1     -32.953  18.416  -0.745  1.00 20.00     0.256 C 
HETATM    5  C9  UNL     1     -34.602  18.881   1.004  1.00 20.00     0.310 C 
HETATM    6  N10 UNL     1     -33.331  18.250   0.673  1.00 20.00     0.093 N 
ENDROOT
BRANCH   4   7
HETATM    7  C4  UNL     1     -33.561  17.354  -1.639  1.00 20.00    -0.018 A 
HETATM    8  C1  UNL     1     -34.843  16.772  -1.420  1.00 20.00     0.017 A 
HETATM    9  C2  UNL     1     -35.155  15.833  -2.379  1.00 20.00     0.050 A 
HETATM   10  S11 UNL     1     -33.904  15.656  -3.535  1.00 20.00    -0.113 SA
HETATM   11  C3  UNL     1     -32.941  16.838  -2.755  1.00 20.00     0.058 A 
ENDBRANCH   4   7
TORSDOF 1
ENDMDL
MODEL 6
REMARK VINA RESULT:      -3.9      2.600      4.760
REMARK  1 active torsions:
REMARK  status: ('A' for Active; 'I' for Inactive)
REMARK    1  A    between atoms: C4_4  and  C8_8 
ROOT
HETATM    1  C5  UNL     1     -31.569  18.530  -0.441  1.00 20.00     0.033 C 
HETATM    2  C6  UNL     1     -32.209  18.490  -1.821  1.00 20.00     0.042 C 
HETATM    3  C7  UNL     1     -32.755  18.564   0.502  1.00 20.00     0.273 C 
HETATM    4  C8  UNL     1     -33.626  17.931  -1.591  1.00 20.00     0.256 C 
HETATM    5  C9  UNL     1     -35.028  17.733   0.406  1.00 20.00     0.310 C 
HETATM    6  N10 UNL     1     -33.683  17.638  -0.145  1.00 20.00     0.093 N 
ENDROOT
BRANCH   4   7
HETATM    7  C4  UNL     1     -33.920  16.715  -2.445  1.00 20.00    -0.018 A 
HETATM    8  C1  UNL     1     -35.135  15.973  -2.380  1.00 20.00     0.017 A 
HETATM    9  C2  UNL     1     -35.142  14.915  -3.261  1.00 20.00     0.050 A 
HETATM   10  S11 UNL     1     -33.690  14.819  -4.163  1.00 20.00    -0.113 SA
HETATM   11  C3  UNL     1     -33.045  16.195  -3.374  1.00 20.00     0.058 A 
ENDBRANCH   4   7
TORSDOF 1
ENDMDL
MODEL 7
REMARK VINA RESULT:      -3.8      1.009      1.089
REMARK  1 active torsions:
REMARK  status: ('A' for Active; 'I' for Inactive)
REMARK    1  A    between atoms: C4_4  and  C8_8 
ROOT
HETATM    1  C5  UNL     1     -34.237  15.232  -4.934  1.00 20.00     0.033 C 
HETATM    2  C6  UNL     1     -34.124  14.960  -3.441  1.00 20.00     0.042 C 
HETATM    3  C7  UNL     1     -35.661  15.723  -5.100  1.00 20.00     0.273 C 
HETATM    4  C8  UNL     1     -35.222  15.823  -2.790  1.00 20.00     0.256 C 
HETATM    5  C9  UNL     1     -37.231  16.901  -3.681  1.00 20.00     0.310 C 
HETATM    6  N10 UNL     1     -35.834  16.559  -3.914  1.00 20.00     0.093 N 
ENDROOT
BRANCH   4   7
HETATM    7  C4  UNL     1     -34.681  16.743  -1.715  1.00 20.00    -0.018 A 
HETATM    8  C1  UNL     1     -33.447  17.448  -1.821  1.00 20.00     0.017 A 
HETATM    9  C2  UNL     1     -33.192  18.213  -0.704  1.00 20.00     0.050 A 
HETATM   10  S11 UNL     1     -34.436  18.079   0.465  1.00 20.00    -0.113 SA
HETATM   11  C3  UNL     1     -35.321  16.995  -0.522  1.00 20.00     0.058 A 
ENDBRANCH   4   7
TORSDOF 1
ENDMDL
MODEL 8
REMARK VINA RESULT:      -3.8      2.055      4.042
REMARK  1 active torsions:
REMARK  status: ('A' for Active; 'I' for Inactive)
REMARK    1  A    between atoms: C4_4  and  C8_8 
ROOT
HETATM    1  C5  UNL     1     -33.621  16.976  -2.238  1.00 20.00     0.033 C 
HETATM    2  C6  UNL     1     -34.854  16.146  -1.914  1.00 20.00     0.042 C 
HETATM    3  C7  UNL     1     -33.022  16.272  -3.439  1.00 20.00     0.273 C 
HETATM    4  C8  UNL     1     -35.204  15.416  -3.225  1.00 20.00     0.256 C 
HETATM    5  C9  UNL     1     -33.920  14.945  -5.256  1.00 20.00     0.310 C 
HETATM    6  N10 UNL     1     -34.214  15.909  -4.204  1.00 20.00     0.093 N 
ENDROOT
BRANCH   4   7
HETATM    7  C4  UNL     1     -36.632  15.660  -3.666  1.00 20.00    -0.018 A 
HETATM    8  C1  UNL     1     -37.479  14.651  -4.209  1.00 20.00     0.017 A 
HETATM    9  C2  UNL     1     -38.726  15.140  -4.528  1.00 20.00     0.050 A 
HETATM   10  S11 UNL     1     -38.872  16.809  -4.173  1.00 20.00    -0.113 SA
HETATM   11  C3  UNL     1     -37.264  16.882  -3.591  1.00 20.00     0.058 A 
ENDBRANCH   4   7
TORSDOF 1
ENDMDL
MODEL 9
REMARK VINA RESULT:      -3.8      2.334      4.462
REMARK  1 active torsions:
REMARK  status: ('A' for Active; 'I' for Inactive)
REMARK    1  A    between atoms: C4_4  and  C8_8 
ROOT
HETATM    1  C5  UNL     1     -35.656  18.438  -0.553  1.00 20.00     0.033 C 
HETATM    2  C6  UNL     1     -35.139  17.009  -0.618  1.00 20.00     0.042 C 
HETATM    3  C7  UNL     1     -34.498  19.262  -1.079  1.00 20.00     0.273 C 
HETATM    4  C8  UNL     1     -34.015  17.036  -1.671  1.00 20.00     0.256 C 
HETATM    5  C9  UNL     1     -32.691  18.854  -2.640  1.00 20.00     0.310 C 
HETATM    6  N10 UNL     1     -34.003  18.425  -2.171  1.00 20.00     0.093 N 
ENDROOT
BRANCH   4   7
HETATM    7  C4  UNL     1     -34.225  16.021  -2.776  1.00 20.00    -0.018 A 
HETATM    8  C1  UNL     1     -33.189  15.562  -3.640  1.00 20.00     0.017 A 
HETATM    9  C2  UNL     1     -33.650  14.642  -4.556  1.00 20.00     0.050 A 
HETATM   10  S11 UNL     1     -35.325  14.335  -4.372  1.00 20.00    -0.113 SA
HETATM   11  C3  UNL     1     -35.438  15.435  -3.064  1.00 20.00     0.058 A 
ENDBRANCH   4   7
TORSDOF 1
ENDMDL
