MODEL 1
REMARK VINA RESULT:      -4.2      0.000      0.000
REMARK  0 active torsions:
REMARK  status: ('A' for Active; 'I' for Inactive)
ROOT
HETATM    1  C1  UNL     1     -32.384   8.208   0.677  1.00 20.00     0.012 C 
HETATM    2  C2  UNL     1     -32.552   7.531   1.653  1.00 20.00    -0.113 C 
HETATM    3  C3  UNL     1     -33.699   5.532   2.544  1.00 20.00     0.047 C 
HETATM    4  C4  UNL     1     -33.329   7.539   3.998  1.00 20.00     0.047 C 
HETATM    5  C5  UNL     1     -34.018   4.727   3.805  1.00 20.00     0.273 C 
HETATM    6  C6  UNL     1     -33.661   6.668   5.213  1.00 20.00     0.273 C 
HETATM    7  C7  UNL     1     -32.759   6.701   2.851  1.00 20.00     0.067 C 
HETATM    8  C8  UNL     1     -34.935   4.796   6.032  1.00 20.00     0.309 C 
HETATM    9  N9  UNL     1     -34.588   5.587   4.852  1.00 20.00     0.084 N 
ENDROOT
TORSDOF 0
ENDMDL
MODEL 2
REMARK VINA RESULT:      -4.2     11.334     11.979
REMARK  0 active torsions:
REMARK  status: ('A' for Active; 'I' for Inactive)
ROOT
HETATM    1  C1  UNL     1     -32.009  18.113  -1.163  1.00 20.00     0.012 C 
HETATM    2  C2  UNL     1     -32.760  17.567  -1.923  1.00 20.00    -0.113 C 
HETATM    3  C3  UNL     1     -34.920  16.383  -2.116  1.00 20.00     0.047 C 
HETATM    4  C4  UNL     1     -32.981  15.735  -3.566  1.00 20.00     0.047 C 
HETATM    5  C5  UNL     1     -35.832  15.581  -3.048  1.00 20.00     0.273 C 
HETATM    6  C6  UNL     1     -33.957  14.954  -4.450  1.00 20.00     0.273 C 
HETATM    7  C7  UNL     1     -33.682  16.897  -2.855  1.00 20.00     0.067 C 
HETATM    8  C8  UNL     1     -35.999  13.681  -4.519  1.00 20.00     0.309 C 
HETATM    9  N9  UNL     1     -35.104  14.467  -3.672  1.00 20.00     0.084 N 
ENDROOT
TORSDOF 0
ENDMDL
MODEL 3
REMARK VINA RESULT:      -4.1     16.295     16.710
REMARK  0 active torsions:
REMARK  status: ('A' for Active; 'I' for Inactive)
ROOT
HETATM    1  C1  UNL     1     -21.302  17.159   7.612  1.00 20.00     0.012 C 
HETATM    2  C2  UNL     1     -22.020  17.685   8.417  1.00 20.00    -0.113 C 
HETATM    3  C3  UNL     1     -22.987  17.491  10.683  1.00 20.00     0.047 C 
HETATM    4  C4  UNL     1     -24.304  18.534   8.823  1.00 20.00     0.047 C 
HETATM    5  C5  UNL     1     -23.991  18.086  11.673  1.00 20.00     0.273 C 
HETATM    6  C6  UNL     1     -25.266  19.095   9.874  1.00 20.00     0.273 C 
HETATM    7  C7  UNL     1     -22.903  18.329   9.404  1.00 20.00     0.067 C 
HETATM    8  C8  UNL     1     -26.279  18.749  12.032  1.00 20.00     0.309 C 
HETATM    9  N9  UNL     1     -25.319  18.228  11.059  1.00 20.00     0.084 N 
ENDROOT
TORSDOF 0
ENDMDL
MODEL 4
REMARK VINA RESULT:      -4.0     16.083     17.151
REMARK  0 active torsions:
REMARK  status: ('A' for Active; 'I' for Inactive)
ROOT
HETATM    1  C1  UNL     1     -27.613  18.024  12.289  1.00 20.00     0.012 C 
HETATM    2  C2  UNL     1     -26.491  18.267  11.941  1.00 20.00    -0.113 C 
HETATM    3  C3  UNL     1     -24.998  18.514   9.987  1.00 20.00     0.047 C 
HETATM    4  C4  UNL     1     -24.127  17.577  12.141  1.00 20.00     0.047 C 
HETATM    5  C5  UNL     1     -23.550  18.705   9.531  1.00 20.00     0.273 C 
HETATM    6  C6  UNL     1     -22.706  17.797  11.615  1.00 20.00     0.273 C 
HETATM    7  C7  UNL     1     -25.113  18.564  11.513  1.00 20.00     0.067 C 
HETATM    8  C8  UNL     1     -21.294  17.869   9.666  1.00 20.00     0.309 C 
HETATM    9  N9  UNL     1     -22.665  17.707  10.149  1.00 20.00     0.084 N 
ENDROOT
TORSDOF 0
ENDMDL
MODEL 5
REMARK VINA RESULT:      -4.0     11.679     12.531
REMARK  0 active torsions:
REMARK  status: ('A' for Active; 'I' for Inactive)
ROOT
HETATM    1  C1  UNL     1     -35.272  17.230  -0.251  1.00 20.00     0.012 C 
HETATM    2  C2  UNL     1     -35.125  16.581  -1.250  1.00 20.00    -0.113 C 
HETATM    3  C3  UNL     1     -33.521  15.939  -3.016  1.00 20.00     0.047 C 
HETATM    4  C4  UNL     1     -35.955  16.208  -3.546  1.00 20.00     0.047 C 
HETATM    5  C5  UNL     1     -33.351  15.214  -4.353  1.00 20.00     0.273 C 
HETATM    6  C6  UNL     1     -35.706  15.474  -4.867  1.00 20.00     0.273 C 
HETATM    7  C7  UNL     1     -34.945  15.786  -2.476  1.00 20.00     0.067 C 
HETATM    8  C8  UNL     1     -34.124  15.023  -6.626  1.00 20.00     0.309 C 
HETATM    9  N9  UNL     1     -34.331  15.687  -5.340  1.00 20.00     0.084 N 
ENDROOT
TORSDOF 0
ENDMDL
MODEL 6
REMARK VINA RESULT:      -4.0     15.669     16.500
REMARK  0 active torsions:
REMARK  status: ('A' for Active; 'I' for Inactive)
ROOT
HETATM    1  C1  UNL     1     -25.523  19.263   6.055  1.00 20.00     0.012 C 
HETATM    2  C2  UNL     1     -24.959  19.208   7.113  1.00 20.00    -0.113 C 
HETATM    3  C3  UNL     1     -23.119  18.129   8.360  1.00 20.00     0.047 C 
HETATM    4  C4  UNL     1     -25.246  18.760   9.526  1.00 20.00     0.047 C 
HETATM    5  C5  UNL     1     -22.464  17.960   9.733  1.00 20.00     0.273 C 
HETATM    6  C6  UNL     1     -24.522  18.569  10.861  1.00 20.00     0.273 C 
HETATM    7  C7  UNL     1     -24.268  19.140   8.411  1.00 20.00     0.067 C 
HETATM    8  C8  UNL     1     -22.806  17.359  12.041  1.00 20.00     0.309 C 
HETATM    9  N9  UNL     1     -23.454  17.567  10.746  1.00 20.00     0.084 N 
ENDROOT
TORSDOF 0
ENDMDL
MODEL 7
REMARK VINA RESULT:      -4.0     11.153     12.231
REMARK  0 active torsions:
REMARK  status: ('A' for Active; 'I' for Inactive)
ROOT
HETATM    1  C1  UNL     1     -34.818  14.005  -3.930  1.00 20.00     0.012 C 
HETATM    2  C2  UNL     1     -34.657  15.080  -3.423  1.00 20.00    -0.113 C 
HETATM    3  C3  UNL     1     -32.969  16.735  -2.702  1.00 20.00     0.047 C 
HETATM    4  C4  UNL     1     -35.093  16.439  -1.406  1.00 20.00     0.047 C 
HETATM    5  C5  UNL     1     -32.741  18.048  -1.951  1.00 20.00     0.273 C 
HETATM    6  C6  UNL     1     -34.796  17.763  -0.697  1.00 20.00     0.273 C 
HETATM    7  C7  UNL     1     -34.460  16.400  -2.799  1.00 20.00     0.067 C 
HETATM    8  C8  UNL     1     -33.080  19.247   0.111  1.00 20.00     0.309 C 
HETATM    9  N9  UNL     1     -33.349  18.006  -0.614  1.00 20.00     0.084 N 
ENDROOT
TORSDOF 0
ENDMDL
MODEL 8
REMARK VINA RESULT:      -3.9     11.394     12.044
REMARK  0 active torsions:
REMARK  status: ('A' for Active; 'I' for Inactive)
ROOT
HETATM    1  C1  UNL     1     -32.237  18.382  -1.917  1.00 20.00     0.012 C 
HETATM    2  C2  UNL     1     -32.915  17.430  -2.190  1.00 20.00    -0.113 C 
HETATM    3  C3  UNL     1     -33.172  15.517  -3.733  1.00 20.00     0.047 C 
HETATM    4  C4  UNL     1     -35.187  16.691  -2.817  1.00 20.00     0.047 C 
HETATM    5  C5  UNL     1     -34.087  14.370  -4.168  1.00 20.00     0.273 C 
HETATM    6  C6  UNL     1     -36.037  15.506  -3.282  1.00 20.00     0.273 C 
HETATM    7  C7  UNL     1     -33.747  16.262  -2.525  1.00 20.00     0.067 C 
HETATM    8  C8  UNL     1     -36.292  13.760  -4.921  1.00 20.00     0.309 C 
HETATM    9  N9  UNL     1     -35.443  14.857  -4.459  1.00 20.00     0.084 N 
ENDROOT
TORSDOF 0
ENDMDL
MODEL 9
REMARK VINA RESULT:      -3.9     11.437     12.129
REMARK  0 active torsions:
REMARK  status: ('A' for Active; 'I' for Inactive)
ROOT
HETATM    1  C1  UNL     1     -33.146  14.660  -4.375  1.00 20.00     0.012 C 
HETATM    2  C2  UNL     1     -33.547  15.549  -3.675  1.00 20.00    -0.113 C 
HETATM    3  C3  UNL     1     -32.878  17.324  -2.092  1.00 20.00     0.047 C 
HETATM    4  C4  UNL     1     -35.048  16.107  -1.794  1.00 20.00     0.047 C 
HETATM    5  C5  UNL     1     -33.382  18.380  -1.106  1.00 20.00     0.273 C 
HETATM    6  C6  UNL     1     -35.481  17.203  -0.817  1.00 20.00     0.273 C 
HETATM    7  C7  UNL     1     -34.040  16.638  -2.816  1.00 20.00     0.067 C 
HETATM    8  C8  UNL     1     -34.754  18.805   0.828  1.00 20.00     0.309 C 
HETATM    9  N9  UNL     1     -34.321  17.796  -0.138  1.00 20.00     0.084 N 
ENDROOT
TORSDOF 0
ENDMDL
