MODEL 1
REMARK VINA RESULT:      -3.6      0.000      0.000
REMARK  0 active torsions:
REMARK  status: ('A' for Active; 'I' for Inactive)
ROOT
HETATM    1  C1  UNL     1     -34.112   6.820   6.043  1.00 20.00     0.011 C 
HETATM    2  C2  UNL     1     -33.109   7.158   4.942  1.00 20.00     0.017 C 
HETATM    3  C3  UNL     1     -34.485   5.344   6.079  1.00 20.00     0.074 C 
HETATM    4  C4  UNL     1     -33.961   5.335   3.373  1.00 20.00     0.089 C 
HETATM    5  C5  UNL     1     -33.636   6.812   3.552  1.00 20.00     0.067 C 
HETATM    6  S6  UNL     1     -35.257   4.802   4.529  1.00 20.00    -0.168 SA
HETATM    7 BR7  UNL     1     -32.269   7.306   2.231  1.00 20.00    -0.090 Br
ENDROOT
TORSDOF 0
ENDMDL
MODEL 2
REMARK VINA RESULT:      -3.6      1.335      2.181
REMARK  0 active torsions:
REMARK  status: ('A' for Active; 'I' for Inactive)
ROOT
HETATM    1  C1  UNL     1     -34.101   4.215   3.759  1.00 20.00     0.011 C 
HETATM    2  C2  UNL     1     -33.677   5.205   2.676  1.00 20.00     0.017 C 
HETATM    3  C3  UNL     1     -35.002   4.836   4.818  1.00 20.00     0.074 C 
HETATM    4  C4  UNL     1     -33.715   7.209   4.256  1.00 20.00     0.089 C 
HETATM    5  C5  UNL     1     -32.913   6.397   3.248  1.00 20.00     0.067 C 
HETATM    6  S6  UNL     1     -34.181   6.198   5.692  1.00 20.00    -0.168 SA
HETATM    7 BR7  UNL     1     -32.413   7.582   1.763  1.00 20.00    -0.090 Br
ENDROOT
TORSDOF 0
ENDMDL
MODEL 3
REMARK VINA RESULT:      -3.4      9.017      9.581
REMARK  0 active torsions:
REMARK  status: ('A' for Active; 'I' for Inactive)
ROOT
HETATM    1  C1  UNL     1     -41.282   5.472  -1.117  1.00 20.00     0.011 C 
HETATM    2  C2  UNL     1     -41.192   6.994  -1.033  1.00 20.00     0.017 C 
HETATM    3  C3  UNL     1     -42.648   4.930  -0.717  1.00 20.00     0.074 C 
HETATM    4  C4  UNL     1     -42.850   7.153   0.900  1.00 20.00     0.089 C 
HETATM    5  C5  UNL     1     -41.467   7.513   0.376  1.00 20.00     0.067 C 
HETATM    6  S6  UNL     1     -43.069   5.352   0.997  1.00 20.00    -0.168 SA
HETATM    7 BR7  UNL     1     -41.307   9.471   0.357  1.00 20.00    -0.090 Br
ENDROOT
TORSDOF 0
ENDMDL
MODEL 4
REMARK VINA RESULT:      -3.4     16.366     16.955
REMARK  0 active torsions:
REMARK  status: ('A' for Active; 'I' for Inactive)
ROOT
HETATM    1  C1  UNL     1     -22.793  17.369  12.062  1.00 20.00     0.011 C 
HETATM    2  C2  UNL     1     -24.077  18.153  12.330  1.00 20.00     0.017 C 
HETATM    3  C3  UNL     1     -22.090  17.795  10.779  1.00 20.00     0.074 C 
HETATM    4  C4  UNL     1     -24.595  18.482   9.853  1.00 20.00     0.089 C 
HETATM    5  C5  UNL     1     -25.097  17.996  11.206  1.00 20.00     0.067 C 
HETATM    6  S6  UNL     1     -23.135  17.541   9.318  1.00 20.00    -0.168 SA
HETATM    7 BR7  UNL     1     -26.699  19.032  11.675  1.00 20.00    -0.090 Br
ENDROOT
TORSDOF 0
ENDMDL
MODEL 5
REMARK VINA RESULT:      -3.3     12.041     12.596
REMARK  0 active torsions:
REMARK  status: ('A' for Active; 'I' for Inactive)
ROOT
HETATM    1  C1  UNL     1     -33.280  14.775  -4.437  1.00 20.00     0.011 C 
HETATM    2  C2  UNL     1     -33.553  15.783  -3.321  1.00 20.00     0.017 C 
HETATM    3  C3  UNL     1     -34.330  14.807  -5.540  1.00 20.00     0.074 C 
HETATM    4  C4  UNL     1     -36.087  15.650  -3.589  1.00 20.00     0.089 C 
HETATM    5  C5  UNL     1     -34.899  15.546  -2.643  1.00 20.00     0.067 C 
HETATM    6  S6  UNL     1     -35.985  14.408  -4.911  1.00 20.00    -0.168 SA
HETATM    7 BR7  UNL     1     -35.123  16.888  -1.225  1.00 20.00    -0.090 Br
ENDROOT
TORSDOF 0
ENDMDL
MODEL 6
REMARK VINA RESULT:      -3.3     15.678     16.021
REMARK  0 active torsions:
REMARK  status: ('A' for Active; 'I' for Inactive)
ROOT
HETATM    1  C1  UNL     1     -24.846  16.203  12.009  1.00 20.00     0.011 C 
HETATM    2  C2  UNL     1     -24.213  16.420  10.636  1.00 20.00     0.017 C 
HETATM    3  C3  UNL     1     -26.160  16.952  12.186  1.00 20.00     0.074 C 
HETATM    4  C4  UNL     1     -25.145  18.783  10.392  1.00 20.00     0.089 C 
HETATM    5  C5  UNL     1     -23.911  17.891  10.363  1.00 20.00     0.067 C 
HETATM    6  S6  UNL     1     -25.944  18.747  12.023  1.00 20.00    -0.168 SA
HETATM    7 BR7  UNL     1     -23.090  18.035   8.584  1.00 20.00    -0.090 Br
ENDROOT
TORSDOF 0
ENDMDL
MODEL 7
REMARK VINA RESULT:      -3.2     15.857     16.173
REMARK  0 active torsions:
REMARK  status: ('A' for Active; 'I' for Inactive)
ROOT
HETATM    1  C1  UNL     1     -25.850  18.991  10.641  1.00 20.00     0.011 C 
HETATM    2  C2  UNL     1     -24.530  18.747   9.914  1.00 20.00     0.017 C 
HETATM    3  C3  UNL     1     -25.810  18.582  12.108  1.00 20.00     0.074 C 
HETATM    4  C4  UNL     1     -23.921  16.724  11.346  1.00 20.00     0.089 C 
HETATM    5  C5  UNL     1     -24.117  17.277   9.941  1.00 20.00     0.067 C 
HETATM    6  S6  UNL     1     -25.460  16.812  12.308  1.00 20.00    -0.168 SA
HETATM    7 BR7  UNL     1     -22.422  17.093   8.966  1.00 20.00    -0.090 Br
ENDROOT
TORSDOF 0
ENDMDL
MODEL 8
REMARK VINA RESULT:      -3.2     16.543     16.990
REMARK  0 active torsions:
REMARK  status: ('A' for Active; 'I' for Inactive)
ROOT
HETATM    1  C1  UNL     1     -23.432  18.573   9.590  1.00 20.00     0.011 C 
HETATM    2  C2  UNL     1     -24.897  18.446  10.002  1.00 20.00     0.017 C 
HETATM    3  C3  UNL     1     -22.533  17.535  10.250  1.00 20.00     0.074 C 
HETATM    4  C4  UNL     1     -24.342  17.562  12.330  1.00 20.00     0.089 C 
HETATM    5  C5  UNL     1     -25.091  18.601  11.508  1.00 20.00     0.067 C 
HETATM    6  S6  UNL     1     -22.549  17.676  12.059  1.00 20.00    -0.168 SA
HETATM    7 BR7  UNL     1     -27.008  18.435  11.905  1.00 20.00    -0.090 Br
ENDROOT
TORSDOF 0
ENDMDL
MODEL 9
REMARK VINA RESULT:      -3.0     12.268     12.551
REMARK  0 active torsions:
REMARK  status: ('A' for Active; 'I' for Inactive)
ROOT
HETATM    1  C1  UNL     1     -34.212  16.104  -2.328  1.00 20.00     0.011 C 
HETATM    2  C2  UNL     1     -35.636  16.040  -2.877  1.00 20.00     0.017 C 
HETATM    3  C3  UNL     1     -33.151  16.127  -3.421  1.00 20.00     0.074 C 
HETATM    4  C4  UNL     1     -34.960  14.715  -4.950  1.00 20.00     0.089 C 
HETATM    5  C5  UNL     1     -35.872  14.799  -3.734  1.00 20.00     0.067 C 
HETATM    6  S6  UNL     1     -33.213  14.638  -4.457  1.00 20.00    -0.168 SA
HETATM    7 BR7  UNL     1     -37.733  14.826  -4.363  1.00 20.00    -0.090 Br
ENDROOT
TORSDOF 0
ENDMDL
