MODEL 1
REMARK VINA RESULT:      -5.0      0.000      0.000
REMARK  1 active torsions:
REMARK  status: ('A' for Active; 'I' for Inactive)
REMARK    1  A    between atoms: C9_9  and  S11_11 
ROOT
HETATM    1  C1  UNL     1     -32.968  15.878  -3.626  1.00 20.00     0.015 A 
HETATM    2  C2  UNL     1     -32.674  17.552  -1.862  1.00 20.00     0.016 A 
HETATM    3  C3  UNL     1     -33.761  14.919  -4.252  1.00 20.00     0.025 A 
HETATM    4  C4  UNL     1     -33.180  18.231  -0.763  1.00 20.00     0.039 A 
HETATM    5  C5  UNL     1     -35.518  15.365  -2.658  1.00 20.00     0.056 A 
HETATM    6  C6  UNL     1     -33.451  16.583  -2.510  1.00 20.00    -0.007 A 
HETATM    7  C7  UNL     1     -34.747  16.327  -2.013  1.00 20.00     0.070 A 
HETATM    8  C8  UNL     1     -35.038  14.664  -3.767  1.00 20.00     0.036 A 
HETATM    9  C9  UNL     1     -34.457  17.913  -0.350  1.00 20.00     0.091 A 
HETATM   10  N10 UNL     1     -35.240  16.985  -0.947  1.00 20.00    -0.242 NA
HETATM   11 CL12 UNL     1     -36.028  13.483  -4.533  1.00 20.00    -0.084 Cl
ENDROOT
BRANCH   9  12
HETATM   12  S11 UNL     1     -35.158  18.755   1.059  1.00 20.00    -0.123 SA
HETATM   13  H18 UNL     1     -34.362  18.212   1.993  1.00 20.00     0.108 HD
ENDBRANCH   9  12
TORSDOF 1
ENDMDL
MODEL 2
REMARK VINA RESULT:      -4.9      3.250      4.423
REMARK  1 active torsions:
REMARK  status: ('A' for Active; 'I' for Inactive)
REMARK    1  A    between atoms: C9_9  and  S11_11 
ROOT
HETATM    1  C1  UNL     1     -32.647  17.520  -1.781  1.00 20.00     0.015 A 
HETATM    2  C2  UNL     1     -33.013  15.963  -3.637  1.00 20.00     0.016 A 
HETATM    3  C3  UNL     1     -33.120  18.154  -0.635  1.00 20.00     0.025 A 
HETATM    4  C4  UNL     1     -33.843  15.075  -4.306  1.00 20.00     0.039 A 
HETATM    5  C5  UNL     1     -35.218  16.987  -0.881  1.00 20.00     0.056 A 
HETATM    6  C6  UNL     1     -33.464  16.615  -2.481  1.00 20.00    -0.007 A 
HETATM    7  C7  UNL     1     -34.772  16.339  -2.029  1.00 20.00     0.070 A 
HETATM    8  C8  UNL     1     -34.407  17.887  -0.185  1.00 20.00     0.036 A 
HETATM    9  C9  UNL     1     -35.106  14.870  -3.788  1.00 20.00     0.091 A 
HETATM   10  N10 UNL     1     -35.579  15.478  -2.676  1.00 20.00    -0.242 NA
HETATM   11 CL12 UNL     1     -35.001  18.663   1.231  1.00 20.00    -0.084 Cl
ENDROOT
BRANCH   9  12
HETATM   12  S11 UNL     1     -36.217  13.739  -4.608  1.00 20.00    -0.123 SA
HETATM   13  H18 UNL     1     -37.054  13.548  -3.578  1.00 20.00     0.108 HD
ENDBRANCH   9  12
TORSDOF 1
ENDMDL
MODEL 3
REMARK VINA RESULT:      -4.5      1.738      2.387
REMARK  1 active torsions:
REMARK  status: ('A' for Active; 'I' for Inactive)
REMARK    1  A    between atoms: C9_9  and  S11_11 
ROOT
HETATM    1  C1  UNL     1     -35.493  15.746  -2.509  1.00 20.00     0.015 A 
HETATM    2  C2  UNL     1     -34.863  17.180  -0.626  1.00 20.00     0.016 A 
HETATM    3  C3  UNL     1     -35.179  15.169  -3.737  1.00 20.00     0.025 A 
HETATM    4  C4  UNL     1     -33.932  18.005  -0.011  1.00 20.00     0.039 A 
HETATM    5  C5  UNL     1     -33.029  16.264  -3.675  1.00 20.00     0.056 A 
HETATM    6  C6  UNL     1     -34.572  16.587  -1.862  1.00 20.00    -0.007 A 
HETATM    7  C7  UNL     1     -33.317  16.854  -2.448  1.00 20.00     0.070 A 
HETATM    8  C8  UNL     1     -33.945  15.428  -4.320  1.00 20.00     0.036 A 
HETATM    9  C9  UNL     1     -32.732  18.207  -0.662  1.00 20.00     0.091 A 
HETATM   10  N10 UNL     1     -32.412  17.653  -1.854  1.00 20.00    -0.242 NA
HETATM   11 CL12 UNL     1     -33.544  14.719  -5.836  1.00 20.00    -0.084 Cl
ENDROOT
BRANCH   9  12
HETATM   12  S11 UNL     1     -31.497  19.260   0.082  1.00 20.00    -0.123 SA
HETATM   13  H18 UNL     1     -32.233  20.381   0.121  1.00 20.00     0.108 HD
ENDBRANCH   9  12
TORSDOF 1
ENDMDL
MODEL 4
REMARK VINA RESULT:      -4.4      3.297      4.525
REMARK  1 active torsions:
REMARK  status: ('A' for Active; 'I' for Inactive)
REMARK    1  A    between atoms: C9_9  and  S11_11 
ROOT
HETATM    1  C1  UNL     1     -33.073  18.353  -0.586  1.00 20.00     0.015 A 
HETATM    2  C2  UNL     1     -32.858  17.022  -2.632  1.00 20.00     0.016 A 
HETATM    3  C3  UNL     1     -33.801  18.702   0.548  1.00 20.00     0.025 A 
HETATM    4  C4  UNL     1     -33.376  16.069  -3.497  1.00 20.00     0.039 A 
HETATM    5  C5  UNL     1     -35.519  17.136  -0.101  1.00 20.00     0.056 A 
HETATM    6  C6  UNL     1     -33.570  17.392  -1.483  1.00 20.00    -0.007 A 
HETATM    7  C7  UNL     1     -34.813  16.769  -1.242  1.00 20.00     0.070 A 
HETATM    8  C8  UNL     1     -35.026  18.092   0.791  1.00 20.00     0.036 A 
HETATM    9  C9  UNL     1     -34.600  15.516  -3.178  1.00 20.00     0.091 A 
HETATM   10  N10 UNL     1     -35.318  15.845  -2.080  1.00 20.00    -0.242 NA
HETATM   11 CL12 UNL     1     -35.934  18.514   2.191  1.00 20.00    -0.084 Cl
ENDROOT
BRANCH   9  12
HETATM   12  S11 UNL     1     -35.314  14.286  -4.256  1.00 20.00    -0.123 SA
HETATM   13  H18 UNL     1     -35.787  15.131  -5.185  1.00 20.00     0.108 HD
ENDBRANCH   9  12
TORSDOF 1
ENDMDL
MODEL 5
REMARK VINA RESULT:      -4.4      3.628      5.021
REMARK  1 active torsions:
REMARK  status: ('A' for Active; 'I' for Inactive)
REMARK    1  A    between atoms: C9_9  and  S11_11 
ROOT
HETATM    1  C1  UNL     1     -34.627  17.680  -0.224  1.00 20.00     0.015 A 
HETATM    2  C2  UNL     1     -35.536  16.312  -2.042  1.00 20.00     0.016 A 
HETATM    3  C3  UNL     1     -33.558  18.372   0.338  1.00 20.00     0.025 A 
HETATM    4  C4  UNL     1     -35.356  15.669  -3.258  1.00 20.00     0.039 A 
HETATM    5  C5  UNL     1     -32.190  17.749  -1.550  1.00 20.00     0.056 A 
HETATM    6  C6  UNL     1     -34.477  17.017  -1.454  1.00 20.00    -0.007 A 
HETATM    7  C7  UNL     1     -33.241  17.049  -2.134  1.00 20.00     0.070 A 
HETATM    8  C8  UNL     1     -32.338  18.408  -0.327  1.00 20.00     0.036 A 
HETATM    9  C9  UNL     1     -34.111  15.756  -3.848  1.00 20.00     0.091 A 
HETATM   10  N10 UNL     1     -33.064  16.426  -3.314  1.00 20.00    -0.242 NA
HETATM   11 CL12 UNL     1     -31.011  19.263   0.357  1.00 20.00    -0.084 Cl
ENDROOT
BRANCH   9  12
HETATM   12  S11 UNL     1     -33.823  14.947  -5.412  1.00 20.00    -0.123 SA
HETATM   13  H18 UNL     1     -32.767  15.683  -5.791  1.00 20.00     0.108 HD
ENDBRANCH   9  12
TORSDOF 1
ENDMDL
MODEL 6
REMARK VINA RESULT:      -4.4     10.914     12.283
REMARK  1 active torsions:
REMARK  status: ('A' for Active; 'I' for Inactive)
REMARK    1  A    between atoms: C9_9  and  S11_11 
ROOT
HETATM    1  C1  UNL     1     -24.634  19.260   4.356  1.00 20.00     0.015 A 
HETATM    2  C2  UNL     1     -23.876  19.262   6.686  1.00 20.00     0.016 A 
HETATM    3  C3  UNL     1     -25.675  19.247   3.433  1.00 20.00     0.025 A 
HETATM    4  C4  UNL     1     -24.177  19.253   8.040  1.00 20.00     0.039 A 
HETATM    5  C5  UNL     1     -27.260  19.218   5.253  1.00 20.00     0.056 A 
HETATM    6  C6  UNL     1     -24.905  19.250   5.735  1.00 20.00    -0.007 A 
HETATM    7  C7  UNL     1     -26.238  19.229   6.198  1.00 20.00     0.070 A 
HETATM    8  C8  UNL     1     -26.990  19.226   3.882  1.00 20.00     0.036 A 
HETATM    9  C9  UNL     1     -25.510  19.233   8.397  1.00 20.00     0.091 A 
HETATM   10  N10 UNL     1     -26.533  19.221   7.511  1.00 20.00    -0.242 NA
HETATM   11 CL12 UNL     1     -28.286  19.213   2.750  1.00 20.00    -0.084 Cl
ENDROOT
BRANCH   9  12
HETATM   12  S11 UNL     1     -25.956  19.219  10.125  1.00 20.00    -0.123 SA
HETATM   13  H18 UNL     1     -25.205  20.266  10.501  1.00 20.00     0.108 HD
ENDBRANCH   9  12
TORSDOF 1
ENDMDL
MODEL 7
REMARK VINA RESULT:      -4.2      2.387      3.020
REMARK  1 active torsions:
REMARK  status: ('A' for Active; 'I' for Inactive)
REMARK    1  A    between atoms: C9_9  and  S11_11 
ROOT
HETATM    1  C1  UNL     1     -35.855  14.548  -3.941  1.00 20.00     0.015 A 
HETATM    2  C2  UNL     1     -34.808  15.891  -2.180  1.00 20.00     0.016 A 
HETATM    3  C3  UNL     1     -36.086  14.312  -5.293  1.00 20.00     0.025 A 
HETATM    4  C4  UNL     1     -34.014  16.968  -1.811  1.00 20.00     0.039 A 
HETATM    5  C5  UNL     1     -34.726  16.229  -5.838  1.00 20.00     0.056 A 
HETATM    6  C6  UNL     1     -35.056  15.631  -3.534  1.00 20.00    -0.007 A 
HETATM    7  C7  UNL     1     -34.479  16.489  -4.494  1.00 20.00     0.070 A 
HETATM    8  C8  UNL     1     -35.520  15.153  -6.243  1.00 20.00     0.036 A 
HETATM    9  C9  UNL     1     -33.493  17.752  -2.820  1.00 20.00     0.091 A 
HETATM   10  N10 UNL     1     -33.709  17.534  -4.138  1.00 20.00    -0.242 NA
HETATM   11 CL12 UNL     1     -35.797  14.870  -7.918  1.00 20.00    -0.084 Cl
ENDROOT
BRANCH   9  12
HETATM   12  S11 UNL     1     -32.467  19.150  -2.403  1.00 20.00    -0.123 SA
HETATM   13  H18 UNL     1     -32.809  19.231  -1.109  1.00 20.00     0.108 HD
ENDBRANCH   9  12
TORSDOF 1
ENDMDL
MODEL 8
REMARK VINA RESULT:      -4.1      3.731      5.003
REMARK  1 active torsions:
REMARK  status: ('A' for Active; 'I' for Inactive)
REMARK    1  A    between atoms: C9_9  and  S11_11 
ROOT
HETATM    1  C1  UNL     1     -35.149  16.624  -1.410  1.00 20.00     0.015 A 
HETATM    2  C2  UNL     1     -36.175  15.536  -3.350  1.00 20.00     0.016 A 
HETATM    3  C3  UNL     1     -34.094  17.344  -0.855  1.00 20.00     0.025 A 
HETATM    4  C4  UNL     1     -36.123  15.193  -4.694  1.00 20.00     0.039 A 
HETATM    5  C5  UNL     1     -32.994  17.343  -3.004  1.00 20.00     0.056 A 
HETATM    6  C6  UNL     1     -35.126  16.260  -2.767  1.00 20.00    -0.007 A 
HETATM    7  C7  UNL     1     -34.034  16.623  -3.583  1.00 20.00     0.070 A 
HETATM    8  C8  UNL     1     -33.015  17.704  -1.654  1.00 20.00     0.036 A 
HETATM    9  C9  UNL     1     -35.013  15.592  -5.411  1.00 20.00     0.091 A 
HETATM   10  N10 UNL     1     -33.981  16.291  -4.887  1.00 20.00    -0.242 NA
HETATM   11 CL12 UNL     1     -31.706  18.595  -0.980  1.00 20.00    -0.084 Cl
ENDROOT
BRANCH   9  12
HETATM   12  S11 UNL     1     -34.893  15.176  -7.143  1.00 20.00    -0.123 SA
HETATM   13  H18 UNL     1     -35.316  16.354  -7.628  1.00 20.00     0.108 HD
ENDBRANCH   9  12
TORSDOF 1
ENDMDL
MODEL 9
REMARK VINA RESULT:      -4.1      1.895      2.550
REMARK  1 active torsions:
REMARK  status: ('A' for Active; 'I' for Inactive)
REMARK    1  A    between atoms: C9_9  and  S11_11 
ROOT
HETATM    1  C1  UNL     1     -35.198  14.153  -4.295  1.00 20.00     0.015 A 
HETATM    2  C2  UNL     1     -33.358  15.513  -3.418  1.00 20.00     0.016 A 
HETATM    3  C3  UNL     1     -36.558  13.989  -4.540  1.00 20.00     0.025 A 
HETATM    4  C4  UNL     1     -32.920  16.679  -2.807  1.00 20.00     0.039 A 
HETATM    5  C5  UNL     1     -36.974  16.155  -3.559  1.00 20.00     0.056 A 
HETATM    6  C6  UNL     1     -34.722  15.323  -3.677  1.00 20.00    -0.007 A 
HETATM    7  C7  UNL     1     -35.620  16.345  -3.301  1.00 20.00     0.070 A 
HETATM    8  C8  UNL     1     -37.447  14.992  -4.172  1.00 20.00     0.036 A 
HETATM    9  C9  UNL     1     -33.872  17.622  -2.476  1.00 20.00     0.091 A 
HETATM   10  N10 UNL     1     -35.197  17.477  -2.709  1.00 20.00    -0.242 NA
HETATM   11 CL12 UNL     1     -39.131  14.802  -4.473  1.00 20.00    -0.084 Cl
ENDROOT
BRANCH   9  12
HETATM   12  S11 UNL     1     -33.366  19.140  -1.687  1.00 20.00    -0.123 SA
HETATM   13  H18 UNL     1     -32.073  18.822  -1.524  1.00 20.00     0.108 HD
ENDBRANCH   9  12
TORSDOF 1
ENDMDL
