MODEL 1
REMARK VINA RESULT:      -4.9      0.000      0.000
REMARK  0 active torsions:
REMARK  status: ('A' for Active; 'I' for Inactive)
ROOT
HETATM    1  C1  UNL     1     -33.046   5.861   2.315  1.00 20.00     0.034 A 
HETATM    2  C2  UNL     1     -33.774   6.780   5.633  1.00 20.00     0.027 A 
HETATM    3  C3  UNL     1     -32.263   7.074   2.590  1.00 20.00     0.118 A 
HETATM    4  C4  UNL     1     -34.600   4.701   3.944  1.00 20.00     0.124 A 
HETATM    5  C5  UNL     1     -33.652   5.718   3.490  1.00 20.00     0.011 A 
HETATM    6  C6  UNL     1     -33.272   6.750   4.399  1.00 20.00     0.066 A 
HETATM    7  C7  UNL     1     -34.752   5.729   6.099  1.00 20.00     0.178 A 
HETATM    8  N8  UNL     1     -32.386   7.589   3.779  1.00 20.00    -0.261 NA
HETATM    9  N9  UNL     1     -35.120   4.675   5.122  1.00 20.00    -0.297 NA
ENDROOT
TORSDOF 0
ENDMDL
MODEL 2
REMARK VINA RESULT:      -4.8      1.378      2.081
REMARK  0 active torsions:
REMARK  status: ('A' for Active; 'I' for Inactive)
ROOT
HETATM    1  C1  UNL     1     -32.642   7.078   3.067  1.00 20.00     0.034 A 
HETATM    2  C2  UNL     1     -34.705   4.653   4.568  1.00 20.00     0.027 A 
HETATM    3  C3  UNL     1     -32.836   6.020   2.065  1.00 20.00     0.118 A 
HETATM    4  C4  UNL     1     -33.624   7.101   5.402  1.00 20.00     0.124 A 
HETATM    5  C5  UNL     1     -33.363   6.571   4.063  1.00 20.00     0.011 A 
HETATM    6  C6  UNL     1     -33.944   5.319   3.700  1.00 20.00     0.066 A 
HETATM    7  C7  UNL     1     -34.971   5.200   5.948  1.00 20.00     0.178 A 
HETATM    8  N8  UNL     1     -33.578   5.011   2.418  1.00 20.00    -0.261 NA
HETATM    9  N9  UNL     1     -34.349   6.505   6.284  1.00 20.00    -0.297 NA
ENDROOT
TORSDOF 0
ENDMDL
MODEL 3
REMARK VINA RESULT:      -4.8      0.741      3.649
REMARK  0 active torsions:
REMARK  status: ('A' for Active; 'I' for Inactive)
ROOT
HETATM    1  C1  UNL     1     -34.175   6.538   5.953  1.00 20.00     0.034 A 
HETATM    2  C2  UNL     1     -33.705   5.136   2.760  1.00 20.00     0.027 A 
HETATM    3  C3  UNL     1     -34.989   5.315   5.914  1.00 20.00     0.118 A 
HETATM    4  C4  UNL     1     -32.735   7.419   4.065  1.00 20.00     0.124 A 
HETATM    5  C5  UNL     1     -33.658   6.498   4.729  1.00 20.00     0.011 A 
HETATM    6  C6  UNL     1     -34.114   5.353   4.009  1.00 20.00     0.066 A 
HETATM    7  C7  UNL     1     -32.754   6.088   2.076  1.00 20.00     0.178 A 
HETATM    8  N8  UNL     1     -34.960   4.631   4.806  1.00 20.00    -0.261 NA
HETATM    9  N9  UNL     1     -32.304   7.264   2.861  1.00 20.00    -0.297 NA
ENDROOT
TORSDOF 0
ENDMDL
MODEL 4
REMARK VINA RESULT:      -4.7      1.274      3.061
REMARK  0 active torsions:
REMARK  status: ('A' for Active; 'I' for Inactive)
ROOT
HETATM    1  C1  UNL     1     -34.932   4.740   4.811  1.00 20.00     0.034 A 
HETATM    2  C2  UNL     1     -32.758   7.435   4.181  1.00 20.00     0.027 A 
HETATM    3  C3  UNL     1     -34.903   5.546   6.040  1.00 20.00     0.118 A 
HETATM    4  C4  UNL     1     -33.650   5.239   2.684  1.00 20.00     0.124 A 
HETATM    5  C5  UNL     1     -34.099   5.455   4.060  1.00 20.00     0.011 A 
HETATM    6  C6  UNL     1     -33.608   6.593   4.767  1.00 20.00     0.066 A 
HETATM    7  C7  UNL     1     -32.295   7.210   2.762  1.00 20.00     0.178 A 
HETATM    8  N8  UNL     1     -34.149   6.606   6.024  1.00 20.00    -0.261 NA
HETATM    9  N9  UNL     1     -32.831   6.015   2.064  1.00 20.00    -0.297 NA
ENDROOT
TORSDOF 0
ENDMDL
MODEL 5
REMARK VINA RESULT:      -4.3     15.616     16.109
REMARK  0 active torsions:
REMARK  status: ('A' for Active; 'I' for Inactive)
ROOT
HETATM    1  C1  UNL     1     -23.587  18.755   8.799  1.00 20.00     0.034 A 
HETATM    2  C2  UNL     1     -24.229  16.125  11.048  1.00 20.00     0.027 A 
HETATM    3  C3  UNL     1     -22.671  17.665   8.434  1.00 20.00     0.118 A 
HETATM    4  C4  UNL     1     -25.276  18.700  10.686  1.00 20.00     0.124 A 
HETATM    5  C5  UNL     1     -24.213  18.183   9.823  1.00 20.00     0.011 A 
HETATM    6  C6  UNL     1     -23.724  16.864  10.060  1.00 20.00     0.066 A 
HETATM    7  C7  UNL     1     -25.325  16.661  11.937  1.00 20.00     0.178 A 
HETATM    8  N8  UNL     1     -22.743  16.580   9.150  1.00 20.00    -0.261 NA
HETATM    9  N9  UNL     1     -25.804  18.037  11.655  1.00 20.00    -0.297 NA
ENDROOT
TORSDOF 0
ENDMDL
MODEL 6
REMARK VINA RESULT:      -4.3     16.250     16.760
REMARK  0 active torsions:
REMARK  status: ('A' for Active; 'I' for Inactive)
ROOT
HETATM    1  C1  UNL     1     -22.959  17.447  10.959  1.00 20.00     0.034 A 
HETATM    2  C2  UNL     1     -25.175  19.035   8.734  1.00 20.00     0.027 A 
HETATM    3  C3  UNL     1     -24.131  17.841  11.753  1.00 20.00     0.118 A 
HETATM    4  C4  UNL     1     -22.646  17.854   8.479  1.00 20.00     0.124 A 
HETATM    5  C5  UNL     1     -23.336  17.902   9.768  1.00 20.00     0.011 A 
HETATM    6  C6  UNL     1     -24.622  18.517   9.830  1.00 20.00     0.066 A 
HETATM    7  C7  UNL     1     -24.460  18.986   7.406  1.00 20.00     0.178 A 
HETATM    8  N8  UNL     1     -25.087  18.454  11.116  1.00 20.00    -0.261 NA
HETATM    9  N9  UNL     1     -23.126  18.337   7.386  1.00 20.00    -0.297 NA
ENDROOT
TORSDOF 0
ENDMDL
MODEL 7
REMARK VINA RESULT:      -4.3     16.292     17.024
REMARK  0 active torsions:
REMARK  status: ('A' for Active; 'I' for Inactive)
ROOT
HETATM    1  C1  UNL     1     -24.842  18.320  10.997  1.00 20.00     0.034 A 
HETATM    2  C2  UNL     1     -21.801  17.431   9.463  1.00 20.00     0.027 A 
HETATM    3  C3  UNL     1     -23.961  17.839  12.071  1.00 20.00     0.118 A 
HETATM    4  C4  UNL     1     -24.240  18.460   8.541  1.00 20.00     0.124 A 
HETATM    5  C5  UNL     1     -24.024  18.172   9.959  1.00 20.00     0.011 A 
HETATM    6  C6  UNL     1     -22.759  17.650  10.363  1.00 20.00     0.066 A 
HETATM    7  C7  UNL     1     -22.027  17.728   8.001  1.00 20.00     0.178 A 
HETATM    8  N8  UNL     1     -22.768  17.454  11.717  1.00 20.00    -0.261 NA
HETATM    9  N9  UNL     1     -23.356  18.271   7.624  1.00 20.00    -0.297 NA
ENDROOT
TORSDOF 0
ENDMDL
MODEL 8
REMARK VINA RESULT:      -4.2     16.424     16.568
REMARK  0 active torsions:
REMARK  status: ('A' for Active; 'I' for Inactive)
ROOT
HETATM    1  C1  UNL     1     -22.027  17.082   9.244  1.00 20.00     0.034 A 
HETATM    2  C2  UNL     1     -24.726  19.135   8.302  1.00 20.00     0.027 A 
HETATM    3  C3  UNL     1     -21.825  17.407   7.825  1.00 20.00     0.118 A 
HETATM    4  C4  UNL     1     -23.956  17.872  10.683  1.00 20.00     0.124 A 
HETATM    5  C5  UNL     1     -23.159  17.746   9.463  1.00 20.00     0.011 A 
HETATM    6  C6  UNL     1     -23.606  18.414   8.284  1.00 20.00     0.066 A 
HETATM    7  C7  UNL     1     -25.548  19.263   9.561  1.00 20.00     0.178 A 
HETATM    8  N8  UNL     1     -22.723  18.167   7.268  1.00 20.00    -0.261 NA
HETATM    9  N9  UNL     1     -25.047  18.552  10.764  1.00 20.00    -0.297 NA
ENDROOT
TORSDOF 0
ENDMDL
MODEL 9
REMARK VINA RESULT:      -4.1     12.093     12.542
REMARK  0 active torsions:
REMARK  status: ('A' for Active; 'I' for Inactive)
ROOT
HETATM    1  C1  UNL     1     -33.184  16.274  -3.168  1.00 20.00     0.034 A 
HETATM    2  C2  UNL     1     -36.295  14.758  -3.810  1.00 20.00     0.027 A 
HETATM    3  C3  UNL     1     -34.035  16.565  -2.006  1.00 20.00     0.118 A 
HETATM    4  C4  UNL     1     -33.871  14.939  -5.208  1.00 20.00     0.124 A 
HETATM    5  C5  UNL     1     -34.042  15.566  -3.897  1.00 20.00     0.011 A 
HETATM    6  C6  UNL     1     -35.301  15.436  -3.238  1.00 20.00     0.066 A 
HETATM    7  C7  UNL     1     -36.116  14.112  -5.163  1.00 20.00     0.178 A 
HETATM    8  N8  UNL     1     -35.247  16.090  -2.037  1.00 20.00    -0.261 NA
HETATM    9  N9  UNL     1     -34.792  14.271  -5.812  1.00 20.00    -0.297 NA
ENDROOT
TORSDOF 0
ENDMDL
