MODEL 1
REMARK VINA RESULT:      -5.0      0.000      0.000
REMARK  1 active torsions:
REMARK  status: ('A' for Active; 'I' for Inactive)
REMARK    1  A    between atoms: C3_3  and  C4_4 
ROOT
HETATM    1  C1  UNL     1     -33.810   5.681   3.561  1.00 20.00     0.067 A 
HETATM    2  C2  UNL     1     -33.423   6.749   4.329  1.00 20.00     0.080 A 
HETATM    3  C3  UNL     1     -32.746   7.005   2.333  1.00 20.00     0.208 A 
HETATM    4  C5  UNL     1     -34.602   4.551   4.091  1.00 20.00     0.062 C 
HETATM    5  C6  UNL     1     -33.659   6.970   5.766  1.00 20.00     0.067 C 
HETATM    6  C7  UNL     1     -34.568   4.559   5.639  1.00 20.00     0.006 C 
HETATM    7  C8  UNL     1     -34.745   5.976   6.239  1.00 20.00     0.007 C 
HETATM    8  N9  UNL     1     -33.379   5.849   2.276  1.00 20.00    -0.224 NA
HETATM    9  O11 UNL     1     -32.728   7.619   3.557  1.00 20.00    -0.292 OA
ENDROOT
BRANCH   3  10
HETATM   10  C4  UNL     1     -32.101   7.638   1.236  1.00 20.00     0.316 C 
HETATM   11  O10 UNL     1     -32.612   8.549   0.545  1.00 20.00    -0.298 OA
ENDBRANCH   3  10
TORSDOF 1
ENDMDL
MODEL 2
REMARK VINA RESULT:      -5.0     15.981     16.336
REMARK  1 active torsions:
REMARK  status: ('A' for Active; 'I' for Inactive)
REMARK    1  A    between atoms: C3_3  and  C4_4 
ROOT
HETATM    1  C1  UNL     1     -25.002  18.737  10.032  1.00 20.00     0.067 A 
HETATM    2  C2  UNL     1     -23.786  18.176   9.734  1.00 20.00     0.080 A 
HETATM    3  C3  UNL     1     -24.684  18.949   7.972  1.00 20.00     0.208 A 
HETATM    4  C5  UNL     1     -25.552  18.789  11.404  1.00 20.00     0.062 C 
HETATM    5  C6  UNL     1     -22.844  17.508  10.646  1.00 20.00     0.067 C 
HETATM    6  C7  UNL     1     -24.784  17.805  12.321  1.00 20.00     0.006 C 
HETATM    7  C8  UNL     1     -23.251  17.845  12.100  1.00 20.00     0.007 C 
HETATM    8  N9  UNL     1     -25.575  19.239   8.900  1.00 20.00    -0.224 NA
HETATM    9  O11 UNL     1     -23.560  18.297   8.403  1.00 20.00    -0.292 OA
ENDROOT
BRANCH   3  10
HETATM   10  C4  UNL     1     -24.810  19.263   6.591  1.00 20.00     0.316 C 
HETATM   11  O10 UNL     1     -23.865  19.235   5.770  1.00 20.00    -0.298 OA
ENDBRANCH   3  10
TORSDOF 1
ENDMDL
MODEL 3
REMARK VINA RESULT:      -4.9     15.247     16.017
REMARK  1 active torsions:
REMARK  status: ('A' for Active; 'I' for Inactive)
REMARK    1  A    between atoms: C3_3  and  C4_4 
ROOT
HETATM    1  C1  UNL     1     -24.518  18.498   8.945  1.00 20.00     0.067 A 
HETATM    2  C2  UNL     1     -23.383  18.262   8.213  1.00 20.00     0.080 A 
HETATM    3  C3  UNL     1     -24.953  18.904   6.936  1.00 20.00     0.208 A 
HETATM    4  C5  UNL     1     -24.579  18.333  10.413  1.00 20.00     0.062 C 
HETATM    5  C6  UNL     1     -22.074  17.784   8.689  1.00 20.00     0.067 C 
HETATM    6  C7  UNL     1     -23.365  17.507  10.906  1.00 20.00     0.006 C 
HETATM    7  C8  UNL     1     -22.036  17.924  10.228  1.00 20.00     0.007 C 
HETATM    8  N9  UNL     1     -25.525  18.916   8.124  1.00 20.00    -0.224 NA
HETATM    9  O11 UNL     1     -23.641  18.514   6.906  1.00 20.00    -0.292 OA
ENDROOT
BRANCH   3  10
HETATM   10  C4  UNL     1     -25.592  19.263   5.718  1.00 20.00     0.316 C 
HETATM   11  O10 UNL     1     -25.808  18.471   4.773  1.00 20.00    -0.298 OA
ENDBRANCH   3  10
TORSDOF 1
ENDMDL
MODEL 4
REMARK VINA RESULT:      -4.8     16.244     16.465
REMARK  1 active torsions:
REMARK  status: ('A' for Active; 'I' for Inactive)
REMARK    1  A    between atoms: C3_3  and  C4_4 
ROOT
HETATM    1  C1  UNL     1     -24.506  18.546   9.610  1.00 20.00     0.067 A 
HETATM    2  C2  UNL     1     -23.809  17.945  10.626  1.00 20.00     0.080 A 
HETATM    3  C3  UNL     1     -22.772  17.704   8.789  1.00 20.00     0.208 A 
HETATM    4  C5  UNL     1     -25.782  19.263   9.821  1.00 20.00     0.062 C 
HETATM    5  C6  UNL     1     -24.172  17.851  12.049  1.00 20.00     0.067 C 
HETATM    6  C7  UNL     1     -26.376  18.894  11.203  1.00 20.00     0.006 C 
HETATM    7  C8  UNL     1     -25.311  18.860  12.328  1.00 20.00     0.007 C 
HETATM    8  N9  UNL     1     -23.837  18.396   8.430  1.00 20.00    -0.224 NA
HETATM    9  O11 UNL     1     -22.683  17.388  10.117  1.00 20.00    -0.292 OA
ENDROOT
BRANCH   3  10
HETATM   10  C4  UNL     1     -21.739  17.280   7.909  1.00 20.00     0.316 C 
HETATM   11  O10 UNL     1     -21.669  17.590   6.698  1.00 20.00    -0.298 OA
ENDBRANCH   3  10
TORSDOF 1
ENDMDL
MODEL 5
REMARK VINA RESULT:      -4.7     11.459     12.462
REMARK  1 active torsions:
REMARK  status: ('A' for Active; 'I' for Inactive)
REMARK    1  A    between atoms: C3_3  and  C4_4 
ROOT
HETATM    1  C1  UNL     1     -36.632  14.394  -4.124  1.00 20.00     0.067 A 
HETATM    2  C2  UNL     1     -36.666  15.698  -3.701  1.00 20.00     0.080 A 
HETATM    3  C3  UNL     1     -38.612  15.064  -4.264  1.00 20.00     0.208 A 
HETATM    4  C5  UNL     1     -35.394  13.585  -4.145  1.00 20.00     0.062 C 
HETATM    5  C6  UNL     1     -35.546  16.537  -3.245  1.00 20.00     0.067 C 
HETATM    6  C7  UNL     1     -34.156  14.506  -4.021  1.00 20.00     0.006 C 
HETATM    7  C8  UNL     1     -34.335  15.618  -2.958  1.00 20.00     0.007 C 
HETATM    8  N9  UNL     1     -37.885  13.985  -4.481  1.00 20.00    -0.224 NA
HETATM    9  O11 UNL     1     -37.939  16.156  -3.787  1.00 20.00    -0.292 OA
ENDROOT
BRANCH   3  10
HETATM   10  C4  UNL     1     -40.013  15.162  -4.486  1.00 20.00     0.316 C 
HETATM   11  O10 UNL     1     -40.662  14.414  -5.252  1.00 20.00    -0.298 OA
ENDBRANCH   3  10
TORSDOF 1
ENDMDL
MODEL 6
REMARK VINA RESULT:      -4.6     11.390     11.856
REMARK  1 active torsions:
REMARK  status: ('A' for Active; 'I' for Inactive)
REMARK    1  A    between atoms: C3_3  and  C4_4 
ROOT
HETATM    1  C1  UNL     1     -33.950  16.086  -2.991  1.00 20.00     0.067 A 
HETATM    2  C2  UNL     1     -35.134  16.199  -2.309  1.00 20.00     0.080 A 
HETATM    3  C3  UNL     1     -35.317  14.753  -3.853  1.00 20.00     0.208 A 
HETATM    4  C5  UNL     1     -32.743  16.867  -2.646  1.00 20.00     0.062 C 
HETATM    5  C6  UNL     1     -35.457  17.095  -1.186  1.00 20.00     0.067 C 
HETATM    6  C7  UNL     1     -33.124  18.054  -1.728  1.00 20.00     0.006 C 
HETATM    7  C8  UNL     1     -34.133  17.661  -0.621  1.00 20.00     0.007 C 
HETATM    8  N9  UNL     1     -34.067  15.152  -3.980  1.00 20.00    -0.224 NA
HETATM    9  O11 UNL     1     -36.038  15.348  -2.852  1.00 20.00    -0.292 OA
ENDROOT
BRANCH   3  10
HETATM   10  C4  UNL     1     -35.948  13.770  -4.664  1.00 20.00     0.316 C 
HETATM   11  O10 UNL     1     -35.823  12.534  -4.503  1.00 20.00    -0.298 OA
ENDBRANCH   3  10
TORSDOF 1
ENDMDL
MODEL 7
REMARK VINA RESULT:      -4.5     11.430     12.625
REMARK  1 active torsions:
REMARK  status: ('A' for Active; 'I' for Inactive)
REMARK    1  A    between atoms: C3_3  and  C4_4 
ROOT
HETATM    1  C1  UNL     1     -36.800  15.697  -3.781  1.00 20.00     0.067 A 
HETATM    2  C2  UNL     1     -36.774  14.378  -4.154  1.00 20.00     0.080 A 
HETATM    3  C3  UNL     1     -38.758  15.127  -4.261  1.00 20.00     0.208 A 
HETATM    4  C5  UNL     1     -35.588  16.449  -3.390  1.00 20.00     0.062 C 
HETATM    5  C6  UNL     1     -35.618  13.467  -4.204  1.00 20.00     0.067 C 
HETATM    6  C7  UNL     1     -34.430  15.467  -3.086  1.00 20.00     0.006 C 
HETATM    7  C8  UNL     1     -34.327  14.315  -4.117  1.00 20.00     0.007 C 
HETATM    8  N9  UNL     1     -38.075  16.179  -3.856  1.00 20.00    -0.224 NA
HETATM    9  O11 UNL     1     -38.033  13.984  -4.466  1.00 20.00    -0.292 OA
ENDROOT
BRANCH   3  10
HETATM   10  C4  UNL     1     -40.160  15.103  -4.495  1.00 20.00     0.316 C 
HETATM   11  O10 UNL     1     -40.725  14.361  -5.331  1.00 20.00    -0.298 OA
ENDBRANCH   3  10
TORSDOF 1
ENDMDL
MODEL 8
REMARK VINA RESULT:      -4.5     11.206     11.894
REMARK  1 active torsions:
REMARK  status: ('A' for Active; 'I' for Inactive)
REMARK    1  A    between atoms: C3_3  and  C4_4 
ROOT
HETATM    1  C1  UNL     1     -34.592  16.589  -1.720  1.00 20.00     0.067 A 
HETATM    2  C2  UNL     1     -33.355  16.903  -2.222  1.00 20.00     0.080 A 
HETATM    3  C3  UNL     1     -34.189  15.277  -3.304  1.00 20.00     0.208 A 
HETATM    4  C5  UNL     1     -35.217  17.322  -0.599  1.00 20.00     0.062 C 
HETATM    5  C6  UNL     1     -32.421  17.942  -1.760  1.00 20.00     0.067 C 
HETATM    6  C7  UNL     1     -34.152  18.170   0.140  1.00 20.00     0.006 C 
HETATM    7  C8  UNL     1     -33.190  18.906  -0.825  1.00 20.00     0.007 C 
HETATM    8  N9  UNL     1     -35.130  15.547  -2.420  1.00 20.00    -0.224 NA
HETATM    9  O11 UNL     1     -33.069  16.063  -3.247  1.00 20.00    -0.292 OA
ENDROOT
BRANCH   3  10
HETATM   10  C4  UNL     1     -34.261  14.252  -4.286  1.00 20.00     0.316 C 
HETATM   11  O10 UNL     1     -34.568  13.062  -4.046  1.00 20.00    -0.298 OA
ENDBRANCH   3  10
TORSDOF 1
ENDMDL
MODEL 9
REMARK VINA RESULT:      -4.4     11.483     11.978
REMARK  1 active torsions:
REMARK  status: ('A' for Active; 'I' for Inactive)
REMARK    1  A    between atoms: C3_3  and  C4_4 
ROOT
HETATM    1  C1  UNL     1     -35.268  16.296  -2.471  1.00 20.00     0.067 A 
HETATM    2  C2  UNL     1     -34.050  16.070  -3.058  1.00 20.00     0.080 A 
HETATM    3  C3  UNL     1     -35.513  14.780  -3.896  1.00 20.00     0.208 A 
HETATM    4  C5  UNL     1     -35.481  17.319  -1.424  1.00 20.00     0.062 C 
HETATM    5  C6  UNL     1     -32.762  16.721  -2.765  1.00 20.00     0.067 C 
HETATM    6  C7  UNL     1     -34.121  17.771  -0.839  1.00 20.00     0.006 C 
HETATM    7  C8  UNL     1     -33.039  17.990  -1.926  1.00 20.00     0.007 C 
HETATM    8  N9  UNL     1     -36.210  15.471  -3.014  1.00 20.00    -0.224 NA
HETATM    9  O11 UNL     1     -34.182  15.087  -3.982  1.00 20.00    -0.292 OA
ENDROOT
BRANCH   3  10
HETATM   10  C4  UNL     1     -36.042  13.766  -4.741  1.00 20.00     0.316 C 
HETATM   11  O10 UNL     1     -35.858  12.539  -4.574  1.00 20.00    -0.298 OA
ENDBRANCH   3  10
TORSDOF 1
ENDMDL
