MODEL 1
REMARK VINA RESULT:      -4.5      0.000      0.000
REMARK  1 active torsions:
REMARK  status: ('A' for Active; 'I' for Inactive)
REMARK    1  A    between atoms: C2_2  and  C6_6 
ROOT
HETATM    1  C1  UNL     1     -34.766   5.251   5.991  1.00 20.00     0.119 A 
HETATM    2  C2  UNL     1     -33.959   6.343   4.236  1.00 20.00     0.043 A 
HETATM    3  C3  UNL     1     -34.050   6.521   5.702  1.00 20.00     0.105 A 
HETATM    4  N7  UNL     1     -35.010   4.543   4.936  1.00 20.00    -0.167 NA
HETATM    5  N8  UNL     1     -34.489   5.244   3.801  1.00 20.00    -0.159 NA
ENDROOT
BRANCH   2   6
HETATM    6  C6  UNL     1     -33.317   7.327   3.354  1.00 20.00     0.035 A 
HETATM    7  C4  UNL     1     -31.824   7.502   3.410  1.00 20.00     0.011 A 
HETATM    8  C5  UNL     1     -32.455   6.844   2.219  1.00 20.00     0.011 A 
ENDBRANCH   2   6
TORSDOF 1
ENDMDL
MODEL 2
REMARK VINA RESULT:      -4.4     11.665     12.038
REMARK  1 active torsions:
REMARK  status: ('A' for Active; 'I' for Inactive)
REMARK    1  A    between atoms: C2_2  and  C6_6 
ROOT
HETATM    1  C1  UNL     1     -36.655  13.856  -4.581  1.00 20.00     0.119 A 
HETATM    2  C2  UNL     1     -34.692  14.632  -3.894  1.00 20.00     0.043 A 
HETATM    3  C3  UNL     1     -36.041  15.156  -4.206  1.00 20.00     0.105 A 
HETATM    4  N7  UNL     1     -35.839  12.855  -4.496  1.00 20.00    -0.167 NA
HETATM    5  N8  UNL     1     -34.572  13.352  -4.051  1.00 20.00    -0.159 NA
ENDROOT
BRANCH   2   6
HETATM    6  C6  UNL     1     -33.591  15.491  -3.440  1.00 20.00     0.035 A 
HETATM    7  C4  UNL     1     -33.645  16.968  -3.719  1.00 20.00     0.011 A 
HETATM    8  C5  UNL     1     -33.832  16.465  -2.319  1.00 20.00     0.011 A 
ENDBRANCH   2   6
TORSDOF 1
ENDMDL
MODEL 3
REMARK VINA RESULT:      -4.4      1.391      1.476
REMARK  1 active torsions:
REMARK  status: ('A' for Active; 'I' for Inactive)
REMARK    1  A    between atoms: C2_2  and  C6_6 
ROOT
HETATM    1  C1  UNL     1     -34.994   5.123   5.943  1.00 20.00     0.119 A 
HETATM    2  C2  UNL     1     -34.056   6.294   4.308  1.00 20.00     0.043 A 
HETATM    3  C3  UNL     1     -34.865   5.065   4.463  1.00 20.00     0.105 A 
HETATM    4  N7  UNL     1     -34.398   6.141   6.474  1.00 20.00    -0.167 NA
HETATM    5  N8  UNL     1     -33.793   6.900   5.422  1.00 20.00    -0.159 NA
ENDROOT
BRANCH   2   6
HETATM    6  C6  UNL     1     -33.598   6.785   3.001  1.00 20.00     0.035 A 
HETATM    7  C4  UNL     1     -32.166   7.215   2.836  1.00 20.00     0.011 A 
HETATM    8  C5  UNL     1     -32.644   5.947   2.195  1.00 20.00     0.011 A 
ENDBRANCH   2   6
TORSDOF 1
ENDMDL
MODEL 4
REMARK VINA RESULT:      -4.4     15.888     16.383
REMARK  1 active torsions:
REMARK  status: ('A' for Active; 'I' for Inactive)
REMARK    1  A    between atoms: C2_2  and  C6_6 
ROOT
HETATM    1  C1  UNL     1     -25.111  19.263   6.483  1.00 20.00     0.119 A 
HETATM    2  C2  UNL     1     -23.956  18.574   8.249  1.00 20.00     0.043 A 
HETATM    3  C3  UNL     1     -25.320  19.061   7.941  1.00 20.00     0.105 A 
HETATM    4  N7  UNL     1     -23.918  18.960   6.085  1.00 20.00    -0.167 NA
HETATM    5  N8  UNL     1     -23.170  18.513   7.221  1.00 20.00    -0.159 NA
ENDROOT
BRANCH   2   6
HETATM    6  C6  UNL     1     -23.537  18.189   9.603  1.00 20.00     0.035 A 
HETATM    7  C4  UNL     1     -24.572  18.063  10.687  1.00 20.00     0.011 A 
HETATM    8  C5  UNL     1     -23.917  16.833  10.132  1.00 20.00     0.011 A 
ENDBRANCH   2   6
TORSDOF 1
ENDMDL
MODEL 5
REMARK VINA RESULT:      -4.3      1.923      3.511
REMARK  1 active torsions:
REMARK  status: ('A' for Active; 'I' for Inactive)
REMARK    1  A    between atoms: C2_2  and  C6_6 
ROOT
HETATM    1  C1  UNL     1     -32.961   5.083   2.093  1.00 20.00     0.119 A 
HETATM    2  C2  UNL     1     -34.016   5.920   3.857  1.00 20.00     0.043 A 
HETATM    3  C3  UNL     1     -33.923   4.633   3.133  1.00 20.00     0.105 A 
HETATM    4  N7  UNL     1     -32.610   6.322   2.215  1.00 20.00    -0.167 NA
HETATM    5  N8  UNL     1     -33.286   6.866   3.354  1.00 20.00    -0.159 NA
ENDROOT
BRANCH   2   6
HETATM    6  C6  UNL     1     -34.858   6.104   5.046  1.00 20.00     0.035 A 
HETATM    7  C4  UNL     1     -34.770   5.111   6.173  1.00 20.00     0.011 A 
HETATM    8  C5  UNL     1     -34.215   6.494   6.349  1.00 20.00     0.011 A 
ENDBRANCH   2   6
TORSDOF 1
ENDMDL
MODEL 6
REMARK VINA RESULT:      -4.2      0.790      1.046
REMARK  1 active torsions:
REMARK  status: ('A' for Active; 'I' for Inactive)
REMARK    1  A    between atoms: C2_2  and  C6_6 
ROOT
HETATM    1  C1  UNL     1     -34.873   5.624   5.552  1.00 20.00     0.119 A 
HETATM    2  C2  UNL     1     -33.697   5.764   3.675  1.00 20.00     0.043 A 
HETATM    3  C3  UNL     1     -33.935   6.570   4.893  1.00 20.00     0.105 A 
HETATM    4  N7  UNL     1     -35.097   4.553   4.861  1.00 20.00    -0.167 NA
HETATM    5  N8  UNL     1     -34.338   4.639   3.650  1.00 20.00    -0.159 NA
ENDROOT
BRANCH   2   6
HETATM    6  C6  UNL     1     -32.804   6.203   2.594  1.00 20.00     0.035 A 
HETATM    7  C4  UNL     1     -33.008   7.558   1.974  1.00 20.00     0.011 A 
HETATM    8  C5  UNL     1     -31.821   7.310   2.856  1.00 20.00     0.011 A 
ENDBRANCH   2   6
TORSDOF 1
ENDMDL
MODEL 7
REMARK VINA RESULT:      -4.2     11.848     12.948
REMARK  1 active torsions:
REMARK  status: ('A' for Active; 'I' for Inactive)
REMARK    1  A    between atoms: C2_2  and  C6_6 
ROOT
HETATM    1  C1  UNL     1     -35.301  15.053  -6.877  1.00 20.00     0.119 A 
HETATM    2  C2  UNL     1     -34.719  14.801  -4.750  1.00 20.00     0.043 A 
HETATM    3  C3  UNL     1     -34.433  15.722  -5.873  1.00 20.00     0.105 A 
HETATM    4  N7  UNL     1     -35.917  14.013  -6.417  1.00 20.00    -0.167 NA
HETATM    5  N8  UNL     1     -35.546  13.848  -5.044  1.00 20.00    -0.159 NA
ENDROOT
BRANCH   2   6
HETATM    6  C6  UNL     1     -34.120  14.961  -3.419  1.00 20.00     0.035 A 
HETATM    7  C4  UNL     1     -33.460  16.264  -3.059  1.00 20.00     0.011 A 
HETATM    8  C5  UNL     1     -34.769  15.889  -2.428  1.00 20.00     0.011 A 
ENDBRANCH   2   6
TORSDOF 1
ENDMDL
MODEL 8
REMARK VINA RESULT:      -4.2     11.759     12.411
REMARK  1 active torsions:
REMARK  status: ('A' for Active; 'I' for Inactive)
REMARK    1  A    between atoms: C2_2  and  C6_6 
ROOT
HETATM    1  C1  UNL     1     -38.336  15.282  -4.343  1.00 20.00     0.119 A 
HETATM    2  C2  UNL     1     -36.208  14.778  -3.963  1.00 20.00     0.043 A 
HETATM    3  C3  UNL     1     -37.068  15.982  -4.010  1.00 20.00     0.105 A 
HETATM    4  N7  UNL     1     -38.205  14.000  -4.454  1.00 20.00    -0.167 NA
HETATM    5  N8  UNL     1     -36.834  13.670  -4.207  1.00 20.00    -0.159 NA
ENDROOT
BRANCH   2   6
HETATM    6  C6  UNL     1     -34.773  14.838  -3.660  1.00 20.00     0.035 A 
HETATM    7  C4  UNL     1     -33.994  16.073  -4.022  1.00 20.00     0.011 A 
HETATM    8  C5  UNL     1     -34.287  15.769  -2.582  1.00 20.00     0.011 A 
ENDBRANCH   2   6
TORSDOF 1
ENDMDL
MODEL 9
REMARK VINA RESULT:      -4.0     15.566     16.414
REMARK  1 active torsions:
REMARK  status: ('A' for Active; 'I' for Inactive)
REMARK    1  A    between atoms: C2_2  and  C6_6 
ROOT
HETATM    1  C1  UNL     1     -23.456  18.434   8.059  1.00 20.00     0.119 A 
HETATM    2  C2  UNL     1     -23.322  17.257   9.936  1.00 20.00     0.043 A 
HETATM    3  C3  UNL     1     -24.039  18.447   9.426  1.00 20.00     0.105 A 
HETATM    4  N7  UNL     1     -22.618  17.468   7.864  1.00 20.00    -0.167 NA
HETATM    5  N8  UNL     1     -22.530  16.704   9.072  1.00 20.00    -0.159 NA
ENDROOT
BRANCH   2   6
HETATM    6  C6  UNL     1     -23.500  16.746  11.301  1.00 20.00     0.035 A 
HETATM    7  C4  UNL     1     -24.699  17.179  12.100  1.00 20.00     0.011 A 
HETATM    8  C5  UNL     1     -24.613  15.773  11.583  1.00 20.00     0.011 A 
ENDBRANCH   2   6
TORSDOF 1
ENDMDL
