MODEL 1
REMARK VINA RESULT:      -5.1      0.000      0.000
REMARK  0 active torsions:
REMARK  status: ('A' for Active; 'I' for Inactive)
ROOT
HETATM    1  C1  UNL     1     -24.846  18.328  10.219  1.00 20.00    -0.037 C 
HETATM    2  C2  UNL     1     -24.216  16.978  10.379  1.00 20.00     0.040 C 
HETATM    3  C3  UNL     1     -22.674  17.337   8.675  1.00 20.00     0.243 C 
HETATM    4  C4  UNL     1     -25.722  18.819  11.105  1.00 20.00    -0.022 C 
HETATM    5  C5  UNL     1     -24.391  19.095   9.016  1.00 20.00     0.049 C 
HETATM    6  C6  UNL     1     -22.918  18.828   8.777  1.00 20.00     0.110 C 
HETATM    7  C7  UNL     1     -24.737  16.041  11.447  1.00 20.00     0.071 C 
HETATM    8  C8  UNL     1     -26.162  18.093  12.331  1.00 20.00     0.036 C 
HETATM    9  N9  UNL     1     -23.229  16.543   9.655  1.00 20.00    -0.219 NA
HETATM   10  O10 UNL     1     -21.948  16.890   7.788  1.00 20.00    -0.271 OA
ENDROOT
TORSDOF 0
ENDMDL
MODEL 2
REMARK VINA RESULT:      -4.8      1.395      2.077
REMARK  0 active torsions:
REMARK  status: ('A' for Active; 'I' for Inactive)
ROOT
HETATM    1  C1  UNL     1     -23.960  18.166  10.870  1.00 20.00    -0.037 C 
HETATM    2  C2  UNL     1     -24.679  18.625   9.639  1.00 20.00     0.040 C 
HETATM    3  C3  UNL     1     -22.984  17.919   8.212  1.00 20.00     0.243 C 
HETATM    4  C4  UNL     1     -24.553  18.117  12.070  1.00 20.00    -0.022 C 
HETATM    5  C5  UNL     1     -22.545  17.730  10.646  1.00 20.00     0.049 C 
HETATM    6  C6  UNL     1     -22.441  17.026   9.307  1.00 20.00     0.110 C 
HETATM    7  C7  UNL     1     -26.045  19.263   9.775  1.00 20.00     0.071 C 
HETATM    8  C8  UNL     1     -25.972  18.507  12.314  1.00 20.00     0.036 C 
HETATM    9  N9  UNL     1     -24.209  18.509   8.434  1.00 20.00    -0.219 NA
HETATM   10  O10 UNL     1     -22.371  18.035   7.151  1.00 20.00    -0.271 OA
ENDROOT
TORSDOF 0
ENDMDL
MODEL 3
REMARK VINA RESULT:      -4.7      2.524      4.230
REMARK  0 active torsions:
REMARK  status: ('A' for Active; 'I' for Inactive)
ROOT
HETATM    1  C1  UNL     1     -23.566  17.289   9.989  1.00 20.00    -0.037 C 
HETATM    2  C2  UNL     1     -24.486  18.388   9.552  1.00 20.00     0.040 C 
HETATM    3  C3  UNL     1     -25.582  18.480  11.602  1.00 20.00     0.243 C 
HETATM    4  C4  UNL     1     -22.505  16.913   9.264  1.00 20.00    -0.022 C 
HETATM    5  C5  UNL     1     -23.904  16.676  11.313  1.00 20.00     0.049 C 
HETATM    6  C6  UNL     1     -24.423  17.751  12.248  1.00 20.00     0.110 C 
HETATM    7  C7  UNL     1     -24.355  18.950   8.153  1.00 20.00     0.071 C 
HETATM    8  C8  UNL     1     -22.123  17.534   7.963  1.00 20.00     0.036 C 
HETATM    9  N9  UNL     1     -25.407  18.911  10.305  1.00 20.00    -0.219 NA
HETATM   10  O10 UNL     1     -26.596  18.727  12.254  1.00 20.00    -0.271 OA
ENDROOT
TORSDOF 0
ENDMDL
MODEL 4
REMARK VINA RESULT:      -4.7     17.121     17.789
REMARK  0 active torsions:
REMARK  status: ('A' for Active; 'I' for Inactive)
ROOT
HETATM    1  C1  UNL     1     -34.155  15.752  -3.418  1.00 20.00    -0.037 C 
HETATM    2  C2  UNL     1     -35.556  16.162  -3.080  1.00 20.00     0.040 C 
HETATM    3  C3  UNL     1     -36.498  14.283  -4.078  1.00 20.00     0.243 C 
HETATM    4  C4  UNL     1     -33.084  16.371  -2.904  1.00 20.00    -0.022 C 
HETATM    5  C5  UNL     1     -34.049  14.577  -4.340  1.00 20.00     0.049 C 
HETATM    6  C6  UNL     1     -35.155  13.588  -4.024  1.00 20.00     0.110 C 
HETATM    7  C7  UNL     1     -35.786  17.446  -2.314  1.00 20.00     0.071 C 
HETATM    8  C8  UNL     1     -33.162  17.517  -1.954  1.00 20.00     0.036 C 
HETATM    9  N9  UNL     1     -36.613  15.478  -3.400  1.00 20.00    -0.219 NA
HETATM   10  O10 UNL     1     -37.448  13.746  -4.646  1.00 20.00    -0.271 OA
ENDROOT
TORSDOF 0
ENDMDL
MODEL 5
REMARK VINA RESULT:      -4.4     15.678     16.556
REMARK  0 active torsions:
REMARK  status: ('A' for Active; 'I' for Inactive)
ROOT
HETATM    1  C1  UNL     1     -32.992   6.854   3.698  1.00 20.00    -0.037 C 
HETATM    2  C2  UNL     1     -33.678   5.562   3.372  1.00 20.00     0.040 C 
HETATM    3  C3  UNL     1     -34.628   5.368   5.487  1.00 20.00     0.243 C 
HETATM    4  C4  UNL     1     -32.410   7.612   2.760  1.00 20.00    -0.022 C 
HETATM    5  C5  UNL     1     -33.045   7.247   5.142  1.00 20.00     0.049 C 
HETATM    6  C6  UNL     1     -34.386   6.843   5.725  1.00 20.00     0.110 C 
HETATM    7  C7  UNL     1     -33.527   4.974   1.986  1.00 20.00     0.071 C 
HETATM    8  C8  UNL     1     -32.378   7.264   1.310  1.00 20.00     0.036 C 
HETATM    9  N9  UNL     1     -34.414   4.896   4.210  1.00 20.00    -0.219 NA
HETATM   10  O10 UNL     1     -35.066   4.661   6.393  1.00 20.00    -0.271 OA
ENDROOT
TORSDOF 0
ENDMDL
MODEL 6
REMARK VINA RESULT:      -4.3     17.817     18.503
REMARK  0 active torsions:
REMARK  status: ('A' for Active; 'I' for Inactive)
ROOT
HETATM    1  C1  UNL     1     -34.509  15.517  -3.648  1.00 20.00    -0.037 C 
HETATM    2  C2  UNL     1     -34.777  16.419  -4.815  1.00 20.00     0.040 C 
HETATM    3  C3  UNL     1     -35.852  14.755  -6.035  1.00 20.00     0.243 C 
HETATM    4  C4  UNL     1     -34.062  15.981  -2.474  1.00 20.00    -0.022 C 
HETATM    5  C5  UNL     1     -34.817  14.072  -3.887  1.00 20.00     0.049 C 
HETATM    6  C6  UNL     1     -36.049  13.958  -4.764  1.00 20.00     0.110 C 
HETATM    7  C7  UNL     1     -34.328  17.862  -4.753  1.00 20.00     0.071 C 
HETATM    8  C8  UNL     1     -33.785  17.420  -2.197  1.00 20.00     0.036 C 
HETATM    9  N9  UNL     1     -35.386  16.045  -5.900  1.00 20.00    -0.219 NA
HETATM   10  O10 UNL     1     -36.172  14.273  -7.121  1.00 20.00    -0.271 OA
ENDROOT
TORSDOF 0
ENDMDL
MODEL 7
REMARK VINA RESULT:      -4.3     14.990     15.678
REMARK  0 active torsions:
REMARK  status: ('A' for Active; 'I' for Inactive)
ROOT
HETATM    1  C1  UNL     1     -33.104  17.479  -1.905  1.00 20.00    -0.037 C 
HETATM    2  C2  UNL     1     -34.374  17.171  -1.172  1.00 20.00     0.040 C 
HETATM    3  C3  UNL     1     -35.130  15.701  -2.809  1.00 20.00     0.243 C 
HETATM    4  C4  UNL     1     -32.097  18.157  -1.339  1.00 20.00    -0.022 C 
HETATM    5  C5  UNL     1     -33.035  16.937  -3.299  1.00 20.00     0.049 C 
HETATM    6  C6  UNL     1     -33.720  15.584  -3.348  1.00 20.00     0.110 C 
HETATM    7  C7  UNL     1     -34.632  17.825   0.168  1.00 20.00     0.071 C 
HETATM    8  C8  UNL     1     -32.123  18.673   0.060  1.00 20.00     0.036 C 
HETATM    9  N9  UNL     1     -35.290  16.361  -1.610  1.00 20.00    -0.219 NA
HETATM   10  O10 UNL     1     -36.062  15.158  -3.400  1.00 20.00    -0.271 OA
ENDROOT
TORSDOF 0
ENDMDL
MODEL 8
REMARK VINA RESULT:      -4.3     17.529     18.104
REMARK  0 active torsions:
REMARK  status: ('A' for Active; 'I' for Inactive)
ROOT
HETATM    1  C1  UNL     1     -35.107  15.957  -2.800  1.00 20.00    -0.037 C 
HETATM    2  C2  UNL     1     -36.380  16.124  -3.573  1.00 20.00     0.040 C 
HETATM    3  C3  UNL     1     -35.889  14.381  -5.034  1.00 20.00     0.243 C 
HETATM    4  C4  UNL     1     -34.889  16.584  -1.638  1.00 20.00    -0.022 C 
HETATM    5  C5  UNL     1     -34.123  15.007  -3.409  1.00 20.00     0.049 C 
HETATM    6  C6  UNL     1     -34.867  13.852  -4.050  1.00 20.00     0.110 C 
HETATM    7  C7  UNL     1     -37.364  17.195  -3.156  1.00 20.00     0.071 C 
HETATM    8  C8  UNL     1     -35.868  17.503  -0.990  1.00 20.00     0.036 C 
HETATM    9  N9  UNL     1     -36.712  15.396  -4.597  1.00 20.00    -0.219 NA
HETATM   10  O10 UNL     1     -36.007  13.858  -6.142  1.00 20.00    -0.271 OA
ENDROOT
TORSDOF 0
ENDMDL
MODEL 9
REMARK VINA RESULT:      -4.2     16.236     16.900
REMARK  0 active torsions:
REMARK  status: ('A' for Active; 'I' for Inactive)
ROOT
HETATM    1  C1  UNL     1     -35.337  15.689  -3.240  1.00 20.00    -0.037 C 
HETATM    2  C2  UNL     1     -33.882  15.556  -3.571  1.00 20.00     0.040 C 
HETATM    3  C3  UNL     1     -33.241  17.208  -2.065  1.00 20.00     0.243 C 
HETATM    4  C4  UNL     1     -36.252  14.810  -3.668  1.00 20.00    -0.022 C 
HETATM    5  C5  UNL     1     -35.678  16.855  -2.365  1.00 20.00     0.049 C 
HETATM    6  C6  UNL     1     -34.569  17.066  -1.352  1.00 20.00     0.110 C 
HETATM    7  C7  UNL     1     -33.447  14.531  -4.597  1.00 20.00     0.071 C 
HETATM    8  C8  UNL     1     -35.934  13.619  -4.507  1.00 20.00     0.036 C 
HETATM    9  N9  UNL     1     -32.942  16.268  -3.027  1.00 20.00    -0.219 NA
HETATM   10  O10 UNL     1     -32.453  18.091  -1.728  1.00 20.00    -0.271 OA
ENDROOT
TORSDOF 0
ENDMDL
