MODEL 1
REMARK VINA RESULT:      -5.1      0.000      0.000
REMARK  3 active torsions:
REMARK  status: ('A' for Active; 'I' for Inactive)
REMARK    1  A    between atoms: C5_5  and  C8_8 
REMARK    2  A    between atoms: C7_7  and  N9_9 
REMARK    3  A    between atoms: C8_8  and  N9_9 
ROOT
HETATM    1  C1  UNL     1     -32.896   8.930   0.435  1.00 20.00     0.013 C 
HETATM    2  C2  UNL     1     -32.712   8.125   1.308  1.00 20.00    -0.087 C 
HETATM    3  C7  UNL     1     -32.484   7.148   2.375  1.00 20.00     0.362 C 
ENDROOT
BRANCH   3   4
HETATM    4  N9  UNL     1     -33.242   5.922   2.123  1.00 20.00     0.094 N 
HETATM    5  H22 UNL     1     -32.781   5.410   1.362  1.00 20.00     0.317 HD
BRANCH   4   6
HETATM    6  C8  UNL     1     -33.326   5.099   3.297  1.00 20.00     0.275 C 
BRANCH   6   7
HETATM    7  C5  UNL     1     -34.616   5.309   4.012  1.00 20.00     0.018 A 
HETATM    8  C3  UNL     1     -34.839   4.700   5.372  1.00 20.00     0.011 A 
HETATM    9  C4  UNL     1     -34.733   6.195   5.230  1.00 20.00    -0.013 A 
HETATM   10  C6  UNL     1     -33.567   6.924   5.805  1.00 20.00     0.010 C 
ENDBRANCH   6   7
ENDBRANCH   4   6
ENDBRANCH   3   4
TORSDOF 3
ENDMDL
MODEL 2
REMARK VINA RESULT:      -4.2      1.125      4.235
REMARK  3 active torsions:
REMARK  status: ('A' for Active; 'I' for Inactive)
REMARK    1  A    between atoms: C5_5  and  C8_8 
REMARK    2  A    between atoms: C7_7  and  N9_9 
REMARK    3  A    between atoms: C8_8  and  N9_9 
ROOT
HETATM    1  C1  UNL     1     -34.390   6.255   6.356  1.00 20.00     0.013 C 
HETATM    2  C2  UNL     1     -34.657   5.681   5.336  1.00 20.00    -0.087 C 
HETATM    3  C7  UNL     1     -34.988   4.981   4.091  1.00 20.00     0.362 C 
ENDROOT
BRANCH   3   4
HETATM    4  N9  UNL     1     -33.781   4.442   3.465  1.00 20.00     0.094 N 
HETATM    5  H22 UNL     1     -34.007   3.523   3.068  1.00 20.00     0.317 HD
BRANCH   4   6
HETATM    6  C8  UNL     1     -33.278   5.316   2.442  1.00 20.00     0.275 C 
BRANCH   6   7
HETATM    7  C5  UNL     1     -33.155   6.714   2.940  1.00 20.00     0.018 A 
HETATM    8  C3  UNL     1     -31.796   7.318   3.182  1.00 20.00     0.011 A 
HETATM    9  C4  UNL     1     -32.661   7.845   2.068  1.00 20.00    -0.013 A 
HETATM   10  C6  UNL     1     -32.262   7.644   0.646  1.00 20.00     0.010 C 
ENDBRANCH   6   7
ENDBRANCH   4   6
ENDBRANCH   3   4
TORSDOF 3
ENDMDL
MODEL 3
REMARK VINA RESULT:      -4.1      1.729      3.961
REMARK  3 active torsions:
REMARK  status: ('A' for Active; 'I' for Inactive)
REMARK    1  A    between atoms: C5_5  and  C8_8 
REMARK    2  A    between atoms: C7_7  and  N9_9 
REMARK    3  A    between atoms: C8_8  and  N9_9 
ROOT
HETATM    1  C1  UNL     1     -33.587   7.502   6.094  1.00 20.00     0.013 C 
HETATM    2  C2  UNL     1     -34.069   6.403   6.072  1.00 20.00    -0.087 C 
HETATM    3  C7  UNL     1     -34.654   5.059   6.049  1.00 20.00     0.362 C 
ENDROOT
BRANCH   3   4
HETATM    4  N9  UNL     1     -35.555   4.908   4.907  1.00 20.00     0.094 N 
HETATM    5  H22 UNL     1     -36.458   5.330   5.151  1.00 20.00     0.317 HD
BRANCH   4   6
HETATM    6  C8  UNL     1     -35.021   5.524   3.724  1.00 20.00     0.275 C 
BRANCH   6   7
HETATM    7  C5  UNL     1     -33.758   4.863   3.295  1.00 20.00     0.018 A 
HETATM    8  C3  UNL     1     -33.436   4.716   1.830  1.00 20.00     0.011 A 
HETATM    9  C4  UNL     1     -32.605   5.630   2.690  1.00 20.00    -0.013 A 
HETATM   10  C6  UNL     1     -32.649   7.105   2.479  1.00 20.00     0.010 C 
ENDBRANCH   6   7
ENDBRANCH   4   6
ENDBRANCH   3   4
TORSDOF 3
ENDMDL
MODEL 4
REMARK VINA RESULT:      -4.1     15.910     16.988
REMARK  3 active torsions:
REMARK  status: ('A' for Active; 'I' for Inactive)
REMARK    1  A    between atoms: C5_5  and  C8_8 
REMARK    2  A    between atoms: C7_7  and  N9_9 
REMARK    3  A    between atoms: C8_8  and  N9_9 
ROOT
HETATM    1  C1  UNL     1     -26.654  18.470  12.043  1.00 20.00     0.013 C 
HETATM    2  C2  UNL     1     -25.980  17.477  12.085  1.00 20.00    -0.087 C 
HETATM    3  C7  UNL     1     -25.163  16.262  12.135  1.00 20.00     0.362 C 
ENDROOT
BRANCH   3   4
HETATM    4  N9  UNL     1     -23.752  16.597  12.332  1.00 20.00     0.094 N 
HETATM    5  H22 UNL     1     -23.183  15.866  11.888  1.00 20.00     0.317 HD
BRANCH   4   6
HETATM    6  C8  UNL     1     -23.430  17.883  11.779  1.00 20.00     0.275 C 
BRANCH   6   7
HETATM    7  C5  UNL     1     -22.532  17.752  10.597  1.00 20.00     0.018 A 
HETATM    8  C3  UNL     1     -22.946  16.910   9.418  1.00 20.00     0.011 A 
HETATM    9  C4  UNL     1     -22.839  18.405   9.270  1.00 20.00    -0.013 A 
HETATM   10  C6  UNL     1     -24.062  19.227   9.046  1.00 20.00     0.010 C 
ENDBRANCH   6   7
ENDBRANCH   4   6
ENDBRANCH   3   4
TORSDOF 3
ENDMDL
MODEL 5
REMARK VINA RESULT:      -4.0     11.322     12.077
REMARK  3 active torsions:
REMARK  status: ('A' for Active; 'I' for Inactive)
REMARK    1  A    between atoms: C5_5  and  C8_8 
REMARK    2  A    between atoms: C7_7  and  N9_9 
REMARK    3  A    between atoms: C8_8  and  N9_9 
ROOT
HETATM    1  C1  UNL     1     -36.503  13.872  -4.705  1.00 20.00     0.013 C 
HETATM    2  C2  UNL     1     -35.676  14.349  -5.433  1.00 20.00    -0.087 C 
HETATM    3  C7  UNL     1     -34.670  14.931  -6.326  1.00 20.00     0.362 C 
ENDROOT
BRANCH   3   4
HETATM    4  N9  UNL     1     -33.342  14.872  -5.715  1.00 20.00     0.094 N 
HETATM    5  H22 UNL     1     -32.860  15.758  -5.907  1.00 20.00     0.317 HD
BRANCH   4   6
HETATM    6  C8  UNL     1     -33.418  14.644  -4.299  1.00 20.00     0.275 C 
BRANCH   6   7
HETATM    7  C5  UNL     1     -32.914  15.820  -3.536  1.00 20.00     0.018 A 
HETATM    8  C3  UNL     1     -33.506  17.186  -3.765  1.00 20.00     0.011 A 
HETATM    9  C4  UNL     1     -33.722  16.488  -2.449  1.00 20.00    -0.013 A 
HETATM   10  C6  UNL     1     -35.083  16.020  -2.061  1.00 20.00     0.010 C 
ENDBRANCH   6   7
ENDBRANCH   4   6
ENDBRANCH   3   4
TORSDOF 3
ENDMDL
MODEL 6
REMARK VINA RESULT:      -4.0     11.507     12.518
REMARK  3 active torsions:
REMARK  status: ('A' for Active; 'I' for Inactive)
REMARK    1  A    between atoms: C5_5  and  C8_8 
REMARK    2  A    between atoms: C7_7  and  N9_9 
REMARK    3  A    between atoms: C8_8  and  N9_9 
ROOT
HETATM    1  C1  UNL     1     -36.248  16.686  -6.133  1.00 20.00     0.013 C 
HETATM    2  C2  UNL     1     -35.387  15.918  -6.464  1.00 20.00    -0.087 C 
HETATM    3  C7  UNL     1     -34.339  14.978  -6.872  1.00 20.00     0.362 C 
ENDROOT
BRANCH   3   4
HETATM    4  N9  UNL     1     -33.215  15.020  -5.936  1.00 20.00     0.094 N 
HETATM    5  H22 UNL     1     -32.817  15.966  -5.953  1.00 20.00     0.317 HD
BRANCH   4   6
HETATM    6  C8  UNL     1     -33.622  14.675  -4.602  1.00 20.00     0.275 C 
BRANCH   6   7
HETATM    7  C5  UNL     1     -33.021  15.598  -3.599  1.00 20.00     0.018 A 
HETATM    8  C3  UNL     1     -33.331  17.072  -3.641  1.00 20.00     0.011 A 
HETATM    9  C4  UNL     1     -33.831  16.234  -2.494  1.00 20.00    -0.013 A 
HETATM   10  C6  UNL     1     -35.291  15.984  -2.326  1.00 20.00     0.010 C 
ENDBRANCH   6   7
ENDBRANCH   4   6
ENDBRANCH   3   4
TORSDOF 3
ENDMDL
MODEL 7
REMARK VINA RESULT:      -3.9      1.525      4.393
REMARK  3 active torsions:
REMARK  status: ('A' for Active; 'I' for Inactive)
REMARK    1  A    between atoms: C5_5  and  C8_8 
REMARK    2  A    between atoms: C7_7  and  N9_9 
REMARK    3  A    between atoms: C8_8  and  N9_9 
ROOT
HETATM    1  C1  UNL     1     -35.180   4.673   4.513  1.00 20.00     0.013 C 
HETATM    2  C2  UNL     1     -34.725   5.534   5.215  1.00 20.00    -0.087 C 
HETATM    3  C7  UNL     1     -34.173   6.585   6.075  1.00 20.00     0.362 C 
ENDROOT
BRANCH   3   4
HETATM    4  N9  UNL     1     -33.004   7.202   5.449  1.00 20.00     0.094 N 
HETATM    5  H22 UNL     1     -32.236   6.522   5.460  1.00 20.00     0.317 HD
BRANCH   4   6
HETATM    6  C8  UNL     1     -33.279   7.619   4.103  1.00 20.00     0.275 C 
BRANCH   6   7
HETATM    7  C5  UNL     1     -32.332   6.992   3.139  1.00 20.00     0.018 A 
HETATM    8  C3  UNL     1     -32.850   6.126   2.020  1.00 20.00     0.011 A 
HETATM    9  C4  UNL     1     -32.210   7.453   1.706  1.00 20.00    -0.013 A 
HETATM   10  C6  UNL     1     -33.028   8.568   1.151  1.00 20.00     0.010 C 
ENDBRANCH   6   7
ENDBRANCH   4   6
ENDBRANCH   3   4
TORSDOF 3
ENDMDL
MODEL 8
REMARK VINA RESULT:      -3.9      9.339     10.124
REMARK  3 active torsions:
REMARK  status: ('A' for Active; 'I' for Inactive)
REMARK    1  A    between atoms: C5_5  and  C8_8 
REMARK    2  A    between atoms: C7_7  and  N9_9 
REMARK    3  A    between atoms: C8_8  and  N9_9 
ROOT
HETATM    1  C1  UNL     1     -42.073   2.696  -3.416  1.00 20.00     0.013 C 
HETATM    2  C2  UNL     1     -42.376   3.581  -2.663  1.00 20.00    -0.087 C 
HETATM    3  C7  UNL     1     -42.750   4.662  -1.747  1.00 20.00     0.362 C 
ENDROOT
BRANCH   3   4
HETATM    4  N9  UNL     1     -41.711   4.866  -0.738  1.00 20.00     0.094 N 
HETATM    5  H22 UNL     1     -40.872   5.225  -1.208  1.00 20.00     0.317 HD
BRANCH   4   6
HETATM    6  C8  UNL     1     -42.137   5.780   0.286  1.00 20.00     0.275 C 
BRANCH   6   7
HETATM    7  C5  UNL     1     -41.278   6.996   0.314  1.00 20.00     0.018 A 
HETATM    8  C3  UNL     1     -41.168   7.878  -0.902  1.00 20.00     0.011 A 
HETATM    9  C4  UNL     1     -41.851   8.394   0.337  1.00 20.00    -0.013 A 
HETATM   10  C6  UNL     1     -43.318   8.657   0.331  1.00 20.00     0.010 C 
ENDBRANCH   6   7
ENDBRANCH   4   6
ENDBRANCH   3   4
TORSDOF 3
ENDMDL
MODEL 9
REMARK VINA RESULT:      -3.9     15.280     16.237
REMARK  3 active torsions:
REMARK  status: ('A' for Active; 'I' for Inactive)
REMARK    1  A    between atoms: C5_5  and  C8_8 
REMARK    2  A    between atoms: C7_7  and  N9_9 
REMARK    3  A    between atoms: C8_8  and  N9_9 
ROOT
HETATM    1  C1  UNL     1     -26.079  18.847   6.321  1.00 20.00     0.013 C 
HETATM    2  C2  UNL     1     -25.486  19.033   7.349  1.00 20.00    -0.087 C 
HETATM    3  C7  UNL     1     -24.767  19.263   8.605  1.00 20.00     0.362 C 
ENDROOT
BRANCH   3   4
HETATM    4  N9  UNL     1     -23.395  18.762   8.513  1.00 20.00     0.094 N 
HETATM    5  H22 UNL     1     -22.764  19.484   8.878  1.00 20.00     0.317 HD
BRANCH   4   6
HETATM    6  C8  UNL     1     -23.227  17.538   9.246  1.00 20.00     0.275 C 
BRANCH   6   7
HETATM    7  C5  UNL     1     -24.225  17.426  10.346  1.00 20.00     0.018 A 
HETATM    8  C3  UNL     1     -24.259  16.199  11.220  1.00 20.00     0.011 A 
HETATM    9  C4  UNL     1     -23.840  17.522  11.804  1.00 20.00    -0.013 A 
HETATM   10  C6  UNL     1     -22.433  17.735  12.248  1.00 20.00     0.010 C 
ENDBRANCH   6   7
ENDBRANCH   4   6
ENDBRANCH   3   4
TORSDOF 3
ENDMDL
