MODEL 1
REMARK VINA RESULT:      -4.2      0.000      0.000
REMARK  1 active torsions:
REMARK  status: ('A' for Active; 'I' for Inactive)
REMARK    1  A    between atoms: C4_4  and  C5_5 
ROOT
HETATM    1  C5  UNL     1     -34.040  16.359  -2.516  1.00 20.00     0.039 C 
HETATM    2  C6  UNL     1     -33.013  15.753  -3.461  1.00 20.00     0.060 C 
HETATM    3  C7  UNL     1     -33.643  14.950  -4.583  1.00 20.00     0.008 C 
HETATM    4  C8  UNL     1     -34.765  14.105  -4.017  1.00 20.00     0.022 C 
HETATM    5  C9  UNL     1     -35.819  15.020  -3.421  1.00 20.00     0.149 C 
HETATM    6  N10 UNL     1     -35.280  16.007  -2.489  1.00 20.00    -0.293 NA
ENDROOT
BRANCH   1   7
HETATM    7  C4  UNL     1     -33.571  17.399  -1.545  1.00 20.00    -0.005 A 
HETATM    8  C1  UNL     1     -32.302  18.044  -1.575  1.00 20.00     0.021 A 
HETATM    9  C2  UNL     1     -32.159  18.953  -0.550  1.00 20.00     0.050 A 
HETATM   10  S11 UNL     1     -33.553  19.027   0.442  1.00 20.00    -0.113 SA
HETATM   11  C3  UNL     1     -34.351  17.840  -0.499  1.00 20.00     0.063 A 
ENDBRANCH   1   7
TORSDOF 1
ENDMDL
MODEL 2
REMARK VINA RESULT:      -4.2      2.362      4.773
REMARK  1 active torsions:
REMARK  status: ('A' for Active; 'I' for Inactive)
REMARK    1  A    between atoms: C4_4  and  C5_5 
ROOT
HETATM    1  C5  UNL     1     -33.663  17.110  -1.765  1.00 20.00     0.039 C 
HETATM    2  C6  UNL     1     -34.674  17.401  -0.665  1.00 20.00     0.060 C 
HETATM    3  C7  UNL     1     -34.346  18.656   0.122  1.00 20.00     0.008 C 
HETATM    4  C8  UNL     1     -32.861  18.683   0.413  1.00 20.00     0.022 C 
HETATM    5  C9  UNL     1     -32.102  18.720  -0.901  1.00 20.00     0.149 C 
HETATM    6  N10 UNL     1     -32.511  17.684  -1.845  1.00 20.00    -0.293 NA
ENDROOT
BRANCH   1   7
HETATM    7  C4  UNL     1     -34.019  16.076  -2.788  1.00 20.00    -0.005 A 
HETATM    8  C1  UNL     1     -33.129  15.531  -3.757  1.00 20.00     0.021 A 
HETATM    9  C2  UNL     1     -33.748  14.600  -4.562  1.00 20.00     0.050 A 
HETATM   10  S11 UNL     1     -35.395  14.385  -4.148  1.00 20.00    -0.113 SA
HETATM   11  C3  UNL     1     -35.284  15.540  -2.889  1.00 20.00     0.063 A 
ENDBRANCH   1   7
TORSDOF 1
ENDMDL
MODEL 3
REMARK VINA RESULT:      -4.2      2.275      4.543
REMARK  1 active torsions:
REMARK  status: ('A' for Active; 'I' for Inactive)
REMARK    1  A    between atoms: C4_4  and  C5_5 
ROOT
HETATM    1  C5  UNL     1     -33.875  17.017  -1.681  1.00 20.00     0.039 C 
HETATM    2  C6  UNL     1     -32.576  17.810  -1.727  1.00 20.00     0.060 C 
HETATM    3  C7  UNL     1     -32.296  18.561  -0.439  1.00 20.00     0.008 C 
HETATM    4  C8  UNL     1     -33.577  19.207   0.045  1.00 20.00     0.022 C 
HETATM    5  C9  UNL     1     -34.600  18.122   0.326  1.00 20.00     0.149 C 
HETATM    6  N10 UNL     1     -34.780  17.183  -0.777  1.00 20.00    -0.293 NA
ENDROOT
BRANCH   1   7
HETATM    7  C4  UNL     1     -34.122  16.015  -2.765  1.00 20.00    -0.005 A 
HETATM    8  C1  UNL     1     -33.155  15.561  -3.708  1.00 20.00     0.021 A 
HETATM    9  C2  UNL     1     -33.681  14.638  -4.584  1.00 20.00     0.050 A 
HETATM   10  S11 UNL     1     -35.334  14.320  -4.269  1.00 20.00    -0.113 SA
HETATM   11  C3  UNL     1     -35.350  15.420  -2.957  1.00 20.00     0.063 A 
ENDBRANCH   1   7
TORSDOF 1
ENDMDL
MODEL 4
REMARK VINA RESULT:      -4.1      1.155      1.962
REMARK  1 active torsions:
REMARK  status: ('A' for Active; 'I' for Inactive)
REMARK    1  A    between atoms: C4_4  and  C5_5 
ROOT
HETATM    1  C5  UNL     1     -33.826  16.323  -2.628  1.00 20.00     0.039 C 
HETATM    2  C6  UNL     1     -35.269  15.841  -2.674  1.00 20.00     0.060 C 
HETATM    3  C7  UNL     1     -35.442  14.567  -3.479  1.00 20.00     0.008 C 
HETATM    4  C8  UNL     1     -34.622  14.669  -4.747  1.00 20.00     0.022 C 
HETATM    5  C9  UNL     1     -33.158  14.817  -4.377  1.00 20.00     0.149 C 
HETATM    6  N10 UNL     1     -32.901  15.878  -3.409  1.00 20.00    -0.293 NA
ENDROOT
BRANCH   1   7
HETATM    7  C4  UNL     1     -33.476  17.394  -1.642  1.00 20.00    -0.005 A 
HETATM    8  C1  UNL     1     -34.287  17.805  -0.546  1.00 20.00     0.021 A 
HETATM    9  C2  UNL     1     -33.698  18.815   0.184  1.00 20.00     0.050 A 
HETATM   10  S11 UNL     1     -32.173  19.262  -0.453  1.00 20.00    -0.113 SA
HETATM   11  C3  UNL     1     -32.298  18.105  -1.708  1.00 20.00     0.063 A 
ENDBRANCH   1   7
TORSDOF 1
ENDMDL
MODEL 5
REMARK VINA RESULT:      -4.0      1.833      2.641
REMARK  1 active torsions:
REMARK  status: ('A' for Active; 'I' for Inactive)
REMARK    1  A    between atoms: C4_4  and  C5_5 
ROOT
HETATM    1  C5  UNL     1     -34.500  17.117  -1.019  1.00 20.00     0.039 C 
HETATM    2  C6  UNL     1     -33.207  17.665  -1.606  1.00 20.00     0.060 C 
HETATM    3  C7  UNL     1     -33.025  17.311  -3.070  1.00 20.00     0.008 C 
HETATM    4  C8  UNL     1     -33.416  15.864  -3.281  1.00 20.00     0.022 C 
HETATM    5  C9  UNL     1     -34.879  15.690  -2.916  1.00 20.00     0.149 C 
HETATM    6  N10 UNL     1     -35.222  16.220  -1.599  1.00 20.00    -0.293 NA
ENDROOT
BRANCH   1   7
HETATM    7  C4  UNL     1     -34.934  17.630   0.319  1.00 20.00    -0.005 A 
HETATM    8  C1  UNL     1     -34.065  18.096   1.347  1.00 20.00     0.021 A 
HETATM    9  C2  UNL     1     -34.759  18.503   2.465  1.00 20.00     0.050 A 
HETATM   10  S11 UNL     1     -36.451  18.323   2.273  1.00 20.00    -0.113 SA
HETATM   11  C3  UNL     1     -36.259  17.699   0.691  1.00 20.00     0.063 A 
ENDBRANCH   1   7
TORSDOF 1
ENDMDL
MODEL 6
REMARK VINA RESULT:      -4.0      2.393      5.014
REMARK  1 active torsions:
REMARK  status: ('A' for Active; 'I' for Inactive)
REMARK    1  A    between atoms: C4_4  and  C5_5 
ROOT
HETATM    1  C5  UNL     1     -33.295  17.642  -1.259  1.00 20.00     0.039 C 
HETATM    2  C6  UNL     1     -34.243  18.102  -0.161  1.00 20.00     0.060 C 
HETATM    3  C7  UNL     1     -33.687  19.251   0.658  1.00 20.00     0.008 C 
HETATM    4  C8  UNL     1     -32.228  18.981   0.962  1.00 20.00     0.022 C 
HETATM    5  C9  UNL     1     -31.460  18.897  -0.345  1.00 20.00     0.149 C 
HETATM    6  N10 UNL     1     -32.052  17.981  -1.316  1.00 20.00    -0.293 NA
ENDROOT
BRANCH   1   7
HETATM    7  C4  UNL     1     -33.833  16.720  -2.309  1.00 20.00    -0.005 A 
HETATM    8  C1  UNL     1     -35.019  15.939  -2.194  1.00 20.00     0.021 A 
HETATM    9  C2  UNL     1     -35.255  15.188  -3.324  1.00 20.00     0.050 A 
HETATM   10  S11 UNL     1     -34.051  15.426  -4.518  1.00 20.00    -0.113 SA
HETATM   11  C3  UNL     1     -33.209  16.537  -3.524  1.00 20.00     0.063 A 
ENDBRANCH   1   7
TORSDOF 1
ENDMDL
MODEL 7
REMARK VINA RESULT:      -3.8      2.420      4.951
REMARK  1 active torsions:
REMARK  status: ('A' for Active; 'I' for Inactive)
REMARK    1  A    between atoms: C4_4  and  C5_5 
ROOT
HETATM    1  C5  UNL     1     -34.269  17.403  -0.903  1.00 20.00     0.039 C 
HETATM    2  C6  UNL     1     -35.401  17.198   0.093  1.00 20.00     0.060 C 
HETATM    3  C7  UNL     1     -35.532  18.339   1.084  1.00 20.00     0.008 C 
HETATM    4  C8  UNL     1     -34.152  18.743   1.557  1.00 20.00     0.022 C 
HETATM    5  C9  UNL     1     -33.343  19.222   0.365  1.00 20.00     0.149 C 
HETATM    6  N10 UNL     1     -33.344  18.290  -0.759  1.00 20.00    -0.293 NA
ENDROOT
BRANCH   1   7
HETATM    7  C4  UNL     1     -34.215  16.501  -2.098  1.00 20.00    -0.005 A 
HETATM    8  C1  UNL     1     -35.244  15.603  -2.502  1.00 20.00     0.021 A 
HETATM    9  C2  UNL     1     -34.904  14.905  -3.640  1.00 20.00     0.050 A 
HETATM   10  S11 UNL     1     -33.350  15.335  -4.217  1.00 20.00    -0.113 SA
HETATM   11  C3  UNL     1     -33.129  16.457  -2.943  1.00 20.00     0.063 A 
ENDBRANCH   1   7
TORSDOF 1
ENDMDL
MODEL 8
REMARK VINA RESULT:      -3.8     13.183     15.504
REMARK  1 active torsions:
REMARK  status: ('A' for Active; 'I' for Inactive)
REMARK    1  A    between atoms: C4_4  and  C5_5 
ROOT
HETATM    1  C5  UNL     1     -23.797  18.152   9.404  1.00 20.00     0.039 C 
HETATM    2  C6  UNL     1     -22.326  18.541   9.364  1.00 20.00     0.060 C 
HETATM    3  C7  UNL     1     -21.491  17.801  10.392  1.00 20.00     0.008 C 
HETATM    4  C8  UNL     1     -22.244  17.763  11.705  1.00 20.00     0.022 C 
HETATM    5  C9  UNL     1     -23.547  17.012  11.504  1.00 20.00     0.149 C 
HETATM    6  N10 UNL     1     -24.335  17.494  10.374  1.00 20.00    -0.293 NA
ENDROOT
BRANCH   1   7
HETATM    7  C4  UNL     1     -24.668  18.589   8.266  1.00 20.00    -0.005 A 
HETATM    8  C1  UNL     1     -24.220  18.876   6.945  1.00 20.00     0.021 A 
HETATM    9  C2  UNL     1     -25.254  19.255   6.118  1.00 20.00     0.050 A 
HETATM   10  S11 UNL     1     -26.759  19.263   6.935  1.00 20.00    -0.113 SA
HETATM   11  C3  UNL     1     -26.029  18.759   8.399  1.00 20.00     0.063 A 
ENDBRANCH   1   7
TORSDOF 1
ENDMDL
MODEL 9
REMARK VINA RESULT:      -3.8      2.665      4.847
REMARK  1 active torsions:
REMARK  status: ('A' for Active; 'I' for Inactive)
REMARK    1  A    between atoms: C4_4  and  C5_5 
ROOT
HETATM    1  C5  UNL     1     -34.509  16.438  -2.681  1.00 20.00     0.039 C 
HETATM    2  C6  UNL     1     -33.171  17.144  -2.853  1.00 20.00     0.060 C 
HETATM    3  C7  UNL     1     -32.624  17.697  -1.551  1.00 20.00     0.008 C 
HETATM    4  C8  UNL     1     -33.749  18.354  -0.780  1.00 20.00     0.022 C 
HETATM    5  C9  UNL     1     -34.804  17.309  -0.461  1.00 20.00     0.149 C 
HETATM    6  N10 UNL     1     -35.239  16.540  -1.623  1.00 20.00    -0.293 NA
ENDROOT
BRANCH   1   7
HETATM    7  C4  UNL     1     -35.014  15.608  -3.821  1.00 20.00    -0.005 A 
HETATM    8  C1  UNL     1     -35.875  14.479  -3.704  1.00 20.00     0.021 A 
HETATM    9  C2  UNL     1     -36.165  13.920  -4.929  1.00 20.00     0.050 A 
HETATM   10  S11 UNL     1     -35.400  14.755  -6.213  1.00 20.00    -0.113 SA
HETATM   11  C3  UNL     1     -34.679  15.869  -5.132  1.00 20.00     0.063 A 
ENDBRANCH   1   7
TORSDOF 1
ENDMDL
