MODEL 1
REMARK VINA RESULT:      -4.6      0.000      0.000
REMARK  1 active torsions:
REMARK  status: ('A' for Active; 'I' for Inactive)
REMARK    1  A    between atoms: C3_3  and  C5_5 
ROOT
HETATM    1  C1  UNL     1     -34.051   4.673   3.511  1.00 20.00     0.022 A 
HETATM    2  C2  UNL     1     -33.410   5.254   2.379  1.00 20.00     0.028 A 
HETATM    3  C3  UNL     1     -34.200   5.575   4.541  1.00 20.00     0.048 A 
HETATM    4  C4  UNL     1     -33.092   6.579   2.588  1.00 20.00     0.052 A 
HETATM    5  S8  UNL     1     -33.568   7.116   4.142  1.00 20.00    -0.082 SA
HETATM    6 BR9  UNL     1     -32.230   7.691   1.312  1.00 20.00    -0.043 Br
ENDROOT
BRANCH   3   7
HETATM    7  C5  UNL     1     -34.812   5.362   5.870  1.00 20.00     0.393 C 
HETATM    8  F6  UNL     1     -34.800   6.505   6.612  1.00 20.00    -0.208 F 
HETATM    9  F7  UNL     1     -34.116   4.439   6.593  1.00 20.00    -0.208 F 
ENDBRANCH   3   7
TORSDOF 1
ENDMDL
MODEL 2
REMARK VINA RESULT:      -3.9      3.739      4.369
REMARK  1 active torsions:
REMARK  status: ('A' for Active; 'I' for Inactive)
REMARK    1  A    between atoms: C3_3  and  C5_5 
ROOT
HETATM    1  C1  UNL     1     -33.161   5.590   2.119  1.00 20.00     0.022 A 
HETATM    2  C2  UNL     1     -33.803   4.883   3.177  1.00 20.00     0.028 A 
HETATM    3  C3  UNL     1     -32.895   6.898   2.457  1.00 20.00     0.048 A 
HETATM    4  C4  UNL     1     -34.005   5.679   4.283  1.00 20.00     0.052 A 
HETATM    5  S8  UNL     1     -33.420   7.271   4.044  1.00 20.00    -0.082 SA
HETATM    6 BR9  UNL     1     -34.831   5.097   5.891  1.00 20.00    -0.043 Br
ENDROOT
BRANCH   3   7
HETATM    7  C5  UNL     1     -32.245   7.946   1.642  1.00 20.00     0.393 C 
HETATM    8  F6  UNL     1     -33.152   8.857   1.188  1.00 20.00    -0.208 F 
HETATM    9  F7  UNL     1     -31.659   7.416   0.531  1.00 20.00    -0.208 F 
ENDBRANCH   3   7
TORSDOF 1
ENDMDL
MODEL 3
REMARK VINA RESULT:      -3.9     12.038     12.537
REMARK  1 active torsions:
REMARK  status: ('A' for Active; 'I' for Inactive)
REMARK    1  A    between atoms: C3_3  and  C5_5 
ROOT
HETATM    1  C1  UNL     1     -33.615  14.868  -4.211  1.00 20.00     0.022 A 
HETATM    2  C2  UNL     1     -32.926  15.854  -3.447  1.00 20.00     0.028 A 
HETATM    3  C3  UNL     1     -34.951  14.800  -3.884  1.00 20.00     0.048 A 
HETATM    4  C4  UNL     1     -33.762  16.502  -2.565  1.00 20.00     0.052 A 
HETATM    5  S8  UNL     1     -35.370  15.921  -2.660  1.00 20.00    -0.082 SA
HETATM    6 BR9  UNL     1     -33.213  17.878  -1.377  1.00 20.00    -0.043 Br
ENDROOT
BRANCH   3   7
HETATM    7  C5  UNL     1     -35.993  13.914  -4.446  1.00 20.00     0.393 C 
HETATM    8  F6  UNL     1     -35.752  12.608  -4.141  1.00 20.00    -0.208 F 
HETATM    9  F7  UNL     1     -36.019  13.982  -5.807  1.00 20.00    -0.208 F 
ENDBRANCH   3   7
TORSDOF 1
ENDMDL
MODEL 4
REMARK VINA RESULT:      -3.9     12.360     12.792
REMARK  1 active torsions:
REMARK  status: ('A' for Active; 'I' for Inactive)
REMARK    1  A    between atoms: C3_3  and  C5_5 
ROOT
HETATM    1  C1  UNL     1     -35.128  15.837  -2.193  1.00 20.00     0.022 A 
HETATM    2  C2  UNL     1     -35.141  16.865  -1.206  1.00 20.00     0.028 A 
HETATM    3  C3  UNL     1     -33.988  15.876  -2.964  1.00 20.00     0.048 A 
HETATM    4  C4  UNL     1     -34.011  17.651  -1.262  1.00 20.00     0.052 A 
HETATM    5  S8  UNL     1     -32.940  17.148  -2.500  1.00 20.00    -0.082 SA
HETATM    6 BR9  UNL     1     -33.667  19.121  -0.110  1.00 20.00    -0.043 Br
ENDROOT
BRANCH   3   7
HETATM    7  C5  UNL     1     -33.602  14.988  -4.082  1.00 20.00     0.393 C 
HETATM    8  F6  UNL     1     -34.146  13.746  -3.940  1.00 20.00    -0.208 F 
HETATM    9  F7  UNL     1     -32.252  14.802  -4.123  1.00 20.00    -0.208 F 
ENDBRANCH   3   7
TORSDOF 1
ENDMDL
MODEL 5
REMARK VINA RESULT:      -3.9     12.098     12.386
REMARK  1 active torsions:
REMARK  status: ('A' for Active; 'I' for Inactive)
REMARK    1  A    between atoms: C3_3  and  C5_5 
ROOT
HETATM    1  C1  UNL     1     -33.631  14.919  -4.180  1.00 20.00     0.022 A 
HETATM    2  C2  UNL     1     -32.927  15.887  -3.407  1.00 20.00     0.028 A 
HETATM    3  C3  UNL     1     -34.970  14.875  -3.859  1.00 20.00     0.048 A 
HETATM    4  C4  UNL     1     -33.754  16.545  -2.523  1.00 20.00     0.052 A 
HETATM    5  S8  UNL     1     -35.373  15.996  -2.629  1.00 20.00    -0.082 SA
HETATM    6 BR9  UNL     1     -33.184  17.902  -1.324  1.00 20.00    -0.043 Br
ENDROOT
BRANCH   3   7
HETATM    7  C5  UNL     1     -36.025  14.013  -4.432  1.00 20.00     0.393 C 
HETATM    8  F6  UNL     1     -37.243  14.287  -3.883  1.00 20.00    -0.208 F 
HETATM    9  F7  UNL     1     -35.786  12.696  -4.171  1.00 20.00    -0.208 F 
ENDBRANCH   3   7
TORSDOF 1
ENDMDL
MODEL 6
REMARK VINA RESULT:      -3.8     12.388     12.816
REMARK  1 active torsions:
REMARK  status: ('A' for Active; 'I' for Inactive)
REMARK    1  A    between atoms: C3_3  and  C5_5 
ROOT
HETATM    1  C1  UNL     1     -32.856  16.874  -2.631  1.00 20.00     0.022 A 
HETATM    2  C2  UNL     1     -33.512  17.598  -1.594  1.00 20.00     0.028 A 
HETATM    3  C3  UNL     1     -33.652  15.878  -3.151  1.00 20.00     0.048 A 
HETATM    4  C4  UNL     1     -34.785  17.126  -1.359  1.00 20.00     0.052 A 
HETATM    5  S8  UNL     1     -35.183  15.816  -2.388  1.00 20.00    -0.082 SA
HETATM    6 BR9  UNL     1     -35.970  17.832  -0.054  1.00 20.00    -0.043 Br
ENDROOT
BRANCH   3   7
HETATM    7  C5  UNL     1     -33.338  14.918  -4.230  1.00 20.00     0.393 C 
HETATM    8  F6  UNL     1     -34.019  13.748  -4.069  1.00 20.00    -0.208 F 
HETATM    9  F7  UNL     1     -32.016  14.584  -4.227  1.00 20.00    -0.208 F 
ENDBRANCH   3   7
TORSDOF 1
ENDMDL
MODEL 7
REMARK VINA RESULT:      -3.8     12.281     12.641
REMARK  1 active torsions:
REMARK  status: ('A' for Active; 'I' for Inactive)
REMARK    1  A    between atoms: C3_3  and  C5_5 
ROOT
HETATM    1  C1  UNL     1     -32.927  15.926  -3.388  1.00 20.00     0.022 A 
HETATM    2  C2  UNL     1     -33.661  14.958  -4.131  1.00 20.00     0.028 A 
HETATM    3  C3  UNL     1     -33.726  16.612  -2.500  1.00 20.00     0.048 A 
HETATM    4  C4  UNL     1     -34.994  14.940  -3.784  1.00 20.00     0.052 A 
HETATM    5  S8  UNL     1     -35.355  16.088  -2.565  1.00 20.00    -0.082 SA
HETATM    6 BR9  UNL     1     -36.290  13.786  -4.554  1.00 20.00    -0.043 Br
ENDROOT
BRANCH   3   7
HETATM    7  C5  UNL     1     -33.345  17.685  -1.557  1.00 20.00     0.393 C 
HETATM    8  F6  UNL     1     -32.007  17.668  -1.299  1.00 20.00    -0.208 F 
HETATM    9  F7  UNL     1     -33.960  17.526  -0.351  1.00 20.00    -0.208 F 
ENDBRANCH   3   7
TORSDOF 1
ENDMDL
MODEL 8
REMARK VINA RESULT:      -3.7      9.931     10.174
REMARK  1 active torsions:
REMARK  status: ('A' for Active; 'I' for Inactive)
REMARK    1  A    between atoms: C3_3  and  C5_5 
ROOT
HETATM    1  C1  UNL     1     -40.825   6.309  -0.472  1.00 20.00     0.022 A 
HETATM    2  C2  UNL     1     -41.150   5.121  -1.190  1.00 20.00     0.028 A 
HETATM    3  C3  UNL     1     -41.933   7.094  -0.243  1.00 20.00     0.048 A 
HETATM    4  C4  UNL     1     -42.493   5.045  -1.483  1.00 20.00     0.052 A 
HETATM    5  S8  UNL     1     -43.357   6.401  -0.893  1.00 20.00    -0.082 SA
HETATM    6 BR9  UNL     1     -43.308   3.613  -2.428  1.00 20.00    -0.043 Br
ENDROOT
BRANCH   3   7
HETATM    7  C5  UNL     1     -42.012   8.391   0.461  1.00 20.00     0.393 C 
HETATM    8  F6  UNL     1     -43.297   8.839   0.536  1.00 20.00    -0.208 F 
HETATM    9  F7  UNL     1     -41.317   9.359  -0.202  1.00 20.00    -0.208 F 
ENDBRANCH   3   7
TORSDOF 1
ENDMDL
MODEL 9
REMARK VINA RESULT:      -3.7     12.529     13.224
REMARK  1 active torsions:
REMARK  status: ('A' for Active; 'I' for Inactive)
REMARK    1  A    between atoms: C3_3  and  C5_5 
ROOT
HETATM    1  C1  UNL     1     -34.508  17.194  -1.204  1.00 20.00     0.022 A 
HETATM    2  C2  UNL     1     -35.191  16.122  -1.847  1.00 20.00     0.028 A 
HETATM    3  C3  UNL     1     -33.314  17.492  -1.823  1.00 20.00     0.048 A 
HETATM    4  C4  UNL     1     -34.493  15.641  -2.933  1.00 20.00     0.052 A 
HETATM    5  S8  UNL     1     -33.021  16.481  -3.174  1.00 20.00    -0.082 SA
HETATM    6 BR9  UNL     1     -35.080  14.215  -4.042  1.00 20.00    -0.043 Br
ENDROOT
BRANCH   3   7
HETATM    7  C5  UNL     1     -32.325  18.530  -1.463  1.00 20.00     0.393 C 
HETATM    8  F6  UNL     1     -31.933  19.244  -2.556  1.00 20.00    -0.208 F 
HETATM    9  F7  UNL     1     -31.189  17.976  -0.952  1.00 20.00    -0.208 F 
ENDBRANCH   3   7
TORSDOF 1
ENDMDL
