MODEL 1
REMARK VINA RESULT:      -4.5      0.000      0.000
REMARK  0 active torsions:
REMARK  status: ('A' for Active; 'I' for Inactive)
ROOT
HETATM    1  C1  UNL     1     -34.109   4.225   3.810  1.00 20.00     0.075 C 
HETATM    2  C2  UNL     1     -33.300   4.834   2.667  1.00 20.00     0.273 C 
HETATM    3  C3  UNL     1     -33.752   6.563   4.175  1.00 20.00     0.312 C 
HETATM    4  C4  UNL     1     -34.678   5.424   4.555  1.00 20.00     0.127 C 
HETATM    5  C5  UNL     1     -34.822   5.217   6.050  1.00 20.00     0.053 C 
HETATM    6  N6  UNL     1     -33.491   6.280   2.764  1.00 20.00     0.086 N 
HETATM    7  F7  UNL     1     -35.917   5.695   4.049  1.00 20.00    -0.241 F 
HETATM    8  H17 UNL     1     -32.665   6.780   2.437  1.00 20.00     0.316 HD
ENDROOT
TORSDOF 0
ENDMDL
MODEL 2
REMARK VINA RESULT:      -4.0      1.656      2.796
REMARK  0 active torsions:
REMARK  status: ('A' for Active; 'I' for Inactive)
ROOT
HETATM    1  C1  UNL     1     -33.859   6.718   4.453  1.00 20.00     0.075 C 
HETATM    2  C2  UNL     1     -34.075   6.634   5.962  1.00 20.00     0.273 C 
HETATM    3  C3  UNL     1     -34.359   4.473   5.115  1.00 20.00     0.312 C 
HETATM    4  C4  UNL     1     -34.403   5.402   3.916  1.00 20.00     0.127 C 
HETATM    5  C5  UNL     1     -33.668   4.874   2.699  1.00 20.00     0.053 C 
HETATM    6  N6  UNL     1     -34.762   5.366   6.202  1.00 20.00     0.086 N 
HETATM    7  F7  UNL     1     -35.710   5.587   3.569  1.00 20.00    -0.241 F 
HETATM    8  H17 UNL     1     -34.506   4.978   7.108  1.00 20.00     0.316 HD
ENDROOT
TORSDOF 0
ENDMDL
MODEL 3
REMARK VINA RESULT:      -3.8     16.801     17.620
REMARK  0 active torsions:
REMARK  status: ('A' for Active; 'I' for Inactive)
ROOT
HETATM    1  C1  UNL     1     -24.367  16.908  10.171  1.00 20.00     0.075 C 
HETATM    2  C2  UNL     1     -24.359  16.226  11.537  1.00 20.00     0.273 C 
HETATM    3  C3  UNL     1     -22.502  17.646  11.476  1.00 20.00     0.312 C 
HETATM    4  C4  UNL     1     -22.980  17.520  10.042  1.00 20.00     0.127 C 
HETATM    5  C5  UNL     1     -22.943  18.821   9.263  1.00 20.00     0.053 C 
HETATM    6  N6  UNL     1     -23.011  16.410  12.072  1.00 20.00     0.086 N 
HETATM    7  F7  UNL     1     -22.173  16.625   9.401  1.00 20.00    -0.241 F 
HETATM    8  H17 UNL     1     -23.027  16.474  13.089  1.00 20.00     0.316 HD
ENDROOT
TORSDOF 0
ENDMDL
MODEL 4
REMARK VINA RESULT:      -3.8      8.529      8.818
REMARK  0 active torsions:
REMARK  status: ('A' for Active; 'I' for Inactive)
ROOT
HETATM    1  C1  UNL     1     -41.212   7.033  -1.046  1.00 20.00     0.075 C 
HETATM    2  C2  UNL     1     -41.196   5.508  -0.981  1.00 20.00     0.273 C 
HETATM    3  C3  UNL     1     -42.645   6.244   0.700  1.00 20.00     0.312 C 
HETATM    4  C4  UNL     1     -41.857   7.464   0.263  1.00 20.00     0.127 C 
HETATM    5  C5  UNL     1     -42.686   8.730   0.161  1.00 20.00     0.053 C 
HETATM    6  N6  UNL     1     -41.742   5.154   0.328  1.00 20.00     0.086 N 
HETATM    7  F7  UNL     1     -40.868   7.683   1.177  1.00 20.00    -0.241 F 
HETATM    8  H17 UNL     1     -42.238   4.265   0.289  1.00 20.00     0.316 HD
ENDROOT
TORSDOF 0
ENDMDL
MODEL 5
REMARK VINA RESULT:      -3.8     16.614     17.387
REMARK  0 active torsions:
REMARK  status: ('A' for Active; 'I' for Inactive)
ROOT
HETATM    1  C1  UNL     1     -22.974  17.777  11.995  1.00 20.00     0.075 C 
HETATM    2  C2  UNL     1     -22.100  17.755  10.743  1.00 20.00     0.273 C 
HETATM    3  C3  UNL     1     -24.081  16.635  10.206  1.00 20.00     0.312 C 
HETATM    4  C4  UNL     1     -24.060  16.747  11.719  1.00 20.00     0.127 C 
HETATM    5  C5  UNL     1     -25.406  17.082  12.332  1.00 20.00     0.053 C 
HETATM    6  N6  UNL     1     -22.657  16.716   9.879  1.00 20.00     0.086 N 
HETATM    7  F7  UNL     1     -23.654  15.548  12.230  1.00 20.00    -0.241 F 
HETATM    8  H17 UNL     1     -22.520  16.946   8.896  1.00 20.00     0.316 HD
ENDROOT
TORSDOF 0
ENDMDL
MODEL 6
REMARK VINA RESULT:      -3.7     12.075     12.440
REMARK  0 active torsions:
REMARK  status: ('A' for Active; 'I' for Inactive)
ROOT
HETATM    1  C1  UNL     1     -34.757  15.367  -2.917  1.00 20.00     0.075 C 
HETATM    2  C2  UNL     1     -33.396  15.999  -3.199  1.00 20.00     0.273 C 
HETATM    3  C3  UNL     1     -34.040  14.878  -5.147  1.00 20.00     0.312 C 
HETATM    4  C4  UNL     1     -34.957  14.371  -4.049  1.00 20.00     0.127 C 
HETATM    5  C5  UNL     1     -36.400  14.200  -4.481  1.00 20.00     0.053 C 
HETATM    6  N6  UNL     1     -32.873  15.320  -4.383  1.00 20.00     0.086 N 
HETATM    7  F7  UNL     1     -34.496  13.154  -3.637  1.00 20.00    -0.241 F 
HETATM    8  H17 UNL     1     -32.290  15.947  -4.936  1.00 20.00     0.316 HD
ENDROOT
TORSDOF 0
ENDMDL
MODEL 7
REMARK VINA RESULT:      -3.6     17.411     17.937
REMARK  0 active torsions:
REMARK  status: ('A' for Active; 'I' for Inactive)
ROOT
HETATM    1  C1  UNL     1     -23.916  18.013  12.026  1.00 20.00     0.075 C 
HETATM    2  C2  UNL     1     -22.443  17.749  12.331  1.00 20.00     0.273 C 
HETATM    3  C3  UNL     1     -22.602  18.141  10.031  1.00 20.00     0.312 C 
HETATM    4  C4  UNL     1     -24.019  17.898  10.512  1.00 20.00     0.127 C 
HETATM    5  C5  UNL     1     -25.050  18.817   9.886  1.00 20.00     0.053 C 
HETATM    6  N6  UNL     1     -21.815  17.442  11.047  1.00 20.00     0.086 N 
HETATM    7  F7  UNL     1     -24.361  16.613  10.202  1.00 20.00    -0.241 F 
HETATM    8  H17 UNL     1     -20.844  17.749  11.033  1.00 20.00     0.316 HD
ENDROOT
TORSDOF 0
ENDMDL
MODEL 8
REMARK VINA RESULT:      -3.6      8.573      8.888
REMARK  0 active torsions:
REMARK  status: ('A' for Active; 'I' for Inactive)
ROOT
HETATM    1  C1  UNL     1     -41.253   7.535   0.707  1.00 20.00     0.075 C 
HETATM    2  C2  UNL     1     -41.252   8.621  -0.367  1.00 20.00     0.273 C 
HETATM    3  C3  UNL     1     -42.480   6.823  -1.219  1.00 20.00     0.312 C 
HETATM    4  C4  UNL     1     -41.732   6.284  -0.015  1.00 20.00     0.127 C 
HETATM    5  C5  UNL     1     -42.547   5.341   0.848  1.00 20.00     0.053 C 
HETATM    6  N6  UNL     1     -41.645   7.959  -1.610  1.00 20.00     0.086 N 
HETATM    7  F7  UNL     1     -40.638   5.602  -0.463  1.00 20.00    -0.241 F 
HETATM    8  H17 UNL     1     -42.156   8.597  -2.217  1.00 20.00     0.316 HD
ENDROOT
TORSDOF 0
ENDMDL
MODEL 9
REMARK VINA RESULT:      -3.5     17.224     17.600
REMARK  0 active torsions:
REMARK  status: ('A' for Active; 'I' for Inactive)
ROOT
HETATM    1  C1  UNL     1     -22.691  18.153   9.793  1.00 20.00     0.075 C 
HETATM    2  C2  UNL     1     -23.781  18.582   8.813  1.00 20.00     0.273 C 
HETATM    3  C3  UNL     1     -24.817  18.265  10.884  1.00 20.00     0.312 C 
HETATM    4  C4  UNL     1     -23.451  17.617  10.997  1.00 20.00     0.127 C 
HETATM    5  C5  UNL     1     -22.761  17.857  12.326  1.00 20.00     0.053 C 
HETATM    6  N6  UNL     1     -25.051  18.224   9.441  1.00 20.00     0.086 N 
HETATM    7  F7  UNL     1     -23.604  16.269  10.842  1.00 20.00    -0.241 F 
HETATM    8  H17 UNL     1     -25.788  18.875   9.171  1.00 20.00     0.316 HD
ENDROOT
TORSDOF 0
ENDMDL
