MODEL 1
REMARK VINA RESULT:      -5.2      0.000      0.000
REMARK  0 active torsions:
REMARK  status: ('A' for Active; 'I' for Inactive)
ROOT
HETATM    1  C1  UNL     1     -25.039  18.457  11.395  1.00 20.00     0.050 A 
HETATM    2  C2  UNL     1     -26.330  19.213   9.470  1.00 20.00     0.062 A 
HETATM    3  C3  UNL     1     -24.116  18.411   9.180  1.00 20.00     0.034 A 
HETATM    4  C4  UNL     1     -23.984  18.173  10.543  1.00 20.00    -0.040 A 
HETATM    5  C5  UNL     1     -26.217  18.980  10.852  1.00 20.00     0.118 A 
HETATM    6  C6  UNL     1     -25.267  18.926   8.613  1.00 20.00     0.028 A 
HETATM    7  C7  UNL     1     -22.874  18.027   8.530  1.00 20.00     0.161 A 
HETATM    8  C8  UNL     1     -22.646  17.615  10.907  1.00 20.00     0.047 A 
HETATM    9  C9  UNL     1     -21.900  17.516   9.565  1.00 20.00     0.088 A 
HETATM   10  O10 UNL     1     -22.639  18.102   7.337  1.00 20.00    -0.292 OA
HETATM   11  F11 UNL     1     -27.251  19.261  11.656  1.00 20.00    -0.206 F 
HETATM   12 BR12 UNL     1     -25.483  19.261   6.766  1.00 20.00    -0.050 Br
ENDROOT
TORSDOF 0
ENDMDL
MODEL 2
REMARK VINA RESULT:      -4.9      2.704      3.640
REMARK  0 active torsions:
REMARK  status: ('A' for Active; 'I' for Inactive)
ROOT
HETATM    1  C1  UNL     1     -22.474  17.699  10.117  1.00 20.00     0.050 A 
HETATM    2  C2  UNL     1     -24.076  17.883  11.945  1.00 20.00     0.062 A 
HETATM    3  C3  UNL     1     -24.716  18.463   9.736  1.00 20.00     0.034 A 
HETATM    4  C4  UNL     1     -23.452  18.153   9.249  1.00 20.00    -0.040 A 
HETATM    5  C5  UNL     1     -22.791  17.565  11.473  1.00 20.00     0.118 A 
HETATM    6  C6  UNL     1     -25.061  18.341  11.070  1.00 20.00     0.028 A 
HETATM    7  C7  UNL     1     -25.536  18.911   8.621  1.00 20.00     0.161 A 
HETATM    8  C8  UNL     1     -23.330  18.371   7.775  1.00 20.00     0.047 A 
HETATM    9  C9  UNL     1     -24.720  18.877   7.351  1.00 20.00     0.088 A 
HETATM   10  O10 UNL     1     -26.700  19.262   8.687  1.00 20.00    -0.292 OA
HETATM   11  F11 UNL     1     -21.862  17.125  12.332  1.00 20.00    -0.206 F 
HETATM   12 BR12 UNL     1     -26.768  18.751  11.767  1.00 20.00    -0.050 Br
ENDROOT
TORSDOF 0
ENDMDL
MODEL 3
REMARK VINA RESULT:      -4.8      2.150      2.874
REMARK  0 active torsions:
REMARK  status: ('A' for Active; 'I' for Inactive)
ROOT
HETATM    1  C1  UNL     1     -26.324  19.246  10.113  1.00 20.00     0.050 A 
HETATM    2  C2  UNL     1     -25.166  18.522  12.132  1.00 20.00     0.062 A 
HETATM    3  C3  UNL     1     -24.042  18.505  10.043  1.00 20.00     0.034 A 
HETATM    4  C4  UNL     1     -25.171  18.988   9.391  1.00 20.00    -0.040 A 
HETATM    5  C5  UNL     1     -26.318  19.010  11.492  1.00 20.00     0.118 A 
HETATM    6  C6  UNL     1     -24.004  18.263  11.404  1.00 20.00     0.028 A 
HETATM    7  C7  UNL     1     -22.989  18.325   9.057  1.00 20.00     0.161 A 
HETATM    8  C8  UNL     1     -24.959  19.165   7.922  1.00 20.00     0.047 A 
HETATM    9  C9  UNL     1     -23.503  18.722   7.694  1.00 20.00     0.088 A 
HETATM   10  O10 UNL     1     -21.864  17.915   9.280  1.00 20.00    -0.292 OA
HETATM   11  F11 UNL     1     -27.421  19.255  12.211  1.00 20.00    -0.206 F 
HETATM   12 BR12 UNL     1     -22.490  17.609  12.325  1.00 20.00    -0.050 Br
ENDROOT
TORSDOF 0
ENDMDL
MODEL 4
REMARK VINA RESULT:      -4.6     10.649     11.816
REMARK  0 active torsions:
REMARK  status: ('A' for Active; 'I' for Inactive)
ROOT
HETATM    1  C1  UNL     1     -33.651  18.624   2.915  1.00 20.00     0.050 A 
HETATM    2  C2  UNL     1     -34.669  17.979   0.796  1.00 20.00     0.062 A 
HETATM    3  C3  UNL     1     -32.344  18.436   0.911  1.00 20.00     0.034 A 
HETATM    4  C4  UNL     1     -32.428  18.713   2.271  1.00 20.00    -0.040 A 
HETATM    5  C5  UNL     1     -34.776  18.255   2.170  1.00 20.00     0.118 A 
HETATM    6  C6  UNL     1     -33.436  18.068   0.148  1.00 20.00     0.028 A 
HETATM    7  C7  UNL     1     -30.960  18.605   0.499  1.00 20.00     0.161 A 
HETATM    8  C8  UNL     1     -31.111  19.088   2.869  1.00 20.00     0.047 A 
HETATM    9  C9  UNL     1     -30.126  19.018   1.688  1.00 20.00     0.088 A 
HETATM   10  O10 UNL     1     -30.526  18.443  -0.628  1.00 20.00    -0.292 OA
HETATM   11  F11 UNL     1     -35.969  18.161   2.772  1.00 20.00    -0.206 F 
HETATM   12 BR12 UNL     1     -33.359  17.683  -1.700  1.00 20.00    -0.050 Br
ENDROOT
TORSDOF 0
ENDMDL
MODEL 5
REMARK VINA RESULT:      -4.5     11.500     12.796
REMARK  0 active torsions:
REMARK  status: ('A' for Active; 'I' for Inactive)
ROOT
HETATM    1  C1  UNL     1     -35.092  17.831   0.757  1.00 20.00     0.050 A 
HETATM    2  C2  UNL     1     -33.625  18.597   2.547  1.00 20.00     0.062 A 
HETATM    3  C3  UNL     1     -32.770  18.288   0.357  1.00 20.00     0.034 A 
HETATM    4  C4  UNL     1     -34.015  17.883  -0.112  1.00 20.00    -0.040 A 
HETATM    5  C5  UNL     1     -34.892  18.190   2.094  1.00 20.00     0.118 A 
HETATM    6  C6  UNL     1     -32.541  18.650   1.671  1.00 20.00     0.028 A 
HETATM    7  C7  UNL     1     -31.833  18.251  -0.755  1.00 20.00     0.161 A 
HETATM    8  C8  UNL     1     -34.004  17.545  -1.568  1.00 20.00     0.047 A 
HETATM    9  C9  UNL     1     -32.548  17.788  -2.002  1.00 20.00     0.088 A 
HETATM   10  O10 UNL     1     -30.652  18.543  -0.702  1.00 20.00    -0.292 OA
HETATM   11  F11 UNL     1     -35.919  18.149   2.953  1.00 20.00    -0.206 F 
HETATM   12 BR12 UNL     1     -30.865  19.206   2.343  1.00 20.00    -0.050 Br
ENDROOT
TORSDOF 0
ENDMDL
MODEL 6
REMARK VINA RESULT:      -4.5     16.004     17.208
REMARK  0 active torsions:
REMARK  status: ('A' for Active; 'I' for Inactive)
ROOT
HETATM    1  C1  UNL     1     -33.378  15.891  -2.979  1.00 20.00     0.050 A 
HETATM    2  C2  UNL     1     -34.775  17.741  -2.227  1.00 20.00     0.062 A 
HETATM    3  C3  UNL     1     -35.752  15.882  -3.329  1.00 20.00     0.034 A 
HETATM    4  C4  UNL     1     -34.514  15.266  -3.467  1.00 20.00    -0.040 A 
HETATM    5  C5  UNL     1     -33.514  17.136  -2.356  1.00 20.00     0.118 A 
HETATM    6  C6  UNL     1     -35.919  17.111  -2.719  1.00 20.00     0.028 A 
HETATM    7  C7  UNL     1     -36.759  15.016  -3.923  1.00 20.00     0.161 A 
HETATM    8  C8  UNL     1     -34.598  13.946  -4.163  1.00 20.00     0.047 A 
HETATM    9  C9  UNL     1     -36.096  13.775  -4.470  1.00 20.00     0.088 A 
HETATM   10  O10 UNL     1     -37.954  15.245  -3.979  1.00 20.00    -0.292 OA
HETATM   11  F11 UNL     1     -32.429  17.758  -1.875  1.00 20.00    -0.206 F 
HETATM   12 BR12 UNL     1     -37.585  17.978  -2.512  1.00 20.00    -0.050 Br
ENDROOT
TORSDOF 0
ENDMDL
MODEL 7
REMARK VINA RESULT:      -4.4     12.987     14.238
REMARK  0 active torsions:
REMARK  status: ('A' for Active; 'I' for Inactive)
ROOT
HETATM    1  C1  UNL     1     -33.045  16.996  -2.288  1.00 20.00     0.050 A 
HETATM    2  C2  UNL     1     -35.270  16.682  -1.344  1.00 20.00     0.062 A 
HETATM    3  C3  UNL     1     -33.670  18.012  -0.206  1.00 20.00     0.034 A 
HETATM    4  C4  UNL     1     -32.722  17.786  -1.198  1.00 20.00    -0.040 A 
HETATM    5  C5  UNL     1     -34.327  16.442  -2.358  1.00 20.00     0.118 A 
HETATM    6  C6  UNL     1     -34.945  17.479  -0.246  1.00 20.00     0.028 A 
HETATM    7  C7  UNL     1     -33.071  18.866   0.808  1.00 20.00     0.161 A 
HETATM    8  C8  UNL     1     -31.422  18.470  -0.923  1.00 20.00     0.047 A 
HETATM    9  C9  UNL     1     -31.650  19.192   0.416  1.00 20.00     0.088 A 
HETATM   10  O10 UNL     1     -33.619  19.263   1.821  1.00 20.00    -0.292 OA
HETATM   11  F11 UNL     1     -34.663  15.675  -3.404  1.00 20.00    -0.206 F 
HETATM   12 BR12 UNL     1     -36.258  17.765   1.082  1.00 20.00    -0.050 Br
ENDROOT
TORSDOF 0
ENDMDL
MODEL 8
REMARK VINA RESULT:      -4.3     11.817     13.213
REMARK  0 active torsions:
REMARK  status: ('A' for Active; 'I' for Inactive)
ROOT
HETATM    1  C1  UNL     1     -31.132  18.421  -0.334  1.00 20.00     0.050 A 
HETATM    2  C2  UNL     1     -32.078  18.928   1.855  1.00 20.00     0.062 A 
HETATM    3  C3  UNL     1     -33.464  18.087   0.123  1.00 20.00     0.034 A 
HETATM    4  C4  UNL     1     -32.390  18.026  -0.757  1.00 20.00    -0.040 A 
HETATM    5  C5  UNL     1     -30.979  18.874   0.980  1.00 20.00     0.118 A 
HETATM    6  C6  UNL     1     -33.345  18.530   1.427  1.00 20.00     0.028 A 
HETATM    7  C7  UNL     1     -34.650  17.619  -0.575  1.00 20.00     0.161 A 
HETATM    8  C8  UNL     1     -32.776  17.515  -2.108  1.00 20.00     0.047 A 
HETATM    9  C9  UNL     1     -34.286  17.242  -1.991  1.00 20.00     0.088 A 
HETATM   10  O10 UNL     1     -35.771  17.539  -0.104  1.00 20.00    -0.292 OA
HETATM   11  F11 UNL     1     -29.771  19.260   1.413  1.00 20.00    -0.206 F 
HETATM   12 BR12 UNL     1     -34.781  18.625   2.651  1.00 20.00    -0.050 Br
ENDROOT
TORSDOF 0
ENDMDL
MODEL 9
REMARK VINA RESULT:      -4.3     16.716     17.899
REMARK  0 active torsions:
REMARK  status: ('A' for Active; 'I' for Inactive)
ROOT
HETATM    1  C1  UNL     1     -33.553  15.882  -3.158  1.00 20.00     0.050 A 
HETATM    2  C2  UNL     1     -34.079  17.966  -4.309  1.00 20.00     0.062 A 
HETATM    3  C3  UNL     1     -35.316  15.998  -4.782  1.00 20.00     0.034 A 
HETATM    4  C4  UNL     1     -34.567  15.264  -3.870  1.00 20.00    -0.040 A 
HETATM    5  C5  UNL     1     -33.310  17.241  -3.382  1.00 20.00     0.118 A 
HETATM    6  C6  UNL     1     -35.101  17.342  -5.025  1.00 20.00     0.028 A 
HETATM    7  C7  UNL     1     -36.301  15.111  -5.380  1.00 20.00     0.161 A 
HETATM    8  C8  UNL     1     -34.993  13.833  -3.790  1.00 20.00     0.047 A 
HETATM    9  C9  UNL     1     -36.151  13.726  -4.797  1.00 20.00     0.088 A 
HETATM   10  O10 UNL     1     -37.124  15.422  -6.222  1.00 20.00    -0.292 OA
HETATM   11  F11 UNL     1     -32.335  17.861  -2.704  1.00 20.00    -0.206 F 
HETATM   12 BR12 UNL     1     -36.099  18.372  -6.255  1.00 20.00    -0.050 Br
ENDROOT
TORSDOF 0
ENDMDL
