MODEL 1
REMARK VINA RESULT:      -4.7      0.000      0.000
REMARK  1 active torsions:
REMARK  status: ('A' for Active; 'I' for Inactive)
REMARK    1  A    between atoms: C1_1  and  C3_3 
ROOT
HETATM    1  C3  UNL     1     -34.862   5.460   5.080  1.00 20.00     0.408 C 
HETATM    2  F4  UNL     1     -35.973   5.434   4.301  1.00 20.00    -0.167 F 
HETATM    3  F5  UNL     1     -35.287   5.606   6.362  1.00 20.00    -0.167 F 
HETATM    4  F6  UNL     1     -34.294   4.230   4.995  1.00 20.00    -0.167 F 
ENDROOT
BRANCH   1   5
HETATM    5  C1  UNL     1     -33.946   6.563   4.683  1.00 20.00     0.096 C 
HETATM    6  C2  UNL     1     -33.211   6.562   3.567  1.00 20.00     0.060 C 
HETATM    7 BR7  UNL     1     -33.203   5.188   2.322  1.00 20.00    -0.064 Br
ENDBRANCH   1   5
TORSDOF 1
ENDMDL
MODEL 2
REMARK VINA RESULT:      -4.5      1.463      1.909
REMARK  1 active torsions:
REMARK  status: ('A' for Active; 'I' for Inactive)
REMARK    1  A    between atoms: C1_1  and  C3_3 
ROOT
HETATM    1  C3  UNL     1     -34.816   5.329   4.653  1.00 20.00     0.408 C 
HETATM    2  F4  UNL     1     -35.041   4.647   5.805  1.00 20.00    -0.167 F 
HETATM    3  F5  UNL     1     -36.029   5.727   4.191  1.00 20.00    -0.167 F 
HETATM    4  F6  UNL     1     -34.137   6.454   4.989  1.00 20.00    -0.167 F 
ENDROOT
BRANCH   1   5
HETATM    5  C1  UNL     1     -34.106   4.486   3.654  1.00 20.00     0.096 C 
HETATM    6  C2  UNL     1     -33.247   4.961   2.746  1.00 20.00     0.060 C 
HETATM    7 BR7  UNL     1     -32.795   6.752   2.573  1.00 20.00    -0.064 Br
ENDBRANCH   1   5
TORSDOF 1
ENDMDL
MODEL 3
REMARK VINA RESULT:      -4.0      1.713      2.231
REMARK  1 active torsions:
REMARK  status: ('A' for Active; 'I' for Inactive)
REMARK    1  A    between atoms: C1_1  and  C3_3 
ROOT
HETATM    1  C3  UNL     1     -34.249   6.432   5.458  1.00 20.00     0.408 C 
HETATM    2  F4  UNL     1     -34.687   6.864   6.668  1.00 20.00    -0.167 F 
HETATM    3  F5  UNL     1     -34.793   7.258   4.528  1.00 20.00    -0.167 F 
HETATM    4  F6  UNL     1     -32.909   6.639   5.428  1.00 20.00    -0.167 F 
ENDROOT
BRANCH   1   5
HETATM    5  C1  UNL     1     -34.634   5.016   5.216  1.00 20.00     0.096 C 
HETATM    6  C2  UNL     1     -34.345   4.340   4.098  1.00 20.00     0.060 C 
HETATM    7 BR7  UNL     1     -33.419   5.052   2.657  1.00 20.00    -0.064 Br
ENDBRANCH   1   5
TORSDOF 1
ENDMDL
MODEL 4
REMARK VINA RESULT:      -4.0      3.013      3.549
REMARK  1 active torsions:
REMARK  status: ('A' for Active; 'I' for Inactive)
REMARK    1  A    between atoms: C1_1  and  C3_3 
ROOT
HETATM    1  C3  UNL     1     -32.933   6.735   2.743  1.00 20.00     0.408 C 
HETATM    2  F4  UNL     1     -32.810   7.353   1.541  1.00 20.00    -0.167 F 
HETATM    3  F5  UNL     1     -31.766   6.937   3.408  1.00 20.00    -0.167 F 
HETATM    4  F6  UNL     1     -33.895   7.402   3.430  1.00 20.00    -0.167 F 
ENDROOT
BRANCH   1   5
HETATM    5  C1  UNL     1     -33.220   5.285   2.581  1.00 20.00     0.096 C 
HETATM    6  C2  UNL     1     -33.997   4.576   3.407  1.00 20.00     0.060 C 
HETATM    7 BR7  UNL     1     -34.848   5.278   4.899  1.00 20.00    -0.064 Br
ENDBRANCH   1   5
TORSDOF 1
ENDMDL
MODEL 5
REMARK VINA RESULT:      -3.9      2.740      3.235
REMARK  1 active torsions:
REMARK  status: ('A' for Active; 'I' for Inactive)
REMARK    1  A    between atoms: C1_1  and  C3_3 
ROOT
HETATM    1  C3  UNL     1     -33.621   5.275   2.955  1.00 20.00     0.408 C 
HETATM    2  F4  UNL     1     -34.129   5.308   1.697  1.00 20.00    -0.167 F 
HETATM    3  F5  UNL     1     -32.492   4.524   2.901  1.00 20.00    -0.167 F 
HETATM    4  F6  UNL     1     -33.235   6.541   3.255  1.00 20.00    -0.167 F 
ENDROOT
BRANCH   1   5
HETATM    5  C1  UNL     1     -34.602   4.711   3.921  1.00 20.00     0.096 C 
HETATM    6  C2  UNL     1     -34.819   5.206   5.144  1.00 20.00     0.060 C 
HETATM    7 BR7  UNL     1     -33.935   6.676   5.849  1.00 20.00    -0.064 Br
ENDBRANCH   1   5
TORSDOF 1
ENDMDL
MODEL 6
REMARK VINA RESULT:      -3.7      2.806      3.400
REMARK  1 active torsions:
REMARK  status: ('A' for Active; 'I' for Inactive)
REMARK    1  A    between atoms: C1_1  and  C3_3 
ROOT
HETATM    1  C3  UNL     1     -32.689   6.911   3.236  1.00 20.00     0.408 C 
HETATM    2  F4  UNL     1     -31.418   7.353   3.060  1.00 20.00    -0.167 F 
HETATM    3  F5  UNL     1     -33.463   7.580   2.344  1.00 20.00    -0.167 F 
HETATM    4  F6  UNL     1     -32.705   5.606   2.866  1.00 20.00    -0.167 F 
ENDROOT
BRANCH   1   5
HETATM    5  C1  UNL     1     -33.154   7.136   4.631  1.00 20.00     0.096 C 
HETATM    6  C2  UNL     1     -34.141   6.447   5.214  1.00 20.00     0.060 C 
HETATM    7 BR7  UNL     1     -35.102   5.095   4.384  1.00 20.00    -0.064 Br
ENDBRANCH   1   5
TORSDOF 1
ENDMDL
MODEL 7
REMARK VINA RESULT:      -3.6      1.864      2.241
REMARK  1 active torsions:
REMARK  status: ('A' for Active; 'I' for Inactive)
REMARK    1  A    between atoms: C1_1  and  C3_3 
ROOT
HETATM    1  C3  UNL     1     -34.630   4.747   4.176  1.00 20.00     0.408 C 
HETATM    2  F4  UNL     1     -34.410   3.558   3.561  1.00 20.00    -0.167 F 
HETATM    3  F5  UNL     1     -35.953   5.019   4.040  1.00 20.00    -0.167 F 
HETATM    4  F6  UNL     1     -34.406   4.551   5.500  1.00 20.00    -0.167 F 
ENDROOT
BRANCH   1   5
HETATM    5  C1  UNL     1     -33.792   5.826   3.588  1.00 20.00     0.096 C 
HETATM    6  C2  UNL     1     -33.356   6.892   4.267  1.00 20.00     0.060 C 
HETATM    7 BR7  UNL     1     -33.721   7.212   6.057  1.00 20.00    -0.064 Br
ENDBRANCH   1   5
TORSDOF 1
ENDMDL
MODEL 8
REMARK VINA RESULT:      -3.5      8.895      9.415
REMARK  1 active torsions:
REMARK  status: ('A' for Active; 'I' for Inactive)
REMARK    1  A    between atoms: C1_1  and  C3_3 
ROOT
HETATM    1  C3  UNL     1     -41.331   5.945  -0.973  1.00 20.00     0.408 C 
HETATM    2  F4  UNL     1     -42.437   5.632  -1.695  1.00 20.00    -0.167 F 
HETATM    3  F5  UNL     1     -40.445   4.934  -1.156  1.00 20.00    -0.167 F 
HETATM    4  F6  UNL     1     -40.789   7.050  -1.544  1.00 20.00    -0.167 F 
ENDROOT
BRANCH   1   5
HETATM    5  C1  UNL     1     -41.658   6.125   0.467  1.00 20.00     0.096 C 
HETATM    6  C2  UNL     1     -42.450   7.093   0.942  1.00 20.00     0.060 C 
HETATM    7 BR7  UNL     1     -43.275   8.378  -0.110  1.00 20.00    -0.064 Br
ENDBRANCH   1   5
TORSDOF 1
ENDMDL
MODEL 9
REMARK VINA RESULT:      -3.5      8.510      9.168
REMARK  1 active torsions:
REMARK  status: ('A' for Active; 'I' for Inactive)
REMARK    1  A    between atoms: C1_1  and  C3_3 
ROOT
HETATM    1  C3  UNL     1     -41.553   8.331   0.182  1.00 20.00     0.408 C 
HETATM    2  F4  UNL     1     -40.919   7.665   1.181  1.00 20.00    -0.167 F 
HETATM    3  F5  UNL     1     -41.877   9.555   0.671  1.00 20.00    -0.167 F 
HETATM    4  F6  UNL     1     -40.636   8.532  -0.798  1.00 20.00    -0.167 F 
ENDROOT
BRANCH   1   5
HETATM    5  C1  UNL     1     -42.760   7.595  -0.281  1.00 20.00     0.096 C 
HETATM    6  C2  UNL     1     -42.733   6.368  -0.812  1.00 20.00     0.060 C 
HETATM    7 BR7  UNL     1     -41.188   5.374  -1.067  1.00 20.00    -0.064 Br
ENDBRANCH   1   5
TORSDOF 1
ENDMDL
