MODEL 1
REMARK VINA RESULT:      -4.1      0.000      0.000
REMARK  0 active torsions:
REMARK  status: ('A' for Active; 'I' for Inactive)
ROOT
HETATM    1  C1  UNL     1     -25.502  17.580  11.545  1.00 20.00    -0.057 C 
HETATM    2  C2  UNL     1     -24.281  18.419   9.538  1.00 20.00    -0.057 C 
HETATM    3  C3  UNL     1     -26.587  17.511  12.332  1.00 20.00     0.016 C 
HETATM    4  C4  UNL     1     -24.515  18.724   8.251  1.00 20.00     0.016 C 
HETATM    5  C5  UNL     1     -25.270  18.755  10.624  1.00 20.00     0.070 C 
HETATM    6  C6  UNL     1     -24.447  16.497  11.550  1.00 20.00     0.306 C 
HETATM    7  C7  UNL     1     -23.033  17.659   9.945  1.00 20.00     0.306 C 
HETATM    8  C8  UNL     1     -22.527  17.785  12.332  1.00 20.00     0.310 C 
HETATM    9  N9  UNL     1     -23.089  16.979  11.251  1.00 20.00     0.091 N 
ENDROOT
TORSDOF 0
ENDMDL
MODEL 2
REMARK VINA RESULT:      -4.0      1.378      1.662
REMARK  0 active torsions:
REMARK  status: ('A' for Active; 'I' for Inactive)
ROOT
HETATM    1  C1  UNL     1     -24.727  18.098  10.468  1.00 20.00    -0.057 C 
HETATM    2  C2  UNL     1     -24.165  18.798   8.139  1.00 20.00    -0.057 C 
HETATM    3  C3  UNL     1     -25.481  18.159  11.576  1.00 20.00     0.016 C 
HETATM    4  C4  UNL     1     -24.782  19.146   6.999  1.00 20.00     0.016 C 
HETATM    5  C5  UNL     1     -24.676  19.244   9.485  1.00 20.00     0.070 C 
HETATM    6  C6  UNL     1     -23.879  16.888  10.150  1.00 20.00     0.306 C 
HETATM    7  C7  UNL     1     -22.959  17.879   8.125  1.00 20.00     0.306 C 
HETATM    8  C8  UNL     1     -21.662  17.908  10.195  1.00 20.00     0.310 C 
HETATM    9  N9  UNL     1     -22.654  17.195   9.395  1.00 20.00     0.091 N 
ENDROOT
TORSDOF 0
ENDMDL
MODEL 3
REMARK VINA RESULT:      -3.9      1.860      3.391
REMARK  0 active torsions:
REMARK  status: ('A' for Active; 'I' for Inactive)
ROOT
HETATM    1  C1  UNL     1     -24.280  18.627   9.071  1.00 20.00    -0.057 C 
HETATM    2  C2  UNL     1     -23.043  17.622  10.990  1.00 20.00    -0.057 C 
HETATM    3  C3  UNL     1     -25.410  18.995   8.449  1.00 20.00     0.016 C 
HETATM    4  C4  UNL     1     -23.113  17.554  12.329  1.00 20.00     0.016 C 
HETATM    5  C5  UNL     1     -24.276  17.548  10.127  1.00 20.00     0.070 C 
HETATM    6  C6  UNL     1     -22.948  19.262   8.738  1.00 20.00     0.306 C 
HETATM    7  C7  UNL     1     -21.717  17.846  10.289  1.00 20.00     0.306 C 
HETATM    8  C8  UNL     1     -21.749  17.305   7.906  1.00 20.00     0.310 C 
HETATM    9  N9  UNL     1     -21.795  18.365   8.911  1.00 20.00     0.091 N 
ENDROOT
TORSDOF 0
ENDMDL
MODEL 4
REMARK VINA RESULT:      -3.8     15.851     17.110
REMARK  0 active torsions:
REMARK  status: ('A' for Active; 'I' for Inactive)
ROOT
HETATM    1  C1  UNL     1     -34.753  16.695  -1.624  1.00 20.00    -0.057 C 
HETATM    2  C2  UNL     1     -34.558  15.180  -3.596  1.00 20.00    -0.057 C 
HETATM    3  C3  UNL     1     -35.319  17.072  -0.467  1.00 20.00     0.016 C 
HETATM    4  C4  UNL     1     -34.670  13.877  -3.900  1.00 20.00     0.016 C 
HETATM    5  C5  UNL     1     -35.499  15.851  -2.630  1.00 20.00     0.070 C 
HETATM    6  C6  UNL     1     -33.344  17.108  -1.990  1.00 20.00     0.306 C 
HETATM    7  C7  UNL     1     -33.432  16.020  -4.166  1.00 20.00     0.306 C 
HETATM    8  C8  UNL     1     -33.802  18.429  -3.991  1.00 20.00     0.310 C 
HETATM    9  N9  UNL     1     -33.120  17.262  -3.436  1.00 20.00     0.091 N 
ENDROOT
TORSDOF 0
ENDMDL
MODEL 5
REMARK VINA RESULT:      -3.7     14.800     16.606
REMARK  0 active torsions:
REMARK  status: ('A' for Active; 'I' for Inactive)
ROOT
HETATM    1  C1  UNL     1     -33.862  15.940  -3.064  1.00 20.00    -0.057 C 
HETATM    2  C2  UNL     1     -32.994  17.829  -1.685  1.00 20.00    -0.057 C 
HETATM    3  C3  UNL     1     -33.704  14.953  -3.960  1.00 20.00     0.016 C 
HETATM    4  C4  UNL     1     -31.892  18.174  -1.000  1.00 20.00     0.016 C 
HETATM    5  C5  UNL     1     -32.914  17.114  -3.009  1.00 20.00     0.070 C 
HETATM    6  C6  UNL     1     -35.005  15.937  -2.073  1.00 20.00     0.306 C 
HETATM    7  C7  UNL     1     -34.377  18.087  -1.117  1.00 20.00     0.306 C 
HETATM    8  C8  UNL     1     -36.170  17.965  -2.774  1.00 20.00     0.310 C 
HETATM    9  N9  UNL     1     -35.470  17.279  -1.690  1.00 20.00     0.091 N 
ENDROOT
TORSDOF 0
ENDMDL
MODEL 6
REMARK VINA RESULT:      -3.7      1.102      2.890
REMARK  0 active torsions:
REMARK  status: ('A' for Active; 'I' for Inactive)
ROOT
HETATM    1  C1  UNL     1     -22.516  17.613   9.969  1.00 20.00    -0.057 C 
HETATM    2  C2  UNL     1     -24.897  18.335   9.791  1.00 20.00    -0.057 C 
HETATM    3  C3  UNL     1     -21.298  17.400   9.448  1.00 20.00     0.016 C 
HETATM    4  C4  UNL     1     -25.641  19.263   9.168  1.00 20.00     0.016 C 
HETATM    5  C5  UNL     1     -23.751  17.643   9.100  1.00 20.00     0.070 C 
HETATM    6  C6  UNL     1     -22.720  17.818  11.453  1.00 20.00     0.306 C 
HETATM    7  C7  UNL     1     -25.140  17.990  11.248  1.00 20.00     0.306 C 
HETATM    8  C8  UNL     1     -24.123  15.884  11.954  1.00 20.00     0.310 C 
HETATM    9  N9  UNL     1     -24.020  17.341  11.952  1.00 20.00     0.091 N 
ENDROOT
TORSDOF 0
ENDMDL
MODEL 7
REMARK VINA RESULT:      -3.7     16.579     18.287
REMARK  0 active torsions:
REMARK  status: ('A' for Active; 'I' for Inactive)
ROOT
HETATM    1  C1  UNL     1     -33.830  15.052  -3.948  1.00 20.00    -0.057 C 
HETATM    2  C2  UNL     1     -35.039  16.513  -2.326  1.00 20.00    -0.057 C 
HETATM    3  C3  UNL     1     -32.751  14.361  -4.348  1.00 20.00     0.016 C 
HETATM    4  C4  UNL     1     -35.153  16.695  -1.001  1.00 20.00     0.016 C 
HETATM    5  C5  UNL     1     -33.714  16.199  -2.973  1.00 20.00     0.070 C 
HETATM    6  C6  UNL     1     -35.215  14.730  -4.462  1.00 20.00     0.306 C 
HETATM    7  C7  UNL     1     -36.259  16.549  -3.227  1.00 20.00     0.306 C 
HETATM    8  C8  UNL     1     -35.737  16.827  -5.598  1.00 20.00     0.310 C 
HETATM    9  N9  UNL     1     -36.113  15.893  -4.538  1.00 20.00     0.091 N 
ENDROOT
TORSDOF 0
ENDMDL
MODEL 8
REMARK VINA RESULT:      -3.7      1.239      1.929
REMARK  0 active torsions:
REMARK  status: ('A' for Active; 'I' for Inactive)
ROOT
HETATM    1  C1  UNL     1     -24.747  18.573   9.887  1.00 20.00    -0.057 C 
HETATM    2  C2  UNL     1     -22.548  17.901   8.917  1.00 20.00    -0.057 C 
HETATM    3  C3  UNL     1     -25.897  19.262   9.855  1.00 20.00     0.016 C 
HETATM    4  C4  UNL     1     -21.994  17.641   7.722  1.00 20.00     0.016 C 
HETATM    5  C5  UNL     1     -23.535  19.024   9.105  1.00 20.00     0.070 C 
HETATM    6  C6  UNL     1     -24.595  17.319  10.718  1.00 20.00     0.306 C 
HETATM    7  C7  UNL     1     -22.253  17.027  10.121  1.00 20.00     0.306 C 
HETATM    8  C8  UNL     1     -22.848  18.048  12.260  1.00 20.00     0.310 C 
HETATM    9  N9  UNL     1     -23.231  17.093  11.221  1.00 20.00     0.091 N 
ENDROOT
TORSDOF 0
ENDMDL
MODEL 9
REMARK VINA RESULT:      -3.7      1.805      2.910
REMARK  0 active torsions:
REMARK  status: ('A' for Active; 'I' for Inactive)
ROOT
HETATM    1  C1  UNL     1     -24.468  17.152  10.767  1.00 20.00    -0.057 C 
HETATM    2  C2  UNL     1     -22.635  18.026   9.318  1.00 20.00    -0.057 C 
HETATM    3  C3  UNL     1     -24.998  16.230  11.585  1.00 20.00     0.016 C 
HETATM    4  C4  UNL     1     -21.294  18.065   9.277  1.00 20.00     0.016 C 
HETATM    5  C5  UNL     1     -23.379  16.800   9.782  1.00 20.00     0.070 C 
HETATM    6  C6  UNL     1     -24.944  18.588  10.775  1.00 20.00     0.306 C 
HETATM    7  C7  UNL     1     -23.462  19.246   8.959  1.00 20.00     0.306 C 
HETATM    8  C8  UNL     1     -25.811  18.755   8.499  1.00 20.00     0.310 C 
HETATM    9  N9  UNL     1     -24.844  19.261   9.471  1.00 20.00     0.091 N 
ENDROOT
TORSDOF 0
ENDMDL
