MODEL 1
REMARK VINA RESULT:      -4.6      0.000      0.000
REMARK  3 active torsions:
REMARK  status: ('A' for Active; 'I' for Inactive)
REMARK    1  A    between atoms: C5_5  and  C8_8 
REMARK    2  A    between atoms: C7_7  and  N9_9 
REMARK    3  A    between atoms: C8_8  and  N9_9 
ROOT
HETATM    1  C1  UNL     1     -33.380   7.470   5.993  1.00 20.00     0.013 C 
HETATM    2  C2  UNL     1     -34.095   6.508   6.065  1.00 20.00    -0.087 C 
HETATM    3  C7  UNL     1     -34.966   5.334   6.157  1.00 20.00     0.362 C 
ENDROOT
BRANCH   3   4
HETATM    4  N9  UNL     1     -35.412   4.915   4.827  1.00 20.00     0.094 N 
HETATM    5  H22 UNL     1     -35.797   5.734   4.344  1.00 20.00     0.317 HD
BRANCH   4   6
HETATM    6  C8  UNL     1     -34.337   4.346   4.062  1.00 20.00     0.275 C 
BRANCH   6   7
HETATM    7  C5  UNL     1     -34.031   5.175   2.863  1.00 20.00     0.018 A 
HETATM    8  C3  UNL     1     -33.012   4.704   1.858  1.00 20.00     0.011 A 
HETATM    9  C4  UNL     1     -32.704   5.878   2.750  1.00 20.00    -0.013 A 
HETATM   10  C6  UNL     1     -32.633   7.253   2.180  1.00 20.00     0.010 C 
ENDBRANCH   6   7
ENDBRANCH   4   6
ENDBRANCH   3   4
TORSDOF 3
ENDMDL
MODEL 2
REMARK VINA RESULT:      -4.4      1.769      4.028
REMARK  3 active torsions:
REMARK  status: ('A' for Active; 'I' for Inactive)
REMARK    1  A    between atoms: C5_5  and  C8_8 
REMARK    2  A    between atoms: C7_7  and  N9_9 
REMARK    3  A    between atoms: C8_8  and  N9_9 
ROOT
HETATM    1  C1  UNL     1     -32.920   8.776   0.347  1.00 20.00     0.013 C 
HETATM    2  C2  UNL     1     -32.676   8.113   1.318  1.00 20.00    -0.087 C 
HETATM    3  C7  UNL     1     -32.377   7.307   2.504  1.00 20.00     0.362 C 
ENDROOT
BRANCH   3   4
HETATM    4  N9  UNL     1     -32.478   5.879   2.198  1.00 20.00     0.094 N 
HETATM    5  H22 UNL     1     -31.726   5.389   2.696  1.00 20.00     0.317 HD
BRANCH   4   6
HETATM    6  C8  UNL     1     -33.757   5.344   2.579  1.00 20.00     0.275 C 
BRANCH   6   7
HETATM    7  C5  UNL     1     -33.861   5.199   4.058  1.00 20.00     0.018 A 
HETATM    8  C3  UNL     1     -35.172   4.807   4.689  1.00 20.00     0.011 A 
HETATM    9  C4  UNL     1     -34.641   6.206   4.863  1.00 20.00    -0.013 A 
HETATM   10  C6  UNL     1     -34.135   6.655   6.190  1.00 20.00     0.010 C 
ENDBRANCH   6   7
ENDBRANCH   4   6
ENDBRANCH   3   4
TORSDOF 3
ENDMDL
MODEL 3
REMARK VINA RESULT:      -4.2      1.101      1.824
REMARK  3 active torsions:
REMARK  status: ('A' for Active; 'I' for Inactive)
REMARK    1  A    between atoms: C5_5  and  C8_8 
REMARK    2  A    between atoms: C7_7  and  N9_9 
REMARK    3  A    between atoms: C8_8  and  N9_9 
ROOT
HETATM    1  C1  UNL     1     -34.085   6.836   6.274  1.00 20.00     0.013 C 
HETATM    2  C2  UNL     1     -34.393   5.861   5.644  1.00 20.00    -0.087 C 
HETATM    3  C7  UNL     1     -34.772   4.671   4.879  1.00 20.00     0.362 C 
ENDROOT
BRANCH   3   4
HETATM    4  N9  UNL     1     -33.969   4.563   3.660  1.00 20.00     0.094 N 
HETATM    5  H22 UNL     1     -34.234   3.697   3.176  1.00 20.00     0.317 HD
BRANCH   4   6
HETATM    6  C8  UNL     1     -34.161   5.694   2.796  1.00 20.00     0.275 C 
BRANCH   6   7
HETATM    7  C5  UNL     1     -32.859   6.224   2.303  1.00 20.00     0.018 A 
HETATM    8  C3  UNL     1     -32.111   7.257   3.105  1.00 20.00     0.011 A 
HETATM    9  C4  UNL     1     -32.762   7.641   1.802  1.00 20.00    -0.013 A 
HETATM   10  C6  UNL     1     -31.923   7.957   0.611  1.00 20.00     0.010 C 
ENDBRANCH   6   7
ENDBRANCH   4   6
ENDBRANCH   3   4
TORSDOF 3
ENDMDL
MODEL 4
REMARK VINA RESULT:      -4.0      9.159     10.312
REMARK  3 active torsions:
REMARK  status: ('A' for Active; 'I' for Inactive)
REMARK    1  A    between atoms: C5_5  and  C8_8 
REMARK    2  A    between atoms: C7_7  and  N9_9 
REMARK    3  A    between atoms: C8_8  and  N9_9 
ROOT
HETATM    1  C1  UNL     1     -41.940   2.754  -3.422  1.00 20.00     0.013 C 
HETATM    2  C2  UNL     1     -42.431   3.551  -2.670  1.00 20.00    -0.087 C 
HETATM    3  C7  UNL     1     -43.034   4.524  -1.757  1.00 20.00     0.362 C 
ENDROOT
BRANCH   3   4
HETATM    4  N9  UNL     1     -42.175   4.741  -0.591  1.00 20.00     0.094 N 
HETATM    5  H22 UNL     1     -41.731   3.848  -0.348  1.00 20.00     0.317 HD
BRANCH   4   6
HETATM    6  C8  UNL     1     -41.174   5.739  -0.849  1.00 20.00     0.275 C 
BRANCH   6   7
HETATM    7  C5  UNL     1     -41.223   6.827   0.168  1.00 20.00     0.018 A 
HETATM    8  C3  UNL     1     -42.518   7.153   0.864  1.00 20.00     0.011 A 
HETATM    9  C4  UNL     1     -41.939   8.116  -0.139  1.00 20.00    -0.013 A 
HETATM   10  C6  UNL     1     -41.366   9.415   0.315  1.00 20.00     0.010 C 
ENDBRANCH   6   7
ENDBRANCH   4   6
ENDBRANCH   3   4
TORSDOF 3
ENDMDL
MODEL 5
REMARK VINA RESULT:      -3.9     16.165     17.224
REMARK  3 active torsions:
REMARK  status: ('A' for Active; 'I' for Inactive)
REMARK    1  A    between atoms: C5_5  and  C8_8 
REMARK    2  A    between atoms: C7_7  and  N9_9 
REMARK    3  A    between atoms: C8_8  and  N9_9 
ROOT
HETATM    1  C1  UNL     1     -24.194  18.832   7.718  1.00 20.00     0.013 C 
HETATM    2  C2  UNL     1     -23.282  18.142   8.084  1.00 20.00    -0.087 C 
HETATM    3  C7  UNL     1     -22.168  17.300   8.526  1.00 20.00     0.362 C 
ENDROOT
BRANCH   3   4
HETATM    4  N9  UNL     1     -22.438  16.739   9.852  1.00 20.00     0.094 N 
HETATM    5  H22 UNL     1     -21.679  16.090  10.087  1.00 20.00     0.317 HD
BRANCH   4   6
HETATM    6  C8  UNL     1     -22.540  17.767  10.851  1.00 20.00     0.275 C 
BRANCH   6   7
HETATM    7  C5  UNL     1     -23.721  17.546  11.733  1.00 20.00     0.018 A 
HETATM    8  C3  UNL     1     -24.747  16.504  11.375  1.00 20.00     0.011 A 
HETATM    9  C4  UNL     1     -25.093  17.967  11.276  1.00 20.00    -0.013 A 
HETATM   10  C6  UNL     1     -26.048  18.577  12.243  1.00 20.00     0.010 C 
ENDBRANCH   6   7
ENDBRANCH   4   6
ENDBRANCH   3   4
TORSDOF 3
ENDMDL
MODEL 6
REMARK VINA RESULT:      -3.8      2.029      4.559
REMARK  3 active torsions:
REMARK  status: ('A' for Active; 'I' for Inactive)
REMARK    1  A    between atoms: C5_5  and  C8_8 
REMARK    2  A    between atoms: C7_7  and  N9_9 
REMARK    3  A    between atoms: C8_8  and  N9_9 
ROOT
HETATM    1  C1  UNL     1     -33.290   9.527   0.389  1.00 20.00     0.013 C 
HETATM    2  C2  UNL     1     -32.794   8.519   0.812  1.00 20.00    -0.087 C 
HETATM    3  C7  UNL     1     -32.187   7.288   1.325  1.00 20.00     0.362 C 
ENDROOT
BRANCH   3   4
HETATM    4  N9  UNL     1     -32.383   7.179   2.772  1.00 20.00     0.094 N 
HETATM    5  H22 UNL     1     -32.828   8.043   3.102  1.00 20.00     0.317 HD
BRANCH   4   6
HETATM    6  C8  UNL     1     -33.192   6.041   3.113  1.00 20.00     0.275 C 
BRANCH   6   7
HETATM    7  C5  UNL     1     -34.116   6.355   4.239  1.00 20.00     0.018 A 
HETATM    8  C3  UNL     1     -33.611   7.104   5.444  1.00 20.00     0.011 A 
HETATM    9  C4  UNL     1     -33.966   5.645   5.559  1.00 20.00    -0.013 A 
HETATM   10  C6  UNL     1     -35.174   5.225   6.323  1.00 20.00     0.010 C 
ENDBRANCH   6   7
ENDBRANCH   4   6
ENDBRANCH   3   4
TORSDOF 3
ENDMDL
MODEL 7
REMARK VINA RESULT:      -3.7     16.032     16.817
REMARK  3 active torsions:
REMARK  status: ('A' for Active; 'I' for Inactive)
REMARK    1  A    between atoms: C5_5  and  C8_8 
REMARK    2  A    between atoms: C7_7  and  N9_9 
REMARK    3  A    between atoms: C8_8  and  N9_9 
ROOT
HETATM    1  C1  UNL     1     -24.633  15.880  11.642  1.00 20.00     0.013 C 
HETATM    2  C2  UNL     1     -25.210  16.916  11.831  1.00 20.00    -0.087 C 
HETATM    3  C7  UNL     1     -25.918  18.177  12.063  1.00 20.00     0.362 C 
ENDROOT
BRANCH   3   4
HETATM    4  N9  UNL     1     -25.307  19.263  11.294  1.00 20.00     0.094 N 
HETATM    5  H22 UNL     1     -24.305  19.287  11.513  1.00 20.00     0.317 HD
BRANCH   4   6
HETATM    6  C8  UNL     1     -25.503  19.087   9.882  1.00 20.00     0.275 C 
BRANCH   6   7
HETATM    7  C5  UNL     1     -24.218  19.218   9.139  1.00 20.00     0.018 A 
HETATM    8  C3  UNL     1     -24.145  18.843   7.682  1.00 20.00     0.011 A 
HETATM    9  C4  UNL     1     -23.462  17.986   8.715  1.00 20.00    -0.013 A 
HETATM   10  C6  UNL     1     -21.975  17.956   8.798  1.00 20.00     0.010 C 
ENDBRANCH   6   7
ENDBRANCH   4   6
ENDBRANCH   3   4
TORSDOF 3
ENDMDL
MODEL 8
REMARK VINA RESULT:      -3.7     12.321     13.211
REMARK  3 active torsions:
REMARK  status: ('A' for Active; 'I' for Inactive)
REMARK    1  A    between atoms: C5_5  and  C8_8 
REMARK    2  A    between atoms: C7_7  and  N9_9 
REMARK    3  A    between atoms: C8_8  and  N9_9 
ROOT
HETATM    1  C1  UNL     1     -36.355  13.612  -4.658  1.00 20.00     0.013 C 
HETATM    2  C2  UNL     1     -35.578  14.312  -5.247  1.00 20.00    -0.087 C 
HETATM    3  C7  UNL     1     -34.633  15.167  -5.969  1.00 20.00     0.362 C 
ENDROOT
BRANCH   3   4
HETATM    4  N9  UNL     1     -33.252  14.792  -5.656  1.00 20.00     0.094 N 
HETATM    5  H22 UNL     1     -32.624  15.393  -6.201  1.00 20.00     0.317 HD
BRANCH   4   6
HETATM    6  C8  UNL     1     -32.972  14.925  -4.253  1.00 20.00     0.275 C 
BRANCH   6   7
HETATM    7  C5  UNL     1     -33.621  16.141  -3.686  1.00 20.00     0.018 A 
HETATM    8  C3  UNL     1     -32.980  16.873  -2.537  1.00 20.00     0.011 A 
HETATM    9  C4  UNL     1     -34.250  16.093  -2.318  1.00 20.00    -0.013 A 
HETATM   10  C6  UNL     1     -35.532  16.807  -2.060  1.00 20.00     0.010 C 
ENDBRANCH   6   7
ENDBRANCH   4   6
ENDBRANCH   3   4
TORSDOF 3
ENDMDL
MODEL 9
REMARK VINA RESULT:      -3.6     12.423     14.104
REMARK  3 active torsions:
REMARK  status: ('A' for Active; 'I' for Inactive)
REMARK    1  A    between atoms: C5_5  and  C8_8 
REMARK    2  A    between atoms: C7_7  and  N9_9 
REMARK    3  A    between atoms: C8_8  and  N9_9 
ROOT
HETATM    1  C1  UNL     1     -34.067  17.310  -7.918  1.00 20.00     0.013 C 
HETATM    2  C2  UNL     1     -34.177  16.294  -7.286  1.00 20.00    -0.087 C 
HETATM    3  C7  UNL     1     -34.316  15.056  -6.517  1.00 20.00     0.362 C 
ENDROOT
BRANCH   3   4
HETATM    4  N9  UNL     1     -33.047  14.698  -5.880  1.00 20.00     0.094 N 
HETATM    5  H22 UNL     1     -32.353  15.414  -6.120  1.00 20.00     0.317 HD
BRANCH   4   6
HETATM    6  C8  UNL     1     -33.181  14.594  -4.453  1.00 20.00     0.275 C 
BRANCH   6   7
HETATM    7  C5  UNL     1     -34.024  15.695  -3.909  1.00 20.00     0.018 A 
HETATM    8  C3  UNL     1     -33.394  17.007  -3.519  1.00 20.00     0.011 A 
HETATM    9  C4  UNL     1     -33.920  16.079  -2.456  1.00 20.00    -0.013 A 
HETATM   10  C6  UNL     1     -35.146  16.437  -1.689  1.00 20.00     0.010 C 
ENDBRANCH   6   7
ENDBRANCH   4   6
ENDBRANCH   3   4
TORSDOF 3
ENDMDL
