MODEL 1
REMARK VINA RESULT:      -4.4      0.000      0.000
REMARK  0 active torsions:
REMARK  status: ('A' for Active; 'I' for Inactive)
ROOT
HETATM    1  C1  UNL     1     -25.210  18.707  10.625  1.00 20.00     0.014 C 
HETATM    2  C2  UNL     1     -23.928  18.567   9.864  1.00 20.00     0.085 C 
HETATM    3  C3  UNL     1     -26.766  18.205  12.229  1.00 20.00     0.034 C 
HETATM    4  C4  UNL     1     -27.251  19.261  11.248  1.00 20.00     0.149 C 
HETATM    5  C5  UNL     1     -23.283  17.216  10.182  1.00 20.00     0.277 C 
HETATM    6  C6  UNL     1     -24.550  16.925  12.231  1.00 20.00     0.282 C 
HETATM    7  C7  UNL     1     -25.261  18.263  12.054  1.00 20.00     0.063 C 
HETATM    8  C8  UNL     1     -22.242  17.709  12.331  1.00 20.00     0.309 C 
HETATM    9  N9  UNL     1     -26.276  19.262  10.136  1.00 20.00    -0.298 NA
HETATM   10  N10 UNL     1     -23.213  16.885  11.615  1.00 20.00     0.085 N 
ENDROOT
TORSDOF 0
ENDMDL
MODEL 2
REMARK VINA RESULT:      -4.4      2.099      3.970
REMARK  0 active torsions:
REMARK  status: ('A' for Active; 'I' for Inactive)
ROOT
HETATM    1  C1  UNL     1     -23.435  17.909   8.562  1.00 20.00     0.014 C 
HETATM    2  C2  UNL     1     -24.809  18.389   8.915  1.00 20.00     0.085 C 
HETATM    3  C3  UNL     1     -21.293  17.200   8.953  1.00 20.00     0.034 C 
HETATM    4  C4  UNL     1     -21.585  17.404   7.475  1.00 20.00     0.149 C 
HETATM    5  C5  UNL     1     -24.834  18.857  10.372  1.00 20.00     0.277 C 
HETATM    6  C6  UNL     1     -22.826  17.627  10.957  1.00 20.00     0.282 C 
HETATM    7  C7  UNL     1     -22.682  17.068   9.546  1.00 20.00     0.063 C 
HETATM    8  C8  UNL     1     -25.016  16.717  11.527  1.00 20.00     0.309 C 
HETATM    9  N9  UNL     1     -22.876  18.122   7.410  1.00 20.00    -0.298 NA
HETATM   10  N10 UNL     1     -24.218  17.925  11.332  1.00 20.00     0.085 N 
ENDROOT
TORSDOF 0
ENDMDL
MODEL 3
REMARK VINA RESULT:      -4.2     16.342     16.821
REMARK  0 active torsions:
REMARK  status: ('A' for Active; 'I' for Inactive)
ROOT
HETATM    1  C1  UNL     1     -34.199   5.375   3.972  1.00 20.00     0.014 C 
HETATM    2  C2  UNL     1     -33.840   4.986   2.570  1.00 20.00     0.085 C 
HETATM    3  C3  UNL     1     -34.046   6.554   5.929  1.00 20.00     0.034 C 
HETATM    4  C4  UNL     1     -35.034   5.401   6.011  1.00 20.00     0.149 C 
HETATM    5  C5  UNL     1     -32.471   5.565   2.209  1.00 20.00     0.277 C 
HETATM    6  C6  UNL     1     -32.544   7.231   3.971  1.00 20.00     0.282 C 
HETATM    7  C7  UNL     1     -33.922   6.772   4.434  1.00 20.00     0.063 C 
HETATM    8  C8  UNL     1     -33.082   7.865   1.678  1.00 20.00     0.309 C 
HETATM    9  N9  UNL     1     -34.809   4.583   4.800  1.00 20.00    -0.298 NA
HETATM   10  N10 UNL     1     -32.293   6.989   2.540  1.00 20.00     0.085 N 
ENDROOT
TORSDOF 0
ENDMDL
MODEL 4
REMARK VINA RESULT:      -4.1      1.656      2.627
REMARK  0 active torsions:
REMARK  status: ('A' for Active; 'I' for Inactive)
ROOT
HETATM    1  C1  UNL     1     -24.173  18.034  11.320  1.00 20.00     0.014 C 
HETATM    2  C2  UNL     1     -22.813  17.438  11.519  1.00 20.00     0.085 C 
HETATM    3  C3  UNL     1     -25.794  19.263  10.268  1.00 20.00     0.034 C 
HETATM    4  C4  UNL     1     -26.237  18.745  11.627  1.00 20.00     0.149 C 
HETATM    5  C5  UNL     1     -21.805  18.137  10.606  1.00 20.00     0.277 C 
HETATM    6  C6  UNL     1     -23.520  19.002   9.124  1.00 20.00     0.282 C 
HETATM    7  C7  UNL     1     -24.635  18.346   9.930  1.00 20.00     0.063 C 
HETATM    8  C8  UNL     1     -22.259  17.013   8.490  1.00 20.00     0.309 C 
HETATM    9  N9  UNL     1     -25.015  18.235  12.286  1.00 20.00    -0.298 NA
HETATM   10  N10 UNL     1     -22.236  18.286   9.205  1.00 20.00     0.085 N 
ENDROOT
TORSDOF 0
ENDMDL
MODEL 5
REMARK VINA RESULT:      -4.1      1.951      2.927
REMARK  0 active torsions:
REMARK  status: ('A' for Active; 'I' for Inactive)
ROOT
HETATM    1  C1  UNL     1     -23.606  18.107   8.773  1.00 20.00     0.014 C 
HETATM    2  C2  UNL     1     -22.703  17.232   9.587  1.00 20.00     0.085 C 
HETATM    3  C3  UNL     1     -25.519  19.262   8.270  1.00 20.00     0.034 C 
HETATM    4  C4  UNL     1     -24.514  19.261   7.129  1.00 20.00     0.149 C 
HETATM    5  C5  UNL     1     -23.515  16.518  10.669  1.00 20.00     0.277 C 
HETATM    6  C6  UNL     1     -25.354  18.096  10.542  1.00 20.00     0.282 C 
HETATM    7  C7  UNL     1     -24.654  18.920   9.468  1.00 20.00     0.063 C 
HETATM    8  C8  UNL     1     -23.708  18.290  12.332  1.00 20.00     0.309 C 
HETATM    9  N9  UNL     1     -23.488  18.259   7.489  1.00 20.00    -0.298 NA
HETATM   10  N10 UNL     1     -24.425  17.385  11.437  1.00 20.00     0.085 N 
ENDROOT
TORSDOF 0
ENDMDL
MODEL 6
REMARK VINA RESULT:      -4.0     16.484     17.677
REMARK  0 active torsions:
REMARK  status: ('A' for Active; 'I' for Inactive)
ROOT
HETATM    1  C1  UNL     1     -34.896  16.038  -2.599  1.00 20.00     0.014 C 
HETATM    2  C2  UNL     1     -35.730  15.009  -3.299  1.00 20.00     0.085 C 
HETATM    3  C3  UNL     1     -32.991  17.195  -2.075  1.00 20.00     0.034 C 
HETATM    4  C4  UNL     1     -34.172  17.575  -1.195  1.00 20.00     0.149 C 
HETATM    5  C5  UNL     1     -34.821  13.972  -3.963  1.00 20.00     0.277 C 
HETATM    6  C6  UNL     1     -32.880  15.429  -3.924  1.00 20.00     0.282 C 
HETATM    7  C7  UNL     1     -33.668  16.563  -3.275  1.00 20.00     0.063 C 
HETATM    8  C8  UNL     1     -34.166  15.174  -5.981  1.00 20.00     0.309 C 
HETATM    9  N9  UNL     1     -35.217  16.561  -1.456  1.00 20.00    -0.298 NA
HETATM   10  N10 UNL     1     -33.709  14.535  -4.749  1.00 20.00     0.085 N 
ENDROOT
TORSDOF 0
ENDMDL
MODEL 7
REMARK VINA RESULT:      -3.9     15.561     16.864
REMARK  0 active torsions:
REMARK  status: ('A' for Active; 'I' for Inactive)
ROOT
HETATM    1  C1  UNL     1     -34.563  16.081  -2.375  1.00 20.00     0.014 C 
HETATM    2  C2  UNL     1     -34.872  16.985  -1.221  1.00 20.00     0.085 C 
HETATM    3  C3  UNL     1     -33.575  15.450  -4.341  1.00 20.00     0.034 C 
HETATM    4  C4  UNL     1     -34.613  14.450  -3.857  1.00 20.00     0.149 C 
HETATM    5  C5  UNL     1     -34.421  18.411  -1.546  1.00 20.00     0.277 C 
HETATM    6  C6  UNL     1     -32.909  17.691  -3.302  1.00 20.00     0.282 C 
HETATM    7  C7  UNL     1     -33.249  16.222  -3.078  1.00 20.00     0.063 C 
HETATM    8  C8  UNL     1     -32.032  18.240  -1.094  1.00 20.00     0.309 C 
HETATM    9  N9  UNL     1     -35.348  15.124  -2.764  1.00 20.00    -0.298 NA
HETATM   10  N10 UNL     1     -33.058  18.520  -2.094  1.00 20.00     0.085 N 
ENDROOT
TORSDOF 0
ENDMDL
MODEL 8
REMARK VINA RESULT:      -3.9     18.961     20.134
REMARK  0 active torsions:
REMARK  status: ('A' for Active; 'I' for Inactive)
ROOT
HETATM    1  C1  UNL     1     -37.067  14.385  -4.573  1.00 20.00     0.014 C 
HETATM    2  C2  UNL     1     -35.910  13.442  -4.446  1.00 20.00     0.085 C 
HETATM    3  C3  UNL     1     -38.110  16.413  -4.783  1.00 20.00     0.034 C 
HETATM    4  C4  UNL     1     -39.087  15.267  -4.572  1.00 20.00     0.149 C 
HETATM    5  C5  UNL     1     -34.646  14.221  -4.078  1.00 20.00     0.277 C 
HETATM    6  C6  UNL     1     -35.552  16.341  -4.835  1.00 20.00     0.282 C 
HETATM    7  C7  UNL     1     -36.865  15.696  -5.268  1.00 20.00     0.063 C 
HETATM    8  C8  UNL     1     -34.009  15.102  -6.261  1.00 20.00     0.309 C 
HETATM    9  N9  UNL     1     -38.269  14.102  -4.173  1.00 20.00    -0.298 NA
HETATM   10  N10 UNL     1     -34.401  15.425  -4.891  1.00 20.00     0.085 N 
ENDROOT
TORSDOF 0
ENDMDL
MODEL 9
REMARK VINA RESULT:      -3.9     16.960     18.188
REMARK  0 active torsions:
REMARK  status: ('A' for Active; 'I' for Inactive)
ROOT
HETATM    1  C1  UNL     1     -33.788  15.863  -3.266  1.00 20.00     0.014 C 
HETATM    2  C2  UNL     1     -33.382  15.003  -4.424  1.00 20.00     0.085 C 
HETATM    3  C3  UNL     1     -35.220  17.064  -1.943  1.00 20.00     0.034 C 
HETATM    4  C4  UNL     1     -33.766  17.211  -1.522  1.00 20.00     0.149 C 
HETATM    5  C5  UNL     1     -34.486  15.007  -5.482  1.00 20.00     0.277 C 
HETATM    6  C6  UNL     1     -36.185  15.762  -3.924  1.00 20.00     0.282 C 
HETATM    7  C7  UNL     1     -35.197  15.789  -2.763  1.00 20.00     0.063 C 
HETATM    8  C8  UNL     1     -36.044  13.400  -4.515  1.00 20.00     0.309 C 
HETATM    9  N9  UNL     1     -32.964  16.629  -2.619  1.00 20.00    -0.298 NA
HETATM   10  N10 UNL     1     -35.845  14.776  -4.963  1.00 20.00     0.085 N 
ENDROOT
TORSDOF 0
ENDMDL
