MODEL 1
REMARK VINA RESULT:      -4.4      0.000      0.000
REMARK  0 active torsions:
REMARK  status: ('A' for Active; 'I' for Inactive)
ROOT
HETATM    1  C1  UNL     1     -35.932  13.820  -4.537  1.00 20.00     0.223 A 
HETATM    2  C2  UNL     1     -36.533  16.050  -5.091  1.00 20.00     0.128 A 
HETATM    3  C3  UNL     1     -34.671  14.605  -4.520  1.00 20.00     0.092 A 
HETATM    4  C4  UNL     1     -35.054  16.029  -4.854  1.00 20.00     0.026 A 
HETATM    5  C5  UNL     1     -34.402  15.709  -3.520  1.00 20.00    -0.029 A 
HETATM    6  C6  UNL     1     -35.203  15.784  -2.245  1.00 20.00     0.016 C 
HETATM    7  C7  UNL     1     -32.965  16.137  -3.343  1.00 20.00     0.016 C 
HETATM    8  N8  UNL     1     -36.957  14.679  -4.889  1.00 20.00    -0.360 N 
HETATM    9  O9  UNL     1     -35.984  12.628  -4.282  1.00 20.00    -0.273 OA
HETATM   10  H20 UNL     1     -37.920  14.377  -4.997  1.00 20.00     0.162 HD
ENDROOT
TORSDOF 0
ENDMDL
MODEL 2
REMARK VINA RESULT:      -4.4      1.282      1.594
REMARK  0 active torsions:
REMARK  status: ('A' for Active; 'I' for Inactive)
ROOT
HETATM    1  C1  UNL     1     -36.323  14.059  -4.805  1.00 20.00     0.223 A 
HETATM    2  C2  UNL     1     -34.503  14.926  -6.060  1.00 20.00     0.128 A 
HETATM    3  C3  UNL     1     -35.285  14.445  -3.816  1.00 20.00     0.092 A 
HETATM    4  C4  UNL     1     -34.132  15.014  -4.611  1.00 20.00     0.026 A 
HETATM    5  C5  UNL     1     -34.853  15.879  -3.591  1.00 20.00    -0.029 A 
HETATM    6  C6  UNL     1     -35.737  17.012  -4.046  1.00 20.00     0.016 C 
HETATM    7  C7  UNL     1     -34.116  16.179  -2.309  1.00 20.00     0.016 C 
HETATM    8  N8  UNL     1     -35.823  14.330  -6.066  1.00 20.00    -0.360 N 
HETATM    9  O9  UNL     1     -37.403  13.585  -4.494  1.00 20.00    -0.273 OA
HETATM   10  H20 UNL     1     -36.335  14.128  -6.919  1.00 20.00     0.162 HD
ENDROOT
TORSDOF 0
ENDMDL
MODEL 3
REMARK VINA RESULT:      -4.4      1.026      1.136
REMARK  0 active torsions:
REMARK  status: ('A' for Active; 'I' for Inactive)
ROOT
HETATM    1  C1  UNL     1     -34.698  14.078  -4.196  1.00 20.00     0.223 A 
HETATM    2  C2  UNL     1     -35.667  16.086  -5.016  1.00 20.00     0.128 A 
HETATM    3  C3  UNL     1     -33.733  15.162  -3.881  1.00 20.00     0.092 A 
HETATM    4  C4  UNL     1     -34.356  16.444  -4.386  1.00 20.00     0.026 A 
HETATM    5  C5  UNL     1     -34.040  16.282  -2.909  1.00 20.00    -0.029 A 
HETATM    6  C6  UNL     1     -35.154  16.124  -1.906  1.00 20.00     0.016 C 
HETATM    7  C7  UNL     1     -32.865  17.063  -2.373  1.00 20.00     0.016 C 
HETATM    8  N8  UNL     1     -35.769  14.649  -4.861  1.00 20.00    -0.360 N 
HETATM    9  O9  UNL     1     -34.514  12.909  -3.900  1.00 20.00    -0.273 OA
HETATM   10  H20 UNL     1     -36.555  14.110  -5.209  1.00 20.00     0.162 HD
ENDROOT
TORSDOF 0
ENDMDL
MODEL 4
REMARK VINA RESULT:      -4.4     17.636     18.611
REMARK  0 active torsions:
REMARK  status: ('A' for Active; 'I' for Inactive)
ROOT
HETATM    1  C1  UNL     1     -22.248  17.512   7.989  1.00 20.00     0.223 A 
HETATM    2  C2  UNL     1     -23.878  19.134   8.583  1.00 20.00     0.128 A 
HETATM    3  C3  UNL     1     -22.006  17.839   9.418  1.00 20.00     0.092 A 
HETATM    4  C4  UNL     1     -23.054  18.859   9.803  1.00 20.00     0.026 A 
HETATM    5  C5  UNL     1     -22.997  17.518  10.516  1.00 20.00    -0.029 A 
HETATM    6  C6  UNL     1     -24.072  16.488  10.284  1.00 20.00     0.016 C 
HETATM    7  C7  UNL     1     -22.474  17.521  11.932  1.00 20.00     0.016 C 
HETATM    8  N8  UNL     1     -23.306  18.290   7.554  1.00 20.00    -0.360 N 
HETATM    9  O9  UNL     1     -21.589  16.697   7.366  1.00 20.00    -0.273 OA
HETATM   10  H20 UNL     1     -23.651  18.271   6.600  1.00 20.00     0.162 HD
ENDROOT
TORSDOF 0
ENDMDL
MODEL 5
REMARK VINA RESULT:      -4.2     18.500     19.086
REMARK  0 active torsions:
REMARK  status: ('A' for Active; 'I' for Inactive)
ROOT
HETATM    1  C1  UNL     1     -24.701  16.326  11.180  1.00 20.00     0.223 A 
HETATM    2  C2  UNL     1     -25.135  18.623  10.762  1.00 20.00     0.128 A 
HETATM    3  C3  UNL     1     -23.646  16.782  10.240  1.00 20.00     0.092 A 
HETATM    4  C4  UNL     1     -23.910  18.249   9.987  1.00 20.00     0.026 A 
HETATM    5  C5  UNL     1     -22.598  17.809  10.613  1.00 20.00    -0.029 A 
HETATM    6  C6  UNL     1     -22.313  18.102  12.064  1.00 20.00     0.016 C 
HETATM    7  C7  UNL     1     -21.368  17.880   9.742  1.00 20.00     0.016 C 
HETATM    8  N8  UNL     1     -25.536  17.400  11.429  1.00 20.00    -0.360 N 
HETATM    9  O9  UNL     1     -24.767  15.187  11.614  1.00 20.00    -0.273 OA
HETATM   10  H20 UNL     1     -26.356  17.338  12.024  1.00 20.00     0.162 HD
ENDROOT
TORSDOF 0
ENDMDL
MODEL 6
REMARK VINA RESULT:      -4.1      1.192      1.230
REMARK  0 active torsions:
REMARK  status: ('A' for Active; 'I' for Inactive)
ROOT
HETATM    1  C1  UNL     1     -36.886  14.594  -4.722  1.00 20.00     0.223 A 
HETATM    2  C2  UNL     1     -36.116  16.766  -5.296  1.00 20.00     0.128 A 
HETATM    3  C3  UNL     1     -35.438  14.455  -5.019  1.00 20.00     0.092 A 
HETATM    4  C4  UNL     1     -34.941  15.840  -5.367  1.00 20.00     0.026 A 
HETATM    5  C5  UNL     1     -34.358  15.099  -4.175  1.00 20.00    -0.029 A 
HETATM    6  C6  UNL     1     -34.669  15.553  -2.772  1.00 20.00     0.016 C 
HETATM    7  C7  UNL     1     -32.957  14.559  -4.327  1.00 20.00     0.016 C 
HETATM    8  N8  UNL     1     -37.229  15.920  -4.915  1.00 20.00    -0.360 N 
HETATM    9  O9  UNL     1     -37.594  13.661  -4.379  1.00 20.00    -0.273 OA
HETATM   10  H20 UNL     1     -38.176  16.270  -4.802  1.00 20.00     0.162 HD
ENDROOT
TORSDOF 0
ENDMDL
MODEL 7
REMARK VINA RESULT:      -4.1      2.380      3.027
REMARK  0 active torsions:
REMARK  status: ('A' for Active; 'I' for Inactive)
ROOT
HETATM    1  C1  UNL     1     -34.422  16.246  -5.417  1.00 20.00     0.223 A 
HETATM    2  C2  UNL     1     -33.330  14.366  -4.463  1.00 20.00     0.128 A 
HETATM    3  C3  UNL     1     -35.054  16.029  -4.091  1.00 20.00     0.092 A 
HETATM    4  C4  UNL     1     -34.348  14.843  -3.474  1.00 20.00     0.026 A 
HETATM    5  C5  UNL     1     -34.307  16.196  -2.785  1.00 20.00    -0.029 A 
HETATM    6  C6  UNL     1     -33.027  16.991  -2.745  1.00 20.00     0.016 C 
HETATM    7  C7  UNL     1     -35.140  16.350  -1.536  1.00 20.00     0.016 C 
HETATM    8  N8  UNL     1     -33.465  15.263  -5.593  1.00 20.00    -0.360 N 
HETATM    9  O9  UNL     1     -34.743  17.148  -6.174  1.00 20.00    -0.273 OA
HETATM   10  H20 UNL     1     -32.908  15.177  -6.437  1.00 20.00     0.162 HD
ENDROOT
TORSDOF 0
ENDMDL
MODEL 8
REMARK VINA RESULT:      -4.1     18.980     19.533
REMARK  0 active torsions:
REMARK  status: ('A' for Active; 'I' for Inactive)
ROOT
HETATM    1  C1  UNL     1     -22.902  17.013  10.017  1.00 20.00     0.223 A 
HETATM    2  C2  UNL     1     -22.279  17.773  12.179  1.00 20.00     0.128 A 
HETATM    3  C3  UNL     1     -23.912  16.463  10.956  1.00 20.00     0.092 A 
HETATM    4  C4  UNL     1     -23.528  16.961  12.331  1.00 20.00     0.026 A 
HETATM    5  C5  UNL     1     -24.874  17.335  11.735  1.00 20.00    -0.029 A 
HETATM    6  C6  UNL     1     -25.140  18.750  11.287  1.00 20.00     0.016 C 
HETATM    7  C7  UNL     1     -26.091  16.660  12.319  1.00 20.00     0.016 C 
HETATM    8  N8  UNL     1     -21.983  17.730  10.761  1.00 20.00    -0.360 N 
HETATM    9  O9  UNL     1     -22.931  16.823   8.812  1.00 20.00    -0.273 OA
HETATM   10  H20 UNL     1     -21.173  18.185  10.352  1.00 20.00     0.162 HD
ENDROOT
TORSDOF 0
ENDMDL
MODEL 9
REMARK VINA RESULT:      -4.1     10.851     11.929
REMARK  0 active torsions:
REMARK  status: ('A' for Active; 'I' for Inactive)
ROOT
HETATM    1  C1  UNL     1     -41.431   5.489  -0.456  1.00 20.00     0.223 A 
HETATM    2  C2  UNL     1     -42.946   5.634   1.367  1.00 20.00     0.128 A 
HETATM    3  C3  UNL     1     -42.460   6.484  -0.851  1.00 20.00     0.092 A 
HETATM    4  C4  UNL     1     -43.415   6.592   0.316  1.00 20.00     0.026 A 
HETATM    5  C5  UNL     1     -42.636   7.812  -0.145  1.00 20.00    -0.029 A 
HETATM    6  C6  UNL     1     -41.522   8.367   0.704  1.00 20.00     0.016 C 
HETATM    7  C7  UNL     1     -43.411   8.879  -0.878  1.00 20.00     0.016 C 
HETATM    8  N8  UNL     1     -41.763   5.018   0.801  1.00 20.00    -0.360 N 
HETATM    9  O9  UNL     1     -40.488   5.181  -1.166  1.00 20.00    -0.273 OA
HETATM   10  H20 UNL     1     -41.227   4.304   1.284  1.00 20.00     0.162 HD
ENDROOT
TORSDOF 0
ENDMDL
