MODEL 1
REMARK VINA RESULT:      -5.6      0.000      0.000
REMARK  0 active torsions:
REMARK  status: ('A' for Active; 'I' for Inactive)
ROOT
HETATM    1  C1  UNL     1     -34.691   5.200   6.115  1.00 20.00    -0.002 C 
HETATM    2  C2  UNL     1     -34.716   4.592   4.803  1.00 20.00     0.009 C 
HETATM    3  C3  UNL     1     -34.263   6.471   6.029  1.00 20.00    -0.013 C 
HETATM    4  C4  UNL     1     -32.776   7.391   4.144  1.00 20.00     0.006 C 
HETATM    5  C5  UNL     1     -32.230   6.970   2.986  1.00 20.00     0.113 C 
HETATM    6  C6  UNL     1     -33.742   5.302   2.596  1.00 20.00     0.124 C 
HETATM    7  C7  UNL     1     -34.324   5.520   3.924  1.00 20.00    -0.029 C 
HETATM    8  C8  UNL     1     -34.099   6.845   4.582  1.00 20.00     0.066 C 
HETATM    9  N9  UNL     1     -32.751   6.008   2.137  1.00 20.00    -0.273 NA
ENDROOT
TORSDOF 0
ENDMDL
MODEL 2
REMARK VINA RESULT:      -5.6      1.649      3.567
REMARK  0 active torsions:
REMARK  status: ('A' for Active; 'I' for Inactive)
ROOT
HETATM    1  C1  UNL     1     -32.607   5.867   2.289  1.00 20.00    -0.002 C 
HETATM    2  C2  UNL     1     -32.644   6.925   3.275  1.00 20.00     0.009 C 
HETATM    3  C3  UNL     1     -33.601   4.990   2.513  1.00 20.00    -0.013 C 
HETATM    4  C4  UNL     1     -34.723   4.600   4.793  1.00 20.00     0.006 C 
HETATM    5  C5  UNL     1     -34.680   5.101   6.044  1.00 20.00     0.113 C 
HETATM    6  C6  UNL     1     -33.878   7.157   5.454  1.00 20.00     0.124 C 
HETATM    7  C7  UNL     1     -33.686   6.687   4.079  1.00 20.00    -0.029 C 
HETATM    8  C8  UNL     1     -34.476   5.501   3.623  1.00 20.00     0.066 C 
HETATM    9  N9  UNL     1     -34.372   6.405   6.393  1.00 20.00    -0.273 NA
ENDROOT
TORSDOF 0
ENDMDL
MODEL 3
REMARK VINA RESULT:      -5.0      1.657      3.570
REMARK  0 active torsions:
REMARK  status: ('A' for Active; 'I' for Inactive)
ROOT
HETATM    1  C1  UNL     1     -32.002   7.235   2.996  1.00 20.00    -0.002 C 
HETATM    2  C2  UNL     1     -32.385   7.619   4.337  1.00 20.00     0.009 C 
HETATM    3  C3  UNL     1     -32.905   6.381   2.483  1.00 20.00    -0.013 C 
HETATM    4  C4  UNL     1     -34.446   4.867   3.876  1.00 20.00     0.006 C 
HETATM    5  C5  UNL     1     -34.742   4.638   5.172  1.00 20.00     0.113 C 
HETATM    6  C6  UNL     1     -34.088   6.689   5.936  1.00 20.00     0.124 C 
HETATM    7  C7  UNL     1     -33.541   7.007   4.614  1.00 20.00    -0.029 C 
HETATM    8  C8  UNL     1     -34.060   6.245   3.436  1.00 20.00     0.066 C 
HETATM    9  N9  UNL     1     -34.681   5.562   6.201  1.00 20.00    -0.273 NA
ENDROOT
TORSDOF 0
ENDMDL
MODEL 4
REMARK VINA RESULT:      -4.8     11.827     12.529
REMARK  0 active torsions:
REMARK  status: ('A' for Active; 'I' for Inactive)
ROOT
HETATM    1  C1  UNL     1     -33.873  16.768  -2.148  1.00 20.00    -0.002 C 
HETATM    2  C2  UNL     1     -33.088  16.279  -3.260  1.00 20.00     0.009 C 
HETATM    3  C3  UNL     1     -35.029  16.087  -2.061  1.00 20.00    -0.013 C 
HETATM    4  C4  UNL     1     -36.170  14.885  -4.026  1.00 20.00     0.006 C 
HETATM    5  C5  UNL     1     -35.934  14.616  -5.326  1.00 20.00     0.113 C 
HETATM    6  C6  UNL     1     -33.659  14.785  -5.200  1.00 20.00     0.124 C 
HETATM    7  C7  UNL     1     -33.773  15.280  -3.825  1.00 20.00    -0.029 C 
HETATM    8  C8  UNL     1     -35.024  14.969  -3.066  1.00 20.00     0.066 C 
HETATM    9  N9  UNL     1     -34.692  14.449  -5.915  1.00 20.00    -0.273 NA
ENDROOT
TORSDOF 0
ENDMDL
MODEL 5
REMARK VINA RESULT:      -4.7     11.688     12.307
REMARK  0 active torsions:
REMARK  status: ('A' for Active; 'I' for Inactive)
ROOT
HETATM    1  C1  UNL     1     -33.052  15.575  -3.767  1.00 20.00    -0.002 C 
HETATM    2  C2  UNL     1     -33.560  14.319  -4.274  1.00 20.00     0.009 C 
HETATM    3  C3  UNL     1     -34.012  16.219  -3.078  1.00 20.00    -0.013 C 
HETATM    4  C4  UNL     1     -36.536  15.884  -3.424  1.00 20.00     0.006 C 
HETATM    5  C5  UNL     1     -37.367  15.110  -4.150  1.00 20.00     0.113 C 
HETATM    6  C6  UNL     1     -35.891  13.394  -4.462  1.00 20.00     0.124 C 
HETATM    7  C7  UNL     1     -34.826  14.202  -3.860  1.00 20.00    -0.029 C 
HETATM    8  C8  UNL     1     -35.222  15.334  -2.965  1.00 20.00     0.066 C 
HETATM    9  N9  UNL     1     -37.114  13.820  -4.585  1.00 20.00    -0.273 NA
ENDROOT
TORSDOF 0
ENDMDL
MODEL 6
REMARK VINA RESULT:      -4.7      1.219      1.957
REMARK  0 active torsions:
REMARK  status: ('A' for Active; 'I' for Inactive)
ROOT
HETATM    1  C1  UNL     1     -33.688   7.171   6.259  1.00 20.00    -0.002 C 
HETATM    2  C2  UNL     1     -34.474   5.963   6.139  1.00 20.00     0.009 C 
HETATM    3  C3  UNL     1     -33.274   7.578   5.046  1.00 20.00    -0.013 C 
HETATM    4  C4  UNL     1     -32.988   6.041   3.006  1.00 20.00     0.006 C 
HETATM    5  C5  UNL     1     -33.198   4.752   2.669  1.00 20.00     0.113 C 
HETATM    6  C6  UNL     1     -34.808   4.350   4.239  1.00 20.00     0.124 C 
HETATM    7  C7  UNL     1     -34.551   5.663   4.838  1.00 20.00    -0.029 C 
HETATM    8  C8  UNL     1     -33.897   6.708   3.990  1.00 20.00     0.066 C 
HETATM    9  N9  UNL     1     -34.174   3.919   3.188  1.00 20.00    -0.273 NA
ENDROOT
TORSDOF 0
ENDMDL
MODEL 7
REMARK VINA RESULT:      -4.5     16.427     16.902
REMARK  0 active torsions:
REMARK  status: ('A' for Active; 'I' for Inactive)
ROOT
HETATM    1  C1  UNL     1     -24.094  17.615  11.604  1.00 20.00    -0.002 C 
HETATM    2  C2  UNL     1     -24.710  18.199  10.432  1.00 20.00     0.009 C 
HETATM    3  C3  UNL     1     -22.764  17.521  11.430  1.00 20.00    -0.013 C 
HETATM    4  C4  UNL     1     -21.591  17.391   9.147  1.00 20.00     0.006 C 
HETATM    5  C5  UNL     1     -21.910  17.447   7.838  1.00 20.00     0.113 C 
HETATM    6  C6  UNL     1     -23.847  18.628   8.110  1.00 20.00     0.124 C 
HETATM    7  C7  UNL     1     -23.733  18.479   9.563  1.00 20.00    -0.029 C 
HETATM    8  C8  UNL     1     -22.382  18.187  10.138  1.00 20.00     0.066 C 
HETATM    9  N9  UNL     1     -22.965  18.150   7.282  1.00 20.00    -0.273 NA
ENDROOT
TORSDOF 0
ENDMDL
MODEL 8
REMARK VINA RESULT:      -4.4     16.197     16.794
REMARK  0 active torsions:
REMARK  status: ('A' for Active; 'I' for Inactive)
ROOT
HETATM    1  C1  UNL     1     -23.556  18.032  12.310  1.00 20.00    -0.002 C 
HETATM    2  C2  UNL     1     -22.508  17.537  11.444  1.00 20.00     0.009 C 
HETATM    3  C3  UNL     1     -24.689  18.215  11.609  1.00 20.00    -0.013 C 
HETATM    4  C4  UNL     1     -24.790  18.639   9.076  1.00 20.00     0.006 C 
HETATM    5  C5  UNL     1     -23.951  18.699   8.023  1.00 20.00     0.113 C 
HETATM    6  C6  UNL     1     -22.316  17.394   8.941  1.00 20.00     0.124 C 
HETATM    7  C7  UNL     1     -23.031  17.400  10.221  1.00 20.00    -0.029 C 
HETATM    8  C8  UNL     1     -24.495  17.705  10.208  1.00 20.00     0.066 C 
HETATM    9  N9  UNL     1     -22.764  18.000   7.881  1.00 20.00    -0.273 NA
ENDROOT
TORSDOF 0
ENDMDL
MODEL 9
REMARK VINA RESULT:      -4.4     11.689     12.208
REMARK  0 active torsions:
REMARK  status: ('A' for Active; 'I' for Inactive)
ROOT
HETATM    1  C1  UNL     1     -34.047  17.155  -1.399  1.00 20.00    -0.002 C 
HETATM    2  C2  UNL     1     -35.159  16.302  -1.759  1.00 20.00     0.009 C 
HETATM    3  C3  UNL     1     -33.117  17.139  -2.370  1.00 20.00    -0.013 C 
HETATM    4  C4  UNL     1     -32.792  15.226  -4.055  1.00 20.00     0.006 C 
HETATM    5  C5  UNL     1     -33.373  14.054  -4.384  1.00 20.00     0.113 C 
HETATM    6  C6  UNL     1     -35.439  14.566  -3.556  1.00 20.00     0.124 C 
HETATM    7  C7  UNL     1     -34.899  15.796  -2.969  1.00 20.00    -0.029 C 
HETATM    8  C8  UNL     1     -33.634  16.352  -3.542  1.00 20.00     0.066 C 
HETATM    9  N9  UNL     1     -34.714  13.739  -4.250  1.00 20.00    -0.273 NA
ENDROOT
TORSDOF 0
ENDMDL
