MODEL 1
REMARK VINA RESULT:      -4.3      0.000      0.000
REMARK  2 active torsions:
REMARK  status: ('A' for Active; 'I' for Inactive)
REMARK    1  A    between atoms: C1_1  and  C8_8 
REMARK    2  A    between atoms: C8_8  and  O9_9 
ROOT
HETATM    1  C1  UNL     1     -35.190  14.590  -3.555  1.00 20.00     0.026 A 
HETATM    2  C2  UNL     1     -34.347  15.756  -4.053  1.00 20.00    -0.034 A 
HETATM    3  C3  UNL     1     -35.495  15.993  -3.047  1.00 20.00    -0.034 A 
HETATM    4  C4  UNL     1     -32.914  15.823  -3.570  1.00 20.00     0.016 C 
HETATM    5  C5  UNL     1     -34.479  16.247  -5.477  1.00 20.00     0.016 C 
HETATM    6  C6  UNL     1     -36.748  16.715  -3.485  1.00 20.00     0.016 C 
HETATM    7  C7  UNL     1     -35.159  16.288  -1.599  1.00 20.00     0.016 C 
ENDROOT
BRANCH   1   8
HETATM    8  C8  UNL     1     -36.117  13.817  -4.429  1.00 20.00     0.170 C 
BRANCH   8   9
HETATM    9  O9  UNL     1     -35.903  12.417  -4.246  1.00 20.00    -0.400 OA
HETATM   10  H25 UNL     1     -35.848  12.271  -3.290  1.00 20.00     0.209 HD
ENDBRANCH   8   9
ENDBRANCH   1   8
TORSDOF 2
ENDMDL
MODEL 2
REMARK VINA RESULT:      -4.2     17.285     18.766
REMARK  2 active torsions:
REMARK  status: ('A' for Active; 'I' for Inactive)
REMARK    1  A    between atoms: C1_1  and  C8_8 
REMARK    2  A    between atoms: C8_8  and  O9_9 
ROOT
HETATM    1  C1  UNL     1     -24.158  16.757  10.681  1.00 20.00     0.026 A 
HETATM    2  C2  UNL     1     -24.457  18.250  10.694  1.00 20.00    -0.034 A 
HETATM    3  C3  UNL     1     -23.023  17.737  10.951  1.00 20.00    -0.034 A 
HETATM    4  C4  UNL     1     -24.784  18.896   9.364  1.00 20.00     0.016 C 
HETATM    5  C5  UNL     1     -25.253  18.865  11.823  1.00 20.00     0.016 C 
HETATM    6  C6  UNL     1     -22.416  17.849  12.331  1.00 20.00     0.016 C 
HETATM    7  C7  UNL     1     -21.977  17.892   9.867  1.00 20.00     0.016 C 
ENDROOT
BRANCH   1   8
HETATM    8  C8  UNL     1     -24.681  15.808  11.704  1.00 20.00     0.170 C 
BRANCH   8   9
HETATM    9  O9  UNL     1     -26.075  16.036  11.910  1.00 20.00    -0.400 OA
HETATM   10  H25 UNL     1     -26.474  16.114  11.029  1.00 20.00     0.209 HD
ENDBRANCH   8   9
ENDBRANCH   1   8
TORSDOF 2
ENDMDL
MODEL 3
REMARK VINA RESULT:      -4.2      1.167      1.252
REMARK  2 active torsions:
REMARK  status: ('A' for Active; 'I' for Inactive)
REMARK    1  A    between atoms: C1_1  and  C8_8 
REMARK    2  A    between atoms: C8_8  and  O9_9 
ROOT
HETATM    1  C1  UNL     1     -34.834  14.478  -3.746  1.00 20.00     0.026 A 
HETATM    2  C2  UNL     1     -33.720  14.949  -4.670  1.00 20.00    -0.034 A 
HETATM    3  C3  UNL     1     -34.428  15.946  -3.726  1.00 20.00    -0.034 A 
HETATM    4  C4  UNL     1     -32.315  14.490  -4.342  1.00 20.00     0.016 C 
HETATM    5  C5  UNL     1     -33.944  15.034  -6.163  1.00 20.00     0.016 C 
HETATM    6  C6  UNL     1     -35.344  17.006  -4.295  1.00 20.00     0.016 C 
HETATM    7  C7  UNL     1     -33.700  16.441  -2.494  1.00 20.00     0.016 C 
ENDROOT
BRANCH   1   8
HETATM    8  C8  UNL     1     -36.159  14.002  -4.236  1.00 20.00     0.170 C 
BRANCH   8   9
HETATM    9  O9  UNL     1     -36.069  12.631  -4.622  1.00 20.00    -0.400 OA
HETATM   10  H25 UNL     1     -36.812  12.176  -4.196  1.00 20.00     0.209 HD
ENDBRANCH   8   9
ENDBRANCH   1   8
TORSDOF 2
ENDMDL
MODEL 4
REMARK VINA RESULT:      -4.1      0.799      1.953
REMARK  2 active torsions:
REMARK  status: ('A' for Active; 'I' for Inactive)
REMARK    1  A    between atoms: C1_1  and  C8_8 
REMARK    2  A    between atoms: C8_8  and  O9_9 
ROOT
HETATM    1  C1  UNL     1     -35.189  14.666  -4.765  1.00 20.00     0.026 A 
HETATM    2  C2  UNL     1     -35.286  16.172  -4.966  1.00 20.00    -0.034 A 
HETATM    3  C3  UNL     1     -34.546  15.592  -3.741  1.00 20.00    -0.034 A 
HETATM    4  C4  UNL     1     -34.482  16.767  -6.103  1.00 20.00     0.016 C 
HETATM    5  C5  UNL     1     -36.605  16.888  -4.782  1.00 20.00     0.016 C 
HETATM    6  C6  UNL     1     -35.140  15.740  -2.358  1.00 20.00     0.016 C 
HETATM    7  C7  UNL     1     -33.032  15.632  -3.705  1.00 20.00     0.016 C 
ENDROOT
BRANCH   1   8
HETATM    8  C8  UNL     1     -36.365  13.802  -4.463  1.00 20.00     0.170 C 
BRANCH   8   9
HETATM    9  O9  UNL     1     -35.937  12.458  -4.242  1.00 20.00    -0.400 OA
HETATM   10  H25 UNL     1     -36.385  11.914  -4.908  1.00 20.00     0.209 HD
ENDBRANCH   8   9
ENDBRANCH   1   8
TORSDOF 2
ENDMDL
MODEL 5
REMARK VINA RESULT:      -4.1      0.962      1.914
REMARK  2 active torsions:
REMARK  status: ('A' for Active; 'I' for Inactive)
REMARK    1  A    between atoms: C1_1  and  C8_8 
REMARK    2  A    between atoms: C8_8  and  O9_9 
ROOT
HETATM    1  C1  UNL     1     -35.977  14.907  -4.160  1.00 20.00     0.026 A 
HETATM    2  C2  UNL     1     -34.621  15.449  -3.728  1.00 20.00    -0.034 A 
HETATM    3  C3  UNL     1     -35.509  16.249  -4.707  1.00 20.00    -0.034 A 
HETATM    4  C4  UNL     1     -34.494  15.916  -2.293  1.00 20.00     0.016 C 
HETATM    5  C5  UNL     1     -33.344  14.806  -4.220  1.00 20.00     0.016 C 
HETATM    6  C6  UNL     1     -35.100  16.390  -6.155  1.00 20.00     0.016 C 
HETATM    7  C7  UNL     1     -36.230  17.484  -4.208  1.00 20.00     0.016 C 
ENDROOT
BRANCH   1   8
HETATM    8  C8  UNL     1     -36.141  13.691  -5.006  1.00 20.00     0.170 C 
BRANCH   8   9
HETATM    9  O9  UNL     1     -35.968  12.519  -4.211  1.00 20.00    -0.400 OA
HETATM   10  H25 UNL     1     -35.196  12.681  -3.646  1.00 20.00     0.209 HD
ENDBRANCH   8   9
ENDBRANCH   1   8
TORSDOF 2
ENDMDL
MODEL 6
REMARK VINA RESULT:      -4.1      1.951      2.338
REMARK  2 active torsions:
REMARK  status: ('A' for Active; 'I' for Inactive)
REMARK    1  A    between atoms: C1_1  and  C8_8 
REMARK    2  A    between atoms: C8_8  and  O9_9 
ROOT
HETATM    1  C1  UNL     1     -33.354  15.590  -3.610  1.00 20.00     0.026 A 
HETATM    2  C2  UNL     1     -34.105  16.804  -4.138  1.00 20.00    -0.034 A 
HETATM    3  C3  UNL     1     -34.781  15.839  -3.140  1.00 20.00    -0.034 A 
HETATM    4  C4  UNL     1     -33.641  18.163  -3.656  1.00 20.00     0.016 C 
HETATM    5  C5  UNL     1     -34.573  16.854  -5.575  1.00 20.00     0.016 C 
HETATM    6  C6  UNL     1     -35.910  14.945  -3.599  1.00 20.00     0.016 C 
HETATM    7  C7  UNL     1     -34.964  16.274  -1.701  1.00 20.00     0.016 C 
ENDROOT
BRANCH   1   8
HETATM    8  C8  UNL     1     -32.964  14.433  -4.465  1.00 20.00     0.170 C 
BRANCH   8   9
HETATM    9  O9  UNL     1     -31.545  14.277  -4.454  1.00 20.00    -0.400 OA
HETATM   10  H25 UNL     1     -31.241  14.472  -5.354  1.00 20.00     0.209 HD
ENDBRANCH   8   9
ENDBRANCH   1   8
TORSDOF 2
ENDMDL
MODEL 7
REMARK VINA RESULT:      -4.0      1.625      2.698
REMARK  2 active torsions:
REMARK  status: ('A' for Active; 'I' for Inactive)
REMARK    1  A    between atoms: C1_1  and  C8_8 
REMARK    2  A    between atoms: C8_8  and  O9_9 
ROOT
HETATM    1  C1  UNL     1     -34.087  15.139  -3.709  1.00 20.00     0.026 A 
HETATM    2  C2  UNL     1     -34.220  16.378  -2.835  1.00 20.00    -0.034 A 
HETATM    3  C3  UNL     1     -34.917  16.314  -4.211  1.00 20.00    -0.034 A 
HETATM    4  C4  UNL     1     -35.052  16.246  -1.577  1.00 20.00     0.016 C 
HETATM    5  C5  UNL     1     -33.041  17.303  -2.628  1.00 20.00     0.016 C 
HETATM    6  C6  UNL     1     -34.422  17.174  -5.352  1.00 20.00     0.016 C 
HETATM    7  C7  UNL     1     -36.418  16.119  -4.271  1.00 20.00     0.016 C 
ENDROOT
BRANCH   1   8
HETATM    8  C8  UNL     1     -32.805  14.714  -4.339  1.00 20.00     0.170 C 
BRANCH   8   9
HETATM    9  O9  UNL     1     -32.764  13.291  -4.445  1.00 20.00    -0.400 OA
HETATM   10  H25 UNL     1     -32.229  13.090  -5.228  1.00 20.00     0.209 HD
ENDBRANCH   8   9
ENDBRANCH   1   8
TORSDOF 2
ENDMDL
MODEL 8
REMARK VINA RESULT:      -3.7      1.871      2.874
REMARK  2 active torsions:
REMARK  status: ('A' for Active; 'I' for Inactive)
REMARK    1  A    between atoms: C1_1  and  C8_8 
REMARK    2  A    between atoms: C8_8  and  O9_9 
ROOT
HETATM    1  C1  UNL     1     -34.399  15.991  -5.455  1.00 20.00     0.026 A 
HETATM    2  C2  UNL     1     -35.662  16.332  -4.676  1.00 20.00    -0.034 A 
HETATM    3  C3  UNL     1     -34.581  15.421  -4.055  1.00 20.00    -0.034 A 
HETATM    4  C4  UNL     1     -35.802  17.757  -4.183  1.00 20.00     0.016 C 
HETATM    5  C5  UNL     1     -36.997  15.750  -5.083  1.00 20.00     0.016 C 
HETATM    6  C6  UNL     1     -34.857  13.948  -3.853  1.00 20.00     0.016 C 
HETATM    7  C7  UNL     1     -33.685  15.974  -2.966  1.00 20.00     0.016 C 
ENDROOT
BRANCH   1   8
HETATM    8  C8  UNL     1     -34.398  15.152  -6.687  1.00 20.00     0.170 C 
BRANCH   8   9
HETATM    9  O9  UNL     1     -33.124  14.529  -6.849  1.00 20.00    -0.400 OA
HETATM   10  H25 UNL     1     -33.273  13.736  -7.387  1.00 20.00     0.209 HD
ENDBRANCH   8   9
ENDBRANCH   1   8
TORSDOF 2
ENDMDL
MODEL 9
REMARK VINA RESULT:      -3.7      1.804      2.984
REMARK  2 active torsions:
REMARK  status: ('A' for Active; 'I' for Inactive)
REMARK    1  A    between atoms: C1_1  and  C8_8 
REMARK    2  A    between atoms: C8_8  and  O9_9 
ROOT
HETATM    1  C1  UNL     1     -34.586  16.385  -4.423  1.00 20.00     0.026 A 
HETATM    2  C2  UNL     1     -34.199  16.209  -2.961  1.00 20.00    -0.034 A 
HETATM    3  C3  UNL     1     -34.105  15.021  -3.944  1.00 20.00    -0.034 A 
HETATM    4  C4  UNL     1     -32.927  16.891  -2.501  1.00 20.00     0.016 C 
HETATM    5  C5  UNL     1     -35.255  16.213  -1.879  1.00 20.00     0.016 C 
HETATM    6  C6  UNL     1     -35.070  13.863  -3.824  1.00 20.00     0.016 C 
HETATM    7  C7  UNL     1     -32.743  14.565  -4.424  1.00 20.00     0.016 C 
ENDROOT
BRANCH   1   8
HETATM    8  C8  UNL     1     -35.982  16.648  -4.874  1.00 20.00     0.170 C 
BRANCH   8   9
HETATM    9  O9  UNL     1     -36.132  16.262  -6.240  1.00 20.00    -0.400 OA
HETATM   10  H25 UNL     1     -35.541  16.835  -6.753  1.00 20.00     0.209 HD
ENDBRANCH   8   9
ENDBRANCH   1   8
TORSDOF 2
ENDMDL
