MODEL 1
REMARK VINA RESULT:      -5.0      0.000      0.000
REMARK  0 active torsions:
REMARK  status: ('A' for Active; 'I' for Inactive)
ROOT
HETATM    1  C1  UNL     1     -34.547  17.121  -4.211  1.00 20.00     0.136 C 
HETATM    2  C2  UNL     1     -35.844  16.362  -4.366  1.00 20.00     0.084 C 
HETATM    3  C3  UNL     1     -33.888  17.749  -1.226  1.00 20.00     0.002 C 
HETATM    4  C4  UNL     1     -35.175  16.919  -1.419  1.00 20.00     0.006 C 
HETATM    5  C5  UNL     1     -34.393  14.319  -4.121  1.00 20.00     0.006 C 
HETATM    6  C6  UNL     1     -32.861  17.269  -2.276  1.00 20.00     0.018 C 
HETATM    7  C7  UNL     1     -33.108  15.177  -3.929  1.00 20.00     0.018 C 
HETATM    8  C8  UNL     1     -35.516  15.168  -3.448  1.00 20.00    -0.002 C 
HETATM    9  C9  UNL     1     -34.722  15.758  -2.287  1.00 20.00     0.006 C 
HETATM   10  C10 UNL     1     -33.666  16.391  -3.195  1.00 20.00     0.024 C 
HETATM   11  O11 UNL     1     -34.249  18.135  -4.820  1.00 20.00    -0.297 OA
ENDROOT
TORSDOF 0
ENDMDL
MODEL 2
REMARK VINA RESULT:      -4.9      2.347      3.781
REMARK  0 active torsions:
REMARK  status: ('A' for Active; 'I' for Inactive)
ROOT
HETATM    1  C1  UNL     1     -35.881  13.903  -4.412  1.00 20.00     0.136 C 
HETATM    2  C2  UNL     1     -37.190  14.631  -4.220  1.00 20.00     0.084 C 
HETATM    3  C3  UNL     1     -34.208  15.070  -6.773  1.00 20.00     0.002 C 
HETATM    4  C4  UNL     1     -35.524  15.831  -6.506  1.00 20.00     0.006 C 
HETATM    5  C5  UNL     1     -35.852  16.128  -2.701  1.00 20.00     0.006 C 
HETATM    6  C6  UNL     1     -33.629  14.645  -5.405  1.00 20.00     0.018 C 
HETATM    7  C7  UNL     1     -34.536  15.346  -2.986  1.00 20.00     0.018 C 
HETATM    8  C8  UNL     1     -36.631  16.058  -4.052  1.00 20.00    -0.002 C 
HETATM    9  C9  UNL     1     -35.457  16.147  -5.023  1.00 20.00     0.006 C 
HETATM   10  C10 UNL     1     -34.745  14.927  -4.436  1.00 20.00     0.024 C 
HETATM   11  O11 UNL     1     -35.757  12.692  -4.506  1.00 20.00    -0.297 OA
ENDROOT
TORSDOF 0
ENDMDL
MODEL 3
REMARK VINA RESULT:      -4.7      0.811      3.149
REMARK  0 active torsions:
REMARK  status: ('A' for Active; 'I' for Inactive)
ROOT
HETATM    1  C1  UNL     1     -35.033  17.308  -3.805  1.00 20.00     0.136 C 
HETATM    2  C2  UNL     1     -33.784  18.157  -3.789  1.00 20.00     0.084 C 
HETATM    3  C3  UNL     1     -34.403  14.277  -4.194  1.00 20.00     0.002 C 
HETATM    4  C4  UNL     1     -33.146  15.168  -4.108  1.00 20.00     0.006 C 
HETATM    5  C5  UNL     1     -33.802  17.702  -1.312  1.00 20.00     0.006 C 
HETATM    6  C6  UNL     1     -35.445  14.843  -3.203  1.00 20.00     0.018 C 
HETATM    7  C7  UNL     1     -35.071  16.807  -1.423  1.00 20.00     0.018 C 
HETATM    8  C8  UNL     1     -33.038  17.438  -2.647  1.00 20.00    -0.002 C 
HETATM    9  C9  UNL     1     -33.356  15.957  -2.828  1.00 20.00     0.006 C 
HETATM   10  C10 UNL     1     -34.871  16.172  -2.793  1.00 20.00     0.024 C 
HETATM   11  O11 UNL     1     -36.016  17.517  -4.497  1.00 20.00    -0.297 OA
ENDROOT
TORSDOF 0
ENDMDL
MODEL 4
REMARK VINA RESULT:      -4.6      2.049      2.950
REMARK  0 active torsions:
REMARK  status: ('A' for Active; 'I' for Inactive)
ROOT
HETATM    1  C1  UNL     1     -36.184  14.352  -4.182  1.00 20.00     0.136 C 
HETATM    2  C2  UNL     1     -34.972  13.471  -3.997  1.00 20.00     0.084 C 
HETATM    3  C3  UNL     1     -36.111  16.872  -2.343  1.00 20.00     0.002 C 
HETATM    4  C4  UNL     1     -34.857  15.980  -2.228  1.00 20.00     0.006 C 
HETATM    5  C5  UNL     1     -33.955  14.911  -5.794  1.00 20.00     0.006 C 
HETATM    6  C6  UNL     1     -36.549  16.872  -3.825  1.00 20.00     0.018 C 
HETATM    7  C7  UNL     1     -35.230  15.798  -5.892  1.00 20.00     0.018 C 
HETATM    8  C8  UNL     1     -33.883  14.523  -4.284  1.00 20.00    -0.002 C 
HETATM    9  C9  UNL     1     -34.402  15.818  -3.667  1.00 20.00     0.006 C 
HETATM   10  C10 UNL     1     -35.717  15.785  -4.449  1.00 20.00     0.024 C 
HETATM   11  O11 UNL     1     -37.343  13.971  -4.148  1.00 20.00    -0.297 OA
ENDROOT
TORSDOF 0
ENDMDL
MODEL 5
REMARK VINA RESULT:      -4.5     12.155     13.571
REMARK  0 active torsions:
REMARK  status: ('A' for Active; 'I' for Inactive)
ROOT
HETATM    1  C1  UNL     1     -41.222   6.129  -0.557  1.00 20.00     0.136 C 
HETATM    2  C2  UNL     1     -40.794   7.192   0.427  1.00 20.00     0.084 C 
HETATM    3  C3  UNL     1     -43.417   4.245   0.611  1.00 20.00     0.002 C 
HETATM    4  C4  UNL     1     -43.001   5.384   1.566  1.00 20.00     0.006 C 
HETATM    5  C5  UNL     1     -42.668   8.535  -0.586  1.00 20.00     0.006 C 
HETATM    6  C6  UNL     1     -43.415   4.816  -0.825  1.00 20.00     0.018 C 
HETATM    7  C7  UNL     1     -43.070   7.373  -1.539  1.00 20.00     0.018 C 
HETATM    8  C8  UNL     1     -42.179   7.810   0.706  1.00 20.00    -0.002 C 
HETATM    9  C9  UNL     1     -43.149   6.633   0.715  1.00 20.00     0.006 C 
HETATM   10  C10 UNL     1     -42.746   6.156  -0.681  1.00 20.00     0.024 C 
HETATM   11  O11 UNL     1     -40.465   5.392  -1.168  1.00 20.00    -0.297 OA
ENDROOT
TORSDOF 0
ENDMDL
MODEL 6
REMARK VINA RESULT:      -4.5     11.673     12.977
REMARK  0 active torsions:
REMARK  status: ('A' for Active; 'I' for Inactive)
ROOT
HETATM    1  C1  UNL     1     -42.681   6.403   0.742  1.00 20.00     0.136 C 
HETATM    2  C2  UNL     1     -41.429   5.561   0.687  1.00 20.00     0.084 C 
HETATM    3  C3  UNL     1     -42.183   9.333  -0.210  1.00 20.00     0.002 C 
HETATM    4  C4  UNL     1     -40.940   8.425  -0.312  1.00 20.00     0.006 C 
HETATM    5  C5  UNL     1     -42.164   5.058  -1.668  1.00 20.00     0.006 C 
HETATM    6  C6  UNL     1     -43.416   8.480  -0.583  1.00 20.00     0.018 C 
HETATM    7  C7  UNL     1     -43.412   5.980  -1.542  1.00 20.00     0.018 C 
HETATM    8  C8  UNL     1     -41.081   5.771  -0.800  1.00 20.00    -0.002 C 
HETATM    9  C9  UNL     1     -41.440   7.224  -1.095  1.00 20.00     0.006 C 
HETATM   10  C10 UNL     1     -42.886   7.072  -0.619  1.00 20.00     0.024 C 
HETATM   11  O11 UNL     1     -43.417   6.506   1.709  1.00 20.00    -0.297 OA
ENDROOT
TORSDOF 0
ENDMDL
MODEL 7
REMARK VINA RESULT:      -4.5      1.561      2.521
REMARK  0 active torsions:
REMARK  status: ('A' for Active; 'I' for Inactive)
ROOT
HETATM    1  C1  UNL     1     -35.329  15.767  -5.623  1.00 20.00     0.136 C 
HETATM    2  C2  UNL     1     -36.537  16.576  -5.212  1.00 20.00     0.084 C 
HETATM    3  C3  UNL     1     -33.118  15.737  -3.422  1.00 20.00     0.002 C 
HETATM    4  C4  UNL     1     -34.394  16.501  -3.012  1.00 20.00     0.006 C 
HETATM    5  C5  UNL     1     -37.354  14.402  -4.238  1.00 20.00     0.006 C 
HETATM    6  C6  UNL     1     -33.555  14.510  -4.252  1.00 20.00     0.018 C 
HETATM    7  C7  UNL     1     -36.057  13.653  -4.661  1.00 20.00     0.018 C 
HETATM    8  C8  UNL     1     -36.861  15.843  -3.895  1.00 20.00    -0.002 C 
HETATM    9  C9  UNL     1     -35.507  15.503  -3.280  1.00 20.00     0.006 C 
HETATM   10  C10 UNL     1     -35.015  14.754  -4.520  1.00 20.00     0.024 C 
HETATM   11  O11 UNL     1     -34.725  15.892  -6.676  1.00 20.00    -0.297 OA
ENDROOT
TORSDOF 0
ENDMDL
MODEL 8
REMARK VINA RESULT:      -4.5      1.553      3.219
REMARK  0 active torsions:
REMARK  status: ('A' for Active; 'I' for Inactive)
ROOT
HETATM    1  C1  UNL     1     -34.961  15.958  -5.609  1.00 20.00     0.136 C 
HETATM    2  C2  UNL     1     -33.780  15.041  -5.817  1.00 20.00     0.084 C 
HETATM    3  C3  UNL     1     -37.389  14.491  -4.308  1.00 20.00     0.002 C 
HETATM    4  C4  UNL     1     -36.140  13.600  -4.477  1.00 20.00     0.006 C 
HETATM    5  C5  UNL     1     -33.130  15.754  -3.491  1.00 20.00     0.006 C 
HETATM    6  C6  UNL     1     -36.903  15.907  -3.925  1.00 20.00     0.018 C 
HETATM    7  C7  UNL     1     -34.397  16.646  -3.343  1.00 20.00     0.018 C 
HETATM    8  C8  UNL     1     -33.615  14.554  -4.363  1.00 20.00    -0.002 C 
HETATM    9  C9  UNL     1     -35.035  14.410  -3.823  1.00 20.00     0.006 C 
HETATM   10  C10 UNL     1     -35.417  15.855  -4.152  1.00 20.00     0.024 C 
HETATM   11  O11 UNL     1     -35.450  16.680  -6.463  1.00 20.00    -0.297 OA
ENDROOT
TORSDOF 0
ENDMDL
MODEL 9
REMARK VINA RESULT:      -4.5      2.282      3.601
REMARK  0 active torsions:
REMARK  status: ('A' for Active; 'I' for Inactive)
ROOT
HETATM    1  C1  UNL     1     -35.940  13.999  -4.902  1.00 20.00     0.136 C 
HETATM    2  C2  UNL     1     -35.922  14.395  -6.359  1.00 20.00     0.084 C 
HETATM    3  C3  UNL     1     -33.862  15.599  -3.212  1.00 20.00     0.002 C 
HETATM    4  C4  UNL     1     -33.917  16.022  -4.695  1.00 20.00     0.006 C 
HETATM    5  C5  UNL     1     -37.623  16.115  -5.658  1.00 20.00     0.006 C 
HETATM    6  C6  UNL     1     -35.306  15.278  -2.764  1.00 20.00     0.018 C 
HETATM    7  C7  UNL     1     -37.550  15.671  -4.168  1.00 20.00     0.018 C 
HETATM    8  C8  UNL     1     -36.168  15.907  -6.184  1.00 20.00    -0.002 C 
HETATM    9  C9  UNL     1     -35.391  16.298  -4.931  1.00 20.00     0.006 C 
HETATM   10  C10 UNL     1     -36.088  15.260  -4.049  1.00 20.00     0.024 C 
HETATM   11  O11 UNL     1     -35.873  12.854  -4.484  1.00 20.00    -0.297 OA
ENDROOT
TORSDOF 0
ENDMDL
