MODEL 1
REMARK VINA RESULT:      -5.1      0.000      0.000
REMARK  0 active torsions:
REMARK  status: ('A' for Active; 'I' for Inactive)
ROOT
HETATM    1  C1  UNL     1     -25.035  18.644  10.174  1.00 20.00     0.136 C 
HETATM    2  C2  UNL     1     -25.927  18.594  11.412  1.00 20.00     0.084 C 
HETATM    3  C3  UNL     1     -21.462  17.815  11.067  1.00 20.00     0.002 C 
HETATM    4  C4  UNL     1     -22.322  17.605  12.332  1.00 20.00     0.006 C 
HETATM    5  C5  UNL     1     -25.043  16.265  11.800  1.00 20.00     0.006 C 
HETATM    6  C6  UNL     1     -22.429  18.129   9.901  1.00 20.00     0.018 C 
HETATM    7  C7  UNL     1     -24.234  16.358  10.493  1.00 20.00     0.018 C 
HETATM    8  C8  UNL     1     -25.026  17.710  12.331  1.00 20.00    -0.002 C 
HETATM    9  C9  UNL     1     -23.647  18.228  11.944  1.00 20.00     0.006 C 
HETATM   10  C10 UNL     1     -23.791  17.836  10.466  1.00 20.00     0.024 C 
HETATM   11  O11 UNL     1     -25.296  19.213   9.128  1.00 20.00    -0.297 OA
ENDROOT
TORSDOF 0
ENDMDL
MODEL 2
REMARK VINA RESULT:      -4.9     17.935     19.239
REMARK  0 active torsions:
REMARK  status: ('A' for Active; 'I' for Inactive)
ROOT
HETATM    1  C1  UNL     1     -36.671  14.241  -4.256  1.00 20.00     0.136 C 
HETATM    2  C2  UNL     1     -35.519  13.242  -4.309  1.00 20.00     0.084 C 
HETATM    3  C3  UNL     1     -35.649  17.363  -2.397  1.00 20.00     0.002 C 
HETATM    4  C4  UNL     1     -34.398  16.469  -2.534  1.00 20.00     0.006 C 
HETATM    5  C5  UNL     1     -34.118  15.102  -5.279  1.00 20.00     0.006 C 
HETATM    6  C6  UNL     1     -36.782  16.696  -3.211  1.00 20.00     0.018 C 
HETATM    7  C7  UNL     1     -35.349  16.027  -5.271  1.00 20.00     0.018 C 
HETATM    8  C8  UNL     1     -34.332  14.218  -4.036  1.00 20.00    -0.002 C 
HETATM    9  C9  UNL     1     -34.976  15.157  -3.023  1.00 20.00     0.006 C 
HETATM   10  C10 UNL     1     -36.088  15.609  -3.982  1.00 20.00     0.024 C 
HETATM   11  O11 UNL     1     -37.850  13.982  -4.430  1.00 20.00    -0.297 OA
ENDROOT
TORSDOF 0
ENDMDL
MODEL 3
REMARK VINA RESULT:      -4.8     18.190     19.398
REMARK  0 active torsions:
REMARK  status: ('A' for Active; 'I' for Inactive)
ROOT
HETATM    1  C1  UNL     1     -34.505  14.957  -6.060  1.00 20.00     0.136 C 
HETATM    2  C2  UNL     1     -35.944  15.229  -6.488  1.00 20.00     0.084 C 
HETATM    3  C3  UNL     1     -33.905  16.180  -2.539  1.00 20.00     0.002 C 
HETATM    4  C4  UNL     1     -35.408  16.358  -2.847  1.00 20.00     0.006 C 
HETATM    5  C5  UNL     1     -36.663  14.013  -4.399  1.00 20.00     0.006 C 
HETATM    6  C6  UNL     1     -33.277  15.428  -3.736  1.00 20.00     0.018 C 
HETATM    7  C7  UNL     1     -35.190  13.705  -4.076  1.00 20.00     0.018 C 
HETATM    8  C8  UNL     1     -36.596  15.393  -5.079  1.00 20.00    -0.002 C 
HETATM    9  C9  UNL     1     -35.474  16.113  -4.340  1.00 20.00     0.006 C 
HETATM   10  C10 UNL     1     -34.458  14.980  -4.548  1.00 20.00     0.024 C 
HETATM   11  O11 UNL     1     -33.567  14.734  -6.806  1.00 20.00    -0.297 OA
ENDROOT
TORSDOF 0
ENDMDL
MODEL 4
REMARK VINA RESULT:      -4.8     18.079     19.379
REMARK  0 active torsions:
REMARK  status: ('A' for Active; 'I' for Inactive)
ROOT
HETATM    1  C1  UNL     1     -36.446  14.461  -4.518  1.00 20.00     0.136 C 
HETATM    2  C2  UNL     1     -35.803  14.029  -5.832  1.00 20.00     0.084 C 
HETATM    3  C3  UNL     1     -33.939  16.234  -2.322  1.00 20.00     0.002 C 
HETATM    4  C4  UNL     1     -33.259  15.957  -3.681  1.00 20.00     0.006 C 
HETATM    5  C5  UNL     1     -35.077  16.426  -6.121  1.00 20.00     0.006 C 
HETATM    6  C6  UNL     1     -35.422  15.817  -2.457  1.00 20.00     0.018 C 
HETATM    7  C7  UNL     1     -35.821  16.803  -4.826  1.00 20.00     0.018 C 
HETATM    8  C8  UNL     1     -34.579  14.997  -5.840  1.00 20.00    -0.002 C 
HETATM    9  C9  UNL     1     -34.233  15.014  -4.356  1.00 20.00     0.006 C 
HETATM   10  C10 UNL     1     -35.600  15.567  -3.928  1.00 20.00     0.024 C 
HETATM   11  O11 UNL     1     -37.476  14.012  -4.044  1.00 20.00    -0.297 OA
ENDROOT
TORSDOF 0
ENDMDL
MODEL 5
REMARK VINA RESULT:      -4.7      1.106      3.013
REMARK  0 active torsions:
REMARK  status: ('A' for Active; 'I' for Inactive)
ROOT
HETATM    1  C1  UNL     1     -23.971  18.322   9.773  1.00 20.00     0.136 C 
HETATM    2  C2  UNL     1     -23.215  17.006   9.614  1.00 20.00     0.084 C 
HETATM    3  C3  UNL     1     -26.725  17.981  12.332  1.00 20.00     0.002 C 
HETATM    4  C4  UNL     1     -25.920  16.664  12.332  1.00 20.00     0.006 C 
HETATM    5  C5  UNL     1     -22.873  17.047  12.112  1.00 20.00     0.006 C 
HETATM    6  C6  UNL     1     -25.988  18.970  11.399  1.00 20.00     0.018 C 
HETATM    7  C7  UNL     1     -23.575  18.416  12.182  1.00 20.00     0.018 C 
HETATM    8  C8  UNL     1     -23.608  16.330  10.965  1.00 20.00    -0.002 C 
HETATM    9  C9  UNL     1     -25.050  16.803  11.100  1.00 20.00     0.006 C 
HETATM   10  C10 UNL     1     -24.678  18.293  11.109  1.00 20.00     0.024 C 
HETATM   11  O11 UNL     1     -23.979  19.243   8.973  1.00 20.00    -0.297 OA
ENDROOT
TORSDOF 0
ENDMDL
MODEL 6
REMARK VINA RESULT:      -4.6     17.411     18.624
REMARK  0 active torsions:
REMARK  status: ('A' for Active; 'I' for Inactive)
ROOT
HETATM    1  C1  UNL     1     -34.811  16.205  -5.516  1.00 20.00     0.136 C 
HETATM    2  C2  UNL     1     -36.105  15.397  -5.492  1.00 20.00     0.084 C 
HETATM    3  C3  UNL     1     -33.680  17.022  -2.009  1.00 20.00     0.002 C 
HETATM    4  C4  UNL     1     -34.905  16.090  -1.900  1.00 20.00     0.006 C 
HETATM    5  C5  UNL     1     -34.925  13.790  -3.948  1.00 20.00     0.006 C 
HETATM    6  C6  UNL     1     -33.310  17.123  -3.507  1.00 20.00     0.018 C 
HETATM    7  C7  UNL     1     -33.631  14.612  -4.088  1.00 20.00     0.018 C 
HETATM    8  C8  UNL     1     -36.033  14.857  -4.029  1.00 20.00    -0.002 C 
HETATM    9  C9  UNL     1     -35.433  16.064  -3.319  1.00 20.00     0.006 C 
HETATM   10  C10 UNL     1     -34.150  16.064  -4.163  1.00 20.00     0.024 C 
HETATM   11  O11 UNL     1     -34.376  16.830  -6.468  1.00 20.00    -0.297 OA
ENDROOT
TORSDOF 0
ENDMDL
MODEL 7
REMARK VINA RESULT:      -4.6     18.222     19.481
REMARK  0 active torsions:
REMARK  status: ('A' for Active; 'I' for Inactive)
ROOT
HETATM    1  C1  UNL     1     -35.458  14.038  -4.348  1.00 20.00     0.136 C 
HETATM    2  C2  UNL     1     -35.607  14.813  -3.042  1.00 20.00     0.084 C 
HETATM    3  C3  UNL     1     -34.491  16.347  -7.173  1.00 20.00     0.002 C 
HETATM    4  C4  UNL     1     -34.482  17.173  -5.868  1.00 20.00     0.006 C 
HETATM    5  C5  UNL     1     -33.280  15.696  -3.449  1.00 20.00     0.006 C 
HETATM    6  C6  UNL     1     -34.739  14.872  -6.781  1.00 20.00     0.018 C 
HETATM    7  C7  UNL     1     -33.173  14.820  -4.710  1.00 20.00     0.018 C 
HETATM    8  C8  UNL     1     -34.770  16.079  -3.410  1.00 20.00    -0.002 C 
HETATM    9  C9  UNL     1     -35.147  16.241  -4.877  1.00 20.00     0.006 C 
HETATM   10  C10 UNL     1     -34.605  14.863  -5.284  1.00 20.00     0.024 C 
HETATM   11  O11 UNL     1     -35.924  12.935  -4.582  1.00 20.00    -0.297 OA
ENDROOT
TORSDOF 0
ENDMDL
MODEL 8
REMARK VINA RESULT:      -4.6     16.014     17.374
REMARK  0 active torsions:
REMARK  status: ('A' for Active; 'I' for Inactive)
ROOT
HETATM    1  C1  UNL     1     -33.299  17.411  -1.822  1.00 20.00     0.136 C 
HETATM    2  C2  UNL     1     -34.482  17.748  -0.919  1.00 20.00     0.084 C 
HETATM    3  C3  UNL     1     -34.136  14.520  -4.101  1.00 20.00     0.002 C 
HETATM    4  C4  UNL     1     -35.418  14.893  -3.326  1.00 20.00     0.006 C 
HETATM    5  C5  UNL     1     -35.871  17.922  -3.017  1.00 20.00     0.006 C 
HETATM    6  C6  UNL     1     -33.064  15.579  -3.751  1.00 20.00     0.018 C 
HETATM    7  C7  UNL     1     -34.614  17.659  -3.866  1.00 20.00     0.018 C 
HETATM    8  C8  UNL     1     -35.625  17.083  -1.750  1.00 20.00    -0.002 C 
HETATM    9  C9  UNL     1     -34.904  15.843  -2.265  1.00 20.00     0.006 C 
HETATM   10  C10 UNL     1     -33.827  16.642  -3.013  1.00 20.00     0.024 C 
HETATM   11  O11 UNL     1     -32.138  17.731  -1.629  1.00 20.00    -0.297 OA
ENDROOT
TORSDOF 0
ENDMDL
MODEL 9
REMARK VINA RESULT:      -4.5     18.002     19.387
REMARK  0 active torsions:
REMARK  status: ('A' for Active; 'I' for Inactive)
ROOT
HETATM    1  C1  UNL     1     -33.707  14.420  -4.208  1.00 20.00     0.136 C 
HETATM    2  C2  UNL     1     -33.149  15.690  -3.573  1.00 20.00     0.084 C 
HETATM    3  C3  UNL     1     -37.479  14.517  -4.303  1.00 20.00     0.002 C 
HETATM    4  C4  UNL     1     -36.988  15.886  -3.785  1.00 20.00     0.006 C 
HETATM    5  C5  UNL     1     -34.515  16.979  -5.257  1.00 20.00     0.006 C 
HETATM    6  C6  UNL     1     -36.229  13.710  -4.724  1.00 20.00     0.018 C 
HETATM    7  C7  UNL     1     -34.968  15.654  -5.896  1.00 20.00     0.018 C 
HETATM    8  C8  UNL     1     -34.385  16.625  -3.764  1.00 20.00    -0.002 C 
HETATM    9  C9  UNL     1     -35.518  15.636  -3.521  1.00 20.00     0.006 C 
HETATM   10  C10 UNL     1     -35.112  14.715  -4.680  1.00 20.00     0.024 C 
HETATM   11  O11 UNL     1     -33.111  13.363  -4.334  1.00 20.00    -0.297 OA
ENDROOT
TORSDOF 0
ENDMDL
