MODEL 1
REMARK VINA RESULT:      -4.5      0.000      0.000
REMARK  1 active torsions:
REMARK  status: ('A' for Active; 'I' for Inactive)
REMARK    1  A    between atoms: C3_3  and  C5_5 
ROOT
HETATM    1  C1  UNL     1     -36.972  14.264  -4.375  1.00 20.00     0.221 A 
HETATM    2  C4  UNL     1     -35.577  13.657  -4.145  1.00 20.00     0.138 A 
HETATM    3  C5  UNL     1     -35.040  15.095  -4.395  1.00 20.00     0.060 A 
HETATM    4  C7  UNL     1     -34.264  15.306  -5.684  1.00 20.00     0.044 C 
HETATM    5  N8  UNL     1     -36.436  15.501  -4.552  1.00 20.00    -0.348 N 
HETATM    6  O9  UNL     1     -38.112  13.858  -4.400  1.00 20.00    -0.273 OA
HETATM    7  H20 UNL     1     -36.884  16.383  -4.762  1.00 20.00     0.163 HD
ENDROOT
BRANCH   3   8
HETATM    8  C3  UNL     1     -34.416  15.744  -3.221  1.00 20.00    -0.065 C 
HETATM    9  C2  UNL     1     -35.106  15.992  -2.098  1.00 20.00     0.016 C 
HETATM   10  C6  UNL     1     -32.967  16.107  -3.358  1.00 20.00     0.045 C 
ENDBRANCH   3   8
TORSDOF 1
ENDMDL
MODEL 2
REMARK VINA RESULT:      -4.5      1.327      1.454
REMARK  1 active torsions:
REMARK  status: ('A' for Active; 'I' for Inactive)
REMARK    1  A    between atoms: C3_3  and  C5_5 
ROOT
HETATM    1  C1  UNL     1     -35.354  13.784  -4.253  1.00 20.00     0.221 A 
HETATM    2  C4  UNL     1     -33.926  14.359  -4.269  1.00 20.00     0.138 A 
HETATM    3  C5  UNL     1     -34.602  15.730  -3.984  1.00 20.00     0.060 A 
HETATM    4  C7  UNL     1     -34.563  16.744  -5.113  1.00 20.00     0.044 C 
HETATM    5  N8  UNL     1     -35.874  15.008  -3.972  1.00 20.00    -0.348 N 
HETATM    6  O9  UNL     1     -35.863  12.698  -4.416  1.00 20.00    -0.273 OA
HETATM    7  H20 UNL     1     -36.835  15.294  -3.845  1.00 20.00     0.163 HD
ENDROOT
BRANCH   3   8
HETATM    8  C3  UNL     1     -34.300  16.314  -2.659  1.00 20.00    -0.065 C 
HETATM    9  C2  UNL     1     -35.174  16.258  -1.643  1.00 20.00     0.016 C 
HETATM   10  C6  UNL     1     -32.959  16.972  -2.515  1.00 20.00     0.045 C 
ENDBRANCH   3   8
TORSDOF 1
ENDMDL
MODEL 3
REMARK VINA RESULT:      -4.5     18.058     18.925
REMARK  1 active torsions:
REMARK  status: ('A' for Active; 'I' for Inactive)
REMARK    1  A    between atoms: C3_3  and  C5_5 
ROOT
HETATM    1  C1  UNL     1     -23.283  17.998   8.827  1.00 20.00     0.221 A 
HETATM    2  C4  UNL     1     -23.394  16.733   9.698  1.00 20.00     0.138 A 
HETATM    3  C5  UNL     1     -23.576  17.714  10.891  1.00 20.00     0.060 A 
HETATM    4  C7  UNL     1     -22.431  17.778  11.886  1.00 20.00     0.044 C 
HETATM    5  N8  UNL     1     -23.480  18.795   9.911  1.00 20.00    -0.348 N 
HETATM    6  O9  UNL     1     -23.097  18.242   7.657  1.00 20.00    -0.273 OA
HETATM    7  H20 UNL     1     -23.503  19.803   9.982  1.00 20.00     0.163 HD
ENDROOT
BRANCH   3   8
HETATM    8  C3  UNL     1     -24.909  17.682  11.531  1.00 20.00    -0.065 C 
HETATM    9  C2  UNL     1     -25.730  18.742  11.514  1.00 20.00     0.016 C 
HETATM   10  C6  UNL     1     -25.293  16.393  12.198  1.00 20.00     0.045 C 
ENDBRANCH   3   8
TORSDOF 1
ENDMDL
MODEL 4
REMARK VINA RESULT:      -4.4      1.245      1.625
REMARK  1 active torsions:
REMARK  status: ('A' for Active; 'I' for Inactive)
REMARK    1  A    between atoms: C3_3  and  C5_5 
ROOT
HETATM    1  C1  UNL     1     -37.079  14.451  -4.389  1.00 20.00     0.221 A 
HETATM    2  C4  UNL     1     -35.969  14.821  -5.390  1.00 20.00     0.138 A 
HETATM    3  C5  UNL     1     -35.493  15.831  -4.308  1.00 20.00     0.060 A 
HETATM    4  C7  UNL     1     -35.685  17.302  -4.635  1.00 20.00     0.044 C 
HETATM    5  N8  UNL     1     -36.588  15.333  -3.477  1.00 20.00    -0.348 N 
HETATM    6  O9  UNL     1     -38.024  13.696  -4.368  1.00 20.00    -0.273 OA
HETATM    7  H20 UNL     1     -36.924  15.568  -2.553  1.00 20.00     0.163 HD
ENDROOT
BRANCH   3   8
HETATM    8  C3  UNL     1     -34.177  15.530  -3.705  1.00 20.00    -0.065 C 
HETATM    9  C2  UNL     1     -33.331  14.645  -4.254  1.00 20.00     0.016 C 
HETATM   10  C6  UNL     1     -33.840  16.271  -2.445  1.00 20.00     0.045 C 
ENDBRANCH   3   8
TORSDOF 1
ENDMDL
MODEL 5
REMARK VINA RESULT:      -4.3     10.034     11.531
REMARK  1 active torsions:
REMARK  status: ('A' for Active; 'I' for Inactive)
REMARK    1  A    between atoms: C3_3  and  C5_5 
ROOT
HETATM    1  C1  UNL     1     -41.821   8.996   0.294  1.00 20.00     0.221 A 
HETATM    2  C4  UNL     1     -41.185   7.675   0.761  1.00 20.00     0.138 A 
HETATM    3  C5  UNL     1     -42.510   7.009   0.292  1.00 20.00     0.060 A 
HETATM    4  C7  UNL     1     -43.411   6.465   1.387  1.00 20.00     0.044 C 
HETATM    5  N8  UNL     1     -42.938   8.344  -0.124  1.00 20.00    -0.348 N 
HETATM    6  O9  UNL     1     -41.504  10.164   0.278  1.00 20.00    -0.273 OA
HETATM    7  H20 UNL     1     -43.785   8.704  -0.543  1.00 20.00     0.163 HD
ENDROOT
BRANCH   3   8
HETATM    8  C3  UNL     1     -42.378   6.098  -0.866  1.00 20.00    -0.065 C 
HETATM    9  C2  UNL     1     -43.407   5.838  -1.685  1.00 20.00     0.016 C 
HETATM   10  C6  UNL     1     -41.025   5.483  -1.073  1.00 20.00     0.045 C 
ENDBRANCH   3   8
TORSDOF 1
ENDMDL
MODEL 6
REMARK VINA RESULT:      -4.3     18.508     19.665
REMARK  1 active torsions:
REMARK  status: ('A' for Active; 'I' for Inactive)
REMARK    1  A    between atoms: C3_3  and  C5_5 
ROOT
HETATM    1  C1  UNL     1     -24.619  16.591  11.978  1.00 20.00     0.221 A 
HETATM    2  C4  UNL     1     -24.297  18.096  11.975  1.00 20.00     0.138 A 
HETATM    3  C5  UNL     1     -22.917  17.679  11.390  1.00 20.00     0.060 A 
HETATM    4  C7  UNL     1     -21.719  17.860  12.305  1.00 20.00     0.044 C 
HETATM    5  N8  UNL     1     -23.406  16.302  11.435  1.00 20.00    -0.348 N 
HETATM    6  O9  UNL     1     -25.551  15.895  12.311  1.00 20.00    -0.273 OA
HETATM    7  H20 UNL     1     -22.996  15.409  11.194  1.00 20.00     0.163 HD
ENDROOT
BRANCH   3   8
HETATM    8  C3  UNL     1     -22.667  18.119  10.001  1.00 20.00    -0.065 C 
HETATM    9  C2  UNL     1     -23.614  18.721   9.266  1.00 20.00     0.016 C 
HETATM   10  C6  UNL     1     -21.293  17.856   9.459  1.00 20.00     0.045 C 
ENDBRANCH   3   8
TORSDOF 1
ENDMDL
MODEL 7
REMARK VINA RESULT:      -4.2      1.363      1.455
REMARK  1 active torsions:
REMARK  status: ('A' for Active; 'I' for Inactive)
REMARK    1  A    between atoms: C3_3  and  C5_5 
ROOT
HETATM    1  C1  UNL     1     -35.715  14.663  -5.296  1.00 20.00     0.221 A 
HETATM    2  C4  UNL     1     -35.224  13.962  -4.017  1.00 20.00     0.138 A 
HETATM    3  C5  UNL     1     -34.078  15.013  -4.022  1.00 20.00     0.060 A 
HETATM    4  C7  UNL     1     -32.688  14.486  -4.331  1.00 20.00     0.044 C 
HETATM    5  N8  UNL     1     -34.704  15.570  -5.221  1.00 20.00    -0.348 N 
HETATM    6  O9  UNL     1     -36.620  14.514  -6.085  1.00 20.00    -0.273 OA
HETATM    7  H20 UNL     1     -34.471  16.338  -5.835  1.00 20.00     0.163 HD
ENDROOT
BRANCH   3   8
HETATM    8  C3  UNL     1     -34.105  15.976  -2.900  1.00 20.00    -0.065 C 
HETATM    9  C2  UNL     1     -35.119  16.015  -2.023  1.00 20.00     0.016 C 
HETATM   10  C6  UNL     1     -32.934  16.908  -2.798  1.00 20.00     0.045 C 
ENDBRANCH   3   8
TORSDOF 1
ENDMDL
MODEL 8
REMARK VINA RESULT:      -4.1     10.416     11.880
REMARK  1 active torsions:
REMARK  status: ('A' for Active; 'I' for Inactive)
REMARK    1  A    between atoms: C3_3  and  C5_5 
ROOT
HETATM    1  C1  UNL     1     -41.560   8.482   0.304  1.00 20.00     0.221 A 
HETATM    2  C4  UNL     1     -42.368   7.746  -0.780  1.00 20.00     0.138 A 
HETATM    3  C5  UNL     1     -41.866   6.440  -0.100  1.00 20.00     0.060 A 
HETATM    4  C7  UNL     1     -40.866   5.615  -0.890  1.00 20.00     0.044 C 
HETATM    5  N8  UNL     1     -41.185   7.302   0.866  1.00 20.00    -0.348 N 
HETATM    6  O9  UNL     1     -41.321   9.633   0.588  1.00 20.00    -0.273 OA
HETATM    7  H20 UNL     1     -40.595   7.120   1.666  1.00 20.00     0.163 HD
ENDROOT
BRANCH   3   8
HETATM    8  C3  UNL     1     -42.918   5.627   0.548  1.00 20.00    -0.065 C 
HETATM    9  C2  UNL     1     -43.400   5.928   1.763  1.00 20.00     0.016 C 
HETATM   10  C6  UNL     1     -43.417   4.447  -0.232  1.00 20.00     0.045 C 
ENDBRANCH   3   8
TORSDOF 1
ENDMDL
MODEL 9
REMARK VINA RESULT:      -4.1     17.491     18.630
REMARK  1 active torsions:
REMARK  status: ('A' for Active; 'I' for Inactive)
REMARK    1  A    between atoms: C3_3  and  C5_5 
ROOT
HETATM    1  C1  UNL     1     -24.198  16.365  11.399  1.00 20.00     0.221 A 
HETATM    2  C4  UNL     1     -23.899  17.862  11.596  1.00 20.00     0.138 A 
HETATM    3  C5  UNL     1     -23.440  17.845  10.110  1.00 20.00     0.060 A 
HETATM    4  C7  UNL     1     -21.951  18.019   9.867  1.00 20.00     0.044 C 
HETATM    5  N8  UNL     1     -23.811  16.431  10.097  1.00 20.00    -0.348 N 
HETATM    6  O9  UNL     1     -24.609  15.456  12.083  1.00 20.00    -0.273 OA
HETATM    7  H20 UNL     1     -23.769  15.707   9.393  1.00 20.00     0.163 HD
ENDROOT
BRANCH   3   8
HETATM    8  C3  UNL     1     -24.283  18.634   9.186  1.00 20.00    -0.065 C 
HETATM    9  C2  UNL     1     -25.401  19.251   9.596  1.00 20.00     0.016 C 
HETATM   10  C6  UNL     1     -23.815  18.706   7.762  1.00 20.00     0.045 C 
ENDBRANCH   3   8
TORSDOF 1
ENDMDL
