MODEL 1
REMARK VINA RESULT:      -5.0      0.000      0.000
REMARK  0 active torsions:
REMARK  status: ('A' for Active; 'I' for Inactive)
ROOT
HETATM    1  C1  UNL     1     -36.333  13.993  -4.655  1.00 20.00     0.272 A 
HETATM    2  C2  UNL     1     -34.415  14.542  -5.716  1.00 20.00     0.272 A 
HETATM    3  C3  UNL     1     -35.430  14.454  -3.581  1.00 20.00     0.109 A 
HETATM    4  C4  UNL     1     -34.148  14.820  -4.291  1.00 20.00     0.109 A 
HETATM    5  C5  UNL     1     -34.899  15.867  -3.501  1.00 20.00    -0.021 A 
HETATM    6  C6  UNL     1     -35.618  16.980  -4.223  1.00 20.00     0.016 C 
HETATM    7  C7  UNL     1     -34.297  16.300  -2.187  1.00 20.00     0.016 C 
HETATM    8  O8  UNL     1     -37.479  13.617  -4.469  1.00 20.00    -0.264 OA
HETATM    9  O9  UNL     1     -33.607  14.724  -6.612  1.00 20.00    -0.264 OA
HETATM   10  O10 UNL     1     -35.686  14.047  -5.863  1.00 20.00    -0.244 OA
ENDROOT
TORSDOF 0
ENDMDL
MODEL 2
REMARK VINA RESULT:      -4.9      1.220      2.417
REMARK  0 active torsions:
REMARK  status: ('A' for Active; 'I' for Inactive)
ROOT
HETATM    1  C1  UNL     1     -35.409  15.504  -5.943  1.00 20.00     0.272 A 
HETATM    2  C2  UNL     1     -35.708  13.642  -4.696  1.00 20.00     0.272 A 
HETATM    3  C3  UNL     1     -35.332  15.973  -4.545  1.00 20.00     0.109 A 
HETATM    4  C4  UNL     1     -35.532  14.728  -3.712  1.00 20.00     0.109 A 
HETATM    5  C5  UNL     1     -34.254  15.526  -3.584  1.00 20.00    -0.021 A 
HETATM    6  C6  UNL     1     -32.961  14.961  -4.117  1.00 20.00     0.016 C 
HETATM    7  C7  UNL     1     -34.075  16.340  -2.326  1.00 20.00     0.016 C 
HETATM    8  O8  UNL     1     -35.285  16.230  -6.915  1.00 20.00    -0.264 OA
HETATM    9  O9  UNL     1     -35.888  12.473  -4.399  1.00 20.00    -0.264 OA
HETATM   10  O10 UNL     1     -35.648  14.153  -5.967  1.00 20.00    -0.244 OA
ENDROOT
TORSDOF 0
ENDMDL
MODEL 3
REMARK VINA RESULT:      -4.7      1.389      1.533
REMARK  0 active torsions:
REMARK  status: ('A' for Active; 'I' for Inactive)
ROOT
HETATM    1  C1  UNL     1     -36.631  14.050  -4.257  1.00 20.00     0.272 A 
HETATM    2  C2  UNL     1     -34.382  13.848  -4.160  1.00 20.00     0.272 A 
HETATM    3  C3  UNL     1     -36.174  15.280  -3.579  1.00 20.00     0.109 A 
HETATM    4  C4  UNL     1     -34.670  15.144  -3.514  1.00 20.00     0.109 A 
HETATM    5  C5  UNL     1     -35.292  16.310  -4.248  1.00 20.00    -0.021 A 
HETATM    6  C6  UNL     1     -35.222  16.373  -5.753  1.00 20.00     0.016 C 
HETATM    7  C7  UNL     1     -35.199  17.664  -3.590  1.00 20.00     0.016 C 
HETATM    8  O8  UNL     1     -37.800  13.800  -4.501  1.00 20.00    -0.264 OA
HETATM    9  O9  UNL     1     -33.261  13.390  -4.306  1.00 20.00    -0.264 OA
HETATM   10  O10 UNL     1     -35.554  13.253  -4.550  1.00 20.00    -0.244 OA
ENDROOT
TORSDOF 0
ENDMDL
MODEL 4
REMARK VINA RESULT:      -4.7      1.570      1.965
REMARK  0 active torsions:
REMARK  status: ('A' for Active; 'I' for Inactive)
ROOT
HETATM    1  C1  UNL     1     -35.823  13.681  -4.614  1.00 20.00     0.272 A 
HETATM    2  C2  UNL     1     -36.353  15.743  -5.372  1.00 20.00     0.272 A 
HETATM    3  C3  UNL     1     -34.572  14.457  -4.492  1.00 20.00     0.109 A 
HETATM    4  C4  UNL     1     -34.928  15.836  -4.999  1.00 20.00     0.109 A 
HETATM    5  C5  UNL     1     -34.433  15.657  -3.582  1.00 20.00    -0.021 A 
HETATM    6  C6  UNL     1     -35.386  15.836  -2.426  1.00 20.00     0.016 C 
HETATM    7  C7  UNL     1     -33.033  16.128  -3.278  1.00 20.00     0.016 C 
HETATM    8  O8  UNL     1     -35.933  12.510  -4.290  1.00 20.00    -0.264 OA
HETATM    9  O9  UNL     1     -37.005  16.671  -5.820  1.00 20.00    -0.264 OA
HETATM   10  O10 UNL     1     -36.810  14.469  -5.147  1.00 20.00    -0.244 OA
ENDROOT
TORSDOF 0
ENDMDL
MODEL 5
REMARK VINA RESULT:      -4.6      1.557      2.200
REMARK  0 active torsions:
REMARK  status: ('A' for Active; 'I' for Inactive)
ROOT
HETATM    1  C1  UNL     1     -34.625  14.107  -4.185  1.00 20.00     0.272 A 
HETATM    2  C2  UNL     1     -35.583  15.999  -4.966  1.00 20.00     0.272 A 
HETATM    3  C3  UNL     1     -33.672  15.180  -3.837  1.00 20.00     0.109 A 
HETATM    4  C4  UNL     1     -34.314  16.445  -4.359  1.00 20.00     0.109 A 
HETATM    5  C5  UNL     1     -34.010  16.306  -2.885  1.00 20.00    -0.021 A 
HETATM    6  C6  UNL     1     -35.140  16.139  -1.898  1.00 20.00     0.016 C 
HETATM    7  C7  UNL     1     -32.858  17.113  -2.341  1.00 20.00     0.016 C 
HETATM    8  O8  UNL     1     -34.455  12.929  -3.914  1.00 20.00    -0.264 OA
HETATM    9  O9  UNL     1     -36.391  16.747  -5.491  1.00 20.00    -0.264 OA
HETATM   10  O10 UNL     1     -35.699  14.637  -4.853  1.00 20.00    -0.244 OA
ENDROOT
TORSDOF 0
ENDMDL
MODEL 6
REMARK VINA RESULT:      -4.6      1.848      2.511
REMARK  0 active torsions:
REMARK  status: ('A' for Active; 'I' for Inactive)
ROOT
HETATM    1  C1  UNL     1     -34.557  16.294  -5.288  1.00 20.00     0.272 A 
HETATM    2  C2  UNL     1     -33.770  14.369  -4.403  1.00 20.00     0.272 A 
HETATM    3  C3  UNL     1     -35.173  16.219  -3.949  1.00 20.00     0.109 A 
HETATM    4  C4  UNL     1     -34.647  14.932  -3.357  1.00 20.00     0.109 A 
HETATM    5  C5  UNL     1     -34.368  16.249  -2.669  1.00 20.00    -0.021 A 
HETATM    6  C6  UNL     1     -32.971  16.818  -2.674  1.00 20.00     0.016 C 
HETATM    7  C7  UNL     1     -35.121  16.529  -1.392  1.00 20.00     0.016 C 
HETATM    8  O8  UNL     1     -34.739  17.209  -6.074  1.00 20.00    -0.264 OA
HETATM    9  O9  UNL     1     -33.151  13.324  -4.287  1.00 20.00    -0.264 OA
HETATM   10  O10 UNL     1     -33.773  15.188  -5.503  1.00 20.00    -0.244 OA
ENDROOT
TORSDOF 0
ENDMDL
MODEL 7
REMARK VINA RESULT:      -4.5      1.254      2.731
REMARK  0 active torsions:
REMARK  status: ('A' for Active; 'I' for Inactive)
ROOT
HETATM    1  C1  UNL     1     -34.083  14.133  -4.450  1.00 20.00     0.272 A 
HETATM    2  C2  UNL     1     -36.343  14.128  -4.431  1.00 20.00     0.272 A 
HETATM    3  C3  UNL     1     -34.462  15.543  -4.669  1.00 20.00     0.109 A 
HETATM    4  C4  UNL     1     -35.973  15.539  -4.656  1.00 20.00     0.109 A 
HETATM    5  C5  UNL     1     -35.212  16.363  -3.643  1.00 20.00    -0.021 A 
HETATM    6  C6  UNL     1     -35.198  15.945  -2.193  1.00 20.00     0.016 C 
HETATM    7  C7  UNL     1     -35.216  17.860  -3.832  1.00 20.00     0.016 C 
HETATM    8  O8  UNL     1     -32.930  13.737  -4.389  1.00 20.00    -0.264 OA
HETATM    9  O9  UNL     1     -37.492  13.726  -4.350  1.00 20.00    -0.264 OA
HETATM   10  O10 UNL     1     -35.211  13.359  -4.340  1.00 20.00    -0.244 OA
ENDROOT
TORSDOF 0
ENDMDL
MODEL 8
REMARK VINA RESULT:      -4.5      1.581      2.177
REMARK  0 active torsions:
REMARK  status: ('A' for Active; 'I' for Inactive)
ROOT
HETATM    1  C1  UNL     1     -36.999  15.770  -4.504  1.00 20.00     0.272 A 
HETATM    2  C2  UNL     1     -36.077  13.710  -4.391  1.00 20.00     0.272 A 
HETATM    3  C3  UNL     1     -35.855  15.922  -3.583  1.00 20.00     0.109 A 
HETATM    4  C4  UNL     1     -35.239  14.544  -3.508  1.00 20.00     0.109 A 
HETATM    5  C5  UNL     1     -34.420  15.712  -4.010  1.00 20.00    -0.021 A 
HETATM    6  C6  UNL     1     -34.052  15.797  -5.471  1.00 20.00     0.016 C 
HETATM    7  C7  UNL     1     -33.346  16.243  -3.093  1.00 20.00     0.016 C 
HETATM    8  O8  UNL     1     -37.745  16.681  -4.823  1.00 20.00    -0.264 OA
HETATM    9  O9  UNL     1     -35.883  12.523  -4.597  1.00 20.00    -0.264 OA
HETATM   10  O10 UNL     1     -37.089  14.467  -4.923  1.00 20.00    -0.244 OA
ENDROOT
TORSDOF 0
ENDMDL
MODEL 9
REMARK VINA RESULT:      -4.4     18.309     19.660
REMARK  0 active torsions:
REMARK  status: ('A' for Active; 'I' for Inactive)
ROOT
HETATM    1  C1  UNL     1     -23.632  17.981   9.633  1.00 20.00     0.272 A 
HETATM    2  C2  UNL     1     -22.388  17.695  11.499  1.00 20.00     0.272 A 
HETATM    3  C3  UNL     1     -24.379  16.989  10.433  1.00 20.00     0.109 A 
HETATM    4  C4  UNL     1     -23.547  16.799  11.680  1.00 20.00     0.109 A 
HETATM    5  C5  UNL     1     -24.969  17.301  11.790  1.00 20.00    -0.021 A 
HETATM    6  C6  UNL     1     -25.230  18.734  12.183  1.00 20.00     0.016 C 
HETATM    7  C7  UNL     1     -25.998  16.338  12.328  1.00 20.00     0.016 C 
HETATM    8  O8  UNL     1     -24.000  18.399   8.548  1.00 20.00    -0.264 OA
HETATM    9  O9  UNL     1     -21.489  17.825  12.313  1.00 20.00    -0.264 OA
HETATM   10  O10 UNL     1     -22.482  18.337  10.290  1.00 20.00    -0.244 OA
ENDROOT
TORSDOF 0
ENDMDL
