MODEL 1
REMARK VINA RESULT:      -3.8      0.000      0.000
REMARK  0 active torsions:
REMARK  status: ('A' for Active; 'I' for Inactive)
ROOT
HETATM    1  C1  UNL     1     -34.823   5.322   5.633  1.00 20.00    -0.019 C 
HETATM    2  C2  UNL     1     -34.784   4.700   4.452  1.00 20.00     0.080 C 
HETATM    3  C3  UNL     1     -34.062   6.571   5.931  1.00 20.00     0.037 C 
HETATM    4 CL4  UNL     1     -33.850   5.263   3.130  1.00 20.00    -0.097 Cl
ENDROOT
TORSDOF 0
ENDMDL
MODEL 2
REMARK VINA RESULT:      -3.6      1.793      2.385
REMARK  0 active torsions:
REMARK  status: ('A' for Active; 'I' for Inactive)
ROOT
HETATM    1  C1  UNL     1     -34.810   4.709   4.542  1.00 20.00    -0.019 C 
HETATM    2  C2  UNL     1     -34.820   5.330   5.724  1.00 20.00     0.080 C 
HETATM    3  C3  UNL     1     -34.029   5.192   3.365  1.00 20.00     0.037 C 
HETATM    4 CL4  UNL     1     -33.935   6.764   6.034  1.00 20.00    -0.097 Cl
ENDROOT
TORSDOF 0
ENDMDL
MODEL 3
REMARK VINA RESULT:      -3.4      1.019      1.488
REMARK  0 active torsions:
REMARK  status: ('A' for Active; 'I' for Inactive)
ROOT
HETATM    1  C1  UNL     1     -34.155   6.502   5.313  1.00 20.00    -0.019 C 
HETATM    2  C2  UNL     1     -33.699   6.548   4.059  1.00 20.00     0.080 C 
HETATM    3  C3  UNL     1     -34.756   5.281   5.927  1.00 20.00     0.037 C 
HETATM    4 CL4  UNL     1     -33.751   5.204   2.997  1.00 20.00    -0.097 Cl
ENDROOT
TORSDOF 0
ENDMDL
MODEL 4
REMARK VINA RESULT:      -3.3      2.096      2.341
REMARK  0 active torsions:
REMARK  status: ('A' for Active; 'I' for Inactive)
ROOT
HETATM    1  C1  UNL     1     -34.082   5.249   3.359  1.00 20.00    -0.019 C 
HETATM    2  C2  UNL     1     -34.744   4.826   4.438  1.00 20.00     0.080 C 
HETATM    3  C3  UNL     1     -33.228   6.473   3.344  1.00 20.00     0.037 C 
HETATM    4 CL4  UNL     1     -34.695   5.643   5.944  1.00 20.00    -0.097 Cl
ENDROOT
TORSDOF 0
ENDMDL
MODEL 5
REMARK VINA RESULT:      -3.1      1.481      2.035
REMARK  0 active torsions:
REMARK  status: ('A' for Active; 'I' for Inactive)
ROOT
HETATM    1  C1  UNL     1     -34.357   4.473   3.632  1.00 20.00    -0.019 C 
HETATM    2  C2  UNL     1     -33.430   4.935   2.789  1.00 20.00     0.080 C 
HETATM    3  C3  UNL     1     -35.072   5.332   4.621  1.00 20.00     0.037 C 
HETATM    4 CL4  UNL     1     -32.946   6.579   2.743  1.00 20.00    -0.097 Cl
ENDROOT
TORSDOF 0
ENDMDL
MODEL 6
REMARK VINA RESULT:      -3.1      2.200      2.833
REMARK  0 active torsions:
REMARK  status: ('A' for Active; 'I' for Inactive)
ROOT
HETATM    1  C1  UNL     1     -33.358   6.306   3.307  1.00 20.00    -0.019 C 
HETATM    2  C2  UNL     1     -34.024   6.493   4.449  1.00 20.00     0.080 C 
HETATM    3  C3  UNL     1     -33.345   5.012   2.563  1.00 20.00     0.037 C 
HETATM    4 CL4  UNL     1     -34.949   5.263   5.203  1.00 20.00    -0.097 Cl
ENDROOT
TORSDOF 0
ENDMDL
MODEL 7
REMARK VINA RESULT:      -2.6      8.503      8.695
REMARK  0 active torsions:
REMARK  status: ('A' for Active; 'I' for Inactive)
ROOT
HETATM    1  C1  UNL     1     -41.613   7.485   0.627  1.00 20.00    -0.019 C 
HETATM    2  C2  UNL     1     -41.481   6.176   0.399  1.00 20.00     0.080 C 
HETATM    3  C3  UNL     1     -41.271   8.534  -0.378  1.00 20.00     0.037 C 
HETATM    4 CL4  UNL     1     -40.898   5.540  -1.082  1.00 20.00    -0.097 Cl
ENDROOT
TORSDOF 0
ENDMDL
MODEL 8
REMARK VINA RESULT:      -2.6      8.657      8.874
REMARK  0 active torsions:
REMARK  status: ('A' for Active; 'I' for Inactive)
ROOT
HETATM    1  C1  UNL     1     -41.491   6.084   0.339  1.00 20.00    -0.019 C 
HETATM    2  C2  UNL     1     -41.603   7.378   0.650  1.00 20.00     0.080 C 
HETATM    3  C3  UNL     1     -40.970   5.593  -0.970  1.00 20.00     0.037 C 
HETATM    4 CL4  UNL     1     -41.162   8.637  -0.425  1.00 20.00    -0.097 Cl
ENDROOT
TORSDOF 0
ENDMDL
MODEL 9
REMARK VINA RESULT:      -2.5      3.506      3.733
REMARK  0 active torsions:
REMARK  status: ('A' for Active; 'I' for Inactive)
ROOT
HETATM    1  C1  UNL     1     -32.517   7.581   2.596  1.00 20.00    -0.019 C 
HETATM    2  C2  UNL     1     -32.916   6.472   3.223  1.00 20.00     0.080 C 
HETATM    3  C3  UNL     1     -32.436   7.703   1.111  1.00 20.00     0.037 C 
HETATM    4 CL4  UNL     1     -33.384   5.047   2.394  1.00 20.00    -0.097 Cl
ENDROOT
TORSDOF 0
ENDMDL
