MODEL 1
REMARK VINA RESULT:      -3.8      0.000      0.000
REMARK  1 active torsions:
REMARK  status: ('A' for Active; 'I' for Inactive)
REMARK    1  A    between atoms: C7_7  and  N9_9 
ROOT
HETATM    1  C1  UNL     1     -32.837  17.253  -3.105  1.00 20.00     0.031 C 
HETATM    2  C4  UNL     1     -33.359  17.464  -1.688  1.00 20.00     0.019 C 
HETATM    3  C5  UNL     1     -33.251  15.886  -3.654  1.00 20.00     0.273 C 
HETATM    4  C6  UNL     1     -35.213  15.834  -2.226  1.00 20.00     0.288 C 
HETATM    5  C8  UNL     1     -34.859  17.202  -1.645  1.00 20.00     0.086 C 
HETATM    6  N9  UNL     1     -34.709  15.706  -3.603  1.00 20.00     0.094 N 
HETATM    7 BR10 UNL     1     -35.479  17.300   0.207  1.00 20.00    -0.089 Br
ENDROOT
BRANCH   6   8
HETATM    8  C7  UNL     1     -35.119  14.415  -4.214  1.00 20.00     0.223 A 
HETATM    9  C2  UNL     1     -36.574  14.062  -4.343  1.00 20.00     0.038 A 
HETATM   10  C3  UNL     1     -35.771  14.385  -5.568  1.00 20.00     0.038 A 
ENDBRANCH   6   8
TORSDOF 1
ENDMDL
MODEL 2
REMARK VINA RESULT:      -3.7     16.462     17.280
REMARK  1 active torsions:
REMARK  status: ('A' for Active; 'I' for Inactive)
REMARK    1  A    between atoms: C7_7  and  N9_9 
ROOT
HETATM    1  C1  UNL     1     -24.458  15.882  11.586  1.00 20.00     0.031 C 
HETATM    2  C4  UNL     1     -23.466  16.723  10.790  1.00 20.00     0.019 C 
HETATM    3  C5  UNL     1     -25.463  16.762  12.332  1.00 20.00     0.273 C 
HETATM    4  C6  UNL     1     -25.222  18.537  10.694  1.00 20.00     0.288 C 
HETATM    5  C8  UNL     1     -24.218  17.703   9.899  1.00 20.00     0.086 C 
HETATM    6  N9  UNL     1     -26.167  17.668  11.413  1.00 20.00     0.094 N 
HETATM    7 BR10 UNL     1     -22.938  18.893   9.023  1.00 20.00    -0.089 Br
ENDROOT
BRANCH   6   8
HETATM    8  C7  UNL     1     -27.204  18.462  12.123  1.00 20.00     0.223 A 
HETATM    9  C2  UNL     1     -28.280  19.171  11.350  1.00 20.00     0.038 A 
HETATM   10  C3  UNL     1     -28.625  17.976  12.189  1.00 20.00     0.038 A 
ENDBRANCH   6   8
TORSDOF 1
ENDMDL
MODEL 3
REMARK VINA RESULT:      -3.7      2.776      4.713
REMARK  1 active torsions:
REMARK  status: ('A' for Active; 'I' for Inactive)
REMARK    1  A    between atoms: C7_7  and  N9_9 
ROOT
HETATM    1  C1  UNL     1     -36.278  14.022  -5.078  1.00 20.00     0.031 C 
HETATM    2  C4  UNL     1     -35.673  14.516  -6.388  1.00 20.00     0.019 C 
HETATM    3  C5  UNL     1     -35.321  14.242  -3.905  1.00 20.00     0.273 C 
HETATM    4  C6  UNL     1     -34.268  16.118  -5.030  1.00 20.00     0.288 C 
HETATM    5  C8  UNL     1     -35.201  15.955  -6.229  1.00 20.00     0.086 C 
HETATM    6  N9  UNL     1     -34.921  15.652  -3.795  1.00 20.00     0.094 N 
HETATM    7 BR10 UNL     1     -34.269  16.512  -7.854  1.00 20.00    -0.089 Br
ENDROOT
BRANCH   6   8
HETATM    8  C7  UNL     1     -34.061  15.882  -2.606  1.00 20.00     0.223 A 
HETATM    9  C2  UNL     1     -33.174  17.093  -2.531  1.00 20.00     0.038 A 
HETATM   10  C3  UNL     1     -34.376  16.990  -1.639  1.00 20.00     0.038 A 
ENDBRANCH   6   8
TORSDOF 1
ENDMDL
MODEL 4
REMARK VINA RESULT:      -3.6      2.246      4.065
REMARK  1 active torsions:
REMARK  status: ('A' for Active; 'I' for Inactive)
REMARK    1  A    between atoms: C7_7  and  N9_9 
ROOT
HETATM    1  C1  UNL     1     -32.755  15.549  -3.638  1.00 20.00     0.031 C 
HETATM    2  C4  UNL     1     -33.886  14.908  -4.438  1.00 20.00     0.019 C 
HETATM    3  C5  UNL     1     -33.245  16.773  -2.864  1.00 20.00     0.273 C 
HETATM    4  C6  UNL     1     -35.503  15.888  -2.762  1.00 20.00     0.288 C 
HETATM    5  C8  UNL     1     -35.074  14.635  -3.525  1.00 20.00     0.086 C 
HETATM    6  N9  UNL     1     -34.377  16.438  -1.989  1.00 20.00     0.094 N 
HETATM    7 BR10 UNL     1     -36.574  13.984  -4.596  1.00 20.00    -0.089 Br
ENDROOT
BRANCH   6   8
HETATM    8  C7  UNL     1     -34.798  17.606  -1.173  1.00 20.00     0.223 A 
HETATM    9  C2  UNL     1     -35.781  17.435  -0.049  1.00 20.00     0.038 A 
HETATM   10  C3  UNL     1     -34.344  17.744   0.254  1.00 20.00     0.038 A 
ENDBRANCH   6   8
TORSDOF 1
ENDMDL
MODEL 5
REMARK VINA RESULT:      -3.5      1.861      2.781
REMARK  1 active torsions:
REMARK  status: ('A' for Active; 'I' for Inactive)
REMARK    1  A    between atoms: C7_7  and  N9_9 
ROOT
HETATM    1  C1  UNL     1     -35.558  17.275  -0.477  1.00 20.00     0.031 C 
HETATM    2  C4  UNL     1     -34.478  18.335  -0.287  1.00 20.00     0.019 C 
HETATM    3  C5  UNL     1     -35.582  16.755  -1.915  1.00 20.00     0.273 C 
HETATM    4  C6  UNL     1     -33.229  17.277  -2.212  1.00 20.00     0.288 C 
HETATM    5  C8  UNL     1     -33.139  17.802  -0.780  1.00 20.00     0.086 C 
HETATM    6  N9  UNL     1     -34.266  16.238  -2.321  1.00 20.00     0.094 N 
HETATM    7 BR10 UNL     1     -31.806  19.231  -0.698  1.00 20.00    -0.089 Br
ENDROOT
BRANCH   6   8
HETATM    8  C7  UNL     1     -34.310  15.654  -3.687  1.00 20.00     0.223 A 
HETATM    9  C2  UNL     1     -33.145  14.862  -4.213  1.00 20.00     0.038 A 
HETATM   10  C3  UNL     1     -34.432  14.168  -3.877  1.00 20.00     0.038 A 
ENDBRANCH   6   8
TORSDOF 1
ENDMDL
MODEL 6
REMARK VINA RESULT:      -3.4      2.083      2.506
REMARK  1 active torsions:
REMARK  status: ('A' for Active; 'I' for Inactive)
REMARK    1  A    between atoms: C7_7  and  N9_9 
ROOT
HETATM    1  C1  UNL     1     -33.304  15.977  -3.099  1.00 20.00     0.031 C 
HETATM    2  C4  UNL     1     -34.621  16.472  -2.510  1.00 20.00     0.019 C 
HETATM    3  C5  UNL     1     -33.539  15.088  -4.321  1.00 20.00     0.273 C 
HETATM    4  C6  UNL     1     -35.645  16.195  -4.804  1.00 20.00     0.288 C 
HETATM    5  C8  UNL     1     -35.463  17.121  -3.601  1.00 20.00     0.086 C 
HETATM    6  N9  UNL     1     -34.339  15.779  -5.342  1.00 20.00     0.094 N 
HETATM    7 BR10 UNL     1     -37.216  17.586  -2.872  1.00 20.00    -0.089 Br
ENDROOT
BRANCH   6   8
HETATM    8  C7  UNL     1     -34.496  14.948  -6.564  1.00 20.00     0.223 A 
HETATM    9  C2  UNL     1     -35.468  15.350  -7.638  1.00 20.00     0.038 A 
HETATM   10  C3  UNL     1     -33.992  15.442  -7.892  1.00 20.00     0.038 A 
ENDBRANCH   6   8
TORSDOF 1
ENDMDL
MODEL 7
REMARK VINA RESULT:      -3.4      2.398      3.119
REMARK  1 active torsions:
REMARK  status: ('A' for Active; 'I' for Inactive)
REMARK    1  A    between atoms: C7_7  and  N9_9 
ROOT
HETATM    1  C1  UNL     1     -35.055  15.120  -3.026  1.00 20.00     0.031 C 
HETATM    2  C4  UNL     1     -34.373  16.229  -2.231  1.00 20.00     0.019 C 
HETATM    3  C5  UNL     1     -35.583  15.638  -4.364  1.00 20.00     0.273 C 
HETATM    4  C6  UNL     1     -33.901  17.387  -4.426  1.00 20.00     0.288 C 
HETATM    5  C8  UNL     1     -33.320  16.912  -3.094  1.00 20.00     0.086 C 
HETATM    6  N9  UNL     1     -34.515  16.267  -5.156  1.00 20.00     0.094 N 
HETATM    7 BR10 UNL     1     -32.585  18.442  -2.126  1.00 20.00    -0.089 Br
ENDROOT
BRANCH   6   8
HETATM    8  C7  UNL     1     -35.008  16.693  -6.491  1.00 20.00     0.223 A 
HETATM    9  C2  UNL     1     -34.171  17.589  -7.361  1.00 20.00     0.038 A 
HETATM   10  C3  UNL     1     -34.378  16.153  -7.745  1.00 20.00     0.038 A 
ENDBRANCH   6   8
TORSDOF 1
ENDMDL
MODEL 8
REMARK VINA RESULT:      -3.3      2.609      4.521
REMARK  1 active torsions:
REMARK  status: ('A' for Active; 'I' for Inactive)
REMARK    1  A    between atoms: C7_7  and  N9_9 
ROOT
HETATM    1  C1  UNL     1     -32.588  17.550  -2.252  1.00 20.00     0.031 C 
HETATM    2  C4  UNL     1     -33.438  16.707  -3.197  1.00 20.00     0.019 C 
HETATM    3  C5  UNL     1     -33.461  18.399  -1.326  1.00 20.00     0.273 C 
HETATM    4  C6  UNL     1     -35.287  16.807  -1.478  1.00 20.00     0.288 C 
HETATM    5  C8  UNL     1     -34.462  15.909  -2.400  1.00 20.00     0.086 C 
HETATM    6  N9  UNL     1     -34.411  17.568  -0.572  1.00 20.00     0.094 N 
HETATM    7 BR10 UNL     1     -35.657  14.977  -3.634  1.00 20.00    -0.089 Br
ENDROOT
BRANCH   6   8
HETATM    8  C7  UNL     1     -35.199  18.381   0.390  1.00 20.00     0.223 A 
HETATM    9  C2  UNL     1     -36.277  17.743   1.220  1.00 20.00     0.038 A 
HETATM   10  C3  UNL     1     -35.008  18.208   1.871  1.00 20.00     0.038 A 
ENDBRANCH   6   8
TORSDOF 1
ENDMDL
MODEL 9
REMARK VINA RESULT:      -3.2      2.215      4.172
REMARK  1 active torsions:
REMARK  status: ('A' for Active; 'I' for Inactive)
REMARK    1  A    between atoms: C7_7  and  N9_9 
ROOT
HETATM    1  C1  UNL     1     -35.478  13.561  -4.107  1.00 20.00     0.031 C 
HETATM    2  C4  UNL     1     -36.608  14.306  -4.811  1.00 20.00     0.019 C 
HETATM    3  C5  UNL     1     -34.199  14.398  -4.068  1.00 20.00     0.273 C 
HETATM    4  C6  UNL     1     -35.471  16.464  -4.155  1.00 20.00     0.288 C 
HETATM    5  C8  UNL     1     -36.785  15.685  -4.188  1.00 20.00     0.086 C 
HETATM    6  N9  UNL     1     -34.433  15.706  -3.438  1.00 20.00     0.094 N 
HETATM    7 BR10 UNL     1     -38.109  16.691  -5.214  1.00 20.00    -0.089 Br
ENDROOT
BRANCH   6   8
HETATM    8  C7  UNL     1     -33.173  16.486  -3.321  1.00 20.00     0.223 A 
HETATM    9  C2  UNL     1     -33.197  17.987  -3.400  1.00 20.00     0.038 A 
HETATM   10  C3  UNL     1     -32.898  17.311  -2.095  1.00 20.00     0.038 A 
ENDBRANCH   6   8
TORSDOF 1
ENDMDL
