MODEL 1
REMARK VINA RESULT:      -3.8      0.000      0.000
REMARK  1 active torsions:
REMARK  status: ('A' for Active; 'I' for Inactive)
REMARK    1  A    between atoms: C5_5  and  O7_7 
ROOT
HETATM    1  C1  UNL     1     -33.242  16.860  -2.565  1.00 20.00     0.015 C 
HETATM    2  C2  UNL     1     -33.303  15.964  -3.362  1.00 20.00    -0.075 C 
HETATM    3  C3  UNL     1     -34.480  13.849  -4.057  1.00 20.00     0.221 A 
HETATM    4  C4  UNL     1     -34.180  15.197  -5.594  1.00 20.00     0.221 A 
HETATM    5  C5  UNL     1     -33.378  14.886  -4.322  1.00 20.00     0.162 A 
HETATM    6  O6  UNL     1     -35.133  14.148  -5.311  1.00 20.00    -0.383 OA
ENDROOT
BRANCH   5   7
HETATM    7  O7  UNL     1     -32.053  14.357  -4.526  1.00 20.00    -0.373 OA
HETATM    8  H13 UNL     1     -32.176  13.433  -4.773  1.00 20.00     0.212 HD
ENDBRANCH   5   7
TORSDOF 1
ENDMDL
MODEL 2
REMARK VINA RESULT:      -3.8     18.562     19.127
REMARK  1 active torsions:
REMARK  status: ('A' for Active; 'I' for Inactive)
REMARK    1  A    between atoms: C5_5  and  O7_7 
ROOT
HETATM    1  C1  UNL     1     -25.869  18.167  12.300  1.00 20.00     0.015 C 
HETATM    2  C2  UNL     1     -24.824  17.633  12.048  1.00 20.00    -0.075 C 
HETATM    3  C3  UNL     1     -23.046  17.211  10.315  1.00 20.00     0.221 A 
HETATM    4  C4  UNL     1     -22.313  17.775  12.163  1.00 20.00     0.221 A 
HETATM    5  C5  UNL     1     -23.565  16.991  11.744  1.00 20.00     0.162 A 
HETATM    6  O6  UNL     1     -21.854  17.872  10.796  1.00 20.00    -0.383 OA
ENDROOT
BRANCH   5   7
HETATM    7  O7  UNL     1     -23.628  15.621  12.186  1.00 20.00    -0.373 OA
HETATM    8  H13 UNL     1     -23.981  15.653  13.084  1.00 20.00     0.212 HD
ENDBRANCH   5   7
TORSDOF 1
ENDMDL
MODEL 3
REMARK VINA RESULT:      -3.7     16.881     18.038
REMARK  1 active torsions:
REMARK  status: ('A' for Active; 'I' for Inactive)
REMARK    1  A    between atoms: C5_5  and  O7_7 
ROOT
HETATM    1  C1  UNL     1     -22.774  17.758  12.332  1.00 20.00     0.015 C 
HETATM    2  C2  UNL     1     -22.822  17.670  11.136  1.00 20.00    -0.075 C 
HETATM    3  C3  UNL     1     -24.021  18.345   9.027  1.00 20.00     0.221 A 
HETATM    4  C4  UNL     1     -21.966  18.533   8.930  1.00 20.00     0.221 A 
HETATM    5  C5  UNL     1     -22.880  17.564   9.695  1.00 20.00     0.162 A 
HETATM    6  O6  UNL     1     -23.092  19.165   8.283  1.00 20.00    -0.383 OA
ENDROOT
BRANCH   5   7
HETATM    7  O7  UNL     1     -22.771  16.174   9.330  1.00 20.00    -0.373 OA
HETATM    8  H13 UNL     1     -21.841  16.034   9.110  1.00 20.00     0.212 HD
ENDBRANCH   5   7
TORSDOF 1
ENDMDL
MODEL 4
REMARK VINA RESULT:      -3.7      1.529      1.671
REMARK  1 active torsions:
REMARK  status: ('A' for Active; 'I' for Inactive)
REMARK    1  A    between atoms: C5_5  and  O7_7 
ROOT
HETATM    1  C1  UNL     1     -34.791  15.958  -2.271  1.00 20.00     0.015 C 
HETATM    2  C2  UNL     1     -34.836  15.178  -3.182  1.00 20.00    -0.075 C 
HETATM    3  C3  UNL     1     -36.281  13.658  -4.576  1.00 20.00     0.221 A 
HETATM    4  C4  UNL     1     -35.015  14.868  -5.674  1.00 20.00     0.221 A 
HETATM    5  C5  UNL     1     -34.890  14.238  -4.279  1.00 20.00     0.162 A 
HETATM    6  O6  UNL     1     -36.287  14.222  -5.907  1.00 20.00    -0.383 OA
ENDROOT
BRANCH   5   7
HETATM    7  O7  UNL     1     -33.829  13.277  -4.115  1.00 20.00    -0.373 OA
HETATM    8  H13 UNL     1     -33.976  12.870  -3.252  1.00 20.00     0.212 HD
ENDBRANCH   5   7
TORSDOF 1
ENDMDL
MODEL 5
REMARK VINA RESULT:      -3.7     16.595     17.903
REMARK  1 active torsions:
REMARK  status: ('A' for Active; 'I' for Inactive)
REMARK    1  A    between atoms: C5_5  and  O7_7 
ROOT
HETATM    1  C1  UNL     1     -24.306  18.925   8.284  1.00 20.00     0.015 C 
HETATM    2  C2  UNL     1     -23.816  18.105   9.011  1.00 20.00    -0.075 C 
HETATM    3  C3  UNL     1     -22.598  17.674  11.173  1.00 20.00     0.221 A 
HETATM    4  C4  UNL     1     -24.208  16.421  10.843  1.00 20.00     0.221 A 
HETATM    5  C5  UNL     1     -23.227  17.117   9.887  1.00 20.00     0.162 A 
HETATM    6  O6  UNL     1     -23.511  16.925  12.005  1.00 20.00    -0.383 OA
ENDROOT
BRANCH   5   7
HETATM    7  O7  UNL     1     -22.388  16.247   9.102  1.00 20.00    -0.373 OA
HETATM    8  H13 UNL     1     -21.512  16.295   9.505  1.00 20.00     0.212 HD
ENDBRANCH   5   7
TORSDOF 1
ENDMDL
MODEL 6
REMARK VINA RESULT:      -3.7     12.574     13.293
REMARK  1 active torsions:
REMARK  status: ('A' for Active; 'I' for Inactive)
REMARK    1  A    between atoms: C5_5  and  O7_7 
ROOT
HETATM    1  C1  UNL     1     -33.230   4.620   2.463  1.00 20.00     0.015 C 
HETATM    2  C2  UNL     1     -33.927   5.019   3.355  1.00 20.00    -0.075 C 
HETATM    3  C3  UNL     1     -34.457   4.913   5.814  1.00 20.00     0.221 A 
HETATM    4  C4  UNL     1     -34.326   6.831   5.057  1.00 20.00     0.221 A 
HETATM    5  C5  UNL     1     -34.766   5.501   4.429  1.00 20.00     0.162 A 
HETATM    6  O6  UNL     1     -34.132   6.215   6.350  1.00 20.00    -0.383 OA
ENDROOT
BRANCH   5   7
HETATM    7  O7  UNL     1     -36.142   5.428   4.007  1.00 20.00    -0.373 OA
HETATM    8  H13 UNL     1     -36.495   6.320   4.116  1.00 20.00     0.212 HD
ENDBRANCH   5   7
TORSDOF 1
ENDMDL
MODEL 7
REMARK VINA RESULT:      -3.6      2.346      3.101
REMARK  1 active torsions:
REMARK  status: ('A' for Active; 'I' for Inactive)
REMARK    1  A    between atoms: C5_5  and  O7_7 
ROOT
HETATM    1  C1  UNL     1     -34.712  15.869  -2.423  1.00 20.00     0.015 C 
HETATM    2  C2  UNL     1     -35.485  15.334  -3.170  1.00 20.00    -0.075 C 
HETATM    3  C3  UNL     1     -36.332  15.145  -5.533  1.00 20.00     0.221 A 
HETATM    4  C4  UNL     1     -35.962  13.330  -4.617  1.00 20.00     0.221 A 
HETATM    5  C5  UNL     1     -36.416  14.691  -4.069  1.00 20.00     0.162 A 
HETATM    6  O6  UNL     1     -35.982  13.815  -5.978  1.00 20.00    -0.383 OA
ENDROOT
BRANCH   5   7
HETATM    7  O7  UNL     1     -37.729  14.724  -3.474  1.00 20.00    -0.373 OA
HETATM    8  H13 UNL     1     -37.694  15.417  -2.803  1.00 20.00     0.212 HD
ENDBRANCH   5   7
TORSDOF 1
ENDMDL
MODEL 8
REMARK VINA RESULT:      -3.6     17.685     18.510
REMARK  1 active torsions:
REMARK  status: ('A' for Active; 'I' for Inactive)
REMARK    1  A    between atoms: C5_5  and  O7_7 
ROOT
HETATM    1  C1  UNL     1     -22.608  17.090   8.934  1.00 20.00     0.015 C 
HETATM    2  C2  UNL     1     -23.058  17.013  10.044  1.00 20.00    -0.075 C 
HETATM    3  C3  UNL     1     -24.756  17.883  11.687  1.00 20.00     0.221 A 
HETATM    4  C4  UNL     1     -24.653  15.822  11.586  1.00 20.00     0.221 A 
HETATM    5  C5  UNL     1     -23.599  16.920  11.381  1.00 20.00     0.162 A 
HETATM    6  O6  UNL     1     -25.667  16.790  11.938  1.00 20.00    -0.383 OA
ENDROOT
BRANCH   5   7
HETATM    7  O7  UNL     1     -22.508  16.929  12.322  1.00 20.00    -0.373 OA
HETATM    8  H13 UNL     1     -21.999  16.130  12.138  1.00 20.00     0.212 HD
ENDBRANCH   5   7
TORSDOF 1
ENDMDL
MODEL 9
REMARK VINA RESULT:      -3.5      1.396      2.724
REMARK  1 active torsions:
REMARK  status: ('A' for Active; 'I' for Inactive)
REMARK    1  A    between atoms: C5_5  and  O7_7 
ROOT
HETATM    1  C1  UNL     1     -34.039  15.226  -7.078  1.00 20.00     0.015 C 
HETATM    2  C2  UNL     1     -33.830  14.918  -5.936  1.00 20.00    -0.075 C 
HETATM    3  C3  UNL     1     -33.184  15.706  -3.633  1.00 20.00     0.221 A 
HETATM    4  C4  UNL     1     -34.827  14.453  -3.671  1.00 20.00     0.221 A 
HETATM    5  C5  UNL     1     -33.579  14.547  -4.562  1.00 20.00     0.162 A 
HETATM    6  O6  UNL     1     -34.346  15.501  -2.799  1.00 20.00    -0.383 OA
ENDROOT
BRANCH   5   7
HETATM    7  O7  UNL     1     -32.706  13.401  -4.546  1.00 20.00    -0.373 OA
HETATM    8  H13 UNL     1     -32.950  12.877  -5.318  1.00 20.00     0.212 HD
ENDBRANCH   5   7
TORSDOF 1
ENDMDL
