MODEL 1
REMARK VINA RESULT:      -4.5      0.000      0.000
REMARK  3 active torsions:
REMARK  status: ('A' for Active; 'I' for Inactive)
REMARK    1  A    between atoms: C6_6  and  C7_7 
REMARK    2  A    between atoms: C7_7  and  C8_8 
REMARK    3  A    between atoms: C8_8  and  C9_9 
ROOT
HETATM    1  C1  UNL     1     -36.244  14.325  -4.408  1.00 20.00     0.069 C 
HETATM    2  C2  UNL     1     -34.074  15.018  -6.464  1.00 20.00     0.002 C 
HETATM    3  C3  UNL     1     -35.017  16.221  -6.486  1.00 20.00     0.002 C 
HETATM    4  C4  UNL     1     -33.859  14.671  -4.991  1.00 20.00     0.024 C 
HETATM    5  C5  UNL     1     -35.327  16.546  -5.024  1.00 20.00     0.024 C 
HETATM    6  C6  UNL     1     -35.087  15.234  -4.266  1.00 20.00     0.049 C 
HETATM    7  N10 UNL     1     -37.152  13.611  -4.519  1.00 20.00    -0.196 NA
ENDROOT
BRANCH   6   8
HETATM    8  C7  UNL     1     -34.813  15.475  -2.782  1.00 20.00     0.026 C 
BRANCH   8   9
HETATM    9  C8  UNL     1     -33.624  16.409  -2.583  1.00 20.00     0.017 C 
BRANCH   9  10
HETATM   10  C9  UNL     1     -33.897  17.403  -1.462  1.00 20.00     0.114 C 
HETATM   11 CL11 UNL     1     -35.352  16.931  -0.555  1.00 20.00    -0.130 Cl
ENDBRANCH   9  10
ENDBRANCH   8   9
ENDBRANCH   6   8
TORSDOF 3
ENDMDL
MODEL 2
REMARK VINA RESULT:      -4.4      1.094      1.094
REMARK  3 active torsions:
REMARK  status: ('A' for Active; 'I' for Inactive)
REMARK    1  A    between atoms: C6_6  and  C7_7 
REMARK    2  A    between atoms: C7_7  and  C8_8 
REMARK    3  A    between atoms: C8_8  and  C9_9 
ROOT
HETATM    1  C1  UNL     1     -36.186  14.361  -4.417  1.00 20.00     0.069 C 
HETATM    2  C2  UNL     1     -34.104  15.054  -6.563  1.00 20.00     0.002 C 
HETATM    3  C3  UNL     1     -35.061  16.246  -6.562  1.00 20.00     0.002 C 
HETATM    4  C4  UNL     1     -33.829  14.728  -5.095  1.00 20.00     0.024 C 
HETATM    5  C5  UNL     1     -35.319  16.585  -5.093  1.00 20.00     0.024 C 
HETATM    6  C6  UNL     1     -35.035  15.285  -4.330  1.00 20.00     0.049 C 
HETATM    7  N10 UNL     1     -37.089  13.636  -4.486  1.00 20.00    -0.196 NA
ENDROOT
BRANCH   6   8
HETATM    8  C7  UNL     1     -34.708  15.545  -2.860  1.00 20.00     0.026 C 
BRANCH   8   9
HETATM    9  C8  UNL     1     -33.428  16.363  -2.714  1.00 20.00     0.017 C 
BRANCH   9  10
HETATM   10  C9  UNL     1     -33.599  17.457  -1.669  1.00 20.00     0.114 C 
HETATM   11 CL11 UNL     1     -32.015  18.102  -1.181  1.00 20.00    -0.130 Cl
ENDBRANCH   9  10
ENDBRANCH   8   9
ENDBRANCH   6   8
TORSDOF 3
ENDMDL
MODEL 3
REMARK VINA RESULT:      -4.4      2.390      4.027
REMARK  3 active torsions:
REMARK  status: ('A' for Active; 'I' for Inactive)
REMARK    1  A    between atoms: C6_6  and  C7_7 
REMARK    2  A    between atoms: C7_7  and  C8_8 
REMARK    3  A    between atoms: C8_8  and  C9_9 
ROOT
HETATM    1  C1  UNL     1     -34.824  17.048  -4.348  1.00 20.00     0.069 C 
HETATM    2  C2  UNL     1     -33.330  17.556  -1.716  1.00 20.00     0.002 C 
HETATM    3  C3  UNL     1     -34.716  17.077  -1.281  1.00 20.00     0.002 C 
HETATM    4  C4  UNL     1     -32.895  16.626  -2.849  1.00 20.00     0.024 C 
HETATM    5  C5  UNL     1     -35.052  15.880  -2.171  1.00 20.00     0.024 C 
HETATM    6  C6  UNL     1     -34.199  16.070  -3.431  1.00 20.00     0.049 C 
HETATM    7  N10 UNL     1     -35.316  17.815  -5.067  1.00 20.00    -0.196 NA
ENDROOT
BRANCH   6   8
HETATM    8  C7  UNL     1     -33.977  14.754  -4.175  1.00 20.00     0.026 C 
BRANCH   8   9
HETATM    9  C8  UNL     1     -35.080  13.747  -3.859  1.00 20.00     0.017 C 
BRANCH   9  10
HETATM   10  C9  UNL     1     -36.148  13.756  -4.943  1.00 20.00     0.114 C 
HETATM   11 CL11 UNL     1     -37.650  14.485  -4.329  1.00 20.00    -0.130 Cl
ENDBRANCH   9  10
ENDBRANCH   8   9
ENDBRANCH   6   8
TORSDOF 3
ENDMDL
MODEL 4
REMARK VINA RESULT:      -4.3      1.276      1.469
REMARK  3 active torsions:
REMARK  status: ('A' for Active; 'I' for Inactive)
REMARK    1  A    between atoms: C6_6  and  C7_7 
REMARK    2  A    between atoms: C7_7  and  C8_8 
REMARK    3  A    between atoms: C8_8  and  C9_9 
ROOT
HETATM    1  C1  UNL     1     -36.679  14.652  -4.149  1.00 20.00     0.069 C 
HETATM    2  C2  UNL     1     -33.707  14.442  -4.884  1.00 20.00     0.002 C 
HETATM    3  C3  UNL     1     -34.284  15.420  -5.908  1.00 20.00     0.002 C 
HETATM    4  C4  UNL     1     -34.286  14.852  -3.531  1.00 20.00     0.024 C 
HETATM    5  C5  UNL     1     -35.184  16.375  -5.125  1.00 20.00     0.024 C 
HETATM    6  C6  UNL     1     -35.582  15.601  -3.862  1.00 20.00     0.049 C 
HETATM    7  N10 UNL     1     -37.540  13.908  -4.375  1.00 20.00    -0.196 NA
ENDROOT
BRANCH   6   8
HETATM    8  C7  UNL     1     -36.007  16.535  -2.730  1.00 20.00     0.026 C 
BRANCH   8   9
HETATM    9  C8  UNL     1     -35.072  16.413  -1.530  1.00 20.00     0.017 C 
BRANCH   9  10
HETATM   10  C9  UNL     1     -34.316  17.714  -1.298  1.00 20.00     0.114 C 
HETATM   11 CL11 UNL     1     -32.673  17.605  -1.967  1.00 20.00    -0.130 Cl
ENDBRANCH   9  10
ENDBRANCH   8   9
ENDBRANCH   6   8
TORSDOF 3
ENDMDL
MODEL 5
REMARK VINA RESULT:      -4.3      2.511      3.349
REMARK  3 active torsions:
REMARK  status: ('A' for Active; 'I' for Inactive)
REMARK    1  A    between atoms: C6_6  and  C7_7 
REMARK    2  A    between atoms: C7_7  and  C8_8 
REMARK    3  A    between atoms: C8_8  and  C9_9 
ROOT
HETATM    1  C1  UNL     1     -34.222  17.493  -4.230  1.00 20.00     0.069 C 
HETATM    2  C2  UNL     1     -35.320  14.769  -3.339  1.00 20.00     0.002 C 
HETATM    3  C3  UNL     1     -34.086  14.427  -4.175  1.00 20.00     0.002 C 
HETATM    4  C4  UNL     1     -34.912  15.930  -2.433  1.00 20.00     0.024 C 
HETATM    5  C5  UNL     1     -32.990  15.398  -3.734  1.00 20.00     0.024 C 
HETATM    6  C6  UNL     1     -33.738  16.604  -3.152  1.00 20.00     0.049 C 
HETATM    7  N10 UNL     1     -34.602  18.190  -5.076  1.00 20.00    -0.196 NA
ENDROOT
BRANCH   6   8
HETATM    8  C7  UNL     1     -32.864  17.408  -2.190  1.00 20.00     0.026 C 
BRANCH   8   9
HETATM    9  C8  UNL     1     -33.640  17.805  -0.938  1.00 20.00     0.017 C 
BRANCH   9  10
HETATM   10  C9  UNL     1     -32.731  18.502   0.065  1.00 20.00     0.114 C 
HETATM   11 CL11 UNL     1     -31.025  18.282  -0.387  1.00 20.00    -0.130 Cl
ENDBRANCH   9  10
ENDBRANCH   8   9
ENDBRANCH   6   8
TORSDOF 3
ENDMDL
MODEL 6
REMARK VINA RESULT:      -4.1      2.361      3.739
REMARK  3 active torsions:
REMARK  status: ('A' for Active; 'I' for Inactive)
REMARK    1  A    between atoms: C6_6  and  C7_7 
REMARK    2  A    between atoms: C7_7  and  C8_8 
REMARK    3  A    between atoms: C8_8  and  C9_9 
ROOT
HETATM    1  C1  UNL     1     -35.765  13.926  -4.538  1.00 20.00     0.069 C 
HETATM    2  C2  UNL     1     -34.654  15.838  -2.410  1.00 20.00     0.002 C 
HETATM    3  C3  UNL     1     -33.523  15.705  -3.430  1.00 20.00     0.002 C 
HETATM    4  C4  UNL     1     -35.938  16.018  -3.220  1.00 20.00     0.024 C 
HETATM    5  C5  UNL     1     -34.177  15.812  -4.808  1.00 20.00     0.024 C 
HETATM    6  C6  UNL     1     -35.637  15.398  -4.588  1.00 20.00     0.049 C 
HETATM    7  N10 UNL     1     -35.864  12.770  -4.499  1.00 20.00    -0.196 NA
ENDROOT
BRANCH   6   8
HETATM    8  C7  UNL     1     -36.556  15.946  -5.679  1.00 20.00     0.026 C 
BRANCH   8   9
HETATM    9  C8  UNL     1     -37.638  16.846  -5.090  1.00 20.00     0.017 C 
BRANCH   9  10
HETATM   10  C9  UNL     1     -39.021  16.250  -5.316  1.00 20.00     0.114 C 
HETATM   11 CL11 UNL     1     -39.272  14.845  -4.256  1.00 20.00    -0.130 Cl
ENDBRANCH   9  10
ENDBRANCH   8   9
ENDBRANCH   6   8
TORSDOF 3
ENDMDL
MODEL 7
REMARK VINA RESULT:      -4.1      2.001      2.774
REMARK  3 active torsions:
REMARK  status: ('A' for Active; 'I' for Inactive)
REMARK    1  A    between atoms: C6_6  and  C7_7 
REMARK    2  A    between atoms: C7_7  and  C8_8 
REMARK    3  A    between atoms: C8_8  and  C9_9 
ROOT
HETATM    1  C1  UNL     1     -33.988  15.080  -5.889  1.00 20.00     0.069 C 
HETATM    2  C2  UNL     1     -36.804  15.343  -4.698  1.00 20.00     0.002 C 
HETATM    3  C3  UNL     1     -36.410  13.891  -4.429  1.00 20.00     0.002 C 
HETATM    4  C4  UNL     1     -35.580  16.188  -4.345  1.00 20.00     0.024 C 
HETATM    5  C5  UNL     1     -34.968  13.926  -3.924  1.00 20.00     0.024 C 
HETATM    6  C6  UNL     1     -34.387  15.235  -4.474  1.00 20.00     0.049 C 
HETATM    7  N10 UNL     1     -33.675  14.958  -7.000  1.00 20.00    -0.196 NA
ENDROOT
BRANCH   6   8
HETATM    8  C7  UNL     1     -33.184  15.712  -3.661  1.00 20.00     0.026 C 
BRANCH   8   9
HETATM    9  C8  UNL     1     -33.619  16.598  -2.497  1.00 20.00     0.017 C 
BRANCH   9  10
HETATM   10  C9  UNL     1     -32.880  17.929  -2.523  1.00 20.00     0.114 C 
HETATM   11 CL11 UNL     1     -31.826  18.082  -1.099  1.00 20.00    -0.130 Cl
ENDBRANCH   9  10
ENDBRANCH   8   9
ENDBRANCH   6   8
TORSDOF 3
ENDMDL
MODEL 8
REMARK VINA RESULT:      -4.0      2.213      3.117
REMARK  3 active torsions:
REMARK  status: ('A' for Active; 'I' for Inactive)
REMARK    1  A    between atoms: C6_6  and  C7_7 
REMARK    2  A    between atoms: C7_7  and  C8_8 
REMARK    3  A    between atoms: C8_8  and  C9_9 
ROOT
HETATM    1  C1  UNL     1     -34.269  17.629  -3.999  1.00 20.00     0.069 C 
HETATM    2  C2  UNL     1     -35.237  14.774  -3.428  1.00 20.00     0.002 C 
HETATM    3  C3  UNL     1     -33.951  14.586  -4.232  1.00 20.00     0.002 C 
HETATM    4  C4  UNL     1     -34.939  15.860  -2.396  1.00 20.00     0.024 C 
HETATM    5  C5  UNL     1     -32.935  15.567  -3.647  1.00 20.00     0.024 C 
HETATM    6  C6  UNL     1     -33.779  16.667  -2.989  1.00 20.00     0.049 C 
HETATM    7  N10 UNL     1     -34.653  18.385  -4.792  1.00 20.00    -0.196 NA
ENDROOT
BRANCH   6   8
HETATM    8  C7  UNL     1     -32.997  17.419  -1.913  1.00 20.00     0.026 C 
BRANCH   8   9
HETATM    9  C8  UNL     1     -33.882  18.432  -1.192  1.00 20.00     0.017 C 
BRANCH   9  10
HETATM   10  C9  UNL     1     -33.821  18.228   0.315  1.00 20.00     0.114 C 
HETATM   11 CL11 UNL     1     -35.240  17.313   0.875  1.00 20.00    -0.130 Cl
ENDBRANCH   9  10
ENDBRANCH   8   9
ENDBRANCH   6   8
TORSDOF 3
ENDMDL
MODEL 9
REMARK VINA RESULT:      -4.0     11.748     13.405
REMARK  3 active torsions:
REMARK  status: ('A' for Active; 'I' for Inactive)
REMARK    1  A    between atoms: C6_6  and  C7_7 
REMARK    2  A    between atoms: C7_7  and  C8_8 
REMARK    3  A    between atoms: C8_8  and  C9_9 
ROOT
HETATM    1  C1  UNL     1     -42.972   5.898   0.914  1.00 20.00     0.069 C 
HETATM    2  C2  UNL     1     -43.102   8.721  -0.284  1.00 20.00     0.002 C 
HETATM    3  C3  UNL     1     -41.695   8.622   0.305  1.00 20.00     0.002 C 
HETATM    4  C4  UNL     1     -43.349   7.404  -1.019  1.00 20.00     0.024 C 
HETATM    5  C5  UNL     1     -41.157   7.250  -0.102  1.00 20.00     0.024 C 
HETATM    6  C6  UNL     1     -42.405   6.394  -0.357  1.00 20.00     0.049 C 
HETATM    7  N10 UNL     1     -43.417   5.509   1.913  1.00 20.00    -0.196 NA
ENDROOT
BRANCH   6   8
HETATM    8  C7  UNL     1     -42.105   5.207  -1.272  1.00 20.00     0.026 C 
BRANCH   8   9
HETATM    9  C8  UNL     1     -43.337   4.804  -2.078  1.00 20.00     0.017 C 
BRANCH   9  10
HETATM   10  C9  UNL     1     -43.337   3.307  -2.356  1.00 20.00     0.114 C 
HETATM   11 CL11 UNL     1     -41.931   2.862  -3.350  1.00 20.00    -0.130 Cl
ENDBRANCH   9  10
ENDBRANCH   8   9
ENDBRANCH   6   8
TORSDOF 3
ENDMDL
