MODEL 1
REMARK VINA RESULT:      -4.3      0.000      0.000
REMARK  3 active torsions:
REMARK  status: ('A' for Active; 'I' for Inactive)
REMARK    1  A    between atoms: C1_1  and  C5_5 
REMARK    2  A    between atoms: C3_3  and  C4_4 
REMARK    3  A    between atoms: C3_3  and  C5_5 
ROOT
HETATM    1  C2  UNL     1     -33.657   6.917   5.304  1.00 20.00     0.017 C 
HETATM    2  C5  UNL     1     -34.244   6.217   4.081  1.00 20.00     0.044 C 
ENDROOT
BRANCH   2   3
HETATM    3  C1  UNL     1     -34.835   4.895   4.542  1.00 20.00     0.235 C 
HETATM    4  O6  UNL     1     -34.454   3.789   4.175  1.00 20.00    -0.306 OA
ENDBRANCH   2   3
BRANCH   2   5
HETATM    5  C3  UNL     1     -33.180   6.049   2.987  1.00 20.00     0.026 C 
BRANCH   5   6
HETATM    6  C4  UNL     1     -32.308   7.292   2.832  1.00 20.00     0.115 C 
HETATM    7 CL7  UNL     1     -32.635   8.087   1.275  1.00 20.00    -0.130 Cl
ENDBRANCH   5   6
ENDBRANCH   2   5
TORSDOF 3
ENDMDL
MODEL 2
REMARK VINA RESULT:      -3.9      3.194      4.070
REMARK  3 active torsions:
REMARK  status: ('A' for Active; 'I' for Inactive)
REMARK    1  A    between atoms: C1_1  and  C5_5 
REMARK    2  A    between atoms: C3_3  and  C4_4 
REMARK    3  A    between atoms: C3_3  and  C5_5 
ROOT
HETATM    1  C2  UNL     1     -33.051   4.781   2.492  1.00 20.00     0.017 C 
HETATM    2  C5  UNL     1     -33.530   6.220   2.668  1.00 20.00     0.044 C 
ENDROOT
BRANCH   2   3
HETATM    3  C1  UNL     1     -32.399   7.140   2.240  1.00 20.00     0.235 C 
HETATM    4  O6  UNL     1     -32.455   7.936   1.309  1.00 20.00    -0.306 OA
ENDBRANCH   2   3
BRANCH   2   5
HETATM    5  C3  UNL     1     -33.989   6.467   4.112  1.00 20.00     0.026 C 
BRANCH   5   6
HETATM    6  C4  UNL     1     -35.043   5.459   4.564  1.00 20.00     0.115 C 
HETATM    7 CL7  UNL     1     -34.815   5.054   6.281  1.00 20.00    -0.130 Cl
ENDBRANCH   5   6
ENDBRANCH   2   5
TORSDOF 3
ENDMDL
MODEL 3
REMARK VINA RESULT:      -3.8      2.509      3.179
REMARK  3 active torsions:
REMARK  status: ('A' for Active; 'I' for Inactive)
REMARK    1  A    between atoms: C1_1  and  C5_5 
REMARK    2  A    between atoms: C3_3  and  C4_4 
REMARK    3  A    between atoms: C3_3  and  C5_5 
ROOT
HETATM    1  C2  UNL     1     -32.527   7.351   2.107  1.00 20.00     0.017 C 
HETATM    2  C5  UNL     1     -32.896   6.380   3.226  1.00 20.00     0.044 C 
ENDROOT
BRANCH   2   3
HETATM    3  C1  UNL     1     -33.284   5.059   2.584  1.00 20.00     0.235 C 
HETATM    4  O6  UNL     1     -33.879   4.150   3.153  1.00 20.00    -0.306 OA
ENDBRANCH   2   3
BRANCH   2   5
HETATM    5  C3  UNL     1     -34.007   6.966   4.110  1.00 20.00     0.026 C 
BRANCH   5   6
HETATM    6  C4  UNL     1     -33.763   6.705   5.594  1.00 20.00     0.115 C 
HETATM    7 CL7  UNL     1     -34.748   5.332   6.150  1.00 20.00    -0.130 Cl
ENDBRANCH   5   6
ENDBRANCH   2   5
TORSDOF 3
ENDMDL
MODEL 4
REMARK VINA RESULT:      -3.7      1.453      1.950
REMARK  3 active torsions:
REMARK  status: ('A' for Active; 'I' for Inactive)
REMARK    1  A    between atoms: C1_1  and  C5_5 
REMARK    2  A    between atoms: C3_3  and  C4_4 
REMARK    3  A    between atoms: C3_3  and  C5_5 
ROOT
HETATM    1  C2  UNL     1     -35.329   5.094   4.154  1.00 20.00     0.017 C 
HETATM    2  C5  UNL     1     -33.877   5.564   4.201  1.00 20.00     0.044 C 
ENDROOT
BRANCH   2   3
HETATM    3  C1  UNL     1     -33.810   6.769   5.124  1.00 20.00     0.235 C 
HETATM    4  O6  UNL     1     -34.172   6.778   6.295  1.00 20.00    -0.306 OA
ENDBRANCH   2   3
BRANCH   2   5
HETATM    5  C3  UNL     1     -33.356   5.862   2.788  1.00 20.00     0.026 C 
BRANCH   5   6
HETATM    6  C4  UNL     1     -32.423   7.070   2.759  1.00 20.00     0.115 C 
HETATM    7 CL7  UNL     1     -32.642   7.985   1.249  1.00 20.00    -0.130 Cl
ENDBRANCH   5   6
ENDBRANCH   2   5
TORSDOF 3
ENDMDL
MODEL 5
REMARK VINA RESULT:      -3.6     11.398     11.788
REMARK  3 active torsions:
REMARK  status: ('A' for Active; 'I' for Inactive)
REMARK    1  A    between atoms: C1_1  and  C5_5 
REMARK    2  A    between atoms: C3_3  and  C4_4 
REMARK    3  A    between atoms: C3_3  and  C5_5 
ROOT
HETATM    1  C2  UNL     1     -33.947  15.046  -5.394  1.00 20.00     0.017 C 
HETATM    2  C5  UNL     1     -34.404  14.469  -4.057  1.00 20.00     0.044 C 
ENDROOT
BRANCH   2   3
HETATM    3  C1  UNL     1     -35.761  13.820  -4.271  1.00 20.00     0.235 C 
HETATM    4  O6  UNL     1     -35.939  12.641  -4.555  1.00 20.00    -0.306 OA
ENDBRANCH   2   3
BRANCH   2   5
HETATM    5  C3  UNL     1     -34.425  15.556  -2.973  1.00 20.00     0.026 C 
BRANCH   5   6
HETATM    6  C4  UNL     1     -33.156  16.406  -2.983  1.00 20.00     0.115 C 
HETATM    7 CL7  UNL     1     -33.155  17.531  -1.605  1.00 20.00    -0.130 Cl
ENDBRANCH   5   6
ENDBRANCH   2   5
TORSDOF 3
ENDMDL
MODEL 6
REMARK VINA RESULT:      -3.6      1.646      1.693
REMARK  3 active torsions:
REMARK  status: ('A' for Active; 'I' for Inactive)
REMARK    1  A    between atoms: C1_1  and  C5_5 
REMARK    2  A    between atoms: C3_3  and  C4_4 
REMARK    3  A    between atoms: C3_3  and  C5_5 
ROOT
HETATM    1  C2  UNL     1     -33.958   6.812   6.053  1.00 20.00     0.017 C 
HETATM    2  C5  UNL     1     -34.266   6.652   4.567  1.00 20.00     0.044 C 
ENDROOT
BRANCH   2   3
HETATM    3  C1  UNL     1     -35.126   5.410   4.403  1.00 20.00     0.235 C 
HETATM    4  O6  UNL     1     -34.839   4.296   4.825  1.00 20.00    -0.306 OA
ENDBRANCH   2   3
BRANCH   2   5
HETATM    5  C3  UNL     1     -32.969   6.595   3.746  1.00 20.00     0.026 C 
BRANCH   5   6
HETATM    6  C4  UNL     1     -33.216   6.144   2.307  1.00 20.00     0.115 C 
HETATM    7 CL7  UNL     1     -32.915   4.398   2.147  1.00 20.00    -0.130 Cl
ENDBRANCH   5   6
ENDBRANCH   2   5
TORSDOF 3
ENDMDL
MODEL 7
REMARK VINA RESULT:      -3.5      1.272      1.750
REMARK  3 active torsions:
REMARK  status: ('A' for Active; 'I' for Inactive)
REMARK    1  A    between atoms: C1_1  and  C5_5 
REMARK    2  A    between atoms: C3_3  and  C4_4 
REMARK    3  A    between atoms: C3_3  and  C5_5 
ROOT
HETATM    1  C2  UNL     1     -33.404   4.676   2.352  1.00 20.00     0.017 C 
HETATM    2  C5  UNL     1     -33.517   5.481   3.644  1.00 20.00     0.044 C 
ENDROOT
BRANCH   2   3
HETATM    3  C1  UNL     1     -34.870   5.174   4.264  1.00 20.00     0.235 C 
HETATM    4  O6  UNL     1     -35.177   5.401   5.429  1.00 20.00    -0.306 OA
ENDBRANCH   2   3
BRANCH   2   5
HETATM    5  C3  UNL     1     -33.309   6.978   3.373  1.00 20.00     0.026 C 
BRANCH   5   6
HETATM    6  C4  UNL     1     -32.263   7.228   2.290  1.00 20.00     0.115 C 
HETATM    7 CL7  UNL     1     -32.854   8.440   1.129  1.00 20.00    -0.130 Cl
ENDBRANCH   5   6
ENDBRANCH   2   5
TORSDOF 3
ENDMDL
MODEL 8
REMARK VINA RESULT:      -3.5     11.347     12.005
REMARK  3 active torsions:
REMARK  status: ('A' for Active; 'I' for Inactive)
REMARK    1  A    between atoms: C1_1  and  C5_5 
REMARK    2  A    between atoms: C3_3  and  C4_4 
REMARK    3  A    between atoms: C3_3  and  C5_5 
ROOT
HETATM    1  C2  UNL     1     -35.595  14.676  -6.171  1.00 20.00     0.017 C 
HETATM    2  C5  UNL     1     -35.915  13.946  -4.870  1.00 20.00     0.044 C 
ENDROOT
BRANCH   2   3
HETATM    3  C1  UNL     1     -37.223  14.503  -4.335  1.00 20.00     0.235 C 
HETATM    4  O6  UNL     1     -38.295  13.909  -4.342  1.00 20.00    -0.306 OA
ENDBRANCH   2   3
BRANCH   2   5
HETATM    5  C3  UNL     1     -34.755  14.078  -3.872  1.00 20.00     0.026 C 
BRANCH   5   6
HETATM    6  C4  UNL     1     -34.828  15.375  -3.069  1.00 20.00     0.115 C 
HETATM    7 CL7  UNL     1     -33.227  16.145  -2.992  1.00 20.00    -0.130 Cl
ENDBRANCH   5   6
ENDBRANCH   2   5
TORSDOF 3
ENDMDL
MODEL 9
REMARK VINA RESULT:      -3.4      3.213      3.956
REMARK  3 active torsions:
REMARK  status: ('A' for Active; 'I' for Inactive)
REMARK    1  A    between atoms: C1_1  and  C5_5 
REMARK    2  A    between atoms: C3_3  and  C4_4 
REMARK    3  A    between atoms: C3_3  and  C5_5 
ROOT
HETATM    1  C2  UNL     1     -31.793   7.632   3.661  1.00 20.00     0.017 C 
HETATM    2  C5  UNL     1     -32.337   6.909   2.431  1.00 20.00     0.044 C 
ENDROOT
BRANCH   2   3
HETATM    3  C1  UNL     1     -32.883   7.961   1.479  1.00 20.00     0.235 C 
HETATM    4  O6  UNL     1     -32.354   8.297   0.426  1.00 20.00    -0.306 OA
ENDBRANCH   2   3
BRANCH   2   5
HETATM    5  C3  UNL     1     -33.386   5.864   2.835  1.00 20.00     0.026 C 
BRANCH   5   6
HETATM    6  C4  UNL     1     -34.110   6.240   4.125  1.00 20.00     0.115 C 
HETATM    7 CL7  UNL     1     -34.901   4.811   4.830  1.00 20.00    -0.130 Cl
ENDBRANCH   5   6
ENDBRANCH   2   5
TORSDOF 3
ENDMDL
