MODEL 1
REMARK VINA RESULT:      -5.0      0.000      0.000
REMARK  0 active torsions:
REMARK  status: ('A' for Active; 'I' for Inactive)
ROOT
HETATM    1  C1  UNL     1     -32.748   7.024   2.542  1.00 20.00     0.095 C 
HETATM    2  C2  UNL     1     -34.203   6.469   6.006  1.00 20.00    -0.026 C 
HETATM    3  C3  UNL     1     -34.779   5.273   5.825  1.00 20.00    -0.001 C 
HETATM    4  C4  UNL     1     -33.470   7.163   4.896  1.00 20.00     0.077 C 
HETATM    5  C5  UNL     1     -34.756   4.575   4.497  1.00 20.00     0.298 C 
HETATM    6  C6  UNL     1     -33.168   6.228   3.708  1.00 20.00     0.329 C 
HETATM    7  N7  UNL     1     -32.419   7.650   1.622  1.00 20.00    -0.195 NA
HETATM    8  N8  UNL     1     -34.353   5.431   3.374  1.00 20.00     0.105 N 
HETATM    9  H16 UNL     1     -34.159   4.840   2.565  1.00 20.00     0.318 HD
ENDROOT
TORSDOF 0
ENDMDL
MODEL 2
REMARK VINA RESULT:      -4.9      1.058      1.789
REMARK  0 active torsions:
REMARK  status: ('A' for Active; 'I' for Inactive)
ROOT
HETATM    1  C1  UNL     1     -32.841   7.092   2.590  1.00 20.00     0.095 C 
HETATM    2  C2  UNL     1     -34.779   4.623   4.729  1.00 20.00    -0.026 C 
HETATM    3  C3  UNL     1     -34.805   5.295   5.888  1.00 20.00    -0.001 C 
HETATM    4  C4  UNL     1     -34.100   5.183   3.514  1.00 20.00     0.077 C 
HETATM    5  C5  UNL     1     -34.130   6.624   6.050  1.00 20.00     0.298 C 
HETATM    6  C6  UNL     1     -33.776   6.683   3.652  1.00 20.00     0.329 C 
HETATM    7  N7  UNL     1     -32.103   7.414   1.754  1.00 20.00    -0.195 NA
HETATM    8  N8  UNL     1     -33.192   6.959   4.969  1.00 20.00     0.105 N 
HETATM    9  H16 UNL     1     -32.947   7.947   5.043  1.00 20.00     0.318 HD
ENDROOT
TORSDOF 0
ENDMDL
MODEL 3
REMARK VINA RESULT:      -4.5     16.234     16.940
REMARK  0 active torsions:
REMARK  status: ('A' for Active; 'I' for Inactive)
ROOT
HETATM    1  C1  UNL     1     -22.274  17.435   8.539  1.00 20.00     0.095 C 
HETATM    2  C2  UNL     1     -24.837  18.145  11.251  1.00 20.00    -0.026 C 
HETATM    3  C3  UNL     1     -24.047  18.095  12.332  1.00 20.00    -0.001 C 
HETATM    4  C4  UNL     1     -24.293  17.917   9.871  1.00 20.00     0.077 C 
HETATM    5  C5  UNL     1     -22.585  17.775  12.232  1.00 20.00     0.298 C 
HETATM    6  C6  UNL     1     -22.754  17.977   9.822  1.00 20.00     0.329 C 
HETATM    7  N7  UNL     1     -21.896  17.008   7.528  1.00 20.00    -0.195 NA
HETATM    8  N8  UNL     1     -22.178  17.216  10.936  1.00 20.00     0.105 N 
HETATM    9  H16 UNL     1     -21.159  17.229  10.878  1.00 20.00     0.318 HD
ENDROOT
TORSDOF 0
ENDMDL
MODEL 4
REMARK VINA RESULT:      -4.4     15.846     16.480
REMARK  0 active torsions:
REMARK  status: ('A' for Active; 'I' for Inactive)
ROOT
HETATM    1  C1  UNL     1     -23.011  18.652   9.426  1.00 20.00     0.095 C 
HETATM    2  C2  UNL     1     -24.700  15.970  11.519  1.00 20.00    -0.026 C 
HETATM    3  C3  UNL     1     -25.607  16.718  12.162  1.00 20.00    -0.001 C 
HETATM    4  C4  UNL     1     -23.739  16.575  10.539  1.00 20.00     0.077 C 
HETATM    5  C5  UNL     1     -25.692  18.203  11.968  1.00 20.00     0.298 C 
HETATM    6  C6  UNL     1     -24.137  18.003  10.119  1.00 20.00     0.329 C 
HETATM    7  N7  UNL     1     -22.124  19.164   8.881  1.00 20.00    -0.195 NA
HETATM    8  N8  UNL     1     -24.526  18.790  11.294  1.00 20.00     0.105 N 
HETATM    9  H16 UNL     1     -24.755  19.744  11.015  1.00 20.00     0.318 HD
ENDROOT
TORSDOF 0
ENDMDL
MODEL 5
REMARK VINA RESULT:      -4.3     11.592     12.119
REMARK  0 active torsions:
REMARK  status: ('A' for Active; 'I' for Inactive)
ROOT
HETATM    1  C1  UNL     1     -35.750  13.941  -4.339  1.00 20.00     0.095 C 
HETATM    2  C2  UNL     1     -33.111  16.372  -3.094  1.00 20.00    -0.026 C 
HETATM    3  C3  UNL     1     -33.758  16.897  -2.045  1.00 20.00    -0.001 C 
HETATM    4  C4  UNL     1     -33.744  15.325  -3.963  1.00 20.00     0.077 C 
HETATM    5  C5  UNL     1     -35.162  16.498  -1.699  1.00 20.00     0.298 C 
HETATM    6  C6  UNL     1     -35.004  14.707  -3.327  1.00 20.00     0.329 C 
HETATM    7  N7  UNL     1     -36.339  13.338  -5.137  1.00 20.00    -0.195 NA
HETATM    8  N8  UNL     1     -35.857  15.759  -2.762  1.00 20.00     0.105 N 
HETATM    9  H16 UNL     1     -36.707  15.348  -2.373  1.00 20.00     0.318 HD
ENDROOT
TORSDOF 0
ENDMDL
MODEL 6
REMARK VINA RESULT:      -4.3     11.960     12.272
REMARK  0 active torsions:
REMARK  status: ('A' for Active; 'I' for Inactive)
ROOT
HETATM    1  C1  UNL     1     -36.975  14.476  -4.250  1.00 20.00     0.095 C 
HETATM    2  C2  UNL     1     -34.179  16.322  -2.461  1.00 20.00    -0.026 C 
HETATM    3  C3  UNL     1     -33.133  15.925  -3.198  1.00 20.00    -0.001 C 
HETATM    4  C4  UNL     1     -35.572  15.853  -2.760  1.00 20.00     0.077 C 
HETATM    5  C5  UNL     1     -33.286  14.963  -4.339  1.00 20.00     0.298 C 
HETATM    6  C6  UNL     1     -35.692  15.193  -4.147  1.00 20.00     0.329 C 
HETATM    7  N7  UNL     1     -37.985  13.911  -4.331  1.00 20.00    -0.195 NA
HETATM    8  N8  UNL     1     -34.578  14.264  -4.368  1.00 20.00     0.105 N 
HETATM    9  H16 UNL     1     -34.682  13.804  -5.272  1.00 20.00     0.318 HD
ENDROOT
TORSDOF 0
ENDMDL
MODEL 7
REMARK VINA RESULT:      -4.2     16.226     16.744
REMARK  0 active torsions:
REMARK  status: ('A' for Active; 'I' for Inactive)
ROOT
HETATM    1  C1  UNL     1     -24.023  18.515   8.125  1.00 20.00     0.095 C 
HETATM    2  C2  UNL     1     -22.836  17.759  11.654  1.00 20.00    -0.026 C 
HETATM    3  C3  UNL     1     -23.967  17.997  12.332  1.00 20.00    -0.001 C 
HETATM    4  C4  UNL     1     -22.766  17.924  10.164  1.00 20.00     0.077 C 
HETATM    5  C5  UNL     1     -25.215  18.474  11.651  1.00 20.00     0.298 C 
HETATM    6  C6  UNL     1     -24.159  18.039   9.513  1.00 20.00     0.329 C 
HETATM    7  N7  UNL     1     -23.917  18.891   7.033  1.00 20.00    -0.195 NA
HETATM    8  N8  UNL     1     -25.005  18.958  10.280  1.00 20.00     0.105 N 
HETATM    9  H16 UNL     1     -25.913  19.059   9.825  1.00 20.00     0.318 HD
ENDROOT
TORSDOF 0
ENDMDL
MODEL 8
REMARK VINA RESULT:      -4.1     11.844     12.383
REMARK  0 active torsions:
REMARK  status: ('A' for Active; 'I' for Inactive)
ROOT
HETATM    1  C1  UNL     1     -37.258  14.336  -4.120  1.00 20.00     0.095 C 
HETATM    2  C2  UNL     1     -33.597  15.322  -4.353  1.00 20.00    -0.026 C 
HETATM    3  C3  UNL     1     -33.450  15.941  -3.174  1.00 20.00    -0.001 C 
HETATM    4  C4  UNL     1     -34.911  14.731  -4.770  1.00 20.00     0.077 C 
HETATM    5  C5  UNL     1     -34.595  16.111  -2.220  1.00 20.00     0.298 C 
HETATM    6  C6  UNL     1     -35.907  14.611  -3.600  1.00 20.00     0.329 C 
HETATM    7  N7  UNL     1     -38.322  14.120  -4.529  1.00 20.00    -0.195 NA
HETATM    8  N8  UNL     1     -35.915  15.846  -2.808  1.00 20.00     0.105 N 
HETATM    9  H16 UNL     1     -36.601  15.775  -2.057  1.00 20.00     0.318 HD
ENDROOT
TORSDOF 0
ENDMDL
MODEL 9
REMARK VINA RESULT:      -4.0     11.461     12.097
REMARK  0 active torsions:
REMARK  status: ('A' for Active; 'I' for Inactive)
ROOT
HETATM    1  C1  UNL     1     -35.485  13.915  -4.252  1.00 20.00     0.095 C 
HETATM    2  C2  UNL     1     -34.644  16.668  -1.774  1.00 20.00    -0.026 C 
HETATM    3  C3  UNL     1     -33.457  17.059  -2.259  1.00 20.00    -0.001 C 
HETATM    4  C4  UNL     1     -35.426  15.559  -2.415  1.00 20.00     0.077 C 
HETATM    5  C5  UNL     1     -32.826  16.390  -3.443  1.00 20.00     0.298 C 
HETATM    6  C6  UNL     1     -34.902  15.196  -3.818  1.00 20.00     0.329 C 
HETATM    7  N7  UNL     1     -35.943  12.905  -4.594  1.00 20.00    -0.195 NA
HETATM    8  N8  UNL     1     -33.438  15.105  -3.807  1.00 20.00     0.105 N 
HETATM    9  H16 UNL     1     -33.099  14.830  -4.729  1.00 20.00     0.318 HD
ENDROOT
TORSDOF 0
ENDMDL
