MODEL 1
REMARK VINA RESULT:      -3.9      0.000      0.000
REMARK  1 active torsions:
REMARK  status: ('A' for Active; 'I' for Inactive)
REMARK    1  A    between atoms: C1_1  and  C5_5 
ROOT
HETATM    1  C2  UNL     1     -35.386  15.780  -6.778  1.00 20.00     0.029 C 
HETATM    2  C3  UNL     1     -35.677  16.091  -5.328  1.00 20.00     0.047 C 
HETATM    3  C4  UNL     1     -34.055  15.068  -6.684  1.00 20.00     0.169 C 
HETATM    4  C5  UNL     1     -35.109  14.871  -4.614  1.00 20.00     0.110 C 
HETATM    5  C6  UNL     1     -34.568  15.185  -3.229  1.00 20.00     0.053 C 
HETATM    6  O8  UNL     1     -34.060  14.352  -5.441  1.00 20.00    -0.373 OA
ENDROOT
BRANCH   4   7
HETATM    7  C1  UNL     1     -36.124  13.769  -4.501  1.00 20.00     0.268 C 
HETATM    8  O7  UNL     1     -35.831  12.579  -4.481  1.00 20.00    -0.304 OA
ENDBRANCH   4   7
TORSDOF 1
ENDMDL
MODEL 2
REMARK VINA RESULT:      -3.9      1.286      2.671
REMARK  1 active torsions:
REMARK  status: ('A' for Active; 'I' for Inactive)
REMARK    1  A    between atoms: C1_1  and  C5_5 
ROOT
HETATM    1  C2  UNL     1     -34.611  15.645  -2.667  1.00 20.00     0.029 C 
HETATM    2  C3  UNL     1     -34.094  14.884  -3.866  1.00 20.00     0.047 C 
HETATM    3  C4  UNL     1     -35.493  16.689  -3.315  1.00 20.00     0.169 C 
HETATM    4  C5  UNL     1     -35.292  14.908  -4.807  1.00 20.00     0.110 C 
HETATM    5  C6  UNL     1     -34.900  14.927  -6.275  1.00 20.00     0.053 C 
HETATM    6  O8  UNL     1     -36.050  16.083  -4.490  1.00 20.00    -0.373 OA
ENDROOT
BRANCH   4   7
HETATM    7  C1  UNL     1     -36.214  13.747  -4.564  1.00 20.00     0.268 C 
HETATM    8  O7  UNL     1     -35.830  12.586  -4.473  1.00 20.00    -0.304 OA
ENDBRANCH   4   7
TORSDOF 1
ENDMDL
MODEL 3
REMARK VINA RESULT:      -3.8     18.743     20.003
REMARK  1 active torsions:
REMARK  status: ('A' for Active; 'I' for Inactive)
REMARK    1  A    between atoms: C1_1  and  C5_5 
ROOT
HETATM    1  C2  UNL     1     -23.256  18.381   9.234  1.00 20.00     0.029 C 
HETATM    2  C3  UNL     1     -23.094  17.030   9.893  1.00 20.00     0.047 C 
HETATM    3  C4  UNL     1     -24.685  18.731   9.586  1.00 20.00     0.169 C 
HETATM    4  C5  UNL     1     -23.928  17.185  11.158  1.00 20.00     0.110 C 
HETATM    5  C6  UNL     1     -24.573  15.886  11.612  1.00 20.00     0.053 C 
HETATM    6  O8  UNL     1     -24.941  18.159  10.876  1.00 20.00    -0.373 OA
ENDROOT
BRANCH   4   7
HETATM    7  C1  UNL     1     -23.121  17.749  12.292  1.00 20.00     0.268 C 
HETATM    8  O7  UNL     1     -21.896  17.716  12.332  1.00 20.00    -0.304 OA
ENDBRANCH   4   7
TORSDOF 1
ENDMDL
MODEL 4
REMARK VINA RESULT:      -3.7     18.622     19.627
REMARK  1 active torsions:
REMARK  status: ('A' for Active; 'I' for Inactive)
REMARK    1  A    between atoms: C1_1  and  C5_5 
ROOT
HETATM    1  C2  UNL     1     -23.147  16.753  11.955  1.00 20.00     0.029 C 
HETATM    2  C3  UNL     1     -22.820  18.030  11.217  1.00 20.00     0.047 C 
HETATM    3  C4  UNL     1     -24.389  16.282  11.230  1.00 20.00     0.169 C 
HETATM    4  C5  UNL     1     -23.219  17.690   9.787  1.00 20.00     0.110 C 
HETATM    5  C6  UNL     1     -23.721  18.891   9.003  1.00 20.00     0.053 C 
HETATM    6  O8  UNL     1     -24.247  16.694   9.864  1.00 20.00    -0.373 OA
ENDROOT
BRANCH   4   7
HETATM    7  C1  UNL     1     -22.088  17.053   9.030  1.00 20.00     0.268 C 
HETATM    8  O7  UNL     1     -22.139  16.786   7.834  1.00 20.00    -0.304 OA
ENDBRANCH   4   7
TORSDOF 1
ENDMDL
MODEL 5
REMARK VINA RESULT:      -3.6      9.987     11.160
REMARK  1 active torsions:
REMARK  status: ('A' for Active; 'I' for Inactive)
REMARK    1  A    between atoms: C1_1  and  C5_5 
ROOT
HETATM    1  C2  UNL     1     -41.423   6.048   0.445  1.00 20.00     0.029 C 
HETATM    2  C3  UNL     1     -42.525   7.050   0.697  1.00 20.00     0.047 C 
HETATM    3  C4  UNL     1     -41.212   6.183  -1.047  1.00 20.00     0.169 C 
HETATM    4  C5  UNL     1     -42.186   8.161  -0.289  1.00 20.00     0.110 C 
HETATM    5  C6  UNL     1     -43.411   8.889  -0.816  1.00 20.00     0.053 C 
HETATM    6  O8  UNL     1     -41.475   7.554  -1.376  1.00 20.00    -0.373 OA
ENDROOT
BRANCH   4   7
HETATM    7  C1  UNL     1     -41.242   9.165   0.308  1.00 20.00     0.268 C 
HETATM    8  O7  UNL     1     -41.486  10.364   0.379  1.00 20.00    -0.304 OA
ENDBRANCH   4   7
TORSDOF 1
ENDMDL
MODEL 6
REMARK VINA RESULT:      -3.6     10.412     11.833
REMARK  1 active torsions:
REMARK  status: ('A' for Active; 'I' for Inactive)
REMARK    1  A    between atoms: C1_1  and  C5_5 
ROOT
HETATM    1  C2  UNL     1     -42.294   5.776   0.718  1.00 20.00     0.029 C 
HETATM    2  C3  UNL     1     -41.230   6.806   0.418  1.00 20.00     0.047 C 
HETATM    3  C4  UNL     1     -43.404   6.629   1.289  1.00 20.00     0.169 C 
HETATM    4  C5  UNL     1     -42.058   8.007  -0.024  1.00 20.00     0.110 C 
HETATM    5  C6  UNL     1     -41.416   9.339   0.329  1.00 20.00     0.053 C 
HETATM    6  O8  UNL     1     -43.334   7.895   0.618  1.00 20.00    -0.373 OA
ENDROOT
BRANCH   4   7
HETATM    7  C1  UNL     1     -42.337   7.977  -1.500  1.00 20.00     0.268 C 
HETATM    8  O7  UNL     1     -43.417   7.645  -1.977  1.00 20.00    -0.304 OA
ENDBRANCH   4   7
TORSDOF 1
ENDMDL
MODEL 7
REMARK VINA RESULT:      -3.6     19.111     19.913
REMARK  1 active torsions:
REMARK  status: ('A' for Active; 'I' for Inactive)
REMARK    1  A    between atoms: C1_1  and  C5_5 
ROOT
HETATM    1  C2  UNL     1     -22.159  17.895  10.380  1.00 20.00     0.029 C 
HETATM    2  C3  UNL     1     -22.800  17.410  11.660  1.00 20.00     0.047 C 
HETATM    3  C4  UNL     1     -22.763  16.960   9.354  1.00 20.00     0.169 C 
HETATM    4  C5  UNL     1     -24.194  17.011  11.194  1.00 20.00     0.110 C 
HETATM    5  C6  UNL     1     -24.781  15.853  11.984  1.00 20.00     0.053 C 
HETATM    6  O8  UNL     1     -24.088  16.652   9.810  1.00 20.00    -0.373 OA
ENDROOT
BRANCH   4   7
HETATM    7  C1  UNL     1     -25.150  18.169  11.244  1.00 20.00     0.268 C 
HETATM    8  O7  UNL     1     -25.413  18.785  12.271  1.00 20.00    -0.304 OA
ENDBRANCH   4   7
TORSDOF 1
ENDMDL
MODEL 8
REMARK VINA RESULT:      -3.6     18.812     19.838
REMARK  1 active torsions:
REMARK  status: ('A' for Active; 'I' for Inactive)
REMARK    1  A    between atoms: C1_1  and  C5_5 
ROOT
HETATM    1  C2  UNL     1     -24.212  16.994  11.587  1.00 20.00     0.029 C 
HETATM    2  C3  UNL     1     -23.920  16.614  10.154  1.00 20.00     0.047 C 
HETATM    3  C4  UNL     1     -22.845  17.408  12.086  1.00 20.00     0.169 C 
HETATM    4  C5  UNL     1     -22.845  17.621   9.764  1.00 20.00     0.110 C 
HETATM    5  C6  UNL     1     -21.852  17.075   8.752  1.00 20.00     0.053 C 
HETATM    6  O8  UNL     1     -22.160  17.990  10.968  1.00 20.00    -0.373 OA
ENDROOT
BRANCH   4   7
HETATM    7  C1  UNL     1     -23.440  18.891   9.226  1.00 20.00     0.268 C 
HETATM    8  O7  UNL     1     -23.561  19.127   8.029  1.00 20.00    -0.304 OA
ENDBRANCH   4   7
TORSDOF 1
ENDMDL
MODEL 9
REMARK VINA RESULT:      -3.5     18.781     19.605
REMARK  1 active torsions:
REMARK  status: ('A' for Active; 'I' for Inactive)
REMARK    1  A    between atoms: C1_1  and  C5_5 
ROOT
HETATM    1  C2  UNL     1     -23.597  18.483   8.682  1.00 20.00     0.029 C 
HETATM    2  C3  UNL     1     -24.558  18.552   9.846  1.00 20.00     0.047 C 
HETATM    3  C4  UNL     1     -22.256  18.486   9.383  1.00 20.00     0.169 C 
HETATM    4  C5  UNL     1     -23.847  17.718  10.904  1.00 20.00     0.110 C 
HETATM    5  C6  UNL     1     -24.123  18.188  12.322  1.00 20.00     0.053 C 
HETATM    6  O8  UNL     1     -22.443  17.799  10.628  1.00 20.00    -0.373 OA
ENDROOT
BRANCH   4   7
HETATM    7  C1  UNL     1     -24.203  16.262  10.796  1.00 20.00     0.268 C 
HETATM    8  O7  UNL     1     -24.631  15.599  11.735  1.00 20.00    -0.304 OA
ENDBRANCH   4   7
TORSDOF 1
ENDMDL
