MODEL 1
REMARK VINA RESULT:      -3.5      0.000      0.000
REMARK  2 active torsions:
REMARK  status: ('A' for Active; 'I' for Inactive)
REMARK    1  A    between atoms: C3_3  and  C4_4 
REMARK    2  A    between atoms: C3_3  and  O6_6 
ROOT
HETATM    1  C1  UNL     1     -34.251   5.117   4.079  1.00 20.00     0.081 C 
HETATM    2  C4  UNL     1     -33.987   6.553   4.225  1.00 20.00     0.212 C 
HETATM    3  N5  UNL     1     -34.465   3.982   3.966  1.00 20.00    -0.196 NA
HETATM    4 CL7  UNL     1     -33.897   6.930   5.967  1.00 20.00    -0.107 Cl
ENDROOT
BRANCH   2   5
HETATM    5  C3  UNL     1     -32.706   6.979   3.513  1.00 20.00     0.202 C 
BRANCH   5   6
HETATM    6  O6  UNL     1     -32.801   6.755   2.111  1.00 20.00    -0.394 OA
HETATM    7  C2  UNL     1     -32.548   7.944   1.376  1.00 20.00     0.201 C 
ENDBRANCH   5   6
ENDBRANCH   2   5
TORSDOF 2
ENDMDL
MODEL 2
REMARK VINA RESULT:      -3.4     16.355     16.860
REMARK  2 active torsions:
REMARK  status: ('A' for Active; 'I' for Inactive)
REMARK    1  A    between atoms: C3_3  and  C4_4 
REMARK    2  A    between atoms: C3_3  and  O6_6 
ROOT
HETATM    1  C1  UNL     1     -22.256  17.313   8.299  1.00 20.00     0.081 C 
HETATM    2  C4  UNL     1     -22.929  17.822   9.499  1.00 20.00     0.212 C 
HETATM    3  N5  UNL     1     -21.721  16.914   7.349  1.00 20.00    -0.196 NA
HETATM    4 CL7  UNL     1     -23.945  19.211   9.023  1.00 20.00    -0.107 Cl
ENDROOT
BRANCH   2   5
HETATM    5  C3  UNL     1     -23.768  16.751  10.189  1.00 20.00     0.202 C 
BRANCH   5   6
HETATM    6  O6  UNL     1     -23.422  16.638  11.566  1.00 20.00    -0.394 OA
HETATM    7  C2  UNL     1     -22.550  17.683  11.970  1.00 20.00     0.201 C 
ENDBRANCH   5   6
ENDBRANCH   2   5
TORSDOF 2
ENDMDL
MODEL 3
REMARK VINA RESULT:      -3.3     11.789     12.086
REMARK  2 active torsions:
REMARK  status: ('A' for Active; 'I' for Inactive)
REMARK    1  A    between atoms: C3_3  and  C4_4 
REMARK    2  A    between atoms: C3_3  and  O6_6 
ROOT
HETATM    1  C1  UNL     1     -36.438  14.497  -4.291  1.00 20.00     0.081 C 
HETATM    2  C4  UNL     1     -35.313  15.423  -4.115  1.00 20.00     0.212 C 
HETATM    3  N5  UNL     1     -37.331  13.769  -4.429  1.00 20.00    -0.196 NA
HETATM    4 CL7  UNL     1     -35.053  15.659  -2.364  1.00 20.00    -0.107 Cl
ENDROOT
BRANCH   2   5
HETATM    5  C3  UNL     1     -34.039  14.918  -4.786  1.00 20.00     0.202 C 
BRANCH   5   6
HETATM    6  O6  UNL     1     -34.323  14.350  -6.060  1.00 20.00    -0.394 OA
HETATM    7  C2  UNL     1     -34.034  15.261  -7.111  1.00 20.00     0.201 C 
ENDBRANCH   5   6
ENDBRANCH   2   5
TORSDOF 2
ENDMDL
MODEL 4
REMARK VINA RESULT:      -3.2     11.736     11.878
REMARK  2 active torsions:
REMARK  status: ('A' for Active; 'I' for Inactive)
REMARK    1  A    between atoms: C3_3  and  C4_4 
REMARK    2  A    between atoms: C3_3  and  O6_6 
ROOT
HETATM    1  C1  UNL     1     -36.411  14.028  -4.345  1.00 20.00     0.081 C 
HETATM    2  C4  UNL     1     -34.975  14.289  -4.197  1.00 20.00     0.212 C 
HETATM    3  N5  UNL     1     -37.546  13.817  -4.465  1.00 20.00    -0.196 NA
HETATM    4 CL7  UNL     1     -34.351  14.882  -5.761  1.00 20.00    -0.107 Cl
ENDROOT
BRANCH   2   5
HETATM    5  C3  UNL     1     -34.682  15.292  -3.084  1.00 20.00     0.202 C 
BRANCH   5   6
HETATM    6  O6  UNL     1     -33.333  15.742  -3.143  1.00 20.00    -0.394 OA
HETATM    7  C2  UNL     1     -33.176  16.998  -2.500  1.00 20.00     0.201 C 
ENDBRANCH   5   6
ENDBRANCH   2   5
TORSDOF 2
ENDMDL
MODEL 5
REMARK VINA RESULT:      -3.2      9.265      9.525
REMARK  2 active torsions:
REMARK  status: ('A' for Active; 'I' for Inactive)
REMARK    1  A    between atoms: C3_3  and  C4_4 
REMARK    2  A    between atoms: C3_3  and  O6_6 
ROOT
HETATM    1  C1  UNL     1     -41.453   9.107   0.359  1.00 20.00     0.081 C 
HETATM    2  C4  UNL     1     -41.490   7.642   0.291  1.00 20.00     0.212 C 
HETATM    3  N5  UNL     1     -41.423  10.266   0.418  1.00 20.00    -0.196 NA
HETATM    4 CL7  UNL     1     -42.995   7.084   1.073  1.00 20.00    -0.107 Cl
ENDROOT
BRANCH   2   5
HETATM    5  C3  UNL     1     -41.406   7.128  -1.144  1.00 20.00     0.202 C 
BRANCH   5   6
HETATM    6  O6  UNL     1     -40.746   5.868  -1.198  1.00 20.00    -0.394 OA
HETATM    7  C2  UNL     1     -41.651   4.820  -1.511  1.00 20.00     0.201 C 
ENDBRANCH   5   6
ENDBRANCH   2   5
TORSDOF 2
ENDMDL
MODEL 6
REMARK VINA RESULT:      -3.1     16.079     16.420
REMARK  2 active torsions:
REMARK  status: ('A' for Active; 'I' for Inactive)
REMARK    1  A    between atoms: C3_3  and  C4_4 
REMARK    2  A    between atoms: C3_3  and  O6_6 
ROOT
HETATM    1  C1  UNL     1     -23.341  16.825   9.788  1.00 20.00     0.081 C 
HETATM    2  C4  UNL     1     -24.399  17.021  10.786  1.00 20.00     0.212 C 
HETATM    3  N5  UNL     1     -22.507  16.666   8.997  1.00 20.00    -0.196 NA
HETATM    4 CL7  UNL     1     -24.633  15.484  11.663  1.00 20.00    -0.107 Cl
ENDROOT
BRANCH   2   5
HETATM    5  C3  UNL     1     -24.074  18.152  11.757  1.00 20.00     0.202 C 
BRANCH   5   6
HETATM    6  O6  UNL     1     -25.260  18.690  12.331  1.00 20.00    -0.394 OA
HETATM    7  C2  UNL     1     -26.209  19.040  11.334  1.00 20.00     0.201 C 
ENDBRANCH   5   6
ENDBRANCH   2   5
TORSDOF 2
ENDMDL
MODEL 7
REMARK VINA RESULT:      -3.1      2.774      3.726
REMARK  2 active torsions:
REMARK  status: ('A' for Active; 'I' for Inactive)
REMARK    1  A    between atoms: C3_3  and  C4_4 
REMARK    2  A    between atoms: C3_3  and  O6_6 
ROOT
HETATM    1  C1  UNL     1     -32.634   7.883   1.480  1.00 20.00     0.081 C 
HETATM    2  C4  UNL     1     -32.247   6.888   2.487  1.00 20.00     0.212 C 
HETATM    3  N5  UNL     1     -32.935   8.673   0.684  1.00 20.00    -0.196 NA
HETATM    4 CL7  UNL     1     -31.878   7.747   4.008  1.00 20.00    -0.107 Cl
ENDROOT
BRANCH   2   5
HETATM    5  C3  UNL     1     -33.334   5.840   2.709  1.00 20.00     0.202 C 
BRANCH   5   6
HETATM    6  O6  UNL     1     -34.031   6.076   3.927  1.00 20.00    -0.394 OA
HETATM    7  C2  UNL     1     -34.803   4.948   4.312  1.00 20.00     0.201 C 
ENDBRANCH   5   6
ENDBRANCH   2   5
TORSDOF 2
ENDMDL
MODEL 8
REMARK VINA RESULT:      -3.0     16.250     16.427
REMARK  2 active torsions:
REMARK  status: ('A' for Active; 'I' for Inactive)
REMARK    1  A    between atoms: C3_3  and  C4_4 
REMARK    2  A    between atoms: C3_3  and  O6_6 
ROOT
HETATM    1  C1  UNL     1     -22.561  17.086   8.926  1.00 20.00     0.081 C 
HETATM    2  C4  UNL     1     -23.734  17.659   9.595  1.00 20.00     0.212 C 
HETATM    3  N5  UNL     1     -21.633  16.628   8.399  1.00 20.00    -0.196 NA
HETATM    4 CL7  UNL     1     -23.335  17.893  11.319  1.00 20.00    -0.107 Cl
ENDROOT
BRANCH   2   5
HETATM    5  C3  UNL     1     -24.176  18.975   8.960  1.00 20.00     0.202 C 
BRANCH   5   6
HETATM    6  O6  UNL     1     -23.788  19.037   7.592  1.00 20.00    -0.394 OA
HETATM    7  C2  UNL     1     -24.906  19.256   6.743  1.00 20.00     0.201 C 
ENDBRANCH   5   6
ENDBRANCH   2   5
TORSDOF 2
ENDMDL
MODEL 9
REMARK VINA RESULT:      -3.0     16.859     16.976
REMARK  2 active torsions:
REMARK  status: ('A' for Active; 'I' for Inactive)
REMARK    1  A    between atoms: C3_3  and  C4_4 
REMARK    2  A    between atoms: C3_3  and  O6_6 
ROOT
HETATM    1  C1  UNL     1     -25.159  18.342  12.137  1.00 20.00     0.081 C 
HETATM    2  C4  UNL     1     -24.068  17.363  12.210  1.00 20.00     0.212 C 
HETATM    3  N5  UNL     1     -26.025  19.112  12.083  1.00 20.00    -0.196 NA
HETATM    4 CL7  UNL     1     -24.655  15.820  11.530  1.00 20.00    -0.107 Cl
ENDROOT
BRANCH   2   5
HETATM    5  C3  UNL     1     -22.818  17.836  11.473  1.00 20.00     0.202 C 
BRANCH   5   6
HETATM    6  O6  UNL     1     -23.148  18.367  10.195  1.00 20.00    -0.394 OA
HETATM    7  C2  UNL     1     -22.031  18.346   9.318  1.00 20.00     0.201 C 
ENDBRANCH   5   6
ENDBRANCH   2   5
TORSDOF 2
ENDMDL
