MODEL 1
REMARK VINA RESULT:      -4.4      0.000      0.000
REMARK  5 active torsions:
REMARK  status: ('A' for Active; 'I' for Inactive)
REMARK    1  A    between atoms: C1_1  and  C3_3 
REMARK    2  A    between atoms: C3_3  and  C7_7 
REMARK    3  A    between atoms: C4_4  and  C5_5 
REMARK    4  A    between atoms: C4_4  and  C6_6 
REMARK    5  A    between atoms: C5_5  and  C7_7 
ROOT
HETATM    1  C2  UNL     1     -33.058   4.843   2.067  1.00 20.00     0.010 C 
HETATM    2  C7  UNL     1     -33.076   5.846   3.227  1.00 20.00    -0.012 C 
ENDROOT
BRANCH   2   3
HETATM    3  C3  UNL     1     -32.297   7.108   2.818  1.00 20.00     0.073 C 
BRANCH   3   4
HETATM    4  C1  UNL     1     -32.581   7.576   1.407  1.00 20.00     0.231 C 
HETATM    5  O8  UNL     1     -32.871   8.725   1.093  1.00 20.00    -0.307 OA
ENDBRANCH   3   4
ENDBRANCH   2   3
BRANCH   2   6
HETATM    6  C5  UNL     1     -34.520   6.206   3.638  1.00 20.00     0.005 C 
BRANCH   6   7
HETATM    7  C4  UNL     1     -35.172   5.157   4.548  1.00 20.00     0.015 C 
BRANCH   7   8
HETATM    8  C6  UNL     1     -34.762   5.294   6.012  1.00 20.00     0.114 C 
HETATM    9 CL9  UNL     1     -34.053   6.888   6.360  1.00 20.00    -0.130 Cl
ENDBRANCH   7   8
ENDBRANCH   6   7
ENDBRANCH   2   6
TORSDOF 5
ENDMDL
MODEL 2
REMARK VINA RESULT:      -4.3      3.362      4.725
REMARK  5 active torsions:
REMARK  status: ('A' for Active; 'I' for Inactive)
REMARK    1  A    between atoms: C1_1  and  C3_3 
REMARK    2  A    between atoms: C3_3  and  C7_7 
REMARK    3  A    between atoms: C4_4  and  C5_5 
REMARK    4  A    between atoms: C4_4  and  C6_6 
REMARK    5  A    between atoms: C5_5  and  C7_7 
ROOT
HETATM    1  C2  UNL     1     -33.466   4.952   2.712  1.00 20.00     0.010 C 
HETATM    2  C7  UNL     1     -33.586   6.420   3.134  1.00 20.00    -0.012 C 
ENDROOT
BRANCH   2   3
HETATM    3  C3  UNL     1     -33.988   6.491   4.618  1.00 20.00     0.073 C 
BRANCH   3   4
HETATM    4  C1  UNL     1     -34.835   5.326   5.082  1.00 20.00     0.231 C 
HETATM    5  O8  UNL     1     -35.008   5.004   6.252  1.00 20.00    -0.307 OA
ENDBRANCH   3   4
ENDBRANCH   2   3
BRANCH   2   6
HETATM    6  C5  UNL     1     -32.267   7.187   2.890  1.00 20.00     0.005 C 
BRANCH   6   7
HETATM    7  C4  UNL     1     -32.073   7.610   1.428  1.00 20.00     0.015 C 
BRANCH   7   8
HETATM    8  C6  UNL     1     -32.849   8.872   1.060  1.00 20.00     0.114 C 
HETATM    9 CL9  UNL     1     -33.573   8.761  -0.561  1.00 20.00    -0.130 Cl
ENDBRANCH   7   8
ENDBRANCH   6   7
ENDBRANCH   2   6
TORSDOF 5
ENDMDL
MODEL 3
REMARK VINA RESULT:      -4.3      1.211      1.964
REMARK  5 active torsions:
REMARK  status: ('A' for Active; 'I' for Inactive)
REMARK    1  A    between atoms: C1_1  and  C3_3 
REMARK    2  A    between atoms: C3_3  and  C7_7 
REMARK    3  A    between atoms: C4_4  and  C5_5 
REMARK    4  A    between atoms: C4_4  and  C6_6 
REMARK    5  A    between atoms: C5_5  and  C7_7 
ROOT
HETATM    1  C2  UNL     1     -31.815   7.581   3.627  1.00 20.00     0.010 C 
HETATM    2  C7  UNL     1     -32.775   7.120   2.524  1.00 20.00    -0.012 C 
ENDROOT
BRANCH   2   3
HETATM    3  C3  UNL     1     -32.242   7.590   1.159  1.00 20.00     0.073 C 
BRANCH   3   4
HETATM    4  C1  UNL     1     -33.013   8.749   0.564  1.00 20.00     0.231 C 
HETATM    5  O8  UNL     1     -33.708   8.687  -0.444  1.00 20.00    -0.307 OA
ENDBRANCH   3   4
ENDBRANCH   2   3
BRANCH   2   6
HETATM    6  C5  UNL     1     -32.957   5.587   2.538  1.00 20.00     0.005 C 
BRANCH   6   7
HETATM    7  C4  UNL     1     -34.168   5.127   3.361  1.00 20.00     0.015 C 
BRANCH   7   8
HETATM    8  C6  UNL     1     -34.518   6.084   4.499  1.00 20.00     0.114 C 
HETATM    9 CL9  UNL     1     -34.720   5.233   6.047  1.00 20.00    -0.130 Cl
ENDBRANCH   7   8
ENDBRANCH   6   7
ENDBRANCH   2   6
TORSDOF 5
ENDMDL
MODEL 4
REMARK VINA RESULT:      -4.2      3.043      4.374
REMARK  5 active torsions:
REMARK  status: ('A' for Active; 'I' for Inactive)
REMARK    1  A    between atoms: C1_1  and  C3_3 
REMARK    2  A    between atoms: C3_3  and  C7_7 
REMARK    3  A    between atoms: C4_4  and  C5_5 
REMARK    4  A    between atoms: C4_4  and  C6_6 
REMARK    5  A    between atoms: C5_5  and  C7_7 
ROOT
HETATM    1  C2  UNL     1     -33.082   4.485   2.689  1.00 20.00     0.010 C 
HETATM    2  C7  UNL     1     -34.035   5.619   3.081  1.00 20.00    -0.012 C 
ENDROOT
BRANCH   2   3
HETATM    3  C3  UNL     1     -35.050   5.095   4.113  1.00 20.00     0.073 C 
BRANCH   3   4
HETATM    4  C1  UNL     1     -34.806   5.590   5.522  1.00 20.00     0.231 C 
HETATM    5  O8  UNL     1     -34.306   4.926   6.423  1.00 20.00    -0.307 OA
ENDBRANCH   3   4
ENDBRANCH   2   3
BRANCH   2   6
HETATM    6  C5  UNL     1     -33.266   6.834   3.643  1.00 20.00     0.005 C 
BRANCH   6   7
HETATM    7  C4  UNL     1     -32.135   7.314   2.724  1.00 20.00     0.015 C 
BRANCH   7   8
HETATM    8  C6  UNL     1     -32.599   7.597   1.298  1.00 20.00     0.114 C 
HETATM    9 CL9  UNL     1     -32.985   9.316   1.050  1.00 20.00    -0.130 Cl
ENDBRANCH   7   8
ENDBRANCH   6   7
ENDBRANCH   2   6
TORSDOF 5
ENDMDL
MODEL 5
REMARK VINA RESULT:      -4.1     11.224     12.050
REMARK  5 active torsions:
REMARK  status: ('A' for Active; 'I' for Inactive)
REMARK    1  A    between atoms: C1_1  and  C3_3 
REMARK    2  A    between atoms: C3_3  and  C7_7 
REMARK    3  A    between atoms: C4_4  and  C5_5 
REMARK    4  A    between atoms: C4_4  and  C6_6 
REMARK    5  A    between atoms: C5_5  and  C7_7 
ROOT
HETATM    1  C2  UNL     1     -35.842  16.355  -3.027  1.00 20.00     0.010 C 
HETATM    2  C7  UNL     1     -34.559  15.550  -2.792  1.00 20.00    -0.012 C 
ENDROOT
BRANCH   2   3
HETATM    3  C3  UNL     1     -34.420  14.483  -3.892  1.00 20.00     0.073 C 
BRANCH   3   4
HETATM    4  C1  UNL     1     -35.730  13.839  -4.293  1.00 20.00     0.231 C 
HETATM    5  O8  UNL     1     -35.888  12.643  -4.508  1.00 20.00    -0.307 OA
ENDBRANCH   3   4
ENDBRANCH   2   3
BRANCH   2   6
HETATM    6  C5  UNL     1     -33.315  16.466  -2.762  1.00 20.00     0.005 C 
BRANCH   6   7
HETATM    7  C4  UNL     1     -33.382  17.545  -1.673  1.00 20.00     0.015 C 
BRANCH   7   8
HETATM    8  C6  UNL     1     -32.201  18.511  -1.712  1.00 20.00     0.114 C 
HETATM    9 CL9  UNL     1     -31.038  18.196  -0.404  1.00 20.00    -0.130 Cl
ENDBRANCH   7   8
ENDBRANCH   6   7
ENDBRANCH   2   6
TORSDOF 5
ENDMDL
MODEL 6
REMARK VINA RESULT:      -3.8     11.046     11.433
REMARK  5 active torsions:
REMARK  status: ('A' for Active; 'I' for Inactive)
REMARK    1  A    between atoms: C1_1  and  C3_3 
REMARK    2  A    between atoms: C3_3  and  C7_7 
REMARK    3  A    between atoms: C4_4  and  C5_5 
REMARK    4  A    between atoms: C4_4  and  C6_6 
REMARK    5  A    between atoms: C5_5  and  C7_7 
ROOT
HETATM    1  C2  UNL     1     -33.048  14.757  -4.246  1.00 20.00     0.010 C 
HETATM    2  C7  UNL     1     -34.229  15.608  -3.767  1.00 20.00    -0.012 C 
ENDROOT
BRANCH   2   3
HETATM    3  C3  UNL     1     -35.410  14.687  -3.415  1.00 20.00     0.073 C 
BRANCH   3   4
HETATM    4  C1  UNL     1     -35.855  13.796  -4.555  1.00 20.00     0.231 C 
HETATM    5  O8  UNL     1     -35.845  12.570  -4.534  1.00 20.00    -0.307 OA
ENDBRANCH   3   4
ENDBRANCH   2   3
BRANCH   2   6
HETATM    6  C5  UNL     1     -33.840  16.481  -2.553  1.00 20.00     0.005 C 
BRANCH   6   7
HETATM    7  C4  UNL     1     -34.961  16.608  -1.513  1.00 20.00     0.015 C 
BRANCH   7   8
HETATM    8  C6  UNL     1     -34.643  17.614  -0.409  1.00 20.00     0.114 C 
HETATM    9 CL9  UNL     1     -35.676  17.383   1.021  1.00 20.00    -0.130 Cl
ENDBRANCH   7   8
ENDBRANCH   6   7
ENDBRANCH   2   6
TORSDOF 5
ENDMDL
MODEL 7
REMARK VINA RESULT:      -3.8      3.001      4.518
REMARK  5 active torsions:
REMARK  status: ('A' for Active; 'I' for Inactive)
REMARK    1  A    between atoms: C1_1  and  C3_3 
REMARK    2  A    between atoms: C3_3  and  C7_7 
REMARK    3  A    between atoms: C4_4  and  C5_5 
REMARK    4  A    between atoms: C4_4  and  C6_6 
REMARK    5  A    between atoms: C5_5  and  C7_7 
ROOT
HETATM    1  C2  UNL     1     -33.636   7.621   6.311  1.00 20.00     0.010 C 
HETATM    2  C7  UNL     1     -33.592   6.503   5.264  1.00 20.00    -0.012 C 
ENDROOT
BRANCH   2   3
HETATM    3  C3  UNL     1     -34.728   5.502   5.543  1.00 20.00     0.073 C 
BRANCH   3   4
HETATM    4  C1  UNL     1     -35.039   4.586   4.380  1.00 20.00     0.231 C 
HETATM    5  O8  UNL     1     -34.270   3.749   3.919  1.00 20.00    -0.307 OA
ENDBRANCH   3   4
ENDBRANCH   2   3
BRANCH   2   6
HETATM    6  C5  UNL     1     -33.704   7.068   3.830  1.00 20.00     0.005 C 
BRANCH   6   7
HETATM    7  C4  UNL     1     -32.344   7.266   3.149  1.00 20.00     0.015 C 
BRANCH   7   8
HETATM    8  C6  UNL     1     -32.438   7.315   1.625  1.00 20.00     0.114 C 
HETATM    9 CL9  UNL     1     -32.902   8.929   1.038  1.00 20.00    -0.130 Cl
ENDBRANCH   7   8
ENDBRANCH   6   7
ENDBRANCH   2   6
TORSDOF 5
ENDMDL
MODEL 8
REMARK VINA RESULT:      -3.8      2.400      3.834
REMARK  5 active torsions:
REMARK  status: ('A' for Active; 'I' for Inactive)
REMARK    1  A    between atoms: C1_1  and  C3_3 
REMARK    2  A    between atoms: C3_3  and  C7_7 
REMARK    3  A    between atoms: C4_4  and  C5_5 
REMARK    4  A    between atoms: C4_4  and  C6_6 
REMARK    5  A    between atoms: C5_5  and  C7_7 
ROOT
HETATM    1  C2  UNL     1     -33.954   3.639   4.037  1.00 20.00     0.010 C 
HETATM    2  C7  UNL     1     -34.878   4.829   4.318  1.00 20.00    -0.012 C 
ENDROOT
BRANCH   2   3
HETATM    3  C3  UNL     1     -34.818   5.176   5.816  1.00 20.00     0.073 C 
BRANCH   3   4
HETATM    4  C1  UNL     1     -34.368   6.592   6.102  1.00 20.00     0.231 C 
HETATM    5  O8  UNL     1     -33.204   6.941   6.259  1.00 20.00    -0.307 OA
ENDBRANCH   3   4
ENDBRANCH   2   3
BRANCH   2   6
HETATM    6  C5  UNL     1     -34.497   6.055   3.460  1.00 20.00     0.005 C 
BRANCH   6   7
HETATM    7  C4  UNL     1     -33.275   5.813   2.564  1.00 20.00     0.015 C 
BRANCH   7   8
HETATM    8  C6  UNL     1     -32.524   7.095   2.213  1.00 20.00     0.114 C 
HETATM    9 CL9  UNL     1     -31.541   7.685   3.572  1.00 20.00    -0.130 Cl
ENDBRANCH   7   8
ENDBRANCH   6   7
ENDBRANCH   2   6
TORSDOF 5
ENDMDL
MODEL 9
REMARK VINA RESULT:      -3.8     11.328     12.071
REMARK  5 active torsions:
REMARK  status: ('A' for Active; 'I' for Inactive)
REMARK    1  A    between atoms: C1_1  and  C3_3 
REMARK    2  A    between atoms: C3_3  and  C7_7 
REMARK    3  A    between atoms: C4_4  and  C5_5 
REMARK    4  A    between atoms: C4_4  and  C6_6 
REMARK    5  A    between atoms: C5_5  and  C7_7 
ROOT
HETATM    1  C2  UNL     1     -35.293  16.540  -4.971  1.00 20.00     0.010 C 
HETATM    2  C7  UNL     1     -35.804  15.987  -3.637  1.00 20.00    -0.012 C 
ENDROOT
BRANCH   2   3
HETATM    3  C3  UNL     1     -36.722  14.781  -3.905  1.00 20.00     0.073 C 
BRANCH   3   4
HETATM    4  C1  UNL     1     -36.115  13.736  -4.815  1.00 20.00     0.231 C 
HETATM    5  O8  UNL     1     -35.839  12.589  -4.482  1.00 20.00    -0.307 OA
ENDBRANCH   3   4
ENDBRANCH   2   3
BRANCH   2   6
HETATM    6  C5  UNL     1     -34.637  15.586  -2.707  1.00 20.00     0.005 C 
BRANCH   6   7
HETATM    7  C4  UNL     1     -33.306  16.251  -3.084  1.00 20.00     0.015 C 
BRANCH   7   8
HETATM    8  C6  UNL     1     -32.898  17.364  -2.121  1.00 20.00     0.114 C 
HETATM    9 CL9  UNL     1     -34.102  17.608  -0.835  1.00 20.00    -0.130 Cl
ENDBRANCH   7   8
ENDBRANCH   6   7
ENDBRANCH   2   6
TORSDOF 5
ENDMDL
