MODEL 1
REMARK VINA RESULT:      -4.5      0.000      0.000
REMARK  2 active torsions:
REMARK  status: ('A' for Active; 'I' for Inactive)
REMARK    1  A    between atoms: C6_6  and  C7_7 
REMARK    2  A    between atoms: C7_7  and  C8_8 
ROOT
HETATM    1  C1  UNL     1     -24.208  18.896   7.818  1.00 20.00     0.059 C 
HETATM    2  C6  UNL     1     -24.355  18.801   9.281  1.00 20.00     0.129 C 
HETATM    3  N9  UNL     1     -24.091  18.975   6.667  1.00 20.00    -0.197 NA
ENDROOT
BRANCH   2   4
HETATM    4  C7  UNL     1     -24.021  17.385   9.810  1.00 20.00     0.002 C 
HETATM    5  C2  UNL     1     -22.635  16.959   9.286  1.00 20.00     0.011 C 
BRANCH   4   6
HETATM    6  C8  UNL     1     -24.155  17.266  11.378  1.00 20.00    -0.047 C 
HETATM    7  C3  UNL     1     -22.825  17.551  12.102  1.00 20.00     0.015 C 
HETATM    8  C4  UNL     1     -24.623  15.846  11.768  1.00 20.00     0.015 C 
HETATM    9  C5  UNL     1     -25.217  18.252  11.913  1.00 20.00     0.015 C 
ENDBRANCH   4   6
ENDBRANCH   2   4
TORSDOF 2
ENDMDL
MODEL 2
REMARK VINA RESULT:      -4.5     15.673     17.273
REMARK  2 active torsions:
REMARK  status: ('A' for Active; 'I' for Inactive)
REMARK    1  A    between atoms: C6_6  and  C7_7 
REMARK    2  A    between atoms: C7_7  and  C8_8 
ROOT
HETATM    1  C1  UNL     1     -35.857  13.878  -4.196  1.00 20.00     0.059 C 
HETATM    2  C6  UNL     1     -35.825  15.239  -3.633  1.00 20.00     0.129 C 
HETATM    3  N9  UNL     1     -35.883  12.807  -4.641  1.00 20.00    -0.197 NA
ENDROOT
BRANCH   2   4
HETATM    4  C7  UNL     1     -34.504  15.530  -2.880  1.00 20.00     0.002 C 
HETATM    5  C2  UNL     1     -33.316  15.342  -3.846  1.00 20.00     0.011 C 
BRANCH   4   6
HETATM    6  C8  UNL     1     -34.502  16.933  -2.160  1.00 20.00    -0.047 C 
HETATM    7  C3  UNL     1     -35.219  16.894  -0.798  1.00 20.00     0.015 C 
HETATM    8  C4  UNL     1     -35.202  17.990  -3.045  1.00 20.00     0.015 C 
HETATM    9  C5  UNL     1     -33.056  17.428  -1.930  1.00 20.00     0.015 C 
ENDBRANCH   4   6
ENDBRANCH   2   4
TORSDOF 2
ENDMDL
MODEL 3
REMARK VINA RESULT:      -4.5     15.661     17.234
REMARK  2 active torsions:
REMARK  status: ('A' for Active; 'I' for Inactive)
REMARK    1  A    between atoms: C6_6  and  C7_7 
REMARK    2  A    between atoms: C7_7  and  C8_8 
ROOT
HETATM    1  C1  UNL     1     -35.841  13.878  -4.210  1.00 20.00     0.059 C 
HETATM    2  C6  UNL     1     -35.784  15.256  -3.691  1.00 20.00     0.129 C 
HETATM    3  N9  UNL     1     -35.889  12.795  -4.621  1.00 20.00    -0.197 NA
ENDROOT
BRANCH   2   4
HETATM    4  C7  UNL     1     -34.474  15.533  -2.912  1.00 20.00     0.002 C 
HETATM    5  C2  UNL     1     -33.269  15.319  -3.850  1.00 20.00     0.011 C 
BRANCH   4   6
HETATM    6  C8  UNL     1     -34.465  16.942  -2.203  1.00 20.00    -0.047 C 
HETATM    7  C3  UNL     1     -33.037  17.450  -1.928  1.00 20.00     0.015 C 
HETATM    8  C4  UNL     1     -35.220  16.867  -0.856  1.00 20.00     0.015 C 
HETATM    9  C5  UNL     1     -35.194  17.995  -3.067  1.00 20.00     0.015 C 
ENDBRANCH   4   6
ENDBRANCH   2   4
TORSDOF 2
ENDMDL
MODEL 4
REMARK VINA RESULT:      -4.4     15.675     17.273
REMARK  2 active torsions:
REMARK  status: ('A' for Active; 'I' for Inactive)
REMARK    1  A    between atoms: C6_6  and  C7_7 
REMARK    2  A    between atoms: C7_7  and  C8_8 
ROOT
HETATM    1  C1  UNL     1     -35.854  13.884  -4.207  1.00 20.00     0.059 C 
HETATM    2  C6  UNL     1     -35.823  15.259  -3.676  1.00 20.00     0.129 C 
HETATM    3  N9  UNL     1     -35.880  12.804  -4.628  1.00 20.00    -0.197 NA
ENDROOT
BRANCH   2   4
HETATM    4  C7  UNL     1     -34.523  15.552  -2.888  1.00 20.00     0.002 C 
HETATM    5  C2  UNL     1     -33.310  15.362  -3.820  1.00 20.00     0.011 C 
BRANCH   4   6
HETATM    6  C8  UNL     1     -34.541  16.957  -2.172  1.00 20.00    -0.047 C 
HETATM    7  C3  UNL     1     -35.261  18.032  -3.008  1.00 20.00     0.015 C 
HETATM    8  C4  UNL     1     -33.097  17.439  -1.905  1.00 20.00     0.015 C 
HETATM    9  C5  UNL     1     -35.244  16.864  -0.799  1.00 20.00     0.015 C 
ENDBRANCH   4   6
ENDBRANCH   2   4
TORSDOF 2
ENDMDL
MODEL 5
REMARK VINA RESULT:      -4.3     15.816     16.568
REMARK  2 active torsions:
REMARK  status: ('A' for Active; 'I' for Inactive)
REMARK    1  A    between atoms: C6_6  and  C7_7 
REMARK    2  A    between atoms: C7_7  and  C8_8 
ROOT
HETATM    1  C1  UNL     1     -32.566   7.761   1.670  1.00 20.00     0.059 C 
HETATM    2  C6  UNL     1     -32.543   6.918   2.878  1.00 20.00     0.129 C 
HETATM    3  N9  UNL     1     -32.580   8.424   0.719  1.00 20.00    -0.197 NA
ENDROOT
BRANCH   2   4
HETATM    4  C7  UNL     1     -33.628   5.814   2.842  1.00 20.00     0.002 C 
HETATM    5  C2  UNL     1     -33.011   4.511   2.297  1.00 20.00     0.011 C 
BRANCH   4   6
HETATM    6  C8  UNL     1     -34.359   5.623   4.227  1.00 20.00    -0.047 C 
HETATM    7  C3  UNL     1     -33.918   6.666   5.271  1.00 20.00     0.015 C 
HETATM    8  C4  UNL     1     -34.065   4.216   4.796  1.00 20.00     0.015 C 
HETATM    9  C5  UNL     1     -35.890   5.728   4.057  1.00 20.00     0.015 C 
ENDBRANCH   4   6
ENDBRANCH   2   4
TORSDOF 2
ENDMDL
MODEL 6
REMARK VINA RESULT:      -4.3      1.474      2.405
REMARK  2 active torsions:
REMARK  status: ('A' for Active; 'I' for Inactive)
REMARK    1  A    between atoms: C6_6  and  C7_7 
REMARK    2  A    between atoms: C7_7  and  C8_8 
ROOT
HETATM    1  C1  UNL     1     -21.693  17.416   8.151  1.00 20.00     0.059 C 
HETATM    2  C6  UNL     1     -21.796  18.073   9.466  1.00 20.00     0.129 C 
HETATM    3  N9  UNL     1     -21.609  16.897   7.118  1.00 20.00    -0.197 NA
ENDROOT
BRANCH   2   4
HETATM    4  C7  UNL     1     -23.238  18.549   9.770  1.00 20.00     0.002 C 
HETATM    5  C2  UNL     1     -24.085  18.457   8.485  1.00 20.00     0.011 C 
BRANCH   4   6
HETATM    6  C8  UNL     1     -23.888  17.801  10.997  1.00 20.00    -0.047 C 
HETATM    7  C3  UNL     1     -24.187  16.322  10.689  1.00 20.00     0.015 C 
HETATM    8  C4  UNL     1     -25.212  18.488  11.401  1.00 20.00     0.015 C 
HETATM    9  C5  UNL     1     -22.958  17.859  12.229  1.00 20.00     0.015 C 
ENDBRANCH   4   6
ENDBRANCH   2   4
TORSDOF 2
ENDMDL
MODEL 7
REMARK VINA RESULT:      -4.3     16.385     17.992
REMARK  2 active torsions:
REMARK  status: ('A' for Active; 'I' for Inactive)
REMARK    1  A    between atoms: C6_6  and  C7_7 
REMARK    2  A    between atoms: C7_7  and  C8_8 
ROOT
HETATM    1  C1  UNL     1     -36.990  14.454  -4.567  1.00 20.00     0.059 C 
HETATM    2  C6  UNL     1     -35.732  15.150  -4.888  1.00 20.00     0.129 C 
HETATM    3  N9  UNL     1     -37.982  13.906  -4.318  1.00 20.00    -0.197 NA
ENDROOT
BRANCH   2   4
HETATM    4  C7  UNL     1     -34.690  15.027  -3.749  1.00 20.00     0.002 C 
HETATM    5  C2  UNL     1     -33.377  14.454  -4.320  1.00 20.00     0.011 C 
BRANCH   4   6
HETATM    6  C8  UNL     1     -34.485  16.374  -2.954  1.00 20.00    -0.047 C 
HETATM    7  C3  UNL     1     -35.125  16.331  -1.554  1.00 20.00     0.015 C 
HETATM    8  C4  UNL     1     -35.106  17.555  -3.734  1.00 20.00     0.015 C 
HETATM    9  C5  UNL     1     -32.981  16.687  -2.787  1.00 20.00     0.015 C 
ENDBRANCH   4   6
ENDBRANCH   2   4
TORSDOF 2
ENDMDL
MODEL 8
REMARK VINA RESULT:      -3.9     14.609     16.568
REMARK  2 active torsions:
REMARK  status: ('A' for Active; 'I' for Inactive)
REMARK    1  A    between atoms: C6_6  and  C7_7 
REMARK    2  A    between atoms: C7_7  and  C8_8 
ROOT
HETATM    1  C1  UNL     1     -32.212  18.182  -1.852  1.00 20.00     0.059 C 
HETATM    2  C6  UNL     1     -33.150  17.728  -2.893  1.00 20.00     0.129 C 
HETATM    3  N9  UNL     1     -31.474  18.543  -1.033  1.00 20.00    -0.197 NA
ENDROOT
BRANCH   2   4
HETATM    4  C7  UNL     1     -33.727  16.324  -2.588  1.00 20.00     0.002 C 
HETATM    5  C2  UNL     1     -34.921  16.464  -1.622  1.00 20.00     0.011 C 
BRANCH   4   6
HETATM    6  C8  UNL     1     -34.076  15.505  -3.890  1.00 20.00    -0.047 C 
HETATM    7  C3  UNL     1     -32.920  14.586  -4.330  1.00 20.00     0.015 C 
HETATM    8  C4  UNL     1     -34.401  16.466  -5.056  1.00 20.00     0.015 C 
HETATM    9  C5  UNL     1     -35.329  14.629  -3.667  1.00 20.00     0.015 C 
ENDBRANCH   4   6
ENDBRANCH   2   4
TORSDOF 2
ENDMDL
MODEL 9
REMARK VINA RESULT:      -3.9     14.563     16.528
REMARK  2 active torsions:
REMARK  status: ('A' for Active; 'I' for Inactive)
REMARK    1  A    between atoms: C6_6  and  C7_7 
REMARK    2  A    between atoms: C7_7  and  C8_8 
ROOT
HETATM    1  C1  UNL     1     -32.166  18.133  -1.784  1.00 20.00     0.059 C 
HETATM    2  C6  UNL     1     -33.135  17.728  -2.817  1.00 20.00     0.129 C 
HETATM    3  N9  UNL     1     -31.404  18.455  -0.971  1.00 20.00    -0.197 NA
ENDROOT
BRANCH   2   4
HETATM    4  C7  UNL     1     -33.734  16.327  -2.539  1.00 20.00     0.002 C 
HETATM    5  C2  UNL     1     -34.935  16.467  -1.583  1.00 20.00     0.011 C 
BRANCH   4   6
HETATM    6  C8  UNL     1     -34.080  15.533  -3.857  1.00 20.00    -0.047 C 
HETATM    7  C3  UNL     1     -35.286  14.592  -3.675  1.00 20.00     0.015 C 
HETATM    8  C4  UNL     1     -32.868  14.684  -4.304  1.00 20.00     0.015 C 
HETATM    9  C5  UNL     1     -34.397  16.505  -5.015  1.00 20.00     0.015 C 
ENDBRANCH   4   6
ENDBRANCH   2   4
TORSDOF 2
ENDMDL
