MODEL 1
REMARK VINA RESULT:      -4.4      0.000      0.000
REMARK  2 active torsions:
REMARK  status: ('A' for Active; 'I' for Inactive)
REMARK    1  A    between atoms: C1_1  and  C2_2 
REMARK    2  A    between atoms: C3_3  and  C7_7 
ROOT
HETATM    1  C1  UNL     1     -22.474  17.244   9.288  1.00 20.00     0.061 C 
HETATM    2  C3  UNL     1     -23.532  17.833   9.873  1.00 20.00     0.022 C 
HETATM    3 CL9  UNL     1     -24.453  19.049   9.012  1.00 20.00    -0.088 Cl
ENDROOT
BRANCH   2   4
HETATM    4  C7  UNL     1     -24.040  17.528  11.296  1.00 20.00    -0.013 C 
HETATM    5  C4  UNL     1     -22.925  17.787  12.332  1.00 20.00     0.020 C 
HETATM    6  C5  UNL     1     -25.250  18.401  11.712  1.00 20.00     0.020 C 
HETATM    7  C6  UNL     1     -24.496  16.056  11.397  1.00 20.00     0.020 C 
ENDBRANCH   2   4
BRANCH   1   8
HETATM    8  C2  UNL     1     -21.976  17.530   7.921  1.00 20.00     0.260 C 
HETATM    9  O8  UNL     1     -21.643  16.630   7.156  1.00 20.00    -0.302 OA
ENDBRANCH   1   8
TORSDOF 2
ENDMDL
MODEL 2
REMARK VINA RESULT:      -4.3      1.722      1.838
REMARK  2 active torsions:
REMARK  status: ('A' for Active; 'I' for Inactive)
REMARK    1  A    between atoms: C1_1  and  C2_2 
REMARK    2  A    between atoms: C3_3  and  C7_7 
ROOT
HETATM    1  C1  UNL     1     -24.554  18.626   9.162  1.00 20.00     0.061 C 
HETATM    2  C3  UNL     1     -23.613  18.256  10.050  1.00 20.00     0.022 C 
HETATM    3 CL9  UNL     1     -21.914  18.418   9.655  1.00 20.00    -0.088 Cl
ENDROOT
BRANCH   2   4
HETATM    4  C7  UNL     1     -23.896  17.677  11.451  1.00 20.00    -0.013 C 
HETATM    5  C4  UNL     1     -22.631  17.763  12.332  1.00 20.00     0.020 C 
HETATM    6  C5  UNL     1     -25.021  18.428  12.205  1.00 20.00     0.020 C 
HETATM    7  C6  UNL     1     -24.340  16.202  11.340  1.00 20.00     0.020 C 
ENDBRANCH   2   4
BRANCH   1   8
HETATM    8  C2  UNL     1     -24.294  19.183   7.813  1.00 20.00     0.260 C 
HETATM    9  O8  UNL     1     -23.753  18.518   6.936  1.00 20.00    -0.302 OA
ENDBRANCH   1   8
TORSDOF 2
ENDMDL
MODEL 3
REMARK VINA RESULT:      -4.3     17.345     18.004
REMARK  2 active torsions:
REMARK  status: ('A' for Active; 'I' for Inactive)
REMARK    1  A    between atoms: C1_1  and  C2_2 
REMARK    2  A    between atoms: C3_3  and  C7_7 
ROOT
HETATM    1  C1  UNL     1     -35.947  14.848  -3.886  1.00 20.00     0.061 C 
HETATM    2  C3  UNL     1     -34.748  15.390  -3.610  1.00 20.00     0.022 C 
HETATM    3 CL9  UNL     1     -33.287  14.685  -4.270  1.00 20.00    -0.088 Cl
ENDROOT
BRANCH   2   4
HETATM    4  C7  UNL     1     -34.519  16.633  -2.726  1.00 20.00    -0.013 C 
HETATM    5  C4  UNL     1     -35.148  17.881  -3.384  1.00 20.00     0.020 C 
HETATM    6  C5  UNL     1     -35.148  16.504  -1.317  1.00 20.00     0.020 C 
HETATM    7  C6  UNL     1     -33.008  16.873  -2.521  1.00 20.00     0.020 C 
ENDBRANCH   2   4
BRANCH   1   8
HETATM    8  C2  UNL     1     -36.178  13.654  -4.733  1.00 20.00     0.260 C 
HETATM    9  O8  UNL     1     -35.811  12.537  -4.384  1.00 20.00    -0.302 OA
ENDBRANCH   1   8
TORSDOF 2
ENDMDL
MODEL 4
REMARK VINA RESULT:      -4.3     17.332     17.965
REMARK  2 active torsions:
REMARK  status: ('A' for Active; 'I' for Inactive)
REMARK    1  A    between atoms: C1_1  and  C2_2 
REMARK    2  A    between atoms: C3_3  and  C7_7 
ROOT
HETATM    1  C1  UNL     1     -35.927  14.850  -3.885  1.00 20.00     0.061 C 
HETATM    2  C3  UNL     1     -34.722  15.388  -3.623  1.00 20.00     0.022 C 
HETATM    3 CL9  UNL     1     -33.271  14.675  -4.296  1.00 20.00    -0.088 Cl
ENDROOT
BRANCH   2   4
HETATM    4  C7  UNL     1     -34.480  16.633  -2.745  1.00 20.00    -0.013 C 
HETATM    5  C4  UNL     1     -32.966  16.865  -2.549  1.00 20.00     0.020 C 
HETATM    6  C5  UNL     1     -35.057  17.933  -3.358  1.00 20.00     0.020 C 
HETATM    7  C6  UNL     1     -35.150  16.453  -1.365  1.00 20.00     0.020 C 
ENDBRANCH   2   4
BRANCH   1   8
HETATM    8  C2  UNL     1     -36.171  13.654  -4.726  1.00 20.00     0.260 C 
HETATM    9  O8  UNL     1     -35.805  12.537  -4.377  1.00 20.00    -0.302 OA
ENDBRANCH   1   8
TORSDOF 2
ENDMDL
MODEL 5
REMARK VINA RESULT:      -4.3     17.330     18.008
REMARK  2 active torsions:
REMARK  status: ('A' for Active; 'I' for Inactive)
REMARK    1  A    between atoms: C1_1  and  C2_2 
REMARK    2  A    between atoms: C3_3  and  C7_7 
ROOT
HETATM    1  C1  UNL     1     -35.907  14.855  -3.906  1.00 20.00     0.061 C 
HETATM    2  C3  UNL     1     -34.701  15.386  -3.638  1.00 20.00     0.022 C 
HETATM    3 CL9  UNL     1     -33.250  14.662  -4.302  1.00 20.00    -0.088 Cl
ENDROOT
BRANCH   2   4
HETATM    4  C7  UNL     1     -34.456  16.630  -2.761  1.00 20.00    -0.013 C 
HETATM    5  C4  UNL     1     -35.160  16.472  -1.396  1.00 20.00     0.020 C 
HETATM    6  C5  UNL     1     -32.957  16.883  -2.466  1.00 20.00     0.020 C 
HETATM    7  C6  UNL     1     -34.992  17.895  -3.466  1.00 20.00     0.020 C 
ENDBRANCH   2   4
BRANCH   1   8
HETATM    8  C2  UNL     1     -36.154  13.660  -4.747  1.00 20.00     0.260 C 
HETATM    9  O8  UNL     1     -35.814  12.538  -4.386  1.00 20.00    -0.302 OA
ENDBRANCH   1   8
TORSDOF 2
ENDMDL
MODEL 6
REMARK VINA RESULT:      -4.1     15.812     16.694
REMARK  2 active torsions:
REMARK  status: ('A' for Active; 'I' for Inactive)
REMARK    1  A    between atoms: C1_1  and  C2_2 
REMARK    2  A    between atoms: C3_3  and  C7_7 
ROOT
HETATM    1  C1  UNL     1     -33.182   6.429   2.678  1.00 20.00     0.061 C 
HETATM    2  C3  UNL     1     -33.600   6.347   3.953  1.00 20.00     0.022 C 
HETATM    3 CL9  UNL     1     -33.031   7.498   5.145  1.00 20.00    -0.088 Cl
ENDROOT
BRANCH   2   4
HETATM    4  C7  UNL     1     -34.579   5.288   4.497  1.00 20.00    -0.013 C 
HETATM    5  C4  UNL     1     -34.648   5.361   6.038  1.00 20.00     0.020 C 
HETATM    6  C5  UNL     1     -36.026   5.469   3.975  1.00 20.00     0.020 C 
HETATM    7  C6  UNL     1     -34.126   3.873   4.075  1.00 20.00     0.020 C 
ENDBRANCH   2   4
BRANCH   1   8
HETATM    8  C2  UNL     1     -32.240   7.442   2.144  1.00 20.00     0.260 C 
HETATM    9  O8  UNL     1     -32.556   8.194   1.228  1.00 20.00    -0.302 OA
ENDBRANCH   1   8
TORSDOF 2
ENDMDL
MODEL 7
REMARK VINA RESULT:      -3.9     17.468     18.071
REMARK  2 active torsions:
REMARK  status: ('A' for Active; 'I' for Inactive)
REMARK    1  A    between atoms: C1_1  and  C2_2 
REMARK    2  A    between atoms: C3_3  and  C7_7 
ROOT
HETATM    1  C1  UNL     1     -35.250  14.687  -3.710  1.00 20.00     0.061 C 
HETATM    2  C3  UNL     1     -35.674  15.892  -3.290  1.00 20.00     0.022 C 
HETATM    3 CL9  UNL     1     -37.293  16.441  -3.674  1.00 20.00    -0.088 Cl
ENDROOT
BRANCH   2   4
HETATM    4  C7  UNL     1     -34.836  16.887  -2.462  1.00 20.00    -0.013 C 
HETATM    5  C4  UNL     1     -35.088  18.332  -2.945  1.00 20.00     0.020 C 
HETATM    6  C5  UNL     1     -35.169  16.854  -0.950  1.00 20.00     0.020 C 
HETATM    7  C6  UNL     1     -33.333  16.561  -2.596  1.00 20.00     0.020 C 
ENDBRANCH   2   4
BRANCH   1   8
HETATM    8  C2  UNL     1     -36.046  13.723  -4.507  1.00 20.00     0.260 C 
HETATM    9  O8  UNL     1     -35.812  12.519  -4.481  1.00 20.00    -0.302 OA
ENDBRANCH   1   8
TORSDOF 2
ENDMDL
MODEL 8
REMARK VINA RESULT:      -3.9     17.453     18.082
REMARK  2 active torsions:
REMARK  status: ('A' for Active; 'I' for Inactive)
REMARK    1  A    between atoms: C1_1  and  C2_2 
REMARK    2  A    between atoms: C3_3  and  C7_7 
ROOT
HETATM    1  C1  UNL     1     -35.252  14.666  -3.670  1.00 20.00     0.061 C 
HETATM    2  C3  UNL     1     -35.640  15.902  -3.309  1.00 20.00     0.022 C 
HETATM    3 CL9  UNL     1     -37.218  16.503  -3.776  1.00 20.00    -0.088 Cl
ENDROOT
BRANCH   2   4
HETATM    4  C7  UNL     1     -34.793  16.892  -2.484  1.00 20.00    -0.013 C 
HETATM    5  C4  UNL     1     -35.161  16.796  -0.988  1.00 20.00     0.020 C 
HETATM    6  C5  UNL     1     -33.271  16.627  -2.589  1.00 20.00     0.020 C 
HETATM    7  C6  UNL     1     -35.030  18.337  -2.975  1.00 20.00     0.020 C 
ENDBRANCH   2   4
BRANCH   1   8
HETATM    8  C2  UNL     1     -36.057  13.707  -4.463  1.00 20.00     0.260 C 
HETATM    9  O8  UNL     1     -35.795  12.509  -4.482  1.00 20.00    -0.302 OA
ENDBRANCH   1   8
TORSDOF 2
ENDMDL
MODEL 9
REMARK VINA RESULT:      -3.9     15.997     16.819
REMARK  2 active torsions:
REMARK  status: ('A' for Active; 'I' for Inactive)
REMARK    1  A    between atoms: C1_1  and  C2_2 
REMARK    2  A    between atoms: C3_3  and  C7_7 
ROOT
HETATM    1  C1  UNL     1     -33.045   7.200   2.952  1.00 20.00     0.061 C 
HETATM    2  C3  UNL     1     -33.474   5.969   3.283  1.00 20.00     0.022 C 
HETATM    3 CL9  UNL     1     -33.061   4.591   2.283  1.00 20.00    -0.088 Cl
ENDROOT
BRANCH   2   4
HETATM    4  C7  UNL     1     -34.336   5.633   4.517  1.00 20.00    -0.013 C 
HETATM    5  C4  UNL     1     -35.835   5.668   4.151  1.00 20.00     0.020 C 
HETATM    6  C5  UNL     1     -34.047   4.227   5.098  1.00 20.00     0.020 C 
HETATM    7  C6  UNL     1     -34.066   6.648   5.650  1.00 20.00     0.020 C 
ENDBRANCH   2   4
BRANCH   1   8
HETATM    8  C2  UNL     1     -32.217   7.534   1.769  1.00 20.00     0.260 C 
HETATM    9  O8  UNL     1     -32.632   8.274   0.883  1.00 20.00    -0.302 OA
ENDBRANCH   1   8
TORSDOF 2
ENDMDL
