MODEL 1
REMARK VINA RESULT:      -4.5      0.000      0.000
REMARK  2 active torsions:
REMARK  status: ('A' for Active; 'I' for Inactive)
REMARK    1  A    between atoms: C1_1  and  C7_7 
REMARK    2  A    between atoms: C2_2  and  C3_3 
ROOT
HETATM    1  C1  UNL     1     -33.299   6.814   3.930  1.00 20.00    -0.013 C 
HETATM    2  C3  UNL     1     -34.148   6.361   4.869  1.00 20.00    -0.028 C 
HETATM    3  C4  UNL     1     -34.145   6.669   6.333  1.00 20.00     0.051 C 
ENDROOT
BRANCH   1   4
HETATM    4  C7  UNL     1     -33.309   6.490   2.455  1.00 20.00     0.000 C 
HETATM    5  C5  UNL     1     -32.420   7.475   1.695  1.00 20.00     0.013 C 
HETATM    6  C6  UNL     1     -32.829   5.054   2.232  1.00 20.00     0.013 C 
ENDBRANCH   1   4
BRANCH   2   7
HETATM    7  C2  UNL     1     -35.210   5.435   4.386  1.00 20.00     0.265 C 
HETATM    8  O8  UNL     1     -35.128   4.216   4.482  1.00 20.00    -0.302 OA
ENDBRANCH   2   7
TORSDOF 2
ENDMDL
MODEL 2
REMARK VINA RESULT:      -4.3      1.150      3.449
REMARK  2 active torsions:
REMARK  status: ('A' for Active; 'I' for Inactive)
REMARK    1  A    between atoms: C1_1  and  C7_7 
REMARK    2  A    between atoms: C2_2  and  C3_3 
ROOT
HETATM    1  C1  UNL     1     -33.665   6.836   3.922  1.00 20.00    -0.013 C 
HETATM    2  C3  UNL     1     -32.964   6.573   2.806  1.00 20.00    -0.028 C 
HETATM    3  C4  UNL     1     -32.471   7.546   1.783  1.00 20.00     0.051 C 
ENDROOT
BRANCH   1   4
HETATM    4  C7  UNL     1     -34.164   5.843   4.945  1.00 20.00     0.000 C 
HETATM    5  C5  UNL     1     -34.290   6.516   6.312  1.00 20.00     0.013 C 
HETATM    6  C6  UNL     1     -35.513   5.270   4.504  1.00 20.00     0.013 C 
ENDBRANCH   1   4
BRANCH   2   7
HETATM    7  C2  UNL     1     -32.651   5.137   2.563  1.00 20.00     0.265 C 
HETATM    8  O8  UNL     1     -33.387   4.391   1.927  1.00 20.00    -0.302 OA
ENDBRANCH   2   7
TORSDOF 2
ENDMDL
MODEL 3
REMARK VINA RESULT:      -4.2     11.050     12.243
REMARK  2 active torsions:
REMARK  status: ('A' for Active; 'I' for Inactive)
REMARK    1  A    between atoms: C1_1  and  C7_7 
REMARK    2  A    between atoms: C2_2  and  C3_3 
ROOT
HETATM    1  C1  UNL     1     -34.557  15.849  -4.189  1.00 20.00    -0.013 C 
HETATM    2  C3  UNL     1     -35.074  14.794  -4.843  1.00 20.00    -0.028 C 
HETATM    3  C4  UNL     1     -35.573  14.744  -6.253  1.00 20.00     0.051 C 
ENDROOT
BRANCH   1   4
HETATM    4  C7  UNL     1     -34.063  15.888  -2.762  1.00 20.00     0.000 C 
HETATM    5  C5  UNL     1     -32.904  16.878  -2.636  1.00 20.00     0.013 C 
HETATM    6  C6  UNL     1     -35.206  16.280  -1.823  1.00 20.00     0.013 C 
ENDBRANCH   1   4
BRANCH   2   7
HETATM    7  C2  UNL     1     -35.163  13.530  -4.061  1.00 20.00     0.265 C 
HETATM    8  O8  UNL     1     -35.781  12.545  -4.451  1.00 20.00    -0.302 OA
ENDBRANCH   2   7
TORSDOF 2
ENDMDL
MODEL 4
REMARK VINA RESULT:      -4.0      1.538      2.242
REMARK  2 active torsions:
REMARK  status: ('A' for Active; 'I' for Inactive)
REMARK    1  A    between atoms: C1_1  and  C7_7 
REMARK    2  A    between atoms: C2_2  and  C3_3 
ROOT
HETATM    1  C1  UNL     1     -33.171   5.991   2.798  1.00 20.00    -0.013 C 
HETATM    2  C3  UNL     1     -33.946   5.514   3.788  1.00 20.00    -0.028 C 
HETATM    3  C4  UNL     1     -34.411   4.106   3.990  1.00 20.00     0.051 C 
ENDROOT
BRANCH   1   4
HETATM    4  C7  UNL     1     -32.714   7.417   2.602  1.00 20.00     0.000 C 
HETATM    5  C5  UNL     1     -31.462   7.686   3.436  1.00 20.00     0.013 C 
HETATM    6  C6  UNL     1     -32.436   7.677   1.120  1.00 20.00     0.013 C 
ENDBRANCH   1   4
BRANCH   2   7
HETATM    7  C2  UNL     1     -34.396   6.514   4.796  1.00 20.00     0.265 C 
HETATM    8  O8  UNL     1     -34.012   6.509   5.960  1.00 20.00    -0.302 OA
ENDBRANCH   2   7
TORSDOF 2
ENDMDL
MODEL 5
REMARK VINA RESULT:      -4.0     11.756     12.729
REMARK  2 active torsions:
REMARK  status: ('A' for Active; 'I' for Inactive)
REMARK    1  A    between atoms: C1_1  and  C7_7 
REMARK    2  A    between atoms: C2_2  and  C3_3 
ROOT
HETATM    1  C1  UNL     1     -35.325  16.108  -4.401  1.00 20.00    -0.013 C 
HETATM    2  C3  UNL     1     -36.218  15.478  -5.184  1.00 20.00    -0.028 C 
HETATM    3  C4  UNL     1     -36.985  16.043  -6.338  1.00 20.00     0.051 C 
ENDROOT
BRANCH   1   4
HETATM    4  C7  UNL     1     -34.563  15.528  -3.234  1.00 20.00     0.000 C 
HETATM    5  C5  UNL     1     -33.066  15.788  -3.404  1.00 20.00     0.013 C 
HETATM    6  C6  UNL     1     -35.067  16.138  -1.924  1.00 20.00     0.013 C 
ENDBRANCH   1   4
BRANCH   2   7
HETATM    7  C2  UNL     1     -36.475  14.049  -4.851  1.00 20.00     0.265 C 
HETATM    8  O8  UNL     1     -37.550  13.646  -4.421  1.00 20.00    -0.302 OA
ENDBRANCH   2   7
TORSDOF 2
ENDMDL
MODEL 6
REMARK VINA RESULT:      -3.9      9.116      9.717
REMARK  2 active torsions:
REMARK  status: ('A' for Active; 'I' for Inactive)
REMARK    1  A    between atoms: C1_1  and  C7_7 
REMARK    2  A    between atoms: C2_2  and  C3_3 
ROOT
HETATM    1  C1  UNL     1     -41.410   7.215   0.176  1.00 20.00    -0.013 C 
HETATM    2  C3  UNL     1     -41.922   8.443  -0.018  1.00 20.00    -0.028 C 
HETATM    3  C4  UNL     1     -41.330   9.757   0.383  1.00 20.00     0.051 C 
ENDROOT
BRANCH   1   4
HETATM    4  C7  UNL     1     -42.022   5.894  -0.228  1.00 20.00     0.000 C 
HETATM    5  C5  UNL     1     -41.038   5.103  -1.091  1.00 20.00     0.013 C 
HETATM    6  C6  UNL     1     -42.406   5.092   1.017  1.00 20.00     0.013 C 
ENDBRANCH   1   4
BRANCH   2   7
HETATM    7  C2  UNL     1     -43.239   8.491  -0.712  1.00 20.00     0.265 C 
HETATM    8  O8  UNL     1     -43.361   8.365  -1.925  1.00 20.00    -0.302 OA
ENDBRANCH   2   7
TORSDOF 2
ENDMDL
MODEL 7
REMARK VINA RESULT:      -3.8     11.612     12.664
REMARK  2 active torsions:
REMARK  status: ('A' for Active; 'I' for Inactive)
REMARK    1  A    between atoms: C1_1  and  C7_7 
REMARK    2  A    between atoms: C2_2  and  C3_3 
ROOT
HETATM    1  C1  UNL     1     -34.379  16.429  -3.828  1.00 20.00    -0.013 C 
HETATM    2  C3  UNL     1     -34.048  15.585  -4.821  1.00 20.00    -0.028 C 
HETATM    3  C4  UNL     1     -34.494  15.628  -6.248  1.00 20.00     0.051 C 
ENDROOT
BRANCH   1   4
HETATM    4  C7  UNL     1     -33.927  16.370  -2.389  1.00 20.00     0.000 C 
HETATM    5  C5  UNL     1     -32.907  17.476  -2.115  1.00 20.00     0.013 C 
HETATM    6  C6  UNL     1     -35.131  16.510  -1.455  1.00 20.00     0.013 C 
ENDBRANCH   1   4
BRANCH   2   7
HETATM    7  C2  UNL     1     -33.130  14.473  -4.445  1.00 20.00     0.265 C 
HETATM    8  O8  UNL     1     -33.522  13.338  -4.201  1.00 20.00    -0.302 OA
ENDBRANCH   2   7
TORSDOF 2
ENDMDL
MODEL 8
REMARK VINA RESULT:      -3.8      8.835      9.486
REMARK  2 active torsions:
REMARK  status: ('A' for Active; 'I' for Inactive)
REMARK    1  A    between atoms: C1_1  and  C7_7 
REMARK    2  A    between atoms: C2_2  and  C3_3 
ROOT
HETATM    1  C1  UNL     1     -41.396   7.398  -0.468  1.00 20.00    -0.013 C 
HETATM    2  C3  UNL     1     -41.649   6.078  -0.447  1.00 20.00    -0.028 C 
HETATM    3  C4  UNL     1     -40.927   4.995  -1.185  1.00 20.00     0.051 C 
ENDROOT
BRANCH   1   4
HETATM    4  C7  UNL     1     -42.138   8.483   0.277  1.00 20.00     0.000 C 
HETATM    5  C5  UNL     1     -41.241   9.710   0.446  1.00 20.00     0.013 C 
HETATM    6  C6  UNL     1     -43.417   8.854  -0.476  1.00 20.00     0.013 C 
ENDBRANCH   1   4
BRANCH   2   7
HETATM    7  C2  UNL     1     -42.790   5.651   0.410  1.00 20.00     0.265 C 
HETATM    8  O8  UNL     1     -42.648   4.975   1.423  1.00 20.00    -0.302 OA
ENDBRANCH   2   7
TORSDOF 2
ENDMDL
MODEL 9
REMARK VINA RESULT:      -3.7      8.938      9.555
REMARK  2 active torsions:
REMARK  status: ('A' for Active; 'I' for Inactive)
REMARK    1  A    between atoms: C1_1  and  C7_7 
REMARK    2  A    between atoms: C2_2  and  C3_3 
ROOT
HETATM    1  C1  UNL     1     -42.426   7.382   0.689  1.00 20.00    -0.013 C 
HETATM    2  C3  UNL     1     -42.324   6.064   0.445  1.00 20.00    -0.028 C 
HETATM    3  C4  UNL     1     -42.619   4.933   1.379  1.00 20.00     0.051 C 
ENDROOT
BRANCH   1   4
HETATM    4  C7  UNL     1     -42.117   8.515  -0.261  1.00 20.00     0.000 C 
HETATM    5  C5  UNL     1     -43.416   9.132  -0.779  1.00 20.00     0.013 C 
HETATM    6  C6  UNL     1     -41.266   9.572   0.445  1.00 20.00     0.013 C 
ENDBRANCH   1   4
BRANCH   2   7
HETATM    7  C2  UNL     1     -41.852   5.694  -0.918  1.00 20.00     0.265 C 
HETATM    8  O8  UNL     1     -40.672   5.492  -1.185  1.00 20.00    -0.302 OA
ENDBRANCH   2   7
TORSDOF 2
ENDMDL
