MODEL 1
REMARK VINA RESULT:      -4.1      0.000      0.000
REMARK  0 active torsions:
REMARK  status: ('A' for Active; 'I' for Inactive)
ROOT
HETATM    1  C1  UNL     1     -35.752  13.896  -4.534  1.00 20.00     0.069 C 
HETATM    2  C2  UNL     1     -34.745  15.847  -2.389  1.00 20.00     0.002 C 
HETATM    3  C3  UNL     1     -33.573  15.711  -3.360  1.00 20.00     0.002 C 
HETATM    4  C4  UNL     1     -35.997  16.005  -3.252  1.00 20.00     0.024 C 
HETATM    5  C5  UNL     1     -34.170  15.794  -4.765  1.00 20.00     0.024 C 
HETATM    6  C6  UNL     1     -35.635  15.370  -4.600  1.00 20.00     0.045 C 
HETATM    7  C7  UNL     1     -36.513  15.895  -5.734  1.00 20.00     0.031 C 
HETATM    8  N8  UNL     1     -35.843  12.742  -4.483  1.00 20.00    -0.196 NA
ENDROOT
TORSDOF 0
ENDMDL
MODEL 2
REMARK VINA RESULT:      -4.1     18.485     19.059
REMARK  0 active torsions:
REMARK  status: ('A' for Active; 'I' for Inactive)
ROOT
HETATM    1  C1  UNL     1     -22.747  17.516  11.578  1.00 20.00     0.069 C 
HETATM    2  C2  UNL     1     -23.759  18.982   9.079  1.00 20.00     0.002 C 
HETATM    3  C3  UNL     1     -22.827  17.900   8.535  1.00 20.00     0.002 C 
HETATM    4  C4  UNL     1     -24.615  18.307  10.151  1.00 20.00     0.024 C 
HETATM    5  C5  UNL     1     -23.163  16.622   9.302  1.00 20.00     0.024 C 
HETATM    6  C6  UNL     1     -23.792  17.100  10.617  1.00 20.00     0.045 C 
HETATM    7  C7  UNL     1     -24.666  16.024  11.256  1.00 20.00     0.031 C 
HETATM    8  N8  UNL     1     -21.928  17.841  12.332  1.00 20.00    -0.196 NA
ENDROOT
TORSDOF 0
ENDMDL
MODEL 3
REMARK VINA RESULT:      -4.1      0.756      1.358
REMARK  0 active torsions:
REMARK  status: ('A' for Active; 'I' for Inactive)
ROOT
HETATM    1  C1  UNL     1     -35.528  13.822  -4.519  1.00 20.00     0.069 C 
HETATM    2  C2  UNL     1     -35.878  16.460  -2.991  1.00 20.00     0.002 C 
HETATM    3  C3  UNL     1     -34.616  15.838  -2.393  1.00 20.00     0.002 C 
HETATM    4  C4  UNL     1     -35.759  16.291  -4.506  1.00 20.00     0.024 C 
HETATM    5  C5  UNL     1     -33.793  15.323  -3.573  1.00 20.00     0.024 C 
HETATM    6  C6  UNL     1     -34.810  15.103  -4.701  1.00 20.00     0.045 C 
HETATM    7  C7  UNL     1     -34.148  15.119  -6.077  1.00 20.00     0.031 C 
HETATM    8  N8  UNL     1     -36.089  12.818  -4.376  1.00 20.00    -0.196 NA
ENDROOT
TORSDOF 0
ENDMDL
MODEL 4
REMARK VINA RESULT:      -4.0     10.858     11.736
REMARK  0 active torsions:
REMARK  status: ('A' for Active; 'I' for Inactive)
ROOT
HETATM    1  C1  UNL     1     -42.643   5.916   0.814  1.00 20.00     0.069 C 
HETATM    2  C2  UNL     1     -43.307   8.502  -0.700  1.00 20.00     0.002 C 
HETATM    3  C3  UNL     1     -42.202   8.905   0.275  1.00 20.00     0.002 C 
HETATM    4  C4  UNL     1     -42.871   7.171  -1.313  1.00 20.00     0.024 C 
HETATM    5  C5  UNL     1     -41.148   7.800   0.206  1.00 20.00     0.024 C 
HETATM    6  C6  UNL     1     -41.902   6.561  -0.293  1.00 20.00     0.045 C 
HETATM    7  C7  UNL     1     -40.964   5.540  -0.934  1.00 20.00     0.031 C 
HETATM    8  N8  UNL     1     -43.223   5.411   1.681  1.00 20.00    -0.196 NA
ENDROOT
TORSDOF 0
ENDMDL
MODEL 5
REMARK VINA RESULT:      -4.0      1.894      2.803
REMARK  0 active torsions:
REMARK  status: ('A' for Active; 'I' for Inactive)
ROOT
HETATM    1  C1  UNL     1     -35.270  16.357  -4.564  1.00 20.00     0.069 C 
HETATM    2  C2  UNL     1     -32.991  17.068  -2.636  1.00 20.00     0.002 C 
HETATM    3  C3  UNL     1     -34.247  17.092  -1.766  1.00 20.00     0.002 C 
HETATM    4  C4  UNL     1     -33.096  15.812  -3.501  1.00 20.00     0.024 C 
HETATM    5  C5  UNL     1     -35.054  15.851  -2.145  1.00 20.00     0.024 C 
HETATM    6  C6  UNL     1     -34.596  15.498  -3.566  1.00 20.00     0.045 C 
HETATM    7  C7  UNL     1     -34.859  14.032  -3.903  1.00 20.00     0.031 C 
HETATM    8  N8  UNL     1     -35.799  17.030  -5.346  1.00 20.00    -0.196 NA
ENDROOT
TORSDOF 0
ENDMDL
MODEL 6
REMARK VINA RESULT:      -4.0     10.443     11.682
REMARK  0 active torsions:
REMARK  status: ('A' for Active; 'I' for Inactive)
ROOT
HETATM    1  C1  UNL     1     -41.361   5.557  -0.694  1.00 20.00     0.069 C 
HETATM    2  C2  UNL     1     -41.434   8.606  -0.353  1.00 20.00     0.002 C 
HETATM    3  C3  UNL     1     -42.639   8.292  -1.238  1.00 20.00     0.002 C 
HETATM    4  C4  UNL     1     -41.442   7.561   0.764  1.00 20.00     0.024 C 
HETATM    5  C5  UNL     1     -43.321   7.074  -0.616  1.00 20.00     0.024 C 
HETATM    6  C6  UNL     1     -42.222   6.372   0.190  1.00 20.00     0.045 C 
HETATM    7  C7  UNL     1     -42.800   5.483   1.290  1.00 20.00     0.031 C 
HETATM    8  N8  UNL     1     -40.687   4.917  -1.388  1.00 20.00    -0.196 NA
ENDROOT
TORSDOF 0
ENDMDL
MODEL 7
REMARK VINA RESULT:      -3.9     17.745     18.845
REMARK  0 active torsions:
REMARK  status: ('A' for Active; 'I' for Inactive)
ROOT
HETATM    1  C1  UNL     1     -24.325  18.456   9.393  1.00 20.00     0.069 C 
HETATM    2  C2  UNL     1     -23.696  17.814  12.327  1.00 20.00     0.002 C 
HETATM    3  C3  UNL     1     -24.668  16.716  11.897  1.00 20.00     0.002 C 
HETATM    4  C4  UNL     1     -22.687  17.960  11.188  1.00 20.00     0.024 C 
HETATM    5  C5  UNL     1     -24.202  16.249  10.518  1.00 20.00     0.024 C 
HETATM    6  C6  UNL     1     -23.411  17.431   9.944  1.00 20.00     0.045 C 
HETATM    7  C7  UNL     1     -22.433  16.990   8.857  1.00 20.00     0.031 C 
HETATM    8  N8  UNL     1     -25.041  19.259   8.960  1.00 20.00    -0.196 NA
ENDROOT
TORSDOF 0
ENDMDL
MODEL 8
REMARK VINA RESULT:      -3.9      1.264      2.517
REMARK  0 active torsions:
REMARK  status: ('A' for Active; 'I' for Inactive)
ROOT
HETATM    1  C1  UNL     1     -36.324  14.424  -4.233  1.00 20.00     0.069 C 
HETATM    2  C2  UNL     1     -33.839  14.879  -5.976  1.00 20.00     0.002 C 
HETATM    3  C3  UNL     1     -34.711  16.109  -6.226  1.00 20.00     0.002 C 
HETATM    4  C4  UNL     1     -33.864  14.639  -4.466  1.00 20.00     0.024 C 
HETATM    5  C5  UNL     1     -35.222  16.557  -4.857  1.00 20.00     0.024 C 
HETATM    6  C6  UNL     1     -35.159  15.300  -3.979  1.00 20.00     0.045 C 
HETATM    7  C7  UNL     1     -35.102  15.645  -2.492  1.00 20.00     0.031 C 
HETATM    8  N8  UNL     1     -37.237  13.737  -4.431  1.00 20.00    -0.196 NA
ENDROOT
TORSDOF 0
ENDMDL
MODEL 9
REMARK VINA RESULT:      -3.9      2.325      3.109
REMARK  0 active torsions:
REMARK  status: ('A' for Active; 'I' for Inactive)
ROOT
HETATM    1  C1  UNL     1     -34.476  16.774  -4.677  1.00 20.00     0.069 C 
HETATM    2  C2  UNL     1     -33.881  17.354  -1.723  1.00 20.00     0.002 C 
HETATM    3  C3  UNL     1     -35.174  16.539  -1.698  1.00 20.00     0.002 C 
HETATM    4  C4  UNL     1     -32.957  16.656  -2.721  1.00 20.00     0.024 C 
HETATM    5  C5  UNL     1     -34.971  15.386  -2.681  1.00 20.00     0.024 C 
HETATM    6  C6  UNL     1     -33.893  15.879  -3.654  1.00 20.00     0.045 C 
HETATM    7  C7  UNL     1     -33.177  14.721  -4.347  1.00 20.00     0.031 C 
HETATM    8  N8  UNL     1     -34.935  17.475  -5.479  1.00 20.00    -0.196 NA
ENDROOT
TORSDOF 0
ENDMDL
