MODEL 1
REMARK VINA RESULT:      -4.4      0.000      0.000
REMARK  1 active torsions:
REMARK  status: ('A' for Active; 'I' for Inactive)
REMARK    1  A    between atoms: C5_5  and  C6_6 
ROOT
HETATM    1  C1  UNL     1     -22.172  17.137   8.340  1.00 20.00     0.100 C 
HETATM    2  C2  UNL     1     -23.967  16.710  10.070  1.00 20.00     0.038 A 
HETATM    3  C3  UNL     1     -22.029  17.826  10.702  1.00 20.00     0.072 A 
HETATM    4  C4  UNL     1     -22.703  17.224   9.662  1.00 20.00     0.052 A 
HETATM    5  C5  UNL     1     -24.213  16.939  11.407  1.00 20.00    -0.002 A 
HETATM    6  N7  UNL     1     -21.740  17.067   7.265  1.00 20.00    -0.191 NA
HETATM    7  S8  UNL     1     -22.921  17.771  12.163  1.00 20.00    -0.104 SA
ENDROOT
BRANCH   5   8
HETATM    8  C6  UNL     1     -25.402  16.563  12.201  1.00 20.00     0.160 C 
HETATM    9 CL9  UNL     1     -26.544  17.926  12.329  1.00 20.00    -0.125 Cl
ENDBRANCH   5   8
TORSDOF 1
ENDMDL
MODEL 2
REMARK VINA RESULT:      -4.4     17.002     17.466
REMARK  1 active torsions:
REMARK  status: ('A' for Active; 'I' for Inactive)
REMARK    1  A    between atoms: C5_5  and  C6_6 
ROOT
HETATM    1  C1  UNL     1     -35.341  13.814  -4.083  1.00 20.00     0.100 C 
HETATM    2  C2  UNL     1     -35.145  15.661  -2.366  1.00 20.00     0.038 A 
HETATM    3  C3  UNL     1     -33.488  15.436  -3.980  1.00 20.00     0.072 A 
HETATM    4  C4  UNL     1     -34.677  14.934  -3.498  1.00 20.00     0.052 A 
HETATM    5  C5  UNL     1     -34.295  16.691  -2.025  1.00 20.00    -0.002 A 
HETATM    6  N7  UNL     1     -35.881  12.903  -4.559  1.00 20.00    -0.191 NA
HETATM    7  S8  UNL     1     -32.941  16.779  -3.069  1.00 20.00    -0.104 SA
ENDROOT
BRANCH   5   8
HETATM    8  C6  UNL     1     -34.428  17.666  -0.921  1.00 20.00     0.160 C 
HETATM    9 CL9  UNL     1     -35.498  17.042   0.361  1.00 20.00    -0.125 Cl
ENDBRANCH   5   8
TORSDOF 1
ENDMDL
MODEL 3
REMARK VINA RESULT:      -4.1      2.932      3.144
REMARK  1 active torsions:
REMARK  status: ('A' for Active; 'I' for Inactive)
REMARK    1  A    between atoms: C5_5  and  C6_6 
ROOT
HETATM    1  C1  UNL     1     -24.570  19.001   7.465  1.00 20.00     0.100 C 
HETATM    2  C2  UNL     1     -23.933  18.226   9.788  1.00 20.00     0.038 A 
HETATM    3  C3  UNL     1     -25.987  19.263   9.465  1.00 20.00     0.072 A 
HETATM    4  C4  UNL     1     -24.826  18.836   8.860  1.00 20.00     0.052 A 
HETATM    5  C5  UNL     1     -24.447  18.209  11.066  1.00 20.00    -0.002 A 
HETATM    6  N7  UNL     1     -24.362  19.134   6.331  1.00 20.00    -0.191 NA
HETATM    7  S8  UNL     1     -25.999  18.926  11.143  1.00 20.00    -0.104 SA
ENDROOT
BRANCH   5   8
HETATM    8  C6  UNL     1     -23.832  17.667  12.297  1.00 20.00     0.160 C 
HETATM    9 CL9  UNL     1     -22.053  17.751  12.217  1.00 20.00    -0.125 Cl
ENDBRANCH   5   8
TORSDOF 1
ENDMDL
MODEL 4
REMARK VINA RESULT:      -4.0     16.007     16.520
REMARK  1 active torsions:
REMARK  status: ('A' for Active; 'I' for Inactive)
REMARK    1  A    between atoms: C5_5  and  C6_6 
ROOT
HETATM    1  C1  UNL     1     -33.747  14.881  -4.069  1.00 20.00     0.100 C 
HETATM    2  C2  UNL     1     -32.996  16.832  -2.643  1.00 20.00     0.038 A 
HETATM    3  C3  UNL     1     -35.076  15.874  -2.246  1.00 20.00     0.072 A 
HETATM    4  C4  UNL     1     -33.937  15.830  -3.019  1.00 20.00     0.052 A 
HETATM    5  C5  UNL     1     -33.452  17.604  -1.597  1.00 20.00    -0.002 A 
HETATM    6  N7  UNL     1     -33.593  14.110  -4.923  1.00 20.00    -0.191 NA
HETATM    7  S8  UNL     1     -35.008  17.119  -1.072  1.00 20.00    -0.104 SA
ENDROOT
BRANCH   5   8
HETATM    8  C6  UNL     1     -32.776  18.734  -0.925  1.00 20.00     0.160 C 
HETATM    9 CL9  UNL     1     -31.128  18.285  -0.416  1.00 20.00    -0.125 Cl
ENDBRANCH   5   8
TORSDOF 1
ENDMDL
MODEL 5
REMARK VINA RESULT:      -4.0      1.948      1.990
REMARK  1 active torsions:
REMARK  status: ('A' for Active; 'I' for Inactive)
REMARK    1  A    between atoms: C5_5  and  C6_6 
ROOT
HETATM    1  C1  UNL     1     -24.086  18.925   7.455  1.00 20.00     0.100 C 
HETATM    2  C2  UNL     1     -24.881  18.547   9.826  1.00 20.00     0.038 A 
HETATM    3  C3  UNL     1     -22.657  18.125   9.298  1.00 20.00     0.072 A 
HETATM    4  C4  UNL     1     -23.877  18.545   8.815  1.00 20.00     0.052 A 
HETATM    5  C5  UNL     1     -24.389  18.129  11.044  1.00 20.00    -0.002 A 
HETATM    6  N7  UNL     1     -24.255  19.235   6.349  1.00 20.00    -0.191 NA
HETATM    7  S8  UNL     1     -22.725  17.737  10.964  1.00 20.00    -0.104 SA
ENDROOT
BRANCH   5   8
HETATM    8  C6  UNL     1     -25.108  17.996  12.329  1.00 20.00     0.160 C 
HETATM    9 CL9  UNL     1     -26.830  18.421  12.149  1.00 20.00    -0.125 Cl
ENDBRANCH   5   8
TORSDOF 1
ENDMDL
MODEL 6
REMARK VINA RESULT:      -4.0     23.486     24.076
REMARK  1 active torsions:
REMARK  status: ('A' for Active; 'I' for Inactive)
REMARK    1  A    between atoms: C5_5  and  C6_6 
ROOT
HETATM    1  C1  UNL     1     -41.556   9.149   0.276  1.00 20.00     0.100 C 
HETATM    2  C2  UNL     1     -41.250   6.943  -0.924  1.00 20.00     0.038 A 
HETATM    3  C3  UNL     1     -42.623   7.031   0.949  1.00 20.00     0.072 A 
HETATM    4  C4  UNL     1     -41.805   7.753   0.108  1.00 20.00     0.052 A 
HETATM    5  C5  UNL     1     -41.665   5.632  -0.834  1.00 20.00    -0.002 A 
HETATM    6  N7  UNL     1     -41.355  10.284   0.411  1.00 20.00    -0.191 NA
HETATM    7  S8  UNL     1     -42.720   5.383   0.492  1.00 20.00    -0.104 SA
ENDROOT
BRANCH   5   8
HETATM    8  C6  UNL     1     -41.316   4.493  -1.710  1.00 20.00     0.160 C 
HETATM    9 CL9  UNL     1     -42.776   3.759  -2.422  1.00 20.00    -0.125 Cl
ENDBRANCH   5   8
TORSDOF 1
ENDMDL
MODEL 7
REMARK VINA RESULT:      -3.9     17.348     17.865
REMARK  1 active torsions:
REMARK  status: ('A' for Active; 'I' for Inactive)
REMARK    1  A    between atoms: C5_5  and  C6_6 
ROOT
HETATM    1  C1  UNL     1     -35.623  13.848  -4.145  1.00 20.00     0.100 C 
HETATM    2  C2  UNL     1     -34.072  15.519  -3.048  1.00 20.00     0.038 A 
HETATM    3  C3  UNL     1     -36.263  16.143  -3.511  1.00 20.00     0.072 A 
HETATM    4  C4  UNL     1     -35.333  15.129  -3.586  1.00 20.00     0.052 A 
HETATM    5  C5  UNL     1     -34.087  16.815  -2.581  1.00 20.00    -0.002 A 
HETATM    6  N7  UNL     1     -35.859  12.806  -4.600  1.00 20.00    -0.191 NA
HETATM    7  S8  UNL     1     -35.616  17.556  -2.792  1.00 20.00    -0.104 SA
ENDROOT
BRANCH   5   8
HETATM    8  C6  UNL     1     -32.987  17.581  -1.956  1.00 20.00     0.160 C 
HETATM    9 CL9  UNL     1     -33.420  18.093  -0.304  1.00 20.00    -0.125 Cl
ENDBRANCH   5   8
TORSDOF 1
ENDMDL
MODEL 8
REMARK VINA RESULT:      -3.8     17.506     17.986
REMARK  1 active torsions:
REMARK  status: ('A' for Active; 'I' for Inactive)
REMARK    1  A    between atoms: C5_5  and  C6_6 
ROOT
HETATM    1  C1  UNL     1     -33.875  17.279  -1.545  1.00 20.00     0.100 C 
HETATM    2  C2  UNL     1     -35.251  15.581  -2.821  1.00 20.00     0.038 A 
HETATM    3  C3  UNL     1     -33.026  15.908  -3.410  1.00 20.00     0.072 A 
HETATM    4  C4  UNL     1     -34.041  16.288  -2.559  1.00 20.00     0.052 A 
HETATM    5  C5  UNL     1     -35.114  14.687  -3.860  1.00 20.00    -0.002 A 
HETATM    6  N7  UNL     1     -33.739  18.084  -0.721  1.00 20.00    -0.191 NA
HETATM    7  S8  UNL     1     -33.532  14.702  -4.516  1.00 20.00    -0.104 SA
ENDROOT
BRANCH   5   8
HETATM    8  C6  UNL     1     -36.129  13.775  -4.428  1.00 20.00     0.160 C 
HETATM    9 CL9  UNL     1     -37.765  14.472  -4.295  1.00 20.00    -0.125 Cl
ENDBRANCH   5   8
TORSDOF 1
ENDMDL
MODEL 9
REMARK VINA RESULT:      -3.8     15.749     16.208
REMARK  1 active torsions:
REMARK  status: ('A' for Active; 'I' for Inactive)
REMARK    1  A    between atoms: C5_5  and  C6_6 
ROOT
HETATM    1  C1  UNL     1     -31.786  18.205  -0.841  1.00 20.00     0.100 C 
HETATM    2  C2  UNL     1     -33.460  16.902  -2.219  1.00 20.00     0.038 A 
HETATM    3  C3  UNL     1     -34.188  18.026  -0.320  1.00 20.00     0.072 A 
HETATM    4  C4  UNL     1     -33.104  17.729  -1.115  1.00 20.00     0.052 A 
HETATM    5  C5  UNL     1     -34.804  16.599  -2.226  1.00 20.00    -0.002 A 
HETATM    6  N7  UNL     1     -30.714  18.592  -0.619  1.00 20.00    -0.191 NA
HETATM    7  S8  UNL     1     -35.630  17.310  -0.905  1.00 20.00    -0.104 SA
ENDROOT
BRANCH   5   8
HETATM    8  C6  UNL     1     -35.557  15.775  -3.197  1.00 20.00     0.160 C 
HETATM    9 CL9  UNL     1     -34.610  14.351  -3.699  1.00 20.00    -0.125 Cl
ENDBRANCH   5   8
TORSDOF 1
ENDMDL
