MODEL 1
REMARK VINA RESULT:      -3.6      0.000      0.000
REMARK  2 active torsions:
REMARK  status: ('A' for Active; 'I' for Inactive)
REMARK    1  A    between atoms: C3_3  and  C4_4 
REMARK    2  A    between atoms: C3_3  and  O6_6 
ROOT
HETATM    1  C1  UNL     1     -32.660   7.294   2.061  1.00 20.00     0.081 C 
HETATM    2  C4  UNL     1     -32.796   6.304   3.136  1.00 20.00     0.212 C 
HETATM    3  N5  UNL     1     -32.549   8.080   1.213  1.00 20.00    -0.196 NA
HETATM    4 CL7  UNL     1     -33.172   4.725   2.394  1.00 20.00    -0.107 Cl
ENDROOT
BRANCH   2   5
HETATM    5  C3  UNL     1     -33.868   6.697   4.148  1.00 20.00     0.202 C 
BRANCH   5   6
HETATM    6  O6  UNL     1     -34.748   5.610   4.408  1.00 20.00    -0.394 OA
HETATM    7  C2  UNL     1     -34.757   5.265   5.787  1.00 20.00     0.201 C 
ENDBRANCH   5   6
ENDBRANCH   2   5
TORSDOF 2
ENDMDL
MODEL 2
REMARK VINA RESULT:      -3.5     11.569     12.335
REMARK  2 active torsions:
REMARK  status: ('A' for Active; 'I' for Inactive)
REMARK    1  A    between atoms: C3_3  and  C4_4 
REMARK    2  A    between atoms: C3_3  and  O6_6 
ROOT
HETATM    1  C1  UNL     1     -36.088  14.086  -4.219  1.00 20.00     0.081 C 
HETATM    2  C4  UNL     1     -34.767  14.569  -3.801  1.00 20.00     0.212 C 
HETATM    3  N5  UNL     1     -37.131  13.700  -4.552  1.00 20.00    -0.196 NA
HETATM    4 CL7  UNL     1     -34.986  15.637  -2.389  1.00 20.00    -0.107 Cl
ENDROOT
BRANCH   2   5
HETATM    5  C3  UNL     1     -34.038  15.299  -4.925  1.00 20.00     0.202 C 
BRANCH   5   6
HETATM    6  O6  UNL     1     -33.929  14.479  -6.082  1.00 20.00    -0.394 OA
HETATM    7  C2  UNL     1     -34.047  15.243  -7.275  1.00 20.00     0.201 C 
ENDBRANCH   5   6
ENDBRANCH   2   5
TORSDOF 2
ENDMDL
MODEL 3
REMARK VINA RESULT:      -3.3      2.657      3.705
REMARK  2 active torsions:
REMARK  status: ('A' for Active; 'I' for Inactive)
REMARK    1  A    between atoms: C3_3  and  C4_4 
REMARK    2  A    between atoms: C3_3  and  O6_6 
ROOT
HETATM    1  C1  UNL     1     -33.845   6.542   4.549  1.00 20.00     0.081 C 
HETATM    2  C4  UNL     1     -33.543   6.487   3.114  1.00 20.00     0.212 C 
HETATM    3  N5  UNL     1     -34.086   6.589   5.683  1.00 20.00    -0.196 NA
HETATM    4 CL7  UNL     1     -33.352   4.774   2.650  1.00 20.00    -0.107 Cl
ENDROOT
BRANCH   2   5
HETATM    5  C3  UNL     1     -32.294   7.288   2.756  1.00 20.00     0.202 C 
BRANCH   5   6
HETATM    6  O6  UNL     1     -32.192   7.475   1.350  1.00 20.00    -0.394 OA
HETATM    7  C2  UNL     1     -32.880   8.645   0.929  1.00 20.00     0.201 C 
ENDBRANCH   5   6
ENDBRANCH   2   5
TORSDOF 2
ENDMDL
MODEL 4
REMARK VINA RESULT:      -3.3     11.510     11.980
REMARK  2 active torsions:
REMARK  status: ('A' for Active; 'I' for Inactive)
REMARK    1  A    between atoms: C3_3  and  C4_4 
REMARK    2  A    between atoms: C3_3  and  O6_6 
ROOT
HETATM    1  C1  UNL     1     -34.547  14.835  -5.729  1.00 20.00     0.081 C 
HETATM    2  C4  UNL     1     -35.522  14.840  -4.631  1.00 20.00     0.212 C 
HETATM    3  N5  UNL     1     -33.780  14.832  -6.600  1.00 20.00    -0.196 NA
HETATM    4 CL7  UNL     1     -34.645  15.160  -3.110  1.00 20.00    -0.107 Cl
ENDROOT
BRANCH   2   5
HETATM    5  C3  UNL     1     -36.299  13.530  -4.544  1.00 20.00     0.202 C 
BRANCH   5   6
HETATM    6  O6  UNL     1     -37.694  13.770  -4.409  1.00 20.00    -0.394 OA
HETATM    7  C2  UNL     1     -37.984  15.161  -4.404  1.00 20.00     0.201 C 
ENDBRANCH   5   6
ENDBRANCH   2   5
TORSDOF 2
ENDMDL
MODEL 5
REMARK VINA RESULT:      -3.3     16.220     16.590
REMARK  2 active torsions:
REMARK  status: ('A' for Active; 'I' for Inactive)
REMARK    1  A    between atoms: C3_3  and  C4_4 
REMARK    2  A    between atoms: C3_3  and  O6_6 
ROOT
HETATM    1  C1  UNL     1     -22.105  17.348   8.201  1.00 20.00     0.081 C 
HETATM    2  C4  UNL     1     -22.804  17.970   9.332  1.00 20.00     0.212 C 
HETATM    3  N5  UNL     1     -21.550  16.858   7.308  1.00 20.00    -0.196 NA
HETATM    4 CL7  UNL     1     -23.925  16.767  10.024  1.00 20.00    -0.107 Cl
ENDROOT
BRANCH   2   5
HETATM    5  C3  UNL     1     -23.552  19.236   8.922  1.00 20.00     0.202 C 
BRANCH   5   6
HETATM    6  O6  UNL     1     -23.940  19.180   7.555  1.00 20.00    -0.394 OA
HETATM    7  C2  UNL     1     -25.346  19.032   7.419  1.00 20.00     0.201 C 
ENDBRANCH   5   6
ENDBRANCH   2   5
TORSDOF 2
ENDMDL
MODEL 6
REMARK VINA RESULT:      -3.2     11.715     12.519
REMARK  2 active torsions:
REMARK  status: ('A' for Active; 'I' for Inactive)
REMARK    1  A    between atoms: C3_3  and  C4_4 
REMARK    2  A    between atoms: C3_3  and  O6_6 
ROOT
HETATM    1  C1  UNL     1     -36.190  13.996  -4.310  1.00 20.00     0.081 C 
HETATM    2  C4  UNL     1     -34.780  14.327  -4.074  1.00 20.00     0.212 C 
HETATM    3  N5  UNL     1     -37.304  13.730  -4.498  1.00 20.00    -0.196 NA
HETATM    4 CL7  UNL     1     -34.697  15.466  -2.702  1.00 20.00    -0.107 Cl
ENDROOT
BRANCH   2   5
HETATM    5  C3  UNL     1     -34.112  14.920  -5.312  1.00 20.00     0.202 C 
BRANCH   5   6
HETATM    6  O6  UNL     1     -35.013  15.755  -6.029  1.00 20.00    -0.394 OA
HETATM    7  C2  UNL     1     -34.611  17.117  -5.980  1.00 20.00     0.201 C 
ENDBRANCH   5   6
ENDBRANCH   2   5
TORSDOF 2
ENDMDL
MODEL 7
REMARK VINA RESULT:      -3.1     17.008     17.341
REMARK  2 active torsions:
REMARK  status: ('A' for Active; 'I' for Inactive)
REMARK    1  A    between atoms: C3_3  and  C4_4 
REMARK    2  A    between atoms: C3_3  and  O6_6 
ROOT
HETATM    1  C1  UNL     1     -24.005  16.570  11.181  1.00 20.00     0.081 C 
HETATM    2  C4  UNL     1     -22.806  17.293  10.740  1.00 20.00     0.212 C 
HETATM    3  N5  UNL     1     -24.953  15.996  11.527  1.00 20.00    -0.196 NA
HETATM    4 CL7  UNL     1     -21.925  17.848  12.189  1.00 20.00    -0.107 Cl
ENDROOT
BRANCH   2   5
HETATM    5  C3  UNL     1     -23.145  18.468   9.827  1.00 20.00     0.202 C 
BRANCH   5   6
HETATM    6  O6  UNL     1     -22.111  18.693   8.877  1.00 20.00    -0.394 OA
HETATM    7  C2  UNL     1     -21.760  17.496   8.197  1.00 20.00     0.201 C 
ENDBRANCH   5   6
ENDBRANCH   2   5
TORSDOF 2
ENDMDL
MODEL 8
REMARK VINA RESULT:      -3.1     11.590     11.903
REMARK  2 active torsions:
REMARK  status: ('A' for Active; 'I' for Inactive)
REMARK    1  A    between atoms: C3_3  and  C4_4 
REMARK    2  A    between atoms: C3_3  and  O6_6 
ROOT
HETATM    1  C1  UNL     1     -35.807  13.896  -4.269  1.00 20.00     0.081 C 
HETATM    2  C4  UNL     1     -35.786  15.323  -3.926  1.00 20.00     0.212 C 
HETATM    3  N5  UNL     1     -35.827  12.767  -4.537  1.00 20.00    -0.196 NA
HETATM    4 CL7  UNL     1     -35.163  16.226  -5.334  1.00 20.00    -0.107 Cl
ENDROOT
BRANCH   2   5
HETATM    5  C3  UNL     1     -34.944  15.605  -2.685  1.00 20.00     0.202 C 
BRANCH   5   6
HETATM    6  O6  UNL     1     -33.576  15.792  -3.027  1.00 20.00    -0.394 OA
HETATM    7  C2  UNL     1     -33.061  16.997  -2.475  1.00 20.00     0.201 C 
ENDBRANCH   5   6
ENDBRANCH   2   5
TORSDOF 2
ENDMDL
MODEL 9
REMARK VINA RESULT:      -3.1     16.691     16.961
REMARK  2 active torsions:
REMARK  status: ('A' for Active; 'I' for Inactive)
REMARK    1  A    between atoms: C3_3  and  C4_4 
REMARK    2  A    between atoms: C3_3  and  O6_6 
ROOT
HETATM    1  C1  UNL     1     -25.288  18.253  11.580  1.00 20.00     0.081 C 
HETATM    2  C4  UNL     1     -24.318  17.313  11.007  1.00 20.00     0.212 C 
HETATM    3  N5  UNL     1     -26.055  18.999  12.030  1.00 20.00    -0.196 NA
HETATM    4 CL7  UNL     1     -24.661  15.689  11.664  1.00 20.00    -0.107 Cl
ENDROOT
BRANCH   2   5
HETATM    5  C3  UNL     1     -22.877  17.722  11.297  1.00 20.00     0.202 C 
BRANCH   5   6
HETATM    6  O6  UNL     1     -22.164  17.977  10.093  1.00 20.00    -0.394 OA
HETATM    7  C2  UNL     1     -22.514  17.049   9.075  1.00 20.00     0.201 C 
ENDBRANCH   5   6
ENDBRANCH   2   5
TORSDOF 2
ENDMDL
