MODEL 1
REMARK VINA RESULT:      -4.7      0.000      0.000
REMARK  1 active torsions:
REMARK  status: ('A' for Active; 'I' for Inactive)
REMARK    1  A    between atoms: C6_6  and  C8_8 
ROOT
HETATM    1  C1  UNL     1     -35.416  13.875  -4.233  1.00 20.00     0.069 C 
HETATM    2  C2  UNL     1     -34.131  16.720  -2.095  1.00 20.00     0.002 C 
HETATM    3  C3  UNL     1     -32.947  16.478  -3.031  1.00 20.00     0.002 C 
HETATM    4  C4  UNL     1     -35.176  15.660  -2.446  1.00 20.00     0.024 C 
HETATM    5  C5  UNL     1     -33.331  15.284  -3.904  1.00 20.00     0.024 C 
HETATM    6  C6  UNL     1     -34.864  15.259  -3.894  1.00 20.00     0.049 C 
HETATM    7  N9  UNL     1     -35.835  12.824  -4.492  1.00 20.00    -0.196 NA
ENDROOT
BRANCH   6   8
HETATM    8  C8  UNL     1     -35.413  16.250  -4.844  1.00 20.00     0.020 C 
HETATM    9  C7  UNL     1     -34.863  16.057  -6.219  1.00 20.00     0.007 C 
ENDBRANCH   6   8
TORSDOF 1
ENDMDL
MODEL 2
REMARK VINA RESULT:      -4.5     16.605     18.079
REMARK  1 active torsions:
REMARK  status: ('A' for Active; 'I' for Inactive)
REMARK    1  A    between atoms: C6_6  and  C8_8 
ROOT
HETATM    1  C1  UNL     1     -22.140  17.267   8.169  1.00 20.00     0.069 C 
HETATM    2  C2  UNL     1     -23.937  16.927  11.482  1.00 20.00     0.002 C 
HETATM    3  C3  UNL     1     -22.702  17.735  11.881  1.00 20.00     0.002 C 
HETATM    4  C4  UNL     1     -23.778  16.613   9.994  1.00 20.00     0.024 C 
HETATM    5  C5  UNL     1     -21.854  17.872  10.617  1.00 20.00     0.024 C 
HETATM    6  C6  UNL     1     -22.841  17.702   9.456  1.00 20.00     0.049 C 
HETATM    7  N9  UNL     1     -21.608  16.937   7.192  1.00 20.00    -0.196 NA
ENDROOT
BRANCH   6   8
HETATM    8  C8  UNL     1     -23.582  18.957   9.207  1.00 20.00     0.020 C 
HETATM    9  C7  UNL     1     -24.638  18.775   8.167  1.00 20.00     0.007 C 
ENDBRANCH   6   8
TORSDOF 1
ENDMDL
MODEL 3
REMARK VINA RESULT:      -4.3     18.199     18.962
REMARK  1 active torsions:
REMARK  status: ('A' for Active; 'I' for Inactive)
REMARK    1  A    between atoms: C6_6  and  C8_8 
ROOT
HETATM    1  C1  UNL     1     -23.267  18.504   9.909  1.00 20.00     0.069 C 
HETATM    2  C2  UNL     1     -26.018  17.331  12.227  1.00 20.00     0.002 C 
HETATM    3  C3  UNL     1     -25.239  16.037  11.992  1.00 20.00     0.002 C 
HETATM    4  C4  UNL     1     -25.344  18.397  11.363  1.00 20.00     0.024 C 
HETATM    5  C5  UNL     1     -24.131  16.380  10.997  1.00 20.00     0.024 C 
HETATM    6  C6  UNL     1     -23.912  17.890  11.151  1.00 20.00     0.049 C 
HETATM    7  N9  UNL     1     -22.777  18.971   8.966  1.00 20.00    -0.196 NA
ENDROOT
BRANCH   6   8
HETATM    8  C8  UNL     1     -23.071  18.182  12.332  1.00 20.00     0.020 C 
HETATM    9  C7  UNL     1     -21.671  17.700  12.143  1.00 20.00     0.007 C 
ENDBRANCH   6   8
TORSDOF 1
ENDMDL
MODEL 4
REMARK VINA RESULT:      -4.2     17.239     18.570
REMARK  1 active torsions:
REMARK  status: ('A' for Active; 'I' for Inactive)
REMARK    1  A    between atoms: C6_6  and  C8_8 
ROOT
HETATM    1  C1  UNL     1     -22.557  17.802  11.649  1.00 20.00     0.069 C 
HETATM    2  C2  UNL     1     -25.797  19.110  10.197  1.00 20.00     0.002 C 
HETATM    3  C3  UNL     1     -24.899  19.068   8.961  1.00 20.00     0.002 C 
HETATM    4  C4  UNL     1     -24.921  18.682  11.375  1.00 20.00     0.024 C 
HETATM    5  C5  UNL     1     -23.522  18.618   9.448  1.00 20.00     0.024 C 
HETATM    6  C6  UNL     1     -23.791  17.853  10.750  1.00 20.00     0.049 C 
HETATM    7  N9  UNL     1     -21.619  17.763  12.332  1.00 20.00    -0.196 NA
ENDROOT
BRANCH   6   8
HETATM    8  C8  UNL     1     -24.246  16.475  10.467  1.00 20.00     0.020 C 
HETATM    9  C7  UNL     1     -24.669  15.769  11.713  1.00 20.00     0.007 C 
ENDBRANCH   6   8
TORSDOF 1
ENDMDL
MODEL 5
REMARK VINA RESULT:      -4.0      1.145      1.660
REMARK  1 active torsions:
REMARK  status: ('A' for Active; 'I' for Inactive)
REMARK    1  A    between atoms: C6_6  and  C8_8 
ROOT
HETATM    1  C1  UNL     1     -36.358  14.465  -4.291  1.00 20.00     0.069 C 
HETATM    2  C2  UNL     1     -34.346  17.614  -3.696  1.00 20.00     0.002 C 
HETATM    3  C3  UNL     1     -33.984  16.779  -2.467  1.00 20.00     0.002 C 
HETATM    4  C4  UNL     1     -35.372  16.796  -4.480  1.00 20.00     0.024 C 
HETATM    5  C5  UNL     1     -34.809  15.496  -2.566  1.00 20.00     0.024 C 
HETATM    6  C6  UNL     1     -35.128  15.341  -4.057  1.00 20.00     0.049 C 
HETATM    7  N9  UNL     1     -37.292  13.800  -4.469  1.00 20.00    -0.196 NA
ENDROOT
BRANCH   6   8
HETATM    8  C8  UNL     1     -33.976  14.769  -4.786  1.00 20.00     0.020 C 
HETATM    9  C7  UNL     1     -34.092  14.987  -6.258  1.00 20.00     0.007 C 
ENDBRANCH   6   8
TORSDOF 1
ENDMDL
MODEL 6
REMARK VINA RESULT:      -4.0      1.524      2.462
REMARK  1 active torsions:
REMARK  status: ('A' for Active; 'I' for Inactive)
REMARK    1  A    between atoms: C6_6  and  C8_8 
ROOT
HETATM    1  C1  UNL     1     -34.010  15.030  -5.846  1.00 20.00     0.069 C 
HETATM    2  C2  UNL     1     -33.841  16.438  -2.338  1.00 20.00     0.002 C 
HETATM    3  C3  UNL     1     -35.243  16.864  -2.775  1.00 20.00     0.002 C 
HETATM    4  C4  UNL     1     -33.212  15.741  -3.545  1.00 20.00     0.024 C 
HETATM    5  C5  UNL     1     -35.396  16.406  -4.225  1.00 20.00     0.024 C 
HETATM    6  C6  UNL     1     -34.399  15.252  -4.385  1.00 20.00     0.049 C 
HETATM    7  N9  UNL     1     -33.715  14.861  -6.956  1.00 20.00    -0.196 NA
ENDROOT
BRANCH   6   8
HETATM    8  C8  UNL     1     -34.952  13.998  -3.831  1.00 20.00     0.020 C 
HETATM    9  C7  UNL     1     -36.213  13.599  -4.525  1.00 20.00     0.007 C 
ENDBRANCH   6   8
TORSDOF 1
ENDMDL
MODEL 7
REMARK VINA RESULT:      -3.9     10.782     12.351
REMARK  1 active torsions:
REMARK  status: ('A' for Active; 'I' for Inactive)
REMARK    1  A    between atoms: C6_6  and  C8_8 
ROOT
HETATM    1  C1  UNL     1     -42.814   5.374   0.800  1.00 20.00     0.069 C 
HETATM    2  C2  UNL     1     -42.162   8.277  -1.537  1.00 20.00     0.002 C 
HETATM    3  C3  UNL     1     -41.225   8.600  -0.373  1.00 20.00     0.002 C 
HETATM    4  C4  UNL     1     -42.922   7.013  -1.134  1.00 20.00     0.024 C 
HETATM    5  C5  UNL     1     -41.461   7.517   0.679  1.00 20.00     0.024 C 
HETATM    6  C6  UNL     1     -42.024   6.322  -0.100  1.00 20.00     0.049 C 
HETATM    7  N9  UNL     1     -43.416   4.653   1.483  1.00 20.00    -0.196 NA
ENDROOT
BRANCH   6   8
HETATM    8  C8  UNL     1     -40.938   5.570  -0.766  1.00 20.00     0.020 C 
HETATM    9  C7  UNL     1     -41.477   4.557  -1.721  1.00 20.00     0.007 C 
ENDBRANCH   6   8
TORSDOF 1
ENDMDL
MODEL 8
REMARK VINA RESULT:      -3.9      1.419      3.142
REMARK  1 active torsions:
REMARK  status: ('A' for Active; 'I' for Inactive)
REMARK    1  A    between atoms: C6_6  and  C8_8 
ROOT
HETATM    1  C1  UNL     1     -37.027  14.454  -4.572  1.00 20.00     0.069 C 
HETATM    2  C2  UNL     1     -34.301  15.763  -6.846  1.00 20.00     0.002 C 
HETATM    3  C3  UNL     1     -34.648  17.008  -6.030  1.00 20.00     0.002 C 
HETATM    4  C4  UNL     1     -35.266  14.670  -6.386  1.00 20.00     0.024 C 
HETATM    5  C5  UNL     1     -35.805  16.611  -5.115  1.00 20.00     0.024 C 
HETATM    6  C6  UNL     1     -35.696  15.088  -4.974  1.00 20.00     0.049 C 
HETATM    7  N9  UNL     1     -38.038  13.971  -4.266  1.00 20.00    -0.196 NA
ENDROOT
BRANCH   6   8
HETATM    8  C8  UNL     1     -34.662  14.724  -3.982  1.00 20.00     0.020 C 
HETATM    9  C7  UNL     1     -34.801  15.520  -2.726  1.00 20.00     0.007 C 
ENDBRANCH   6   8
TORSDOF 1
ENDMDL
MODEL 9
REMARK VINA RESULT:      -3.9      3.132      4.260
REMARK  1 active torsions:
REMARK  status: ('A' for Active; 'I' for Inactive)
REMARK    1  A    between atoms: C6_6  and  C8_8 
ROOT
HETATM    1  C1  UNL     1     -32.208  18.228  -1.659  1.00 20.00     0.069 C 
HETATM    2  C2  UNL     1     -34.245  15.489  -3.291  1.00 20.00     0.002 C 
HETATM    3  C3  UNL     1     -35.182  15.947  -2.173  1.00 20.00     0.002 C 
HETATM    4  C4  UNL     1     -32.962  16.305  -3.133  1.00 20.00     0.024 C 
HETATM    5  C5  UNL     1     -34.422  17.017  -1.391  1.00 20.00     0.024 C 
HETATM    6  C6  UNL     1     -33.386  17.571  -2.376  1.00 20.00     0.049 C 
HETATM    7  N9  UNL     1     -31.313  18.728  -1.115  1.00 20.00    -0.196 NA
ENDROOT
BRANCH   6   8
HETATM    8  C8  UNL     1     -34.005  18.549  -3.296  1.00 20.00     0.020 C 
HETATM    9  C7  UNL     1     -33.025  19.054  -4.303  1.00 20.00     0.007 C 
ENDBRANCH   6   8
TORSDOF 1
ENDMDL
