MODEL 1
REMARK VINA RESULT:      -4.3      0.000      0.000
REMARK  2 active torsions:
REMARK  status: ('A' for Active; 'I' for Inactive)
REMARK    1  A    between atoms: C3_3  and  C4_4 
REMARK    2  A    between atoms: C5_5  and  C6_6 
ROOT
HETATM    1  C1  UNL     1     -35.245  13.841  -4.114  1.00 20.00     0.087 C 
HETATM    2  C2  UNL     1     -34.584  15.027  -3.697  1.00 20.00     0.093 C 
HETATM    3  C3  UNL     1     -34.837  15.588  -2.506  1.00 20.00     0.011 C 
HETATM    4  N7  UNL     1     -35.783  12.872  -4.459  1.00 20.00    -0.192 NA
ENDROOT
BRANCH   3   5
HETATM    5  C4  UNL     1     -34.184  16.794  -2.050  1.00 20.00    -0.002 C 
HETATM    6  C5  UNL     1     -33.024  17.239  -2.558  1.00 20.00    -0.012 C 
BRANCH   6   7
HETATM    7  C6  UNL     1     -32.348  18.489  -2.097  1.00 20.00     0.141 C 
HETATM    8 CL8  UNL     1     -31.362  18.150  -0.659  1.00 20.00    -0.126 Cl
ENDBRANCH   6   7
ENDBRANCH   3   5
TORSDOF 2
ENDMDL
MODEL 2
REMARK VINA RESULT:      -4.1     10.804     11.534
REMARK  2 active torsions:
REMARK  status: ('A' for Active; 'I' for Inactive)
REMARK    1  A    between atoms: C3_3  and  C4_4 
REMARK    2  A    between atoms: C5_5  and  C6_6 
ROOT
HETATM    1  C1  UNL     1     -34.637   5.613   5.371  1.00 20.00     0.087 C 
HETATM    2  C2  UNL     1     -34.182   6.246   4.184  1.00 20.00     0.093 C 
HETATM    3  C3  UNL     1     -33.439   5.591   3.281  1.00 20.00     0.011 C 
HETATM    4  N7  UNL     1     -35.010   5.099   6.342  1.00 20.00    -0.192 NA
ENDROOT
BRANCH   3   5
HETATM    5  C4  UNL     1     -32.959   6.204   2.062  1.00 20.00    -0.002 C 
HETATM    6  C5  UNL     1     -32.588   7.491   1.985  1.00 20.00    -0.012 C 
BRANCH   6   7
HETATM    7  C6  UNL     1     -32.082   8.129   0.732  1.00 20.00     0.141 C 
HETATM    8 CL8  UNL     1     -33.440   8.794  -0.200  1.00 20.00    -0.126 Cl
ENDBRANCH   6   7
ENDBRANCH   3   5
TORSDOF 2
ENDMDL
MODEL 3
REMARK VINA RESULT:      -3.8      3.961      5.268
REMARK  2 active torsions:
REMARK  status: ('A' for Active; 'I' for Inactive)
REMARK    1  A    between atoms: C3_3  and  C4_4 
REMARK    2  A    between atoms: C5_5  and  C6_6 
ROOT
HETATM    1  C1  UNL     1     -32.336  18.099  -1.489  1.00 20.00     0.087 C 
HETATM    2  C2  UNL     1     -33.487  17.341  -1.833  1.00 20.00     0.093 C 
HETATM    3  C3  UNL     1     -33.425  16.334  -2.714  1.00 20.00     0.011 C 
HETATM    4  N7  UNL     1     -31.398  18.721  -1.205  1.00 20.00    -0.192 NA
ENDROOT
BRANCH   3   5
HETATM    5  C4  UNL     1     -34.575  15.542  -3.088  1.00 20.00    -0.002 C 
HETATM    6  C5  UNL     1     -34.505  14.491  -3.920  1.00 20.00    -0.012 C 
BRANCH   6   7
HETATM    7  C6  UNL     1     -35.688  13.662  -4.303  1.00 20.00     0.141 C 
HETATM    8 CL8  UNL     1     -37.179  14.603  -4.091  1.00 20.00    -0.126 Cl
ENDBRANCH   6   7
ENDBRANCH   3   5
TORSDOF 2
ENDMDL
MODEL 4
REMARK VINA RESULT:      -3.8     11.881     13.637
REMARK  2 active torsions:
REMARK  status: ('A' for Active; 'I' for Inactive)
REMARK    1  A    between atoms: C3_3  and  C4_4 
REMARK    2  A    between atoms: C5_5  and  C6_6 
ROOT
HETATM    1  C1  UNL     1     -41.638   9.008  -0.014  1.00 20.00     0.087 C 
HETATM    2  C2  UNL     1     -42.031   7.753  -0.550  1.00 20.00     0.093 C 
HETATM    3  C3  UNL     1     -41.189   6.711  -0.586  1.00 20.00     0.011 C 
HETATM    4  N7  UNL     1     -41.320  10.035   0.423  1.00 20.00    -0.192 NA
ENDROOT
BRANCH   3   5
HETATM    5  C4  UNL     1     -41.555   5.420  -1.124  1.00 20.00    -0.002 C 
HETATM    6  C5  UNL     1     -42.802   5.116  -1.519  1.00 20.00    -0.012 C 
BRANCH   6   7
HETATM    7  C6  UNL     1     -43.186   3.788  -2.084  1.00 20.00     0.141 C 
HETATM    8 CL8  UNL     1     -41.860   3.147  -3.077  1.00 20.00    -0.126 Cl
ENDBRANCH   6   7
ENDBRANCH   3   5
TORSDOF 2
ENDMDL
MODEL 5
REMARK VINA RESULT:      -3.7     16.369     16.759
REMARK  2 active torsions:
REMARK  status: ('A' for Active; 'I' for Inactive)
REMARK    1  A    between atoms: C3_3  and  C4_4 
REMARK    2  A    between atoms: C5_5  and  C6_6 
ROOT
HETATM    1  C1  UNL     1     -21.955  17.379   7.895  1.00 20.00     0.087 C 
HETATM    2  C2  UNL     1     -22.746  17.934   8.936  1.00 20.00     0.093 C 
HETATM    3  C3  UNL     1     -23.099  17.212  10.009  1.00 20.00     0.011 C 
HETATM    4  N7  UNL     1     -21.308  16.930   7.042  1.00 20.00    -0.192 NA
ENDROOT
BRANCH   3   5
HETATM    5  C4  UNL     1     -23.903  17.743  11.086  1.00 20.00    -0.002 C 
HETATM    6  C5  UNL     1     -25.079  18.360  10.889  1.00 20.00    -0.012 C 
BRANCH   6   7
HETATM    7  C6  UNL     1     -25.920  18.904  11.999  1.00 20.00     0.141 C 
HETATM    8 CL8  UNL     1     -27.273  17.801  12.328  1.00 20.00    -0.126 Cl
ENDBRANCH   6   7
ENDBRANCH   3   5
TORSDOF 2
ENDMDL
MODEL 6
REMARK VINA RESULT:      -3.6     10.568     11.512
REMARK  2 active torsions:
REMARK  status: ('A' for Active; 'I' for Inactive)
REMARK    1  A    between atoms: C3_3  and  C4_4 
REMARK    2  A    between atoms: C5_5  and  C6_6 
ROOT
HETATM    1  C1  UNL     1     -32.812   8.664   0.636  1.00 20.00     0.087 C 
HETATM    2  C2  UNL     1     -33.279   7.668   1.536  1.00 20.00     0.093 C 
HETATM    3  C3  UNL     1     -32.537   7.260   2.575  1.00 20.00     0.011 C 
HETATM    4  N7  UNL     1     -32.435   9.477  -0.101  1.00 20.00    -0.192 NA
ENDROOT
BRANCH   3   5
HETATM    5  C4  UNL     1     -32.980   6.250   3.509  1.00 20.00    -0.002 C 
HETATM    6  C5  UNL     1     -34.137   5.582   3.376  1.00 20.00    -0.012 C 
BRANCH   6   7
HETATM    7  C6  UNL     1     -34.597   4.530   4.332  1.00 20.00     0.141 C 
HETATM    8 CL8  UNL     1     -34.808   5.233   5.950  1.00 20.00    -0.126 Cl
ENDBRANCH   6   7
ENDBRANCH   3   5
TORSDOF 2
ENDMDL
MODEL 7
REMARK VINA RESULT:      -3.6      2.129      2.292
REMARK  2 active torsions:
REMARK  status: ('A' for Active; 'I' for Inactive)
REMARK    1  A    between atoms: C3_3  and  C4_4 
REMARK    2  A    between atoms: C5_5  and  C6_6 
ROOT
HETATM    1  C1  UNL     1     -33.575  14.896  -4.104  1.00 20.00     0.087 C 
HETATM    2  C2  UNL     1     -33.768  15.870  -3.088  1.00 20.00     0.093 C 
HETATM    3  C3  UNL     1     -34.843  15.845  -2.289  1.00 20.00     0.011 C 
HETATM    4  N7  UNL     1     -33.414  14.102  -4.936  1.00 20.00    -0.192 NA
ENDROOT
BRANCH   3   5
HETATM    5  C4  UNL     1     -35.072  16.820  -1.246  1.00 20.00    -0.002 C 
HETATM    6  C5  UNL     1     -34.122  17.660  -0.805  1.00 20.00    -0.012 C 
BRANCH   6   7
HETATM    7  C6  UNL     1     -34.354  18.676   0.266  1.00 20.00     0.141 C 
HETATM    8 CL8  UNL     1     -34.008  17.966   1.858  1.00 20.00    -0.126 Cl
ENDBRANCH   6   7
ENDBRANCH   3   5
TORSDOF 2
ENDMDL
MODEL 8
REMARK VINA RESULT:      -3.5      4.231      5.488
REMARK  2 active torsions:
REMARK  status: ('A' for Active; 'I' for Inactive)
REMARK    1  A    between atoms: C3_3  and  C4_4 
REMARK    2  A    between atoms: C5_5  and  C6_6 
ROOT
HETATM    1  C1  UNL     1     -31.060  18.548  -0.101  1.00 20.00     0.087 C 
HETATM    2  C2  UNL     1     -31.951  18.093  -1.109  1.00 20.00     0.093 C 
HETATM    3  C3  UNL     1     -33.246  17.864  -0.848  1.00 20.00     0.011 C 
HETATM    4  N7  UNL     1     -30.328  18.920   0.720  1.00 20.00    -0.192 NA
ENDROOT
BRANCH   3   5
HETATM    5  C4  UNL     1     -34.181  17.401  -1.848  1.00 20.00    -0.002 C 
HETATM    6  C5  UNL     1     -34.122  16.178  -2.398  1.00 20.00    -0.012 C 
BRANCH   6   7
HETATM    7  C6  UNL     1     -35.090  15.689  -3.426  1.00 20.00     0.141 C 
HETATM    8 CL8  UNL     1     -34.716  14.008  -3.859  1.00 20.00    -0.126 Cl
ENDBRANCH   6   7
ENDBRANCH   3   5
TORSDOF 2
ENDMDL
MODEL 9
REMARK VINA RESULT:      -3.4      4.077      5.224
REMARK  2 active torsions:
REMARK  status: ('A' for Active; 'I' for Inactive)
REMARK    1  A    between atoms: C3_3  and  C4_4 
REMARK    2  A    between atoms: C5_5  and  C6_6 
ROOT
HETATM    1  C1  UNL     1     -34.546  17.586  -0.601  1.00 20.00     0.087 C 
HETATM    2  C2  UNL     1     -34.971  16.626  -1.558  1.00 20.00     0.093 C 
HETATM    3  C3  UNL     1     -34.114  16.078  -2.430  1.00 20.00     0.011 C 
HETATM    4  N7  UNL     1     -34.202  18.370   0.182  1.00 20.00    -0.192 NA
ENDROOT
BRANCH   3   5
HETATM    5  C4  UNL     1     -34.512  15.099  -3.417  1.00 20.00    -0.002 C 
HETATM    6  C5  UNL     1     -35.793  14.776  -3.655  1.00 20.00    -0.012 C 
BRANCH   6   7
HETATM    7  C6  UNL     1     -36.213  13.773  -4.680  1.00 20.00     0.141 C 
HETATM    8 CL8  UNL     1     -35.721  14.318  -6.297  1.00 20.00    -0.126 Cl
ENDBRANCH   6   7
ENDBRANCH   3   5
TORSDOF 2
ENDMDL
