MODEL 1
REMARK VINA RESULT:      -5.3      0.000      0.000
REMARK  0 active torsions:
REMARK  status: ('A' for Active; 'I' for Inactive)
ROOT
HETATM    1  C1  UNL     1     -36.367  15.845  -3.891  1.00 20.00     0.068 C 
HETATM    2  C2  UNL     1     -32.716  17.555  -1.851  1.00 20.00     0.009 A 
HETATM    3  C3  UNL     1     -33.254  18.145  -0.705  1.00 20.00     0.019 A 
HETATM    4  C4  UNL     1     -35.297  16.844  -0.940  1.00 20.00     0.028 A 
HETATM    5  C5  UNL     1     -33.473  16.609  -2.520  1.00 20.00    -0.050 A 
HETATM    6  C6  UNL     1     -34.755  16.258  -2.074  1.00 20.00    -0.033 A 
HETATM    7  C7  UNL     1     -34.535  17.790  -0.253  1.00 20.00     0.011 A 
HETATM    8  C8  UNL     1     -33.124  15.874  -3.775  1.00 20.00     0.041 C 
HETATM    9  C9  UNL     1     -34.146  14.724  -3.741  1.00 20.00     0.028 C 
HETATM   10  C10 UNL     1     -35.386  15.241  -2.981  1.00 20.00     0.126 C 
HETATM   11  N11 UNL     1     -37.142  16.322  -4.611  1.00 20.00    -0.197 NA
HETATM   12 BR12 UNL     1     -35.239  18.613   1.299  1.00 20.00    -0.051 Br
ENDROOT
TORSDOF 0
ENDMDL
MODEL 2
REMARK VINA RESULT:      -5.3      1.021      1.127
REMARK  0 active torsions:
REMARK  status: ('A' for Active; 'I' for Inactive)
ROOT
HETATM    1  C1  UNL     1     -36.093  14.842  -4.768  1.00 20.00     0.068 C 
HETATM    2  C2  UNL     1     -32.823  16.982  -2.500  1.00 20.00     0.009 A 
HETATM    3  C3  UNL     1     -33.533  17.650  -1.499  1.00 20.00     0.019 A 
HETATM    4  C4  UNL     1     -35.460  16.203  -1.836  1.00 20.00     0.028 A 
HETATM    5  C5  UNL     1     -33.440  15.926  -3.148  1.00 20.00    -0.050 A 
HETATM    6  C6  UNL     1     -34.748  15.541  -2.825  1.00 20.00    -0.033 A 
HETATM    7  C7  UNL     1     -34.841  17.262  -1.169  1.00 20.00     0.011 A 
HETATM    8  C8  UNL     1     -32.897  15.091  -4.264  1.00 20.00     0.041 C 
HETATM    9  C9  UNL     1     -33.855  13.887  -4.228  1.00 20.00     0.028 C 
HETATM   10  C10 UNL     1     -35.206  14.399  -3.685  1.00 20.00     0.126 C 
HETATM   11  N11 UNL     1     -36.794  15.192  -5.624  1.00 20.00    -0.197 NA
HETATM   12 BR12 UNL     1     -35.777  18.191   0.187  1.00 20.00    -0.051 Br
ENDROOT
TORSDOF 0
ENDMDL
MODEL 3
REMARK VINA RESULT:      -5.1      1.695      1.883
REMARK  0 active torsions:
REMARK  status: ('A' for Active; 'I' for Inactive)
ROOT
HETATM    1  C1  UNL     1     -36.271  14.063  -4.311  1.00 20.00     0.068 C 
HETATM    2  C2  UNL     1     -34.472  18.156  -3.654  1.00 20.00     0.009 A 
HETATM    3  C3  UNL     1     -34.652  18.351  -2.283  1.00 20.00     0.019 A 
HETATM    4  C4  UNL     1     -35.002  15.968  -1.942  1.00 20.00     0.028 A 
HETATM    5  C5  UNL     1     -34.550  16.865  -4.149  1.00 20.00    -0.050 A 
HETATM    6  C6  UNL     1     -34.819  15.780  -3.304  1.00 20.00    -0.033 A 
HETATM    7  C7  UNL     1     -34.914  17.265  -1.434  1.00 20.00     0.011 A 
HETATM    8  C8  UNL     1     -34.427  16.417  -5.570  1.00 20.00     0.041 C 
HETATM    9  C9  UNL     1     -34.188  14.908  -5.388  1.00 20.00     0.028 C 
HETATM   10  C10 UNL     1     -34.887  14.494  -4.076  1.00 20.00     0.126 C 
HETATM   11  N11 UNL     1     -37.365  13.722  -4.498  1.00 20.00    -0.197 NA
HETATM   12 BR12 UNL     1     -35.158  17.565   0.418  1.00 20.00    -0.051 Br
ENDROOT
TORSDOF 0
ENDMDL
MODEL 4
REMARK VINA RESULT:      -5.0      2.043      2.857
REMARK  0 active torsions:
REMARK  status: ('A' for Active; 'I' for Inactive)
ROOT
HETATM    1  C1  UNL     1     -33.358  14.495  -4.442  1.00 20.00     0.068 C 
HETATM    2  C2  UNL     1     -35.319  16.913  -1.167  1.00 20.00     0.009 A 
HETATM    3  C3  UNL     1     -34.239  17.597  -0.605  1.00 20.00     0.019 A 
HETATM    4  C4  UNL     1     -32.880  17.167  -2.577  1.00 20.00     0.028 A 
HETATM    5  C5  UNL     1     -35.167  16.374  -2.433  1.00 20.00    -0.050 A 
HETATM    6  C6  UNL     1     -33.958  16.494  -3.132  1.00 20.00    -0.033 A 
HETATM    7  C7  UNL     1     -33.029  17.724  -1.306  1.00 20.00     0.011 A 
HETATM    8  C8  UNL     1     -36.161  15.579  -3.219  1.00 20.00     0.041 C 
HETATM    9  C9  UNL     1     -35.556  15.656  -4.631  1.00 20.00     0.028 C 
HETATM   10  C10 UNL     1     -34.029  15.801  -4.462  1.00 20.00     0.126 C 
HETATM   11  N11 UNL     1     -32.829  13.462  -4.427  1.00 20.00    -0.197 NA
HETATM   12 BR12 UNL     1     -31.583  18.651  -0.513  1.00 20.00    -0.051 Br
ENDROOT
TORSDOF 0
ENDMDL
MODEL 5
REMARK VINA RESULT:      -4.9      2.904      4.154
REMARK  0 active torsions:
REMARK  status: ('A' for Active; 'I' for Inactive)
ROOT
HETATM    1  C1  UNL     1     -35.321  17.452  -0.023  1.00 20.00     0.068 C 
HETATM    2  C2  UNL     1     -32.897  15.750  -3.436  1.00 20.00     0.009 A 
HETATM    3  C3  UNL     1     -33.797  14.869  -4.040  1.00 20.00     0.019 A 
HETATM    4  C4  UNL     1     -35.673  15.958  -2.937  1.00 20.00     0.028 A 
HETATM    5  C5  UNL     1     -33.400  16.731  -2.598  1.00 20.00    -0.050 A 
HETATM    6  C6  UNL     1     -34.775  16.832  -2.345  1.00 20.00    -0.033 A 
HETATM    7  C7  UNL     1     -35.175  14.973  -3.793  1.00 20.00     0.011 A 
HETATM    8  C8  UNL     1     -32.637  17.756  -1.822  1.00 20.00     0.041 C 
HETATM    9  C9  UNL     1     -33.754  18.751  -1.463  1.00 20.00     0.028 C 
HETATM   10  C10 UNL     1     -35.069  17.947  -1.383  1.00 20.00     0.126 C 
HETATM   11  N11 UNL     1     -35.519  17.062   1.052  1.00 20.00    -0.197 NA
HETATM   12 BR12 UNL     1     -36.367  13.760  -4.621  1.00 20.00    -0.051 Br
ENDROOT
TORSDOF 0
ENDMDL
MODEL 6
REMARK VINA RESULT:      -4.4      2.436      3.145
REMARK  0 active torsions:
REMARK  status: ('A' for Active; 'I' for Inactive)
ROOT
HETATM    1  C1  UNL     1     -36.866  14.187  -4.605  1.00 20.00     0.068 C 
HETATM    2  C2  UNL     1     -34.511  17.958  -5.410  1.00 20.00     0.009 A 
HETATM    3  C3  UNL     1     -33.958  18.245  -4.161  1.00 20.00     0.019 A 
HETATM    4  C4  UNL     1     -34.370  15.969  -3.404  1.00 20.00     0.028 A 
HETATM    5  C5  UNL     1     -34.977  16.675  -5.643  1.00 20.00    -0.050 A 
HETATM    6  C6  UNL     1     -34.914  15.689  -4.649  1.00 20.00    -0.033 A 
HETATM    7  C7  UNL     1     -33.887  17.257  -3.166  1.00 20.00     0.011 A 
HETATM    8  C8  UNL     1     -35.633  16.146  -6.878  1.00 20.00     0.041 C 
HETATM    9  C9  UNL     1     -35.516  14.629  -6.653  1.00 20.00     0.028 C 
HETATM   10  C10 UNL     1     -35.510  14.397  -5.127  1.00 20.00     0.126 C 
HETATM   11  N11 UNL     1     -37.939  14.020  -4.193  1.00 20.00    -0.197 NA
HETATM   12 BR12 UNL     1     -33.138  17.681  -1.481  1.00 20.00    -0.051 Br
ENDROOT
TORSDOF 0
ENDMDL
MODEL 7
REMARK VINA RESULT:      -4.4      2.887      4.279
REMARK  0 active torsions:
REMARK  status: ('A' for Active; 'I' for Inactive)
ROOT
HETATM    1  C1  UNL     1     -34.672  17.482  -1.157  1.00 20.00     0.068 C 
HETATM    2  C2  UNL     1     -35.011  14.155  -4.195  1.00 20.00     0.009 A 
HETATM    3  C3  UNL     1     -36.391  14.057  -4.388  1.00 20.00     0.019 A 
HETATM    4  C4  UNL     1     -36.729  16.265  -3.424  1.00 20.00     0.028 A 
HETATM    5  C5  UNL     1     -34.508  15.313  -3.628  1.00 20.00    -0.050 A 
HETATM    6  C6  UNL     1     -35.358  16.358  -3.240  1.00 20.00    -0.033 A 
HETATM    7  C7  UNL     1     -37.243  15.105  -4.006  1.00 20.00     0.011 A 
HETATM    8  C8  UNL     1     -33.085  15.631  -3.297  1.00 20.00     0.041 C 
HETATM    9  C9  UNL     1     -33.156  17.156  -3.108  1.00 20.00     0.028 C 
HETATM   10  C10 UNL     1     -34.583  17.487  -2.622  1.00 20.00     0.126 C 
HETATM   11  N11 UNL     1     -34.742  17.479   0.002  1.00 20.00    -0.197 NA
HETATM   12 BR12 UNL     1     -39.109  14.938  -4.274  1.00 20.00    -0.051 Br
ENDROOT
TORSDOF 0
ENDMDL
MODEL 8
REMARK VINA RESULT:      -4.3      1.902      2.952
REMARK  0 active torsions:
REMARK  status: ('A' for Active; 'I' for Inactive)
ROOT
HETATM    1  C1  UNL     1     -37.652  16.817  -4.801  1.00 20.00     0.068 C 
HETATM    2  C2  UNL     1     -33.685  14.730  -4.227  1.00 20.00     0.009 A 
HETATM    3  C3  UNL     1     -32.965  15.649  -3.460  1.00 20.00     0.019 A 
HETATM    4  C4  UNL     1     -35.015  16.796  -2.827  1.00 20.00     0.028 A 
HETATM    5  C5  UNL     1     -35.063  14.852  -4.274  1.00 20.00    -0.050 A 
HETATM    6  C6  UNL     1     -35.725  15.878  -3.586  1.00 20.00    -0.033 A 
HETATM    7  C7  UNL     1     -33.626  16.674  -2.765  1.00 20.00     0.011 A 
HETATM    8  C8  UNL     1     -36.033  14.015  -5.046  1.00 20.00     0.041 C 
HETATM    9  C9  UNL     1     -37.359  14.382  -4.356  1.00 20.00     0.028 C 
HETATM   10  C10 UNL     1     -37.207  15.820  -3.818  1.00 20.00     0.126 C 
HETATM   11  N11 UNL     1     -38.004  17.604  -5.578  1.00 20.00    -0.197 NA
HETATM   12 BR12 UNL     1     -32.621  17.906  -1.740  1.00 20.00    -0.051 Br
ENDROOT
TORSDOF 0
ENDMDL
MODEL 9
REMARK VINA RESULT:      -4.3      2.457      3.628
REMARK  0 active torsions:
REMARK  status: ('A' for Active; 'I' for Inactive)
ROOT
HETATM    1  C1  UNL     1     -33.372  16.731  -2.859  1.00 20.00     0.068 C 
HETATM    2  C2  UNL     1     -34.164  17.868   1.442  1.00 20.00     0.009 A 
HETATM    3  C3  UNL     1     -32.902  18.264   1.890  1.00 20.00     0.019 A 
HETATM    4  C4  UNL     1     -32.121  18.529  -0.399  1.00 20.00     0.028 A 
HETATM    5  C5  UNL     1     -34.390  17.819   0.077  1.00 20.00    -0.050 A 
HETATM    6  C6  UNL     1     -33.378  18.140  -0.837  1.00 20.00    -0.033 A 
HETATM    7  C7  UNL     1     -31.889  18.593   0.976  1.00 20.00     0.011 A 
HETATM    8  C8  UNL     1     -35.637  17.397  -0.633  1.00 20.00     0.041 C 
HETATM    9  C9  UNL     1     -35.382  17.958  -2.042  1.00 20.00     0.028 C 
HETATM   10  C10 UNL     1     -33.854  17.979  -2.253  1.00 20.00     0.126 C 
HETATM   11  N11 UNL     1     -32.992  15.745  -3.339  1.00 20.00    -0.197 NA
HETATM   12 BR12 UNL     1     -30.188  19.119   1.616  1.00 20.00    -0.051 Br
ENDROOT
TORSDOF 0
ENDMDL
