MODEL 1
REMARK VINA RESULT:      -4.9      0.000      0.000
REMARK  4 active torsions:
REMARK  status: ('A' for Active; 'I' for Inactive)
REMARK    1  A    between atoms: C1_1  and  C6_6 
REMARK    2  A    between atoms: C1_1  and  C8_8 
REMARK    3  A    between atoms: C7_7  and  C8_8 
REMARK    4  A    between atoms: C7_7  and  C9_9 
ROOT
HETATM    1  C3  UNL     1     -33.194   4.826   2.181  1.00 20.00     0.018 C 
HETATM    2  C8  UNL     1     -33.104   5.882   3.281  1.00 20.00     0.051 C 
ENDROOT
BRANCH   2   3
HETATM    3  C1  UNL     1     -32.323   7.077   2.738  1.00 20.00     0.130 C 
HETATM    4  O10 UNL     1     -31.609   7.766   3.467  1.00 20.00    -0.298 OA
BRANCH   3   5
HETATM    5  C6  UNL     1     -32.510   7.383   1.261  1.00 20.00     0.074 C 
HETATM    6  C2  UNL     1     -32.872   8.835   1.006  1.00 20.00     0.013 C 
ENDBRANCH   3   5
ENDBRANCH   2   3
BRANCH   2   7
HETATM    7  C7  UNL     1     -34.508   6.290   3.759  1.00 20.00     0.015 C 
BRANCH   7   8
HETATM    8  C9  UNL     1     -34.742   6.152   5.279  1.00 20.00    -0.022 C 
HETATM    9  C4  UNL     1     -33.743   6.967   6.101  1.00 20.00     0.009 C 
HETATM   10  C5  UNL     1     -34.656   4.677   5.680  1.00 20.00     0.009 C 
ENDBRANCH   7   8
ENDBRANCH   2   7
TORSDOF 4
ENDMDL
MODEL 2
REMARK VINA RESULT:      -4.6      1.142      4.472
REMARK  4 active torsions:
REMARK  status: ('A' for Active; 'I' for Inactive)
REMARK    1  A    between atoms: C1_1  and  C6_6 
REMARK    2  A    between atoms: C1_1  and  C8_8 
REMARK    3  A    between atoms: C7_7  and  C8_8 
REMARK    4  A    between atoms: C7_7  and  C9_9 
ROOT
HETATM    1  C3  UNL     1     -32.987   4.869   2.440  1.00 20.00     0.018 C 
HETATM    2  C8  UNL     1     -33.509   6.280   2.703  1.00 20.00     0.051 C 
ENDROOT
BRANCH   2   3
HETATM    3  C1  UNL     1     -33.842   6.401   4.188  1.00 20.00     0.130 C 
HETATM    4  O10 UNL     1     -33.199   7.138   4.935  1.00 20.00    -0.298 OA
BRANCH   3   5
HETATM    5  C6  UNL     1     -34.983   5.532   4.691  1.00 20.00     0.074 C 
HETATM    6  C2  UNL     1     -34.794   5.095   6.132  1.00 20.00     0.013 C 
ENDBRANCH   3   5
ENDBRANCH   2   3
BRANCH   2   7
HETATM    7  C7  UNL     1     -32.478   7.333   2.262  1.00 20.00     0.015 C 
BRANCH   7   8
HETATM    8  C9  UNL     1     -32.772   8.000   0.901  1.00 20.00    -0.022 C 
HETATM    9  C4  UNL     1     -31.615   7.847  -0.087  1.00 20.00     0.009 C 
HETATM   10  C5  UNL     1     -33.076   9.486   1.111  1.00 20.00     0.009 C 
ENDBRANCH   7   8
ENDBRANCH   2   7
TORSDOF 4
ENDMDL
MODEL 3
REMARK VINA RESULT:      -4.4     11.170     12.033
REMARK  4 active torsions:
REMARK  status: ('A' for Active; 'I' for Inactive)
REMARK    1  A    between atoms: C1_1  and  C6_6 
REMARK    2  A    between atoms: C1_1  and  C8_8 
REMARK    3  A    between atoms: C7_7  and  C8_8 
REMARK    4  A    between atoms: C7_7  and  C9_9 
ROOT
HETATM    1  C3  UNL     1     -34.568  14.853  -6.205  1.00 20.00     0.018 C 
HETATM    2  C8  UNL     1     -35.077  14.977  -4.770  1.00 20.00     0.051 C 
ENDROOT
BRANCH   2   3
HETATM    3  C1  UNL     1     -36.155  13.919  -4.549  1.00 20.00     0.130 C 
HETATM    4  O10 UNL     1     -35.899  12.716  -4.597  1.00 20.00    -0.298 OA
BRANCH   3   5
HETATM    5  C6  UNL     1     -37.563  14.439  -4.307  1.00 20.00     0.074 C 
HETATM    6  C2  UNL     1     -37.660  15.948  -4.439  1.00 20.00     0.013 C 
ENDBRANCH   3   5
ENDBRANCH   2   3
BRANCH   2   7
HETATM    7  C7  UNL     1     -33.921  14.831  -3.767  1.00 20.00     0.015 C 
BRANCH   7   8
HETATM    8  C9  UNL     1     -33.746  16.020  -2.799  1.00 20.00    -0.022 C 
HETATM    9  C4  UNL     1     -34.969  16.231  -1.905  1.00 20.00     0.009 C 
HETATM   10  C5  UNL     1     -33.466  17.297  -3.597  1.00 20.00     0.009 C 
ENDBRANCH   7   8
ENDBRANCH   2   7
TORSDOF 4
ENDMDL
MODEL 4
REMARK VINA RESULT:      -4.4     14.872     15.949
REMARK  4 active torsions:
REMARK  status: ('A' for Active; 'I' for Inactive)
REMARK    1  A    between atoms: C1_1  and  C6_6 
REMARK    2  A    between atoms: C1_1  and  C8_8 
REMARK    3  A    between atoms: C7_7  and  C8_8 
REMARK    4  A    between atoms: C7_7  and  C9_9 
ROOT
HETATM    1  C3  UNL     1     -22.256  17.544   8.608  1.00 20.00     0.018 C 
HETATM    2  C8  UNL     1     -23.325  18.587   8.930  1.00 20.00     0.051 C 
ENDROOT
BRANCH   2   3
HETATM    3  C1  UNL     1     -24.154  18.829   7.671  1.00 20.00     0.130 C 
HETATM    4  O10 UNL     1     -23.648  18.807   6.550  1.00 20.00    -0.298 OA
BRANCH   3   5
HETATM    5  C6  UNL     1     -25.627  19.137   7.890  1.00 20.00     0.074 C 
HETATM    6  C2  UNL     1     -26.481  18.798   6.682  1.00 20.00     0.013 C 
ENDBRANCH   3   5
ENDBRANCH   2   3
BRANCH   2   7
HETATM    7  C7  UNL     1     -24.199  18.126  10.108  1.00 20.00     0.015 C 
BRANCH   7   8
HETATM    8  C9  UNL     1     -23.562  17.042  11.004  1.00 20.00    -0.022 C 
HETATM    9  C4  UNL     1     -24.568  15.972  11.432  1.00 20.00     0.009 C 
HETATM   10  C5  UNL     1     -22.948  17.696  12.245  1.00 20.00     0.009 C 
ENDBRANCH   7   8
ENDBRANCH   2   7
TORSDOF 4
ENDMDL
MODEL 5
REMARK VINA RESULT:      -4.3     11.280     11.926
REMARK  4 active torsions:
REMARK  status: ('A' for Active; 'I' for Inactive)
REMARK    1  A    between atoms: C1_1  and  C6_6 
REMARK    2  A    between atoms: C1_1  and  C8_8 
REMARK    3  A    between atoms: C7_7  and  C8_8 
REMARK    4  A    between atoms: C7_7  and  C9_9 
ROOT
HETATM    1  C3  UNL     1     -38.123  15.334  -4.487  1.00 20.00     0.018 C 
HETATM    2  C8  UNL     1     -36.796  14.871  -3.889  1.00 20.00     0.051 C 
ENDROOT
BRANCH   2   3
HETATM    3  C1  UNL     1     -36.129  13.917  -4.877  1.00 20.00     0.130 C 
HETATM    4  O10 UNL     1     -35.884  12.748  -4.580  1.00 20.00    -0.298 OA
BRANCH   3   5
HETATM    5  C6  UNL     1     -35.755  14.507  -6.227  1.00 20.00     0.074 C 
HETATM    6  C2  UNL     1     -34.284  14.870  -6.318  1.00 20.00     0.013 C 
ENDBRANCH   3   5
ENDBRANCH   2   3
BRANCH   2   7
HETATM    7  C7  UNL     1     -35.896  16.074  -3.563  1.00 20.00     0.015 C 
BRANCH   7   8
HETATM    8  C9  UNL     1     -34.891  15.843  -2.414  1.00 20.00    -0.022 C 
HETATM    9  C4  UNL     1     -35.192  16.710  -1.191  1.00 20.00     0.009 C 
HETATM   10  C5  UNL     1     -33.469  16.127  -2.909  1.00 20.00     0.009 C 
ENDBRANCH   7   8
ENDBRANCH   2   7
TORSDOF 4
ENDMDL
MODEL 6
REMARK VINA RESULT:      -4.3     11.195     11.909
REMARK  4 active torsions:
REMARK  status: ('A' for Active; 'I' for Inactive)
REMARK    1  A    between atoms: C1_1  and  C6_6 
REMARK    2  A    between atoms: C1_1  and  C8_8 
REMARK    3  A    between atoms: C7_7  and  C8_8 
REMARK    4  A    between atoms: C7_7  and  C9_9 
ROOT
HETATM    1  C3  UNL     1     -34.399  14.770  -6.018  1.00 20.00     0.018 C 
HETATM    2  C8  UNL     1     -35.169  15.056  -4.729  1.00 20.00     0.051 C 
ENDROOT
BRANCH   2   3
HETATM    3  C1  UNL     1     -36.185  13.936  -4.517  1.00 20.00     0.130 C 
HETATM    4  O10 UNL     1     -35.854  12.751  -4.546  1.00 20.00    -0.298 OA
BRANCH   3   5
HETATM    5  C6  UNL     1     -37.626  14.371  -4.308  1.00 20.00     0.074 C 
HETATM    6  C2  UNL     1     -37.781  15.880  -4.260  1.00 20.00     0.013 C 
ENDBRANCH   3   5
ENDBRANCH   2   3
BRANCH   2   7
HETATM    7  C7  UNL     1     -34.206  15.185  -3.537  1.00 20.00     0.015 C 
BRANCH   7   8
HETATM    8  C9  UNL     1     -34.285  16.529  -2.781  1.00 20.00    -0.022 C 
HETATM    9  C4  UNL     1     -32.906  17.068  -2.401  1.00 20.00     0.009 C 
HETATM   10  C5  UNL     1     -35.137  16.360  -1.519  1.00 20.00     0.009 C 
ENDBRANCH   7   8
ENDBRANCH   2   7
TORSDOF 4
ENDMDL
MODEL 7
REMARK VINA RESULT:      -4.2     11.001     12.019
REMARK  4 active torsions:
REMARK  status: ('A' for Active; 'I' for Inactive)
REMARK    1  A    between atoms: C1_1  and  C6_6 
REMARK    2  A    between atoms: C1_1  and  C8_8 
REMARK    3  A    between atoms: C7_7  and  C8_8 
REMARK    4  A    between atoms: C7_7  and  C9_9 
ROOT
HETATM    1  C3  UNL     1     -36.719  16.308  -4.304  1.00 20.00     0.018 C 
HETATM    2  C8  UNL     1     -36.301  14.962  -3.713  1.00 20.00     0.051 C 
ENDROOT
BRANCH   2   3
HETATM    3  C1  UNL     1     -35.975  14.012  -4.862  1.00 20.00     0.130 C 
HETATM    4  O10 UNL     1     -35.948  12.792  -4.703  1.00 20.00    -0.298 OA
BRANCH   3   5
HETATM    5  C6  UNL     1     -35.648  14.663  -6.196  1.00 20.00     0.074 C 
HETATM    6  C2  UNL     1     -34.162  14.910  -6.378  1.00 20.00     0.013 C 
ENDBRANCH   3   5
ENDBRANCH   2   3
BRANCH   2   7
HETATM    7  C7  UNL     1     -35.107  15.134  -2.759  1.00 20.00     0.015 C 
BRANCH   7   8
HETATM    8  C9  UNL     1     -34.524  16.562  -2.699  1.00 20.00    -0.022 C 
HETATM    9  C4  UNL     1     -33.065  16.616  -3.154  1.00 20.00     0.009 C 
HETATM   10  C5  UNL     1     -34.638  17.105  -1.271  1.00 20.00     0.009 C 
ENDBRANCH   7   8
ENDBRANCH   2   7
TORSDOF 4
ENDMDL
MODEL 8
REMARK VINA RESULT:      -4.2      1.866      4.062
REMARK  4 active torsions:
REMARK  status: ('A' for Active; 'I' for Inactive)
REMARK    1  A    between atoms: C1_1  and  C6_6 
REMARK    2  A    between atoms: C1_1  and  C8_8 
REMARK    3  A    between atoms: C7_7  and  C8_8 
REMARK    4  A    between atoms: C7_7  and  C9_9 
ROOT
HETATM    1  C3  UNL     1     -32.929   4.443   2.206  1.00 20.00     0.018 C 
HETATM    2  C8  UNL     1     -34.128   5.199   2.776  1.00 20.00     0.051 C 
ENDROOT
BRANCH   2   3
HETATM    3  C1  UNL     1     -34.439   4.634   4.160  1.00 20.00     0.130 C 
HETATM    4  O10 UNL     1     -34.147   3.478   4.466  1.00 20.00    -0.298 OA
BRANCH   3   5
HETATM    5  C6  UNL     1     -35.161   5.569   5.117  1.00 20.00     0.074 C 
HETATM    6  C2  UNL     1     -34.228   6.199   6.135  1.00 20.00     0.013 C 
ENDBRANCH   3   5
ENDBRANCH   2   3
BRANCH   2   7
HETATM    7  C7  UNL     1     -33.845   6.710   2.827  1.00 20.00     0.015 C 
BRANCH   7   8
HETATM    8  C9  UNL     1     -32.430   7.122   2.368  1.00 20.00    -0.022 C 
HETATM    9  C4  UNL     1     -31.585   7.687   3.510  1.00 20.00     0.009 C 
HETATM   10  C5  UNL     1     -32.535   8.159   1.245  1.00 20.00     0.009 C 
ENDBRANCH   7   8
ENDBRANCH   2   7
TORSDOF 4
ENDMDL
MODEL 9
REMARK VINA RESULT:      -4.0     11.361     12.140
REMARK  4 active torsions:
REMARK  status: ('A' for Active; 'I' for Inactive)
REMARK    1  A    between atoms: C1_1  and  C6_6 
REMARK    2  A    between atoms: C1_1  and  C8_8 
REMARK    3  A    between atoms: C7_7  and  C8_8 
REMARK    4  A    between atoms: C7_7  and  C9_9 
ROOT
HETATM    1  C3  UNL     1     -33.140  14.261  -4.411  1.00 20.00     0.018 C 
HETATM    2  C8  UNL     1     -34.016  15.300  -5.108  1.00 20.00     0.051 C 
ENDROOT
BRANCH   2   3
HETATM    3  C1  UNL     1     -35.291  14.611  -5.587  1.00 20.00     0.130 C 
HETATM    4  O10 UNL     1     -35.670  14.694  -6.755  1.00 20.00    -0.298 OA
BRANCH   3   5
HETATM    5  C6  UNL     1     -36.080  13.855  -4.531  1.00 20.00     0.074 C 
HETATM    6  C2  UNL     1     -37.453  14.453  -4.286  1.00 20.00     0.013 C 
ENDBRANCH   3   5
ENDBRANCH   2   3
BRANCH   2   7
HETATM    7  C7  UNL     1     -34.323  16.475  -4.164  1.00 20.00     0.015 C 
BRANCH   7   8
HETATM    8  C9  UNL     1     -33.907  16.253  -2.694  1.00 20.00    -0.022 C 
HETATM    9  C4  UNL     1     -35.104  16.237  -1.743  1.00 20.00     0.009 C 
HETATM   10  C5  UNL     1     -32.925  17.348  -2.266  1.00 20.00     0.009 C 
ENDBRANCH   7   8
ENDBRANCH   2   7
TORSDOF 4
ENDMDL
