MODEL 1
REMARK VINA RESULT:      -5.4      0.000      0.000
REMARK  1 active torsions:
REMARK  status: ('A' for Active; 'I' for Inactive)
REMARK    1  A    between atoms: C4_4  and  O6_6 
ROOT
HETATM    1  C1  UNL     1     -33.599   5.123   2.717  1.00 20.00     0.038 C 
HETATM    2  C2  UNL     1     -34.061   4.323   3.932  1.00 20.00     0.081 C 
HETATM    3  C3  UNL     1     -34.065   6.606   4.619  1.00 20.00     0.110 C 
HETATM    4  C4  UNL     1     -33.469   6.570   3.210  1.00 20.00     0.124 C 
HETATM    5  C5  UNL     1     -34.878   5.333   4.705  1.00 20.00     0.246 C 
HETATM    6  F7  UNL     1     -35.089   4.950   5.976  1.00 20.00    -0.206 F 
HETATM    7  F8  UNL     1     -36.085   5.506   4.119  1.00 20.00    -0.206 F 
ENDROOT
BRANCH   4   8
HETATM    8  O6  UNL     1     -32.100   6.946   3.247  1.00 20.00    -0.395 OA
HETATM    9  H16 UNL     1     -31.614   6.277   2.741  1.00 20.00     0.210 HD
ENDBRANCH   4   8
TORSDOF 1
ENDMDL
MODEL 2
REMARK VINA RESULT:      -4.5      1.624      2.084
REMARK  1 active torsions:
REMARK  status: ('A' for Active; 'I' for Inactive)
REMARK    1  A    between atoms: C4_4  and  O6_6 
ROOT
HETATM    1  C1  UNL     1     -33.745   7.059   4.128  1.00 20.00     0.038 C 
HETATM    2  C2  UNL     1     -33.683   5.694   3.449  1.00 20.00     0.081 C 
HETATM    3  C3  UNL     1     -34.473   5.282   5.660  1.00 20.00     0.110 C 
HETATM    4  C4  UNL     1     -34.117   6.769   5.588  1.00 20.00     0.124 C 
HETATM    5  C5  UNL     1     -34.707   4.891   4.218  1.00 20.00     0.246 C 
HETATM    6  F7  UNL     1     -34.569   3.569   4.021  1.00 20.00    -0.206 F 
HETATM    7  F8  UNL     1     -35.958   5.239   3.834  1.00 20.00    -0.206 F 
ENDROOT
BRANCH   4   8
HETATM    8  O6  UNL     1     -33.011   7.050   6.433  1.00 20.00    -0.395 OA
HETATM    9  H16 UNL     1     -32.303   7.383   5.862  1.00 20.00     0.210 HD
ENDBRANCH   4   8
TORSDOF 1
ENDMDL
MODEL 3
REMARK VINA RESULT:      -4.5      2.670      3.291
REMARK  1 active torsions:
REMARK  status: ('A' for Active; 'I' for Inactive)
REMARK    1  A    between atoms: C4_4  and  O6_6 
ROOT
HETATM    1  C1  UNL     1     -34.596   6.094   4.592  1.00 20.00     0.038 C 
HETATM    2  C2  UNL     1     -33.302   6.902   4.621  1.00 20.00     0.081 C 
HETATM    3  C3  UNL     1     -33.096   5.414   2.771  1.00 20.00     0.110 C 
HETATM    4  C4  UNL     1     -34.396   5.046   3.490  1.00 20.00     0.124 C 
HETATM    5  C5  UNL     1     -32.841   6.847   3.183  1.00 20.00     0.246 C 
HETATM    6  F7  UNL     1     -31.549   7.192   3.049  1.00 20.00    -0.206 F 
HETATM    7  F8  UNL     1     -33.578   7.691   2.424  1.00 20.00    -0.206 F 
ENDROOT
BRANCH   4   8
HETATM    8  O6  UNL     1     -34.288   3.753   4.067  1.00 20.00    -0.395 OA
HETATM    9  H16 UNL     1     -33.344   3.537   4.090  1.00 20.00     0.210 HD
ENDBRANCH   4   8
TORSDOF 1
ENDMDL
MODEL 4
REMARK VINA RESULT:      -4.4      2.384      3.073
REMARK  1 active torsions:
REMARK  status: ('A' for Active; 'I' for Inactive)
REMARK    1  A    between atoms: C4_4  and  O6_6 
ROOT
HETATM    1  C1  UNL     1     -34.255   6.702   4.324  1.00 20.00     0.038 C 
HETATM    2  C2  UNL     1     -33.055   6.307   3.468  1.00 20.00     0.081 C 
HETATM    3  C3  UNL     1     -34.243   4.285   3.891  1.00 20.00     0.110 C 
HETATM    4  C4  UNL     1     -34.931   5.380   4.708  1.00 20.00     0.124 C 
HETATM    5  C5  UNL     1     -33.528   5.041   2.793  1.00 20.00     0.246 C 
HETATM    6  F7  UNL     1     -32.513   4.334   2.267  1.00 20.00    -0.206 F 
HETATM    7  F8  UNL     1     -34.389   5.339   1.791  1.00 20.00    -0.206 F 
ENDROOT
BRANCH   4   8
HETATM    8  O6  UNL     1     -34.762   5.136   6.097  1.00 20.00    -0.395 OA
HETATM    9  H16 UNL     1     -35.422   4.471   6.344  1.00 20.00     0.210 HD
ENDBRANCH   4   8
TORSDOF 1
ENDMDL
MODEL 5
REMARK VINA RESULT:      -4.2     16.478     17.029
REMARK  1 active torsions:
REMARK  status: ('A' for Active; 'I' for Inactive)
REMARK    1  A    between atoms: C4_4  and  O6_6 
ROOT
HETATM    1  C1  UNL     1     -24.636  15.876  11.589  1.00 20.00     0.038 C 
HETATM    2  C2  UNL     1     -23.995  16.569  10.390  1.00 20.00     0.081 C 
HETATM    3  C3  UNL     1     -25.281  18.243  11.497  1.00 20.00     0.110 C 
HETATM    4  C4  UNL     1     -25.570  16.921  12.211  1.00 20.00     0.124 C 
HETATM    5  C5  UNL     1     -23.944  18.015  10.828  1.00 20.00     0.246 C 
HETATM    6  F7  UNL     1     -23.742  18.853   9.797  1.00 20.00    -0.206 F 
HETATM    7  F8  UNL     1     -22.938  18.199  11.716  1.00 20.00    -0.206 F 
ENDROOT
BRANCH   4   8
HETATM    8  O6  UNL     1     -26.923  16.540  12.009  1.00 20.00    -0.395 OA
HETATM    9  H16 UNL     1     -27.468  17.287  12.301  1.00 20.00     0.210 HD
ENDBRANCH   4   8
TORSDOF 1
ENDMDL
MODEL 6
REMARK VINA RESULT:      -4.1      8.715      9.185
REMARK  1 active torsions:
REMARK  status: ('A' for Active; 'I' for Inactive)
REMARK    1  A    between atoms: C4_4  and  O6_6 
ROOT
HETATM    1  C1  UNL     1     -41.084   5.924  -0.751  1.00 20.00     0.038 C 
HETATM    2  C2  UNL     1     -41.424   7.399  -0.945  1.00 20.00     0.081 C 
HETATM    3  C3  UNL     1     -42.709   6.678   0.929  1.00 20.00     0.110 C 
HETATM    4  C4  UNL     1     -42.018   5.435   0.362  1.00 20.00     0.124 C 
HETATM    5  C5  UNL     1     -41.856   7.827   0.439  1.00 20.00     0.246 C 
HETATM    6  F7  UNL     1     -42.529   8.990   0.425  1.00 20.00    -0.206 F 
HETATM    7  F8  UNL     1     -40.775   7.983   1.238  1.00 20.00    -0.206 F 
ENDROOT
BRANCH   4   8
HETATM    8  O6  UNL     1     -42.982   4.540  -0.173  1.00 20.00    -0.395 OA
HETATM    9  H16 UNL     1     -43.842   4.978  -0.093  1.00 20.00     0.210 HD
ENDBRANCH   4   8
TORSDOF 1
ENDMDL
MODEL 7
REMARK VINA RESULT:      -4.1     16.846     17.566
REMARK  1 active torsions:
REMARK  status: ('A' for Active; 'I' for Inactive)
REMARK    1  A    between atoms: C4_4  and  O6_6 
ROOT
HETATM    1  C1  UNL     1     -23.999  17.654  12.332  1.00 20.00     0.038 C 
HETATM    2  C2  UNL     1     -22.549  17.763  11.869  1.00 20.00     0.081 C 
HETATM    3  C3  UNL     1     -23.702  16.621  10.124  1.00 20.00     0.110 C 
HETATM    4  C4  UNL     1     -24.700  16.796  11.271  1.00 20.00     0.124 C 
HETATM    5  C5  UNL     1     -22.673  17.703  10.364  1.00 20.00     0.246 C 
HETATM    6  F7  UNL     1     -21.500  17.430   9.767  1.00 20.00    -0.206 F 
HETATM    7  F8  UNL     1     -23.117  18.888   9.884  1.00 20.00    -0.206 F 
ENDROOT
BRANCH   4   8
HETATM    8  O6  UNL     1     -25.042  15.532  11.820  1.00 20.00    -0.395 OA
HETATM    9  H16 UNL     1     -25.709  15.699  12.504  1.00 20.00     0.210 HD
ENDBRANCH   4   8
TORSDOF 1
ENDMDL
MODEL 8
REMARK VINA RESULT:      -4.0      8.916      9.479
REMARK  1 active torsions:
REMARK  status: ('A' for Active; 'I' for Inactive)
REMARK    1  A    between atoms: C4_4  and  O6_6 
ROOT
HETATM    1  C1  UNL     1     -43.351   6.725   0.679  1.00 20.00     0.038 C 
HETATM    2  C2  UNL     1     -42.606   8.048   0.522  1.00 20.00     0.081 C 
HETATM    3  C3  UNL     1     -41.152   6.377  -0.356  1.00 20.00     0.110 C 
HETATM    4  C4  UNL     1     -42.354   5.644   0.243  1.00 20.00     0.124 C 
HETATM    5  C5  UNL     1     -41.671   7.770  -0.632  1.00 20.00     0.246 C 
HETATM    6  F7  UNL     1     -40.680   8.675  -0.713  1.00 20.00    -0.206 F 
HETATM    7  F8  UNL     1     -42.352   7.795  -1.801  1.00 20.00    -0.206 F 
ENDROOT
BRANCH   4   8
HETATM    8  O6  UNL     1     -41.951   4.877   1.368  1.00 20.00    -0.395 OA
HETATM    9  H16 UNL     1     -42.729   4.792   1.939  1.00 20.00     0.210 HD
ENDBRANCH   4   8
TORSDOF 1
ENDMDL
MODEL 9
REMARK VINA RESULT:      -4.0     12.064     12.518
REMARK  1 active torsions:
REMARK  status: ('A' for Active; 'I' for Inactive)
REMARK    1  A    between atoms: C4_4  and  O6_6 
ROOT
HETATM    1  C1  UNL     1     -36.452  14.923  -3.845  1.00 20.00     0.038 C 
HETATM    2  C2  UNL     1     -35.509  15.620  -2.869  1.00 20.00     0.081 C 
HETATM    3  C3  UNL     1     -34.132  14.194  -4.192  1.00 20.00     0.110 C 
HETATM    4  C4  UNL     1     -35.580  13.906  -4.593  1.00 20.00     0.124 C 
HETATM    5  C5  UNL     1     -34.186  15.584  -3.598  1.00 20.00     0.246 C 
HETATM    6  F7  UNL     1     -33.147  15.828  -2.780  1.00 20.00    -0.206 F 
HETATM    7  F8  UNL     1     -34.168  16.515  -4.580  1.00 20.00    -0.206 F 
ENDROOT
BRANCH   4   8
HETATM    8  O6  UNL     1     -35.942  12.587  -4.213  1.00 20.00    -0.395 OA
HETATM    9  H16 UNL     1     -36.752  12.662  -3.686  1.00 20.00     0.210 HD
ENDBRANCH   4   8
TORSDOF 1
ENDMDL
