MODEL 1
REMARK VINA RESULT:      -4.4      0.000      0.000
REMARK  3 active torsions:
REMARK  status: ('A' for Active; 'I' for Inactive)
REMARK    1  A    between atoms: C4_4  and  C7_7 
REMARK    2  A    between atoms: C7_7  and  C8_8 
REMARK    3  A    between atoms: C8_8  and  C9_9 
ROOT
HETATM    1  C1  UNL     1     -34.857  14.001  -3.954  1.00 20.00     0.141 C 
HETATM    2  C2  UNL     1     -36.225  13.772  -4.544  1.00 20.00     0.152 C 
HETATM    3  C3  UNL     1     -35.674  16.287  -3.883  1.00 20.00     0.086 C 
HETATM    4  C4  UNL     1     -34.691  15.325  -3.228  1.00 20.00     0.065 C 
HETATM    5  O10 UNL     1     -33.972  13.152  -4.019  1.00 20.00    -0.297 OA
HETATM    6  S11 UNL     1     -37.146  15.292  -4.217  1.00 20.00    -0.161 SA
ENDROOT
BRANCH   4   7
HETATM    7  C7  UNL     1     -33.263  15.844  -3.300  1.00 20.00     0.013 C 
BRANCH   7   8
HETATM    8  C8  UNL     1     -33.196  17.339  -2.976  1.00 20.00     0.005 C 
BRANCH   8   9
HETATM    9  C9  UNL     1     -33.091  17.636  -1.469  1.00 20.00    -0.023 C 
HETATM   10  C5  UNL     1     -34.343  18.381  -0.999  1.00 20.00     0.009 C 
HETATM   11  C6  UNL     1     -31.845  18.449  -1.119  1.00 20.00     0.009 C 
ENDBRANCH   8   9
ENDBRANCH   7   8
ENDBRANCH   4   7
TORSDOF 3
ENDMDL
MODEL 2
REMARK VINA RESULT:      -4.4      3.582      5.766
REMARK  3 active torsions:
REMARK  status: ('A' for Active; 'I' for Inactive)
REMARK    1  A    between atoms: C4_4  and  C7_7 
REMARK    2  A    between atoms: C7_7  and  C8_8 
REMARK    3  A    between atoms: C8_8  and  C9_9 
ROOT
HETATM    1  C1  UNL     1     -31.404  18.448   0.227  1.00 20.00     0.141 C 
HETATM    2  C2  UNL     1     -31.361  18.597   1.726  1.00 20.00     0.152 C 
HETATM    3  C3  UNL     1     -33.770  18.165   0.691  1.00 20.00     0.086 C 
HETATM    4  C4  UNL     1     -32.785  18.595  -0.388  1.00 20.00     0.065 C 
HETATM    5  O10 UNL     1     -30.385  18.272  -0.437  1.00 20.00    -0.297 OA
HETATM    6  S11 UNL     1     -33.083  18.808   2.233  1.00 20.00    -0.161 SA
ENDROOT
BRANCH   4   7
HETATM    7  C7  UNL     1     -32.941  17.769  -1.655  1.00 20.00     0.013 C 
BRANCH   7   8
HETATM    8  C8  UNL     1     -34.297  17.060  -1.695  1.00 20.00     0.005 C 
BRANCH   8   9
HETATM    9  C9  UNL     1     -34.288  15.767  -2.532  1.00 20.00    -0.023 C 
HETATM   10  C5  UNL     1     -33.170  15.833  -3.576  1.00 20.00     0.009 C 
HETATM   11  C6  UNL     1     -35.626  15.511  -3.225  1.00 20.00     0.009 C 
ENDBRANCH   8   9
ENDBRANCH   7   8
ENDBRANCH   4   7
TORSDOF 3
ENDMDL
MODEL 3
REMARK VINA RESULT:      -4.3     13.661     15.986
REMARK  3 active torsions:
REMARK  status: ('A' for Active; 'I' for Inactive)
REMARK    1  A    between atoms: C4_4  and  C7_7 
REMARK    2  A    between atoms: C7_7  and  C8_8 
REMARK    3  A    between atoms: C8_8  and  C9_9 
ROOT
HETATM    1  C1  UNL     1     -24.602  18.915   6.776  1.00 20.00     0.141 C 
HETATM    2  C2  UNL     1     -25.918  19.259   6.129  1.00 20.00     0.152 C 
HETATM    3  C3  UNL     1     -25.920  19.256   8.786  1.00 20.00     0.086 C 
HETATM    4  C4  UNL     1     -24.695  18.532   8.243  1.00 20.00     0.065 C 
HETATM    5  O10 UNL     1     -23.551  18.900   6.140  1.00 20.00    -0.297 OA
HETATM    6  S11 UNL     1     -27.141  19.167   7.457  1.00 20.00    -0.161 SA
ENDROOT
BRANCH   4   7
HETATM    7  C7  UNL     1     -23.436  18.900   9.014  1.00 20.00     0.013 C 
BRANCH   7   8
HETATM    8  C8  UNL     1     -22.919  17.716   9.835  1.00 20.00     0.005 C 
BRANCH   8   9
HETATM    9  C9  UNL     1     -23.587  17.590  11.216  1.00 20.00    -0.023 C 
HETATM   10  C5  UNL     1     -22.538  17.765  12.318  1.00 20.00     0.009 C 
HETATM   11  C6  UNL     1     -24.307  16.253  11.397  1.00 20.00     0.009 C 
ENDBRANCH   8   9
ENDBRANCH   7   8
ENDBRANCH   4   7
TORSDOF 3
ENDMDL
MODEL 4
REMARK VINA RESULT:      -4.2      1.198      1.371
REMARK  3 active torsions:
REMARK  status: ('A' for Active; 'I' for Inactive)
REMARK    1  A    between atoms: C4_4  and  C7_7 
REMARK    2  A    between atoms: C7_7  and  C8_8 
REMARK    3  A    between atoms: C8_8  and  C9_9 
ROOT
HETATM    1  C1  UNL     1     -35.354  14.339  -4.588  1.00 20.00     0.141 C 
HETATM    2  C2  UNL     1     -35.737  14.507  -6.036  1.00 20.00     0.152 C 
HETATM    3  C3  UNL     1     -35.525  16.761  -4.643  1.00 20.00     0.086 C 
HETATM    4  C4  UNL     1     -35.614  15.556  -3.716  1.00 20.00     0.065 C 
HETATM    5  O10 UNL     1     -34.914  13.278  -4.153  1.00 20.00    -0.297 OA
HETATM    6  S11 UNL     1     -36.295  16.219  -6.186  1.00 20.00    -0.161 SA
ENDROOT
BRANCH   4   7
HETATM    7  C7  UNL     1     -34.626  15.658  -2.564  1.00 20.00     0.013 C 
BRANCH   7   8
HETATM    8  C8  UNL     1     -33.314  16.305  -3.010  1.00 20.00     0.005 C 
BRANCH   8   9
HETATM    9  C9  UNL     1     -32.880  17.486  -2.123  1.00 20.00    -0.023 C 
HETATM   10  C5  UNL     1     -33.945  17.752  -1.055  1.00 20.00     0.009 C 
HETATM   11  C6  UNL     1     -32.628  18.762  -2.928  1.00 20.00     0.009 C 
ENDBRANCH   8   9
ENDBRANCH   7   8
ENDBRANCH   4   7
TORSDOF 3
ENDMDL
MODEL 5
REMARK VINA RESULT:      -4.2      3.271      5.375
REMARK  3 active torsions:
REMARK  status: ('A' for Active; 'I' for Inactive)
REMARK    1  A    between atoms: C4_4  and  C7_7 
REMARK    2  A    between atoms: C7_7  and  C8_8 
REMARK    3  A    between atoms: C8_8  and  C9_9 
ROOT
HETATM    1  C1  UNL     1     -31.752  18.420  -0.216  1.00 20.00     0.141 C 
HETATM    2  C2  UNL     1     -32.012  18.771   1.226  1.00 20.00     0.152 C 
HETATM    3  C3  UNL     1     -34.133  17.945  -0.146  1.00 20.00     0.086 C 
HETATM    4  C4  UNL     1     -32.996  18.332  -1.083  1.00 20.00     0.065 C 
HETATM    5  O10 UNL     1     -30.614  18.269  -0.651  1.00 20.00    -0.297 OA
HETATM    6  S11 UNL     1     -33.811  18.860   1.379  1.00 20.00    -0.161 SA
ENDROOT
BRANCH   4   7
HETATM    7  C7  UNL     1     -32.836  17.332  -2.218  1.00 20.00     0.013 C 
BRANCH   7   8
HETATM    8  C8  UNL     1     -34.021  16.365  -2.279  1.00 20.00     0.005 C 
BRANCH   8   9
HETATM    9  C9  UNL     1     -34.206  15.709  -3.660  1.00 20.00    -0.023 C 
HETATM   10  C5  UNL     1     -35.392  14.741  -3.620  1.00 20.00     0.009 C 
HETATM   11  C6  UNL     1     -32.952  14.968  -4.128  1.00 20.00     0.009 C 
ENDBRANCH   8   9
ENDBRANCH   7   8
ENDBRANCH   4   7
TORSDOF 3
ENDMDL
MODEL 6
REMARK VINA RESULT:      -4.2      1.542      1.924
REMARK  3 active torsions:
REMARK  status: ('A' for Active; 'I' for Inactive)
REMARK    1  A    between atoms: C4_4  and  C7_7 
REMARK    2  A    between atoms: C7_7  and  C8_8 
REMARK    3  A    between atoms: C8_8  and  C9_9 
ROOT
HETATM    1  C1  UNL     1     -33.960  14.748  -4.898  1.00 20.00     0.141 C 
HETATM    2  C2  UNL     1     -34.080  15.033  -6.373  1.00 20.00     0.152 C 
HETATM    3  C3  UNL     1     -34.917  16.976  -4.763  1.00 20.00     0.086 C 
HETATM    4  C4  UNL     1     -34.780  15.662  -4.004  1.00 20.00     0.065 C 
HETATM    5  O10 UNL     1     -33.287  13.813  -4.471  1.00 20.00    -0.297 OA
HETATM    6  S11 UNL     1     -35.138  16.494  -6.491  1.00 20.00    -0.161 SA
ENDROOT
BRANCH   4   7
HETATM    7  C7  UNL     1     -34.135  15.864  -2.642  1.00 20.00     0.013 C 
BRANCH   7   8
HETATM    8  C8  UNL     1     -33.002  16.891  -2.708  1.00 20.00     0.005 C 
BRANCH   8   9
HETATM    9  C9  UNL     1     -33.133  18.017  -1.667  1.00 20.00    -0.023 C 
HETATM   10  C5  UNL     1     -31.794  18.223  -0.953  1.00 20.00     0.009 C 
HETATM   11  C6  UNL     1     -34.228  17.736  -0.636  1.00 20.00     0.009 C 
ENDBRANCH   8   9
ENDBRANCH   7   8
ENDBRANCH   4   7
TORSDOF 3
ENDMDL
MODEL 7
REMARK VINA RESULT:      -3.9      2.048      2.692
REMARK  3 active torsions:
REMARK  status: ('A' for Active; 'I' for Inactive)
REMARK    1  A    between atoms: C4_4  and  C7_7 
REMARK    2  A    between atoms: C7_7  and  C8_8 
REMARK    3  A    between atoms: C8_8  and  C9_9 
ROOT
HETATM    1  C1  UNL     1     -37.875  14.755  -4.267  1.00 20.00     0.141 C 
HETATM    2  C2  UNL     1     -39.303  15.209  -4.429  1.00 20.00     0.152 C 
HETATM    3  C3  UNL     1     -37.499  17.154  -4.257  1.00 20.00     0.086 C 
HETATM    4  C4  UNL     1     -36.916  15.830  -3.782  1.00 20.00     0.065 C 
HETATM    5  O10 UNL     1     -37.538  13.590  -4.466  1.00 20.00    -0.297 OA
HETATM    6  S11 UNL     1     -39.286  16.977  -4.052  1.00 20.00    -0.161 SA
ENDROOT
BRANCH   4   7
HETATM    7  C7  UNL     1     -35.504  15.617  -4.304  1.00 20.00     0.013 C 
BRANCH   7   8
HETATM    8  C8  UNL     1     -34.563  15.151  -3.190  1.00 20.00     0.005 C 
BRANCH   8   9
HETATM    9  C9  UNL     1     -33.722  16.288  -2.582  1.00 20.00    -0.023 C 
HETATM   10  C5  UNL     1     -34.509  16.973  -1.462  1.00 20.00     0.009 C 
HETATM   11  C6  UNL     1     -33.299  17.324  -3.624  1.00 20.00     0.009 C 
ENDBRANCH   8   9
ENDBRANCH   7   8
ENDBRANCH   4   7
TORSDOF 3
ENDMDL
MODEL 8
REMARK VINA RESULT:      -3.9      2.158      2.812
REMARK  3 active torsions:
REMARK  status: ('A' for Active; 'I' for Inactive)
REMARK    1  A    between atoms: C4_4  and  C7_7 
REMARK    2  A    between atoms: C7_7  and  C8_8 
REMARK    3  A    between atoms: C8_8  and  C9_9 
ROOT
HETATM    1  C1  UNL     1     -37.988  14.791  -4.253  1.00 20.00     0.141 C 
HETATM    2  C2  UNL     1     -39.384  15.283  -4.534  1.00 20.00     0.152 C 
HETATM    3  C3  UNL     1     -37.542  17.178  -4.250  1.00 20.00     0.086 C 
HETATM    4  C4  UNL     1     -37.038  15.846  -3.710  1.00 20.00     0.065 C 
HETATM    5  O10 UNL     1     -37.671  13.614  -4.408  1.00 20.00    -0.297 OA
HETATM    6  S11 UNL     1     -39.344  17.056  -4.184  1.00 20.00    -0.161 SA
ENDROOT
BRANCH   4   7
HETATM    7  C7  UNL     1     -35.596  15.583  -4.116  1.00 20.00     0.013 C 
BRANCH   7   8
HETATM    8  C8  UNL     1     -34.676  15.521  -2.894  1.00 20.00     0.005 C 
BRANCH   8   9
HETATM    9  C9  UNL     1     -34.448  16.891  -2.229  1.00 20.00    -0.023 C 
HETATM   10  C5  UNL     1     -32.950  17.209  -2.198  1.00 20.00     0.009 C 
HETATM   11  C6  UNL     1     -35.018  16.955  -0.812  1.00 20.00     0.009 C 
ENDBRANCH   8   9
ENDBRANCH   7   8
ENDBRANCH   4   7
TORSDOF 3
ENDMDL
MODEL 9
REMARK VINA RESULT:      -3.9      2.595      5.022
REMARK  3 active torsions:
REMARK  status: ('A' for Active; 'I' for Inactive)
REMARK    1  A    between atoms: C4_4  and  C7_7 
REMARK    2  A    between atoms: C7_7  and  C8_8 
REMARK    3  A    between atoms: C8_8  and  C9_9 
ROOT
HETATM    1  C1  UNL     1     -34.462  17.254  -1.173  1.00 20.00     0.141 C 
HETATM    2  C2  UNL     1     -33.702  18.554  -1.109  1.00 20.00     0.152 C 
HETATM    3  C3  UNL     1     -33.541  17.252  -3.420  1.00 20.00     0.086 C 
HETATM    4  C4  UNL     1     -34.061  16.339  -2.318  1.00 20.00     0.065 C 
HETATM    5  O10 UNL     1     -35.301  16.950  -0.329  1.00 20.00    -0.297 OA
HETATM    6  S11 UNL     1     -32.622  18.547  -2.558  1.00 20.00    -0.161 SA
ENDROOT
BRANCH   4   7
HETATM    7  C7  UNL     1     -35.220  15.479  -2.799  1.00 20.00     0.013 C 
BRANCH   7   8
HETATM    8  C8  UNL     1     -34.755  14.436  -3.818  1.00 20.00     0.005 C 
BRANCH   8   9
HETATM    9  C9  UNL     1     -35.861  13.999  -4.796  1.00 20.00    -0.023 C 
HETATM   10  C5  UNL     1     -35.602  14.607  -6.177  1.00 20.00     0.009 C 
HETATM   11  C6  UNL     1     -37.258  14.392  -4.313  1.00 20.00     0.009 C 
ENDBRANCH   8   9
ENDBRANCH   7   8
ENDBRANCH   4   7
TORSDOF 3
ENDMDL
