MODEL 1
REMARK VINA RESULT:      -5.4      0.000      0.000
REMARK  2 active torsions:
REMARK  status: ('A' for Active; 'I' for Inactive)
REMARK    1  A    between atoms: C5_5  and  C6_6 
REMARK    2  A    between atoms: C6_6  and  C7_7 
ROOT
HETATM    1  C1  UNL     1     -34.239   4.809   4.326  1.00 20.00     0.131 C 
HETATM    2  C2  UNL     1     -35.005   5.120   5.587  1.00 20.00     0.079 C 
HETATM    3  C3  UNL     1     -34.308   6.383   6.078  1.00 20.00     0.008 C 
HETATM    4  C4  UNL     1     -33.847   7.080   4.804  1.00 20.00     0.013 C 
HETATM    5  C5  UNL     1     -33.318   5.944   3.927  1.00 20.00     0.064 C 
HETATM    6  O8  UNL     1     -34.355   3.761   3.704  1.00 20.00    -0.298 OA
ENDROOT
BRANCH   5   7
HETATM    7  C6  UNL     1     -33.377   6.263   2.446  1.00 20.00     0.129 C 
BRANCH   7   8
HETATM    8  C7  UNL     1     -32.468   7.408   2.089  1.00 20.00     0.388 C 
HETATM    9  F9  UNL     1     -31.546   7.634   3.049  1.00 20.00    -0.171 F 
HETATM   10  F10 UNL     1     -33.193   8.540   1.945  1.00 20.00    -0.171 F 
HETATM   11  F11 UNL     1     -31.818   7.189   0.927  1.00 20.00    -0.171 F 
ENDBRANCH   7   8
ENDBRANCH   5   7
TORSDOF 2
ENDMDL
MODEL 2
REMARK VINA RESULT:      -5.2      1.654      2.071
REMARK  2 active torsions:
REMARK  status: ('A' for Active; 'I' for Inactive)
REMARK    1  A    between atoms: C5_5  and  C6_6 
REMARK    2  A    between atoms: C6_6  and  C7_7 
ROOT
HETATM    1  C1  UNL     1     -33.766   6.663   5.062  1.00 20.00     0.131 C 
HETATM    2  C2  UNL     1     -34.431   5.465   5.691  1.00 20.00     0.079 C 
HETATM    3  C3  UNL     1     -35.045   4.772   4.481  1.00 20.00     0.008 C 
HETATM    4  C4  UNL     1     -34.096   5.098   3.335  1.00 20.00     0.013 C 
HETATM    5  C5  UNL     1     -33.744   6.571   3.550  1.00 20.00     0.064 C 
HETATM    6  O8  UNL     1     -33.301   7.595   5.705  1.00 20.00    -0.298 OA
ENDROOT
BRANCH   5   7
HETATM    7  C6  UNL     1     -32.404   6.952   2.953  1.00 20.00     0.129 C 
BRANCH   7   8
HETATM    8  C7  UNL     1     -32.566   7.673   1.642  1.00 20.00     0.388 C 
HETATM    9  F9  UNL     1     -32.797   8.992   1.820  1.00 20.00    -0.171 F 
HETATM   10  F10 UNL     1     -33.620   7.162   0.967  1.00 20.00    -0.171 F 
HETATM   11  F11 UNL     1     -31.476   7.541   0.857  1.00 20.00    -0.171 F 
ENDBRANCH   7   8
ENDBRANCH   5   7
TORSDOF 2
ENDMDL
MODEL 3
REMARK VINA RESULT:      -4.7     11.084     11.803
REMARK  2 active torsions:
REMARK  status: ('A' for Active; 'I' for Inactive)
REMARK    1  A    between atoms: C5_5  and  C6_6 
REMARK    2  A    between atoms: C6_6  and  C7_7 
ROOT
HETATM    1  C1  UNL     1     -34.920  13.907  -3.959  1.00 20.00     0.131 C 
HETATM    2  C2  UNL     1     -36.202  13.702  -4.726  1.00 20.00     0.079 C 
HETATM    3  C3  UNL     1     -37.102  14.779  -4.134  1.00 20.00     0.008 C 
HETATM    4  C4  UNL     1     -36.148  15.906  -3.759  1.00 20.00     0.013 C 
HETATM    5  C5  UNL     1     -34.944  15.188  -3.148  1.00 20.00     0.064 C 
HETATM    6  O8  UNL     1     -33.977  13.128  -3.994  1.00 20.00    -0.298 OA
ENDROOT
BRANCH   5   7
HETATM    7  C6  UNL     1     -33.659  15.984  -3.262  1.00 20.00     0.129 C 
BRANCH   7   8
HETATM    8  C7  UNL     1     -33.583  17.064  -2.218  1.00 20.00     0.388 C 
HETATM    9  F9  UNL     1     -32.317  17.258  -1.787  1.00 20.00    -0.171 F 
HETATM   10  F10 UNL     1     -34.330  16.717  -1.145  1.00 20.00    -0.171 F 
HETATM   11  F11 UNL     1     -34.053  18.243  -2.678  1.00 20.00    -0.171 F 
ENDBRANCH   7   8
ENDBRANCH   5   7
TORSDOF 2
ENDMDL
MODEL 4
REMARK VINA RESULT:      -4.5     11.191     11.911
REMARK  2 active torsions:
REMARK  status: ('A' for Active; 'I' for Inactive)
REMARK    1  A    between atoms: C5_5  and  C6_6 
REMARK    2  A    between atoms: C6_6  and  C7_7 
ROOT
HETATM    1  C1  UNL     1     -34.690  16.808  -1.446  1.00 20.00     0.131 C 
HETATM    2  C2  UNL     1     -33.680  17.926  -1.383  1.00 20.00     0.079 C 
HETATM    3  C3  UNL     1     -32.602  17.434  -2.339  1.00 20.00     0.008 C 
HETATM    4  C4  UNL     1     -33.360  16.619  -3.379  1.00 20.00     0.013 C 
HETATM    5  C5  UNL     1     -34.382  15.828  -2.561  1.00 20.00     0.064 C 
HETATM    6  O8  UNL     1     -35.642  16.710  -0.683  1.00 20.00    -0.298 OA
ENDROOT
BRANCH   5   7
HETATM    7  C6  UNL     1     -35.608  15.439  -3.362  1.00 20.00     0.129 C 
BRANCH   7   8
HETATM    8  C7  UNL     1     -35.364  14.201  -4.182  1.00 20.00     0.388 C 
HETATM    9  F9  UNL     1     -34.353  13.459  -3.682  1.00 20.00    -0.171 F 
HETATM   10  F10 UNL     1     -35.029  14.548  -5.445  1.00 20.00    -0.171 F 
HETATM   11  F11 UNL     1     -36.463  13.420  -4.252  1.00 20.00    -0.171 F 
ENDBRANCH   7   8
ENDBRANCH   5   7
TORSDOF 2
ENDMDL
MODEL 5
REMARK VINA RESULT:      -4.5     11.475     12.015
REMARK  2 active torsions:
REMARK  status: ('A' for Active; 'I' for Inactive)
REMARK    1  A    between atoms: C5_5  and  C6_6 
REMARK    2  A    between atoms: C6_6  and  C7_7 
ROOT
HETATM    1  C1  UNL     1     -34.548  16.633  -1.795  1.00 20.00     0.131 C 
HETATM    2  C2  UNL     1     -34.413  17.791  -0.838  1.00 20.00     0.079 C 
HETATM    3  C3  UNL     1     -32.936  18.140  -0.970  1.00 20.00     0.008 C 
HETATM    4  C4  UNL     1     -32.589  17.784  -2.410  1.00 20.00     0.013 C 
HETATM    5  C5  UNL     1     -33.309  16.457  -2.650  1.00 20.00     0.064 C 
HETATM    6  O8  UNL     1     -35.544  15.925  -1.865  1.00 20.00    -0.298 OA
ENDROOT
BRANCH   5   7
HETATM    7  C6  UNL     1     -33.630  16.212  -4.112  1.00 20.00     0.129 C 
BRANCH   7   8
HETATM    8  C7  UNL     1     -33.297  14.804  -4.524  1.00 20.00     0.388 C 
HETATM    9  F9  UNL     1     -33.471  14.614  -5.849  1.00 20.00    -0.171 F 
HETATM   10  F10 UNL     1     -34.106  13.935  -3.877  1.00 20.00    -0.171 F 
HETATM   11  F11 UNL     1     -32.023  14.479  -4.218  1.00 20.00    -0.171 F 
ENDBRANCH   7   8
ENDBRANCH   5   7
TORSDOF 2
ENDMDL
MODEL 6
REMARK VINA RESULT:      -4.4     11.526     11.934
REMARK  2 active torsions:
REMARK  status: ('A' for Active; 'I' for Inactive)
REMARK    1  A    between atoms: C5_5  and  C6_6 
REMARK    2  A    between atoms: C6_6  and  C7_7 
ROOT
HETATM    1  C1  UNL     1     -35.803  16.470  -3.028  1.00 20.00     0.131 C 
HETATM    2  C2  UNL     1     -36.366  17.415  -1.997  1.00 20.00     0.079 C 
HETATM    3  C3  UNL     1     -35.372  17.266  -0.853  1.00 20.00     0.008 C 
HETATM    4  C4  UNL     1     -34.047  16.961  -1.540  1.00 20.00     0.013 C 
HETATM    5  C5  UNL     1     -34.420  15.979  -2.651  1.00 20.00     0.064 C 
HETATM    6  O8  UNL     1     -36.400  16.143  -4.045  1.00 20.00    -0.298 OA
ENDROOT
BRANCH   5   7
HETATM    7  C6  UNL     1     -33.446  16.002  -3.813  1.00 20.00     0.129 C 
BRANCH   7   8
HETATM    8  C7  UNL     1     -33.278  14.636  -4.421  1.00 20.00     0.388 C 
HETATM    9  F9  UNL     1     -34.103  13.729  -3.856  1.00 20.00    -0.171 F 
HETATM   10  F10 UNL     1     -32.010  14.205  -4.235  1.00 20.00    -0.171 F 
HETATM   11  F11 UNL     1     -33.513  14.645  -5.750  1.00 20.00    -0.171 F 
ENDBRANCH   7   8
ENDBRANCH   5   7
TORSDOF 2
ENDMDL
MODEL 7
REMARK VINA RESULT:      -4.4     11.501     12.187
REMARK  2 active torsions:
REMARK  status: ('A' for Active; 'I' for Inactive)
REMARK    1  A    between atoms: C5_5  and  C6_6 
REMARK    2  A    between atoms: C6_6  and  C7_7 
ROOT
HETATM    1  C1  UNL     1     -33.251  17.711  -1.821  1.00 20.00     0.131 C 
HETATM    2  C2  UNL     1     -33.924  17.880  -0.482  1.00 20.00     0.079 C 
HETATM    3  C3  UNL     1     -35.280  17.228  -0.725  1.00 20.00     0.008 C 
HETATM    4  C4  UNL     1     -34.996  16.134  -1.746  1.00 20.00     0.013 C 
HETATM    5  C5  UNL     1     -34.030  16.787  -2.735  1.00 20.00     0.064 C 
HETATM    6  O8  UNL     1     -32.199  18.259  -2.124  1.00 20.00    -0.298 OA
ENDROOT
BRANCH   5   7
HETATM    7  C6  UNL     1     -33.149  15.784  -3.453  1.00 20.00     0.129 C 
BRANCH   7   8
HETATM    8  C7  UNL     1     -33.944  14.930  -4.404  1.00 20.00     0.388 C 
HETATM    9  F9  UNL     1     -34.413  13.815  -3.804  1.00 20.00    -0.171 F 
HETATM   10  F10 UNL     1     -33.160  14.541  -5.434  1.00 20.00    -0.171 F 
HETATM   11  F11 UNL     1     -34.995  15.600  -4.922  1.00 20.00    -0.171 F 
ENDBRANCH   7   8
ENDBRANCH   5   7
TORSDOF 2
ENDMDL
MODEL 8
REMARK VINA RESULT:      -4.4     11.402     12.011
REMARK  2 active torsions:
REMARK  status: ('A' for Active; 'I' for Inactive)
REMARK    1  A    between atoms: C5_5  and  C6_6 
REMARK    2  A    between atoms: C6_6  and  C7_7 
ROOT
HETATM    1  C1  UNL     1     -36.560  14.027  -4.359  1.00 20.00     0.131 C 
HETATM    2  C2  UNL     1     -38.010  14.389  -4.564  1.00 20.00     0.079 C 
HETATM    3  C3  UNL     1     -38.087  15.766  -3.916  1.00 20.00     0.008 C 
HETATM    4  C4  UNL     1     -36.704  16.365  -4.133  1.00 20.00     0.013 C 
HETATM    5  C5  UNL     1     -35.746  15.204  -3.861  1.00 20.00     0.064 C 
HETATM    6  O8  UNL     1     -36.104  12.911  -4.571  1.00 20.00    -0.298 OA
ENDROOT
BRANCH   5   7
HETATM    7  C6  UNL     1     -34.418  15.351  -4.577  1.00 20.00     0.129 C 
BRANCH   7   8
HETATM    8  C7  UNL     1     -33.331  15.801  -3.640  1.00 20.00     0.388 C 
HETATM    9  F9  UNL     1     -32.962  17.079  -3.875  1.00 20.00    -0.171 F 
HETATM   10  F10 UNL     1     -32.236  15.024  -3.803  1.00 20.00    -0.171 F 
HETATM   11  F11 UNL     1     -33.709  15.705  -2.348  1.00 20.00    -0.171 F 
ENDBRANCH   7   8
ENDBRANCH   5   7
TORSDOF 2
ENDMDL
MODEL 9
REMARK VINA RESULT:      -4.4     12.002     12.523
REMARK  2 active torsions:
REMARK  status: ('A' for Active; 'I' for Inactive)
REMARK    1  A    between atoms: C5_5  and  C6_6 
REMARK    2  A    between atoms: C6_6  and  C7_7 
ROOT
HETATM    1  C1  UNL     1     -34.223  14.989  -4.721  1.00 20.00     0.131 C 
HETATM    2  C2  UNL     1     -32.975  15.274  -3.925  1.00 20.00     0.079 C 
HETATM    3  C3  UNL     1     -33.502  16.183  -2.822  1.00 20.00     0.008 C 
HETATM    4  C4  UNL     1     -34.934  15.714  -2.598  1.00 20.00     0.013 C 
HETATM    5  C5  UNL     1     -35.472  15.468  -4.008  1.00 20.00     0.064 C 
HETATM    6  O8  UNL     1     -34.219  14.436  -5.813  1.00 20.00    -0.298 OA
ENDROOT
BRANCH   5   7
HETATM    7  C6  UNL     1     -36.599  14.455  -4.043  1.00 20.00     0.129 C 
BRANCH   7   8
HETATM    8  C7  UNL     1     -37.914  15.102  -4.384  1.00 20.00     0.388 C 
HETATM    9  F9  UNL     1     -38.934  14.217  -4.344  1.00 20.00    -0.171 F 
HETATM   10  F10 UNL     1     -37.864  15.610  -5.636  1.00 20.00    -0.171 F 
HETATM   11  F11 UNL     1     -38.208  16.117  -3.544  1.00 20.00    -0.171 F 
ENDBRANCH   7   8
ENDBRANCH   5   7
TORSDOF 2
ENDMDL
