MODEL 1
REMARK VINA RESULT:      -6.0      0.000      0.000
REMARK  2 active torsions:
REMARK  status: ('A' for Active; 'I' for Inactive)
REMARK    1  A    between atoms: C5_5  and  C6_6 
REMARK    2  A    between atoms: C6_6  and  C7_7 
ROOT
HETATM    1  C1  UNL     1     -34.466   4.961   4.504  1.00 20.00     0.131 C 
HETATM    2  C2  UNL     1     -34.545   5.077   6.006  1.00 20.00     0.079 C 
HETATM    3  C3  UNL     1     -34.377   6.576   6.216  1.00 20.00     0.008 C 
HETATM    4  C4  UNL     1     -33.481   7.023   5.069  1.00 20.00     0.013 C 
HETATM    5  C5  UNL     1     -34.014   6.254   3.858  1.00 20.00     0.064 C 
HETATM    6  O8  UNL     1     -34.735   3.937   3.889  1.00 20.00    -0.298 OA
ENDROOT
BRANCH   5   7
HETATM    7  C6  UNL     1     -32.968   6.044   2.782  1.00 20.00     0.129 C 
BRANCH   7   8
HETATM    8  C7  UNL     1     -32.427   7.354   2.272  1.00 20.00     0.388 C 
HETATM    9  F9  UNL     1     -31.821   7.214   1.074  1.00 20.00    -0.171 F 
HETATM   10  F10 UNL     1     -31.511   7.839   3.140  1.00 20.00    -0.171 F 
HETATM   11  F11 UNL     1     -33.399   8.281   2.144  1.00 20.00    -0.171 F 
ENDBRANCH   7   8
ENDBRANCH   5   7
TORSDOF 2
ENDMDL
MODEL 2
REMARK VINA RESULT:      -5.6      1.403      1.708
REMARK  2 active torsions:
REMARK  status: ('A' for Active; 'I' for Inactive)
REMARK    1  A    between atoms: C5_5  and  C6_6 
REMARK    2  A    between atoms: C6_6  and  C7_7 
ROOT
HETATM    1  C1  UNL     1     -33.640   5.024   2.973  1.00 20.00     0.131 C 
HETATM    2  C2  UNL     1     -34.223   4.340   4.185  1.00 20.00     0.079 C 
HETATM    3  C3  UNL     1     -34.856   5.506   4.932  1.00 20.00     0.008 C 
HETATM    4  C4  UNL     1     -33.974   6.700   4.592  1.00 20.00     0.013 C 
HETATM    5  C5  UNL     1     -33.678   6.533   3.101  1.00 20.00     0.064 C 
HETATM    6  O8  UNL     1     -33.189   4.422   2.007  1.00 20.00    -0.298 OA
ENDROOT
BRANCH   5   7
HETATM    7  C6  UNL     1     -32.384   7.196   2.675  1.00 20.00     0.129 C 
BRANCH   7   8
HETATM    8  C7  UNL     1     -32.537   7.921   1.364  1.00 20.00     0.388 C 
HETATM    9  F9  UNL     1     -33.608   7.483   0.671  1.00 20.00    -0.171 F 
HETATM   10  F10 UNL     1     -31.442   7.717   0.599  1.00 20.00    -0.171 F 
HETATM   11  F11 UNL     1     -32.668   9.253   1.541  1.00 20.00    -0.171 F 
ENDBRANCH   7   8
ENDBRANCH   5   7
TORSDOF 2
ENDMDL
MODEL 3
REMARK VINA RESULT:      -4.8     11.601     12.121
REMARK  2 active torsions:
REMARK  status: ('A' for Active; 'I' for Inactive)
REMARK    1  A    between atoms: C5_5  and  C6_6 
REMARK    2  A    between atoms: C6_6  and  C7_7 
ROOT
HETATM    1  C1  UNL     1     -33.334  17.483  -1.942  1.00 20.00     0.131 C 
HETATM    2  C2  UNL     1     -34.297  18.036  -0.921  1.00 20.00     0.079 C 
HETATM    3  C3  UNL     1     -35.253  16.868  -0.722  1.00 20.00     0.008 C 
HETATM    4  C4  UNL     1     -35.280  16.164  -2.073  1.00 20.00     0.013 C 
HETATM    5  C5  UNL     1     -33.819  16.172  -2.527  1.00 20.00     0.064 C 
HETATM    6  O8  UNL     1     -32.288  18.037  -2.256  1.00 20.00    -0.298 OA
ENDROOT
BRANCH   5   7
HETATM    7  C6  UNL     1     -33.666  16.102  -4.032  1.00 20.00     0.129 C 
BRANCH   7   8
HETATM    8  C7  UNL     1     -33.271  14.722  -4.486  1.00 20.00     0.388 C 
HETATM    9  F9  UNL     1     -31.980  14.450  -4.203  1.00 20.00    -0.171 F 
HETATM   10  F10 UNL     1     -33.427  14.620  -5.825  1.00 20.00    -0.171 F 
HETATM   11  F11 UNL     1     -34.036  13.769  -3.913  1.00 20.00    -0.171 F 
ENDBRANCH   7   8
ENDBRANCH   5   7
TORSDOF 2
ENDMDL
MODEL 4
REMARK VINA RESULT:      -4.8      1.576      2.144
REMARK  2 active torsions:
REMARK  status: ('A' for Active; 'I' for Inactive)
REMARK    1  A    between atoms: C5_5  and  C6_6 
REMARK    2  A    between atoms: C6_6  and  C7_7 
ROOT
HETATM    1  C1  UNL     1     -33.736   6.672   5.480  1.00 20.00     0.131 C 
HETATM    2  C2  UNL     1     -34.687   5.965   6.414  1.00 20.00     0.079 C 
HETATM    3  C3  UNL     1     -35.098   4.753   5.589  1.00 20.00     0.008 C 
HETATM    4  C4  UNL     1     -35.043   5.239   4.147  1.00 20.00     0.013 C 
HETATM    5  C5  UNL     1     -33.769   6.083   4.085  1.00 20.00     0.064 C 
HETATM    6  O8  UNL     1     -33.028   7.612   5.819  1.00 20.00    -0.298 OA
ENDROOT
BRANCH   5   7
HETATM    7  C6  UNL     1     -33.809   7.137   2.998  1.00 20.00     0.129 C 
BRANCH   7   8
HETATM    8  C7  UNL     1     -32.500   7.220   2.257  1.00 20.00     0.388 C 
HETATM    9  F9  UNL     1     -32.553   8.110   1.244  1.00 20.00    -0.171 F 
HETATM   10  F10 UNL     1     -32.198   6.014   1.728  1.00 20.00    -0.171 F 
HETATM   11  F11 UNL     1     -31.485   7.573   3.073  1.00 20.00    -0.171 F 
ENDBRANCH   7   8
ENDBRANCH   5   7
TORSDOF 2
ENDMDL
MODEL 5
REMARK VINA RESULT:      -4.7     11.305     12.074
REMARK  2 active torsions:
REMARK  status: ('A' for Active; 'I' for Inactive)
REMARK    1  A    between atoms: C5_5  and  C6_6 
REMARK    2  A    between atoms: C6_6  and  C7_7 
ROOT
HETATM    1  C1  UNL     1     -36.533  14.059  -4.384  1.00 20.00     0.131 C 
HETATM    2  C2  UNL     1     -38.005  14.391  -4.376  1.00 20.00     0.079 C 
HETATM    3  C3  UNL     1     -37.985  15.914  -4.408  1.00 20.00     0.008 C 
HETATM    4  C4  UNL     1     -36.711  16.294  -3.666  1.00 20.00     0.013 C 
HETATM    5  C5  UNL     1     -35.673  15.288  -4.166  1.00 20.00     0.064 C 
HETATM    6  O8  UNL     1     -36.095  12.928  -4.546  1.00 20.00    -0.298 OA
ENDROOT
BRANCH   5   7
HETATM    7  C6  UNL     1     -34.549  15.055  -3.177  1.00 20.00     0.129 C 
BRANCH   7   8
HETATM    8  C7  UNL     1     -33.313  15.830  -3.550  1.00 20.00     0.388 C 
HETATM    9  F9  UNL     1     -33.562  16.735  -4.520  1.00 20.00    -0.171 F 
HETATM   10  F10 UNL     1     -32.366  14.984  -4.013  1.00 20.00    -0.171 F 
HETATM   11  F11 UNL     1     -32.793  16.484  -2.490  1.00 20.00    -0.171 F 
ENDBRANCH   7   8
ENDBRANCH   5   7
TORSDOF 2
ENDMDL
MODEL 6
REMARK VINA RESULT:      -4.7     11.539     12.045
REMARK  2 active torsions:
REMARK  status: ('A' for Active; 'I' for Inactive)
REMARK    1  A    between atoms: C5_5  and  C6_6 
REMARK    2  A    between atoms: C6_6  and  C7_7 
ROOT
HETATM    1  C1  UNL     1     -33.603  15.838  -3.204  1.00 20.00     0.131 C 
HETATM    2  C2  UNL     1     -33.154  16.917  -2.250  1.00 20.00     0.079 C 
HETATM    3  C3  UNL     1     -34.375  17.074  -1.354  1.00 20.00     0.008 C 
HETATM    4  C4  UNL     1     -35.556  16.751  -2.261  1.00 20.00     0.013 C 
HETATM    5  C5  UNL     1     -35.083  15.545  -3.074  1.00 20.00     0.064 C 
HETATM    6  O8  UNL     1     -32.851  15.273  -3.988  1.00 20.00    -0.298 OA
ENDROOT
BRANCH   5   7
HETATM    7  C6  UNL     1     -35.782  15.422  -4.412  1.00 20.00     0.129 C 
BRANCH   7   8
HETATM    8  C7  UNL     1     -36.176  13.998  -4.703  1.00 20.00     0.388 C 
HETATM    9  F9  UNL     1     -36.024  13.693  -6.009  1.00 20.00    -0.171 F 
HETATM   10  F10 UNL     1     -37.477  13.811  -4.387  1.00 20.00    -0.171 F 
HETATM   11  F11 UNL     1     -35.450  13.120  -3.980  1.00 20.00    -0.171 F 
ENDBRANCH   7   8
ENDBRANCH   5   7
TORSDOF 2
ENDMDL
MODEL 7
REMARK VINA RESULT:      -4.7     11.958     12.534
REMARK  2 active torsions:
REMARK  status: ('A' for Active; 'I' for Inactive)
REMARK    1  A    between atoms: C5_5  and  C6_6 
REMARK    2  A    between atoms: C6_6  and  C7_7 
ROOT
HETATM    1  C1  UNL     1     -35.289  15.677  -3.190  1.00 20.00     0.131 C 
HETATM    2  C2  UNL     1     -35.060  16.156  -1.778  1.00 20.00     0.079 C 
HETATM    3  C3  UNL     1     -33.823  17.029  -1.938  1.00 20.00     0.008 C 
HETATM    4  C4  UNL     1     -33.047  16.384  -3.079  1.00 20.00     0.013 C 
HETATM    5  C5  UNL     1     -34.125  16.011  -4.099  1.00 20.00     0.064 C 
HETATM    6  O8  UNL     1     -36.300  15.086  -3.548  1.00 20.00    -0.298 OA
ENDROOT
BRANCH   5   7
HETATM    7  C6  UNL     1     -33.721  14.857  -4.992  1.00 20.00     0.129 C 
BRANCH   7   8
HETATM    8  C7  UNL     1     -34.203  15.054  -6.405  1.00 20.00     0.388 C 
HETATM    9  F9  UNL     1     -33.276  14.677  -7.309  1.00 20.00    -0.171 F 
HETATM   10  F10 UNL     1     -34.475  16.360  -6.617  1.00 20.00    -0.171 F 
HETATM   11  F11 UNL     1     -35.334  14.357  -6.649  1.00 20.00    -0.171 F 
ENDBRANCH   7   8
ENDBRANCH   5   7
TORSDOF 2
ENDMDL
MODEL 8
REMARK VINA RESULT:      -4.7     16.000     16.515
REMARK  2 active torsions:
REMARK  status: ('A' for Active; 'I' for Inactive)
REMARK    1  A    between atoms: C5_5  and  C6_6 
REMARK    2  A    between atoms: C6_6  and  C7_7 
ROOT
HETATM    1  C1  UNL     1     -25.281  18.951   9.985  1.00 20.00     0.131 C 
HETATM    2  C2  UNL     1     -26.349  19.181  11.025  1.00 20.00     0.079 C 
HETATM    3  C3  UNL     1     -25.605  18.872  12.317  1.00 20.00     0.008 C 
HETATM    4  C4  UNL     1     -24.585  17.811  11.924  1.00 20.00     0.013 C 
HETATM    5  C5  UNL     1     -24.051  18.290  10.573  1.00 20.00     0.064 C 
HETATM    6  O8  UNL     1     -25.404  19.263   8.808  1.00 20.00    -0.298 OA
ENDROOT
BRANCH   5   7
HETATM    7  C6  UNL     1     -23.517  17.162   9.713  1.00 20.00     0.129 C 
BRANCH   7   8
HETATM    8  C7  UNL     1     -22.367  17.617   8.853  1.00 20.00     0.388 C 
HETATM    9  F9  UNL     1     -21.392  16.687   8.788  1.00 20.00    -0.171 F 
HETATM   10  F10 UNL     1     -21.827  18.742   9.370  1.00 20.00    -0.171 F 
HETATM   11  F11 UNL     1     -22.765  17.896   7.594  1.00 20.00    -0.171 F 
ENDBRANCH   7   8
ENDBRANCH   5   7
TORSDOF 2
ENDMDL
MODEL 9
REMARK VINA RESULT:      -4.5     11.501     13.237
REMARK  2 active torsions:
REMARK  status: ('A' for Active; 'I' for Inactive)
REMARK    1  A    between atoms: C5_5  and  C6_6 
REMARK    2  A    between atoms: C6_6  and  C7_7 
ROOT
HETATM    1  C1  UNL     1     -35.400  14.814  -6.454  1.00 20.00     0.131 C 
HETATM    2  C2  UNL     1     -35.478  15.284  -7.885  1.00 20.00     0.079 C 
HETATM    3  C3  UNL     1     -34.415  16.374  -7.918  1.00 20.00     0.008 C 
HETATM    4  C4  UNL     1     -34.422  16.954  -6.510  1.00 20.00     0.013 C 
HETATM    5  C5  UNL     1     -34.545  15.730  -5.602  1.00 20.00     0.064 C 
HETATM    6  O8  UNL     1     -35.968  13.812  -6.038  1.00 20.00    -0.298 OA
ENDROOT
BRANCH   5   7
HETATM    7  C6  UNL     1     -35.172  16.048  -4.260  1.00 20.00     0.129 C 
BRANCH   7   8
HETATM    8  C7  UNL     1     -34.460  15.346  -3.135  1.00 20.00     0.388 C 
HETATM    9  F9  UNL     1     -33.187  15.773  -3.003  1.00 20.00    -0.171 F 
HETATM   10  F10 UNL     1     -34.424  14.016  -3.376  1.00 20.00    -0.171 F 
HETATM   11  F11 UNL     1     -35.088  15.529  -1.954  1.00 20.00    -0.171 F 
ENDBRANCH   7   8
ENDBRANCH   5   7
TORSDOF 2
ENDMDL
