MODEL 1
REMARK VINA RESULT:      -5.3      0.000      0.000
REMARK  2 active torsions:
REMARK  status: ('A' for Active; 'I' for Inactive)
REMARK    1  A    between atoms: C6_6  and  C7_7 
REMARK    2  A    between atoms: C7_7  and  C8_8 
ROOT
HETATM    1  C1  UNL     1     -33.373   5.379   2.836  1.00 20.00     0.131 C 
HETATM    2  C2  UNL     1     -34.518   5.246   3.817  1.00 20.00     0.079 C 
HETATM    3  C3  UNL     1     -34.151   5.842   5.167  1.00 20.00     0.007 C 
HETATM    4  C4  UNL     1     -33.636   7.273   5.033  1.00 20.00     0.001 C 
HETATM    5  C5  UNL     1     -32.433   7.332   4.094  1.00 20.00     0.012 C 
HETATM    6  C6  UNL     1     -32.718   6.746   2.708  1.00 20.00     0.064 C 
HETATM    7  O9  UNL     1     -33.049   4.445   2.102  1.00 20.00    -0.298 OA
ENDROOT
BRANCH   6   8
HETATM    8  C7  UNL     1     -33.588   7.657   1.849  1.00 20.00     0.129 C 
BRANCH   8   9
HETATM    9  C8  UNL     1     -32.774   8.348   0.792  1.00 20.00     0.388 C 
HETATM   10  F10 UNL     1     -32.593   9.657   1.070  1.00 20.00    -0.171 F 
HETATM   11  F11 UNL     1     -33.417   8.268  -0.394  1.00 20.00    -0.171 F 
HETATM   12  F12 UNL     1     -31.560   7.780   0.637  1.00 20.00    -0.171 F 
ENDBRANCH   8   9
ENDBRANCH   6   8
TORSDOF 2
ENDMDL
MODEL 2
REMARK VINA RESULT:      -4.6     10.574     11.353
REMARK  2 active torsions:
REMARK  status: ('A' for Active; 'I' for Inactive)
REMARK    1  A    between atoms: C6_6  and  C7_7 
REMARK    2  A    between atoms: C7_7  and  C8_8 
ROOT
HETATM    1  C1  UNL     1     -34.864  14.619  -3.782  1.00 20.00     0.131 C 
HETATM    2  C2  UNL     1     -35.745  15.396  -2.828  1.00 20.00     0.079 C 
HETATM    3  C3  UNL     1     -34.909  16.168  -1.820  1.00 20.00     0.007 C 
HETATM    4  C4  UNL     1     -33.854  17.033  -2.505  1.00 20.00     0.001 C 
HETATM    5  C5  UNL     1     -32.946  16.182  -3.390  1.00 20.00     0.012 C 
HETATM    6  C6  UNL     1     -33.713  15.367  -4.435  1.00 20.00     0.064 C 
HETATM    7  O9  UNL     1     -35.127  13.456  -4.091  1.00 20.00    -0.298 OA
ENDROOT
BRANCH   6   8
HETATM    8  C7  UNL     1     -34.238  16.221  -5.584  1.00 20.00     0.129 C 
BRANCH   8   9
HETATM    9  C8  UNL     1     -34.216  15.464  -6.881  1.00 20.00     0.388 C 
HETATM   10  F10 UNL     1     -33.127  14.672  -6.985  1.00 20.00    -0.171 F 
HETATM   11  F11 UNL     1     -34.184  16.338  -7.911  1.00 20.00    -0.171 F 
HETATM   12  F12 UNL     1     -35.312  14.692  -7.033  1.00 20.00    -0.171 F 
ENDBRANCH   8   9
ENDBRANCH   6   8
TORSDOF 2
ENDMDL
MODEL 3
REMARK VINA RESULT:      -4.6      9.605     10.531
REMARK  2 active torsions:
REMARK  status: ('A' for Active; 'I' for Inactive)
REMARK    1  A    between atoms: C6_6  and  C7_7 
REMARK    2  A    between atoms: C7_7  and  C8_8 
ROOT
HETATM    1  C1  UNL     1     -42.784   5.995   0.751  1.00 20.00     0.131 C 
HETATM    2  C2  UNL     1     -43.052   7.484   0.716  1.00 20.00     0.079 C 
HETATM    3  C3  UNL     1     -41.803   8.252   0.312  1.00 20.00     0.007 C 
HETATM    4  C4  UNL     1     -41.204   7.717  -0.986  1.00 20.00     0.001 C 
HETATM    5  C5  UNL     1     -40.882   6.229  -0.863  1.00 20.00     0.012 C 
HETATM    6  C6  UNL     1     -42.090   5.381  -0.455  1.00 20.00     0.064 C 
HETATM    7  O9  UNL     1     -43.200   5.293   1.674  1.00 20.00    -0.298 OA
ENDROOT
BRANCH   6   8
HETATM    8  C7  UNL     1     -43.092   5.196  -1.589  1.00 20.00     0.129 C 
BRANCH   8   9
HETATM    9  C8  UNL     1     -42.858   3.903  -2.317  1.00 20.00     0.388 C 
HETATM   10  F10 UNL     1     -43.414   3.909  -3.548  1.00 20.00    -0.171 F 
HETATM   11  F11 UNL     1     -43.417   2.888  -1.622  1.00 20.00    -0.171 F 
HETATM   12  F12 UNL     1     -41.543   3.630  -2.453  1.00 20.00    -0.171 F 
ENDBRANCH   8   9
ENDBRANCH   6   8
TORSDOF 2
ENDMDL
MODEL 4
REMARK VINA RESULT:      -4.5     10.203     11.079
REMARK  2 active torsions:
REMARK  status: ('A' for Active; 'I' for Inactive)
REMARK    1  A    between atoms: C6_6  and  C7_7 
REMARK    2  A    between atoms: C7_7  and  C8_8 
ROOT
HETATM    1  C1  UNL     1     -36.143  15.662  -3.612  1.00 20.00     0.131 C 
HETATM    2  C2  UNL     1     -36.642  17.061  -3.899  1.00 20.00     0.079 C 
HETATM    3  C3  UNL     1     -36.714  17.886  -2.623  1.00 20.00     0.007 C 
HETATM    4  C4  UNL     1     -35.392  17.862  -1.859  1.00 20.00     0.001 C 
HETATM    5  C5  UNL     1     -34.981  16.429  -1.529  1.00 20.00     0.012 C 
HETATM    6  C6  UNL     1     -34.888  15.528  -2.764  1.00 20.00     0.064 C 
HETATM    7  O9  UNL     1     -36.675  14.677  -4.126  1.00 20.00    -0.298 OA
ENDROOT
BRANCH   6   8
HETATM    8  C7  UNL     1     -33.656  15.815  -3.615  1.00 20.00     0.129 C 
BRANCH   8   9
HETATM    9  C8  UNL     1     -33.223  14.595  -4.376  1.00 20.00     0.388 C 
HETATM   10  F10 UNL     1     -33.797  13.471  -3.896  1.00 20.00    -0.171 F 
HETATM   11  F11 UNL     1     -31.884  14.449  -4.266  1.00 20.00    -0.171 F 
HETATM   12  F12 UNL     1     -33.517  14.688  -5.690  1.00 20.00    -0.171 F 
ENDBRANCH   8   9
ENDBRANCH   6   8
TORSDOF 2
ENDMDL
MODEL 5
REMARK VINA RESULT:      -4.5     10.484     11.491
REMARK  2 active torsions:
REMARK  status: ('A' for Active; 'I' for Inactive)
REMARK    1  A    between atoms: C6_6  and  C7_7 
REMARK    2  A    between atoms: C7_7  and  C8_8 
ROOT
HETATM    1  C1  UNL     1     -35.911  13.988  -4.790  1.00 20.00     0.131 C 
HETATM    2  C2  UNL     1     -35.726  14.503  -6.202  1.00 20.00     0.079 C 
HETATM    3  C3  UNL     1     -36.670  15.660  -6.488  1.00 20.00     0.007 C 
HETATM    4  C4  UNL     1     -36.563  16.754  -5.428  1.00 20.00     0.001 C 
HETATM    5  C5  UNL     1     -36.838  16.190  -4.036  1.00 20.00     0.012 C 
HETATM    6  C6  UNL     1     -35.928  15.015  -3.669  1.00 20.00     0.064 C 
HETATM    7  O9  UNL     1     -35.949  12.781  -4.552  1.00 20.00    -0.298 OA
ENDROOT
BRANCH   6   8
HETATM    8  C7  UNL     1     -34.502  15.449  -3.345  1.00 20.00     0.129 C 
BRANCH   8   9
HETATM    9  C8  UNL     1     -34.479  16.454  -2.229  1.00 20.00     0.388 C 
HETATM   10  F10 UNL     1     -34.927  17.664  -2.630  1.00 20.00    -0.171 F 
HETATM   11  F11 UNL     1     -33.210  16.613  -1.794  1.00 20.00    -0.171 F 
HETATM   12  F12 UNL     1     -35.226  16.059  -1.177  1.00 20.00    -0.171 F 
ENDBRANCH   8   9
ENDBRANCH   6   8
TORSDOF 2
ENDMDL
MODEL 6
REMARK VINA RESULT:      -4.4     10.483     11.624
REMARK  2 active torsions:
REMARK  status: ('A' for Active; 'I' for Inactive)
REMARK    1  A    between atoms: C6_6  and  C7_7 
REMARK    2  A    between atoms: C7_7  and  C8_8 
ROOT
HETATM    1  C1  UNL     1     -35.388  17.021  -4.248  1.00 20.00     0.131 C 
HETATM    2  C2  UNL     1     -34.102  17.697  -4.673  1.00 20.00     0.079 C 
HETATM    3  C3  UNL     1     -33.286  18.125  -3.464  1.00 20.00     0.007 C 
HETATM    4  C4  UNL     1     -33.065  16.969  -2.492  1.00 20.00     0.001 C 
HETATM    5  C5  UNL     1     -34.399  16.379  -2.037  1.00 20.00     0.012 C 
HETATM    6  C6  UNL     1     -35.286  15.925  -3.199  1.00 20.00     0.064 C 
HETATM    7  O9  UNL     1     -36.458  17.280  -4.800  1.00 20.00    -0.298 OA
ENDROOT
BRANCH   6   8
HETATM    8  C7  UNL     1     -34.797  14.634  -3.847  1.00 20.00     0.129 C 
BRANCH   8   9
HETATM    9  C8  UNL     1     -35.937  13.855  -4.439  1.00 20.00     0.388 C 
HETATM   10  F10 UNL     1     -37.127  14.232  -3.924  1.00 20.00    -0.171 F 
HETATM   11  F11 UNL     1     -35.773  12.541  -4.168  1.00 20.00    -0.171 F 
HETATM   12  F12 UNL     1     -35.999  13.991  -5.780  1.00 20.00    -0.171 F 
ENDBRANCH   8   9
ENDBRANCH   6   8
TORSDOF 2
ENDMDL
MODEL 7
REMARK VINA RESULT:      -4.4     10.511     11.573
REMARK  2 active torsions:
REMARK  status: ('A' for Active; 'I' for Inactive)
REMARK    1  A    between atoms: C6_6  and  C7_7 
REMARK    2  A    between atoms: C7_7  and  C8_8 
ROOT
HETATM    1  C1  UNL     1     -34.709  16.390  -4.705  1.00 20.00     0.131 C 
HETATM    2  C2  UNL     1     -36.018  16.085  -5.400  1.00 20.00     0.079 C 
HETATM    3  C3  UNL     1     -36.141  14.600  -5.704  1.00 20.00     0.007 C 
HETATM    4  C4  UNL     1     -35.907  13.747  -4.460  1.00 20.00     0.001 C 
HETATM    5  C5  UNL     1     -34.538  14.041  -3.849  1.00 20.00     0.012 C 
HETATM    6  C6  UNL     1     -34.331  15.521  -3.516  1.00 20.00     0.064 C 
HETATM    7  O9  UNL     1     -34.025  17.362  -5.029  1.00 20.00    -0.298 OA
ENDROOT
BRANCH   6   8
HETATM    8  C7  UNL     1     -35.112  15.965  -2.284  1.00 20.00     0.129 C 
BRANCH   8   9
HETATM    9  C8  UNL     1     -34.419  17.094  -1.576  1.00 20.00     0.388 C 
HETATM   10  F10 UNL     1     -34.826  18.300  -2.030  1.00 20.00    -0.171 F 
HETATM   11  F11 UNL     1     -33.087  17.007  -1.788  1.00 20.00    -0.171 F 
HETATM   12  F12 UNL     1     -34.624  17.057  -0.243  1.00 20.00    -0.171 F 
ENDBRANCH   8   9
ENDBRANCH   6   8
TORSDOF 2
ENDMDL
MODEL 8
REMARK VINA RESULT:      -4.2     10.815     11.535
REMARK  2 active torsions:
REMARK  status: ('A' for Active; 'I' for Inactive)
REMARK    1  A    between atoms: C6_6  and  C7_7 
REMARK    2  A    between atoms: C7_7  and  C8_8 
ROOT
HETATM    1  C1  UNL     1     -32.814  18.335  -2.289  1.00 20.00     0.131 C 
HETATM    2  C2  UNL     1     -32.723  18.223  -0.782  1.00 20.00     0.079 C 
HETATM    3  C3  UNL     1     -34.108  18.155  -0.157  1.00 20.00     0.007 C 
HETATM    4  C4  UNL     1     -34.963  17.061  -0.792  1.00 20.00     0.001 C 
HETATM    5  C5  UNL     1     -35.083  17.272  -2.300  1.00 20.00     0.012 C 
HETATM    6  C6  UNL     1     -33.728  17.355  -3.008  1.00 20.00     0.064 C 
HETATM    7  O9  UNL     1     -32.103  19.122  -2.915  1.00 20.00    -0.298 OA
ENDROOT
BRANCH   6   8
HETATM    8  C7  UNL     1     -33.040  16.000  -3.129  1.00 20.00     0.129 C 
BRANCH   8   9
HETATM    9  C8  UNL     1     -33.771  15.101  -4.085  1.00 20.00     0.388 C 
HETATM   10  F10 UNL     1     -34.459  15.802  -5.012  1.00 20.00    -0.171 F 
HETATM   11  F11 UNL     1     -34.661  14.347  -3.401  1.00 20.00    -0.171 F 
HETATM   12  F12 UNL     1     -32.934  14.261  -4.729  1.00 20.00    -0.171 F 
ENDBRANCH   8   9
ENDBRANCH   6   8
TORSDOF 2
ENDMDL
MODEL 9
REMARK VINA RESULT:      -4.2     10.446     11.532
REMARK  2 active torsions:
REMARK  status: ('A' for Active; 'I' for Inactive)
REMARK    1  A    between atoms: C6_6  and  C7_7 
REMARK    2  A    between atoms: C7_7  and  C8_8 
ROOT
HETATM    1  C1  UNL     1     -33.333  15.534  -4.010  1.00 20.00     0.131 C 
HETATM    2  C2  UNL     1     -33.033  16.462  -2.853  1.00 20.00     0.079 C 
HETATM    3  C3  UNL     1     -33.254  17.914  -3.247  1.00 20.00     0.007 C 
HETATM    4  C4  UNL     1     -34.640  18.132  -3.850  1.00 20.00     0.001 C 
HETATM    5  C5  UNL     1     -34.853  17.226  -5.061  1.00 20.00     0.012 C 
HETATM    6  C6  UNL     1     -34.646  15.741  -4.749  1.00 20.00     0.064 C 
HETATM    7  O9  UNL     1     -32.590  14.589  -4.280  1.00 20.00    -0.298 OA
ENDROOT
BRANCH   6   8
HETATM    8  C7  UNL     1     -35.792  15.140  -3.943  1.00 20.00     0.129 C 
BRANCH   8   9
HETATM    9  C8  UNL     1     -36.361  13.928  -4.625  1.00 20.00     0.388 C 
HETATM   10  F10 UNL     1     -35.831  12.783  -4.144  1.00 20.00    -0.171 F 
HETATM   11  F11 UNL     1     -36.082  13.983  -5.946  1.00 20.00    -0.171 F 
HETATM   12  F12 UNL     1     -37.702  13.857  -4.493  1.00 20.00    -0.171 F 
ENDBRANCH   8   9
ENDBRANCH   6   8
TORSDOF 2
ENDMDL
