MODEL 1
REMARK VINA RESULT:      -5.9      0.000      0.000
REMARK  2 active torsions:
REMARK  status: ('A' for Active; 'I' for Inactive)
REMARK    1  A    between atoms: C1_1  and  C3_3 
REMARK    2  A    between atoms: C2_2  and  C4_4 
ROOT
HETATM    1  C1  UNL     1     -33.064   6.786   4.052  1.00 20.00     0.223 C 
HETATM    2  C2  UNL     1     -33.867   6.356   5.039  1.00 20.00     0.223 C 
HETATM    3  F5  UNL     1     -32.154   7.749   4.336  1.00 20.00    -0.200 F 
HETATM    4  F6  UNL     1     -33.750   6.932   6.260  1.00 20.00    -0.200 F 
ENDROOT
BRANCH   1   5
HETATM    5  C3  UNL     1     -33.081   6.268   2.651  1.00 20.00     0.377 C 
HETATM    6  F7  UNL     1     -34.329   5.932   2.227  1.00 20.00    -0.180 F 
HETATM    7  F8  UNL     1     -32.338   5.133   2.559  1.00 20.00    -0.180 F 
HETATM    8 CL11 UNL     1     -32.410   7.485   1.548  1.00 20.00    -0.040 Cl
ENDBRANCH   1   5
BRANCH   2   9
HETATM    9  C4  UNL     1     -34.904   5.291   4.892  1.00 20.00     0.377 C 
HETATM   10  F9  UNL     1     -35.447   4.992   6.103  1.00 20.00    -0.180 F 
HETATM   11  F10 UNL     1     -35.943   5.669   4.099  1.00 20.00    -0.180 F 
HETATM   12 CL12 UNL     1     -34.172   3.823   4.214  1.00 20.00    -0.040 Cl
ENDBRANCH   2   9
TORSDOF 2
ENDMDL
MODEL 2
REMARK VINA RESULT:      -5.9      0.018      3.417
REMARK  2 active torsions:
REMARK  status: ('A' for Active; 'I' for Inactive)
REMARK    1  A    between atoms: C1_1  and  C3_3 
REMARK    2  A    between atoms: C2_2  and  C4_4 
ROOT
HETATM    1  C1  UNL     1     -33.866   6.358   5.023  1.00 20.00     0.223 C 
HETATM    2  C2  UNL     1     -33.066   6.785   4.032  1.00 20.00     0.223 C 
HETATM    3  F5  UNL     1     -33.748   6.940   6.241  1.00 20.00    -0.200 F 
HETATM    4  F6  UNL     1     -32.157   7.751   4.311  1.00 20.00    -0.200 F 
ENDROOT
BRANCH   1   5
HETATM    5  C3  UNL     1     -34.902   5.291   4.883  1.00 20.00     0.377 C 
HETATM    6  F7  UNL     1     -35.943   5.666   4.091  1.00 20.00    -0.180 F 
HETATM    7  F8  UNL     1     -35.442   4.996   6.096  1.00 20.00    -0.180 F 
HETATM    8 CL11 UNL     1     -34.170   3.822   4.209  1.00 20.00    -0.040 Cl
ENDBRANCH   1   5
BRANCH   2   9
HETATM    9  C4  UNL     1     -33.087   6.261   2.633  1.00 20.00     0.377 C 
HETATM   10  F9  UNL     1     -32.344   5.125   2.544  1.00 20.00    -0.180 F 
HETATM   11  F10 UNL     1     -34.335   5.925   2.211  1.00 20.00    -0.180 F 
HETATM   12 CL12 UNL     1     -32.414   7.473   1.524  1.00 20.00    -0.040 Cl
ENDBRANCH   2   9
TORSDOF 2
ENDMDL
MODEL 3
REMARK VINA RESULT:      -5.6      1.511      3.954
REMARK  2 active torsions:
REMARK  status: ('A' for Active; 'I' for Inactive)
REMARK    1  A    between atoms: C1_1  and  C3_3 
REMARK    2  A    between atoms: C2_2  and  C4_4 
ROOT
HETATM    1  C1  UNL     1     -34.055   4.806   3.924  1.00 20.00     0.223 C 
HETATM    2  C2  UNL     1     -33.251   5.435   3.052  1.00 20.00     0.223 C 
HETATM    3  F5  UNL     1     -34.157   3.458   3.848  1.00 20.00    -0.200 F 
HETATM    4  F6  UNL     1     -32.610   4.692   2.117  1.00 20.00    -0.200 F 
ENDROOT
BRANCH   1   5
HETATM    5  C3  UNL     1     -34.843   5.483   4.998  1.00 20.00     0.377 C 
HETATM    6  F7  UNL     1     -35.436   4.605   5.851  1.00 20.00    -0.180 F 
HETATM    7  F8  UNL     1     -35.852   6.214   4.453  1.00 20.00    -0.180 F 
HETATM    8 CL11 UNL     1     -33.789   6.565   5.930  1.00 20.00    -0.040 Cl
ENDBRANCH   1   5
BRANCH   2   9
HETATM    9  C4  UNL     1     -33.016   6.910   3.018  1.00 20.00     0.377 C 
HETATM   10  F9  UNL     1     -34.173   7.578   3.276  1.00 20.00    -0.180 F 
HETATM   11  F10 UNL     1     -32.126   7.327   3.958  1.00 20.00    -0.180 F 
HETATM   12 CL12 UNL     1     -32.422   7.392   1.415  1.00 20.00    -0.040 Cl
ENDBRANCH   2   9
TORSDOF 2
ENDMDL
MODEL 4
REMARK VINA RESULT:      -5.6      1.509      2.563
REMARK  2 active torsions:
REMARK  status: ('A' for Active; 'I' for Inactive)
REMARK    1  A    between atoms: C1_1  and  C3_3 
REMARK    2  A    between atoms: C2_2  and  C4_4 
ROOT
HETATM    1  C1  UNL     1     -33.250   5.433   3.052  1.00 20.00     0.223 C 
HETATM    2  C2  UNL     1     -34.056   4.803   3.922  1.00 20.00     0.223 C 
HETATM    3  F5  UNL     1     -32.607   4.693   2.118  1.00 20.00    -0.200 F 
HETATM    4  F6  UNL     1     -34.156   3.454   3.844  1.00 20.00    -0.200 F 
ENDROOT
BRANCH   1   5
HETATM    5  C3  UNL     1     -33.018   6.909   3.021  1.00 20.00     0.377 C 
HETATM    6  F7  UNL     1     -32.131   7.325   3.964  1.00 20.00    -0.180 F 
HETATM    7  F8  UNL     1     -34.176   7.574   3.278  1.00 20.00    -0.180 F 
HETATM    8 CL11 UNL     1     -32.421   7.392   1.421  1.00 20.00    -0.040 Cl
ENDBRANCH   1   5
BRANCH   2   9
HETATM    9  C4  UNL     1     -34.847   5.476   4.995  1.00 20.00     0.377 C 
HETATM   10  F9  UNL     1     -35.856   6.207   4.448  1.00 20.00    -0.180 F 
HETATM   11  F10 UNL     1     -35.441   4.597   5.846  1.00 20.00    -0.180 F 
HETATM   12 CL12 UNL     1     -33.798   6.560   5.932  1.00 20.00    -0.040 Cl
ENDBRANCH   2   9
TORSDOF 2
ENDMDL
MODEL 5
REMARK VINA RESULT:      -4.7     12.188     13.462
REMARK  2 active torsions:
REMARK  status: ('A' for Active; 'I' for Inactive)
REMARK    1  A    between atoms: C1_1  and  C3_3 
REMARK    2  A    between atoms: C2_2  and  C4_4 
ROOT
HETATM    1  C1  UNL     1     -34.233  16.989  -4.149  1.00 20.00     0.223 C 
HETATM    2  C2  UNL     1     -34.752  16.437  -5.258  1.00 20.00     0.223 C 
HETATM    3  F5  UNL     1     -34.402  18.319  -3.951  1.00 20.00    -0.200 F 
HETATM    4  F6  UNL     1     -35.388  17.245  -6.140  1.00 20.00    -0.200 F 
ENDROOT
BRANCH   1   5
HETATM    5  C3  UNL     1     -33.488  16.240  -3.092  1.00 20.00     0.377 C 
HETATM    6  F7  UNL     1     -32.523  15.428  -3.600  1.00 20.00    -0.180 F 
HETATM    7  F8  UNL     1     -34.336  15.428  -2.404  1.00 20.00    -0.180 F 
HETATM    8 CL11 UNL     1     -32.740  17.381  -1.957  1.00 20.00    -0.040 Cl
ENDBRANCH   1   5
BRANCH   2   9
HETATM    9  C4  UNL     1     -34.668  14.988  -5.609  1.00 20.00     0.377 C 
HETATM   10  F9  UNL     1     -33.390  14.655  -5.933  1.00 20.00    -0.180 F 
HETATM   11  F10 UNL     1     -35.017  14.172  -4.579  1.00 20.00    -0.180 F 
HETATM   12 CL12 UNL     1     -35.720  14.640  -6.996  1.00 20.00    -0.040 Cl
ENDBRANCH   2   9
TORSDOF 2
ENDMDL
MODEL 6
REMARK VINA RESULT:      -4.7     12.194     13.372
REMARK  2 active torsions:
REMARK  status: ('A' for Active; 'I' for Inactive)
REMARK    1  A    between atoms: C1_1  and  C3_3 
REMARK    2  A    between atoms: C2_2  and  C4_4 
ROOT
HETATM    1  C1  UNL     1     -34.753  16.440  -5.261  1.00 20.00     0.223 C 
HETATM    2  C2  UNL     1     -34.232  16.991  -4.153  1.00 20.00     0.223 C 
HETATM    3  F5  UNL     1     -35.392  17.246  -6.143  1.00 20.00    -0.200 F 
HETATM    4  F6  UNL     1     -34.403  18.321  -3.956  1.00 20.00    -0.200 F 
ENDROOT
BRANCH   1   5
HETATM    5  C3  UNL     1     -34.667  14.990  -5.613  1.00 20.00     0.377 C 
HETATM    6  F7  UNL     1     -35.011  14.174  -4.581  1.00 20.00    -0.180 F 
HETATM    7  F8  UNL     1     -33.389  14.660  -5.941  1.00 20.00    -0.180 F 
HETATM    8 CL11 UNL     1     -35.722  14.641  -6.997  1.00 20.00    -0.040 Cl
ENDBRANCH   1   5
BRANCH   2   9
HETATM    9  C4  UNL     1     -33.484  16.244  -3.098  1.00 20.00     0.377 C 
HETATM   10  F9  UNL     1     -34.328  15.431  -2.408  1.00 20.00    -0.180 F 
HETATM   11  F10 UNL     1     -32.517  15.434  -3.608  1.00 20.00    -0.180 F 
HETATM   12 CL12 UNL     1     -32.735  17.386  -1.964  1.00 20.00    -0.040 Cl
ENDBRANCH   2   9
TORSDOF 2
ENDMDL
MODEL 7
REMARK VINA RESULT:      -4.7      1.483      3.464
REMARK  2 active torsions:
REMARK  status: ('A' for Active; 'I' for Inactive)
REMARK    1  A    between atoms: C1_1  and  C3_3 
REMARK    2  A    between atoms: C2_2  and  C4_4 
ROOT
HETATM    1  C1  UNL     1     -33.728   6.391   4.748  1.00 20.00     0.223 C 
HETATM    2  C2  UNL     1     -32.994   6.685   3.663  1.00 20.00     0.223 C 
HETATM    3  F5  UNL     1     -33.511   7.097   5.883  1.00 20.00    -0.200 F 
HETATM    4  F6  UNL     1     -32.048   7.649   3.770  1.00 20.00    -0.200 F 
ENDROOT
BRANCH   1   5
HETATM    5  C3  UNL     1     -34.794   5.345   4.798  1.00 20.00     0.377 C 
HETATM    6  F7  UNL     1     -34.425   4.184   4.193  1.00 20.00    -0.180 F 
HETATM    7  F8  UNL     1     -35.905   5.772   4.140  1.00 20.00    -0.180 F 
HETATM    8 CL11 UNL     1     -35.223   5.000   6.485  1.00 20.00    -0.040 Cl
ENDBRANCH   1   5
BRANCH   2   9
HETATM    9  C4  UNL     1     -33.126   6.014   2.335  1.00 20.00     0.377 C 
HETATM   10  F9  UNL     1     -34.429   5.993   1.945  1.00 20.00    -0.180 F 
HETATM   11  F10 UNL     1     -32.450   6.659   1.346  1.00 20.00    -0.180 F 
HETATM   12 CL12 UNL     1     -32.532   4.344   2.439  1.00 20.00    -0.040 Cl
ENDBRANCH   2   9
TORSDOF 2
ENDMDL
MODEL 8
REMARK VINA RESULT:      -4.7     11.997     12.895
REMARK  2 active torsions:
REMARK  status: ('A' for Active; 'I' for Inactive)
REMARK    1  A    between atoms: C1_1  and  C3_3 
REMARK    2  A    between atoms: C2_2  and  C4_4 
ROOT
HETATM    1  C1  UNL     1     -34.640  15.894  -2.801  1.00 20.00     0.223 C 
HETATM    2  C2  UNL     1     -35.244  15.205  -3.782  1.00 20.00     0.223 C 
HETATM    3  F5  UNL     1     -35.184  15.861  -1.561  1.00 20.00    -0.200 F 
HETATM    4  F6  UNL     1     -36.388  14.540  -3.490  1.00 20.00    -0.200 F 
ENDROOT
BRANCH   1   5
HETATM    5  C3  UNL     1     -33.386  16.691  -2.965  1.00 20.00     0.377 C 
HETATM    6  F7  UNL     1     -33.468  17.603  -3.970  1.00 20.00    -0.180 F 
HETATM    7  F8  UNL     1     -32.347  15.874  -3.284  1.00 20.00    -0.180 F 
HETATM    8 CL11 UNL     1     -33.006  17.538  -1.453  1.00 20.00    -0.040 Cl
ENDBRANCH   1   5
BRANCH   2   9
HETATM    9  C4  UNL     1     -34.759  15.125  -5.193  1.00 20.00     0.377 C 
HETATM   10  F9  UNL     1     -34.672  16.371  -5.732  1.00 20.00    -0.180 F 
HETATM   11  F10 UNL     1     -33.514  14.586  -5.295  1.00 20.00    -0.180 F 
HETATM   12 CL12 UNL     1     -35.884  14.157  -6.166  1.00 20.00    -0.040 Cl
ENDBRANCH   2   9
TORSDOF 2
ENDMDL
MODEL 9
REMARK VINA RESULT:      -4.6      9.412     10.202
REMARK  2 active torsions:
REMARK  status: ('A' for Active; 'I' for Inactive)
REMARK    1  A    between atoms: C1_1  and  C3_3 
REMARK    2  A    between atoms: C2_2  and  C4_4 
ROOT
HETATM    1  C1  UNL     1     -42.572   6.725   0.215  1.00 20.00     0.223 C 
HETATM    2  C2  UNL     1     -42.871   5.462  -0.130  1.00 20.00     0.223 C 
HETATM    3  F5  UNL     1     -42.796   7.113   1.493  1.00 20.00    -0.200 F 
HETATM    4  F6  UNL     1     -43.415   4.651   0.809  1.00 20.00    -0.200 F 
ENDROOT
BRANCH   1   5
HETATM    5  C3  UNL     1     -41.986   7.745  -0.707  1.00 20.00     0.377 C 
HETATM    6  F7  UNL     1     -42.842   8.117  -1.696  1.00 20.00    -0.180 F 
HETATM    7  F8  UNL     1     -40.889   7.240  -1.333  1.00 20.00    -0.180 F 
HETATM    8 CL11 UNL     1     -41.510   9.187   0.211  1.00 20.00    -0.040 Cl
ENDBRANCH   1   5
BRANCH   2   9
HETATM    9  C4  UNL     1     -42.665   4.877  -1.489  1.00 20.00     0.377 C 
HETATM   10  F9  UNL     1     -43.227   5.676  -2.436  1.00 20.00    -0.180 F 
HETATM   11  F10 UNL     1     -41.352   4.766  -1.825  1.00 20.00    -0.180 F 
HETATM   12 CL12 UNL     1     -43.416   3.271  -1.576  1.00 20.00    -0.040 Cl
ENDBRANCH   2   9
TORSDOF 2
ENDMDL
