MODEL 1
REMARK VINA RESULT:      -4.1      0.000      0.000
REMARK  1 active torsions:
REMARK  status: ('A' for Active; 'I' for Inactive)
REMARK    1  A    between atoms: C4_4  and  C6_6 
ROOT
HETATM    1  C1  UNL     1     -33.104  16.699  -2.576  1.00 20.00     0.039 A 
HETATM    2  C2  UNL     1     -35.317  16.125  -1.919  1.00 20.00     0.129 A 
HETATM    3  C3  UNL     1     -34.214  17.782  -0.773  1.00 20.00     0.140 A 
HETATM    4  C4  UNL     1     -34.239  15.917  -2.763  1.00 20.00    -0.000 A 
HETATM    5  C5  UNL     1     -33.083  17.652  -1.563  1.00 20.00     0.052 A 
HETATM    6  N8  UNL     1     -35.333  17.041  -0.923  1.00 20.00    -0.271 NA
HETATM    7 CL10 UNL     1     -31.703  18.635  -1.303  1.00 20.00    -0.083 Cl
ENDROOT
BRANCH   4   8
HETATM    8  C6  UNL     1     -34.292  14.913  -3.811  1.00 20.00     0.017 C 
HETATM    9  C7  UNL     1     -32.985  14.466  -4.470  1.00 20.00     0.062 C 
HETATM   10  S9  UNL     1     -35.724  14.152  -4.326  1.00 20.00    -0.084 SA
ENDBRANCH   4   8
TORSDOF 1
ENDMDL
MODEL 2
REMARK VINA RESULT:      -4.1      1.814      2.174
REMARK  1 active torsions:
REMARK  status: ('A' for Active; 'I' for Inactive)
REMARK    1  A    between atoms: C4_4  and  C6_6 
ROOT
HETATM    1  C1  UNL     1     -35.116  16.223  -1.740  1.00 20.00     0.039 A 
HETATM    2  C2  UNL     1     -33.022  16.827  -2.695  1.00 20.00     0.129 A 
HETATM    3  C3  UNL     1     -33.759  17.954  -0.833  1.00 20.00     0.140 A 
HETATM    4  C4  UNL     1     -34.152  16.024  -2.722  1.00 20.00    -0.000 A 
HETATM    5  C5  UNL     1     -34.923  17.205  -0.773  1.00 20.00     0.052 A 
HETATM    6  N8  UNL     1     -32.801  17.791  -1.772  1.00 20.00    -0.271 NA
HETATM    7 CL10 UNL     1     -36.089  17.478   0.454  1.00 20.00    -0.083 Cl
ENDROOT
BRANCH   4   8
HETATM    8  C6  UNL     1     -34.323  15.008  -3.745  1.00 20.00     0.017 C 
HETATM    9  C7  UNL     1     -33.082  14.451  -4.445  1.00 20.00     0.062 C 
HETATM   10  S9  UNL     1     -35.829  14.349  -4.187  1.00 20.00    -0.084 SA
ENDBRANCH   4   8
TORSDOF 1
ENDMDL
MODEL 3
REMARK VINA RESULT:      -4.1     15.430     16.400
REMARK  1 active torsions:
REMARK  status: ('A' for Active; 'I' for Inactive)
REMARK    1  A    between atoms: C4_4  and  C6_6 
ROOT
HETATM    1  C1  UNL     1     -25.012  18.524  10.040  1.00 20.00     0.039 A 
HETATM    2  C2  UNL     1     -22.877  17.768  10.765  1.00 20.00     0.129 A 
HETATM    3  C3  UNL     1     -24.519  18.125  12.332  1.00 20.00     0.140 A 
HETATM    4  C4  UNL     1     -23.712  18.144   9.726  1.00 20.00    -0.000 A 
HETATM    5  C5  UNL     1     -25.431  18.517  11.366  1.00 20.00     0.052 A 
HETATM    6  N8  UNL     1     -23.248  17.749  12.066  1.00 20.00    -0.271 NA
HETATM    7 CL10 UNL     1     -27.027  18.979  11.792  1.00 20.00    -0.083 Cl
ENDROOT
BRANCH   4   8
HETATM    8  C6  UNL     1     -23.244  18.141   8.351  1.00 20.00     0.017 C 
HETATM    9  C7  UNL     1     -24.059  18.890   7.294  1.00 20.00     0.062 C 
HETATM   10  S9  UNL     1     -21.803  17.395   7.840  1.00 20.00    -0.084 SA
ENDBRANCH   4   8
TORSDOF 1
ENDMDL
MODEL 4
REMARK VINA RESULT:      -4.1      3.759      4.744
REMARK  1 active torsions:
REMARK  status: ('A' for Active; 'I' for Inactive)
REMARK    1  A    between atoms: C4_4  and  C6_6 
ROOT
HETATM    1  C1  UNL     1     -36.445  15.559  -3.290  1.00 20.00     0.039 A 
HETATM    2  C2  UNL     1     -34.372  14.478  -3.725  1.00 20.00     0.129 A 
HETATM    3  C3  UNL     1     -36.282  13.644  -4.691  1.00 20.00     0.140 A 
HETATM    4  C4  UNL     1     -35.071  15.494  -3.092  1.00 20.00    -0.000 A 
HETATM    5  C5  UNL     1     -37.071  14.620  -4.103  1.00 20.00     0.052 A 
HETATM    6  N8  UNL     1     -34.945  13.548  -4.522  1.00 20.00    -0.271 NA
HETATM    7 CL10 UNL     1     -38.764  14.669  -4.371  1.00 20.00    -0.083 Cl
ENDROOT
BRANCH   4   8
HETATM    8  C6  UNL     1     -34.388  16.459  -2.248  1.00 20.00     0.017 C 
HETATM    9  C7  UNL     1     -32.978  16.909  -2.636  1.00 20.00     0.062 C 
HETATM   10  S9  UNL     1     -35.082  17.171  -0.867  1.00 20.00    -0.084 SA
ENDBRANCH   4   8
TORSDOF 1
ENDMDL
MODEL 5
REMARK VINA RESULT:      -4.0      3.431      4.577
REMARK  1 active torsions:
REMARK  status: ('A' for Active; 'I' for Inactive)
REMARK    1  A    between atoms: C4_4  and  C6_6 
ROOT
HETATM    1  C1  UNL     1     -35.280  15.596  -2.739  1.00 20.00     0.039 A 
HETATM    2  C2  UNL     1     -33.005  16.234  -3.011  1.00 20.00     0.129 A 
HETATM    3  C3  UNL     1     -33.890  14.652  -4.422  1.00 20.00     0.140 A 
HETATM    4  C4  UNL     1     -34.202  16.373  -2.328  1.00 20.00    -0.000 A 
HETATM    5  C5  UNL     1     -35.129  14.716  -3.805  1.00 20.00     0.052 A 
HETATM    6  N8  UNL     1     -32.820  15.389  -4.051  1.00 20.00    -0.271 NA
HETATM    7 CL10 UNL     1     -36.436  13.743  -4.340  1.00 20.00    -0.083 Cl
ENDROOT
BRANCH   4   8
HETATM    8  C6  UNL     1     -34.327  17.300  -1.218  1.00 20.00     0.017 C 
HETATM    9  C7  UNL     1     -35.501  17.136  -0.250  1.00 20.00     0.062 C 
HETATM   10  S9  UNL     1     -33.211  18.542  -0.887  1.00 20.00    -0.084 SA
ENDBRANCH   4   8
TORSDOF 1
ENDMDL
MODEL 6
REMARK VINA RESULT:      -3.9      3.779      4.592
REMARK  1 active torsions:
REMARK  status: ('A' for Active; 'I' for Inactive)
REMARK    1  A    between atoms: C4_4  and  C6_6 
ROOT
HETATM    1  C1  UNL     1     -36.799  16.355  -3.635  1.00 20.00     0.039 A 
HETATM    2  C2  UNL     1     -36.483  14.071  -4.219  1.00 20.00     0.129 A 
HETATM    3  C3  UNL     1     -38.602  14.955  -4.301  1.00 20.00     0.140 A 
HETATM    4  C4  UNL     1     -35.939  15.275  -3.802  1.00 20.00    -0.000 A 
HETATM    5  C5  UNL     1     -38.158  16.200  -3.887  1.00 20.00     0.052 A 
HETATM    6  N8  UNL     1     -37.798  13.882  -4.474  1.00 20.00    -0.271 NA
HETATM    7 CL10 UNL     1     -39.248  17.509  -3.693  1.00 20.00    -0.083 Cl
ENDROOT
BRANCH   4   8
HETATM    8  C6  UNL     1     -34.515  15.404  -3.545  1.00 20.00     0.017 C 
HETATM    9  C7  UNL     1     -34.055  16.255  -2.359  1.00 20.00     0.062 C 
HETATM   10  S9  UNL     1     -33.311  14.620  -4.456  1.00 20.00    -0.084 SA
ENDBRANCH   4   8
TORSDOF 1
ENDMDL
MODEL 7
REMARK VINA RESULT:      -3.9      2.969      4.296
REMARK  1 active torsions:
REMARK  status: ('A' for Active; 'I' for Inactive)
REMARK    1  A    between atoms: C4_4  and  C6_6 
ROOT
HETATM    1  C1  UNL     1     -35.084  16.114  -1.822  1.00 20.00     0.039 A 
HETATM    2  C2  UNL     1     -33.521  17.861  -1.420  1.00 20.00     0.129 A 
HETATM    3  C3  UNL     1     -33.106  16.369  -3.117  1.00 20.00     0.140 A 
HETATM    4  C4  UNL     1     -34.708  17.230  -1.084  1.00 20.00    -0.000 A 
HETATM    5  C5  UNL     1     -34.273  15.668  -2.860  1.00 20.00     0.052 A 
HETATM    6  N8  UNL     1     -32.706  17.457  -2.421  1.00 20.00    -0.271 NA
HETATM    7 CL10 UNL     1     -34.704  14.296  -3.793  1.00 20.00    -0.083 Cl
ENDROOT
BRANCH   4   8
HETATM    8  C6  UNL     1     -35.533  17.720   0.007  1.00 20.00     0.017 C 
HETATM    9  C7  UNL     1     -34.912  17.849   1.399  1.00 20.00     0.062 C 
HETATM   10  S9  UNL     1     -37.151  18.215  -0.174  1.00 20.00    -0.084 SA
ENDBRANCH   4   8
TORSDOF 1
ENDMDL
MODEL 8
REMARK VINA RESULT:      -3.8     14.380     15.379
REMARK  1 active torsions:
REMARK  status: ('A' for Active; 'I' for Inactive)
REMARK    1  A    between atoms: C4_4  and  C6_6 
ROOT
HETATM    1  C1  UNL     1     -24.909  18.543   9.593  1.00 20.00     0.039 A 
HETATM    2  C2  UNL     1     -22.990  18.215   8.225  1.00 20.00     0.129 A 
HETATM    3  C3  UNL     1     -22.842  17.761  10.472  1.00 20.00     0.140 A 
HETATM    4  C4  UNL     1     -24.318  18.594   8.335  1.00 20.00    -0.000 A 
HETATM    5  C5  UNL     1     -24.163  18.119  10.688  1.00 20.00     0.052 A 
HETATM    6  N8  UNL     1     -22.234  17.798   9.266  1.00 20.00    -0.271 NA
HETATM    7 CL10 UNL     1     -24.856  18.042  12.254  1.00 20.00    -0.083 Cl
ENDROOT
BRANCH   4   8
HETATM    8  C6  UNL     1     -25.070  19.033   7.172  1.00 20.00     0.017 C 
HETATM    9  C7  UNL     1     -24.324  19.261   5.856  1.00 20.00     0.062 C 
HETATM   10  S9  UNL     1     -26.756  19.263   7.162  1.00 20.00    -0.084 SA
ENDBRANCH   4   8
TORSDOF 1
ENDMDL
MODEL 9
REMARK VINA RESULT:      -3.7      3.277      4.175
REMARK  1 active torsions:
REMARK  status: ('A' for Active; 'I' for Inactive)
REMARK    1  A    between atoms: C4_4  and  C6_6 
ROOT
HETATM    1  C1  UNL     1     -33.165  18.203   0.799  1.00 20.00     0.039 A 
HETATM    2  C2  UNL     1     -31.829  18.251  -1.168  1.00 20.00     0.129 A 
HETATM    3  C3  UNL     1     -30.803  18.470   0.876  1.00 20.00     0.140 A 
HETATM    4  C4  UNL     1     -33.082  18.141  -0.587  1.00 20.00    -0.000 A 
HETATM    5  C5  UNL     1     -32.008  18.370   1.553  1.00 20.00     0.052 A 
HETATM    6  N8  UNL     1     -30.683  18.415  -0.469  1.00 20.00    -0.271 NA
HETATM    7 CL10 UNL     1     -32.071  18.450   3.264  1.00 20.00    -0.083 Cl
ENDROOT
BRANCH   4   8
HETATM    8  C6  UNL     1     -34.272  17.968  -1.402  1.00 20.00     0.017 C 
HETATM    9  C7  UNL     1     -34.672  16.554  -1.829  1.00 20.00     0.062 C 
HETATM   10  S9  UNL     1     -35.293  19.244  -1.876  1.00 20.00    -0.084 SA
ENDBRANCH   4   8
TORSDOF 1
ENDMDL
