MODEL 1
REMARK VINA RESULT:      -5.0      0.000      0.000
REMARK  1 active torsions:
REMARK  status: ('A' for Active; 'I' for Inactive)
REMARK    1  A    between atoms: C3_3  and  C9_9 
ROOT
HETATM    1  C1  UNL     1     -35.118  16.952  -1.432  1.00 20.00     0.017 A 
HETATM    2  C2  UNL     1     -34.146  17.698  -0.705  1.00 20.00     0.032 A 
HETATM    3  C3  UNL     1     -34.622  16.491  -2.633  1.00 20.00    -0.011 A 
HETATM    4  C4  UNL     1     -32.945  17.780  -1.377  1.00 20.00     0.075 A 
HETATM    5  S11 UNL     1     -32.993  16.958  -2.878  1.00 20.00    -0.082 SA
HETATM    6 CL12 UNL     1     -31.514  18.575  -0.875  1.00 20.00    -0.076 Cl
ENDROOT
BRANCH   3   7
HETATM    7  C9  UNL     1     -35.326  15.667  -3.686  1.00 20.00     0.033 C 
HETATM    8  C7  UNL     1     -36.844  15.573  -3.490  1.00 20.00     0.088 C 
HETATM    9  C5  UNL     1     -37.167  14.302  -4.236  1.00 20.00     0.127 C 
HETATM   10  C6  UNL     1     -35.932  13.514  -4.591  1.00 20.00     0.079 C 
HETATM   11  O10 UNL     1     -38.305  13.950  -4.522  1.00 20.00    -0.298 OA
HETATM   12  C8  UNL     1     -34.863  14.208  -3.752  1.00 20.00     0.018 C 
ENDBRANCH   3   7
TORSDOF 1
ENDMDL
MODEL 2
REMARK VINA RESULT:      -4.9      2.075      2.487
REMARK  1 active torsions:
REMARK  status: ('A' for Active; 'I' for Inactive)
REMARK    1  A    between atoms: C3_3  and  C9_9 
ROOT
HETATM    1  C1  UNL     1     -32.822  17.812  -1.494  1.00 20.00     0.017 A 
HETATM    2  C2  UNL     1     -32.956  18.456  -0.230  1.00 20.00     0.032 A 
HETATM    3  C3  UNL     1     -33.953  17.101  -1.833  1.00 20.00    -0.011 A 
HETATM    4  C4  UNL     1     -34.183  18.213   0.349  1.00 20.00     0.075 A 
HETATM    5  S11 UNL     1     -35.167  17.211  -0.631  1.00 20.00    -0.082 SA
HETATM    6 CL12 UNL     1     -34.766  18.786   1.855  1.00 20.00    -0.076 Cl
ENDROOT
BRANCH   3   7
HETATM    7  C9  UNL     1     -34.212  16.286  -3.079  1.00 20.00     0.033 C 
HETATM    8  C7  UNL     1     -35.201  15.132  -2.873  1.00 20.00     0.088 C 
HETATM    9  C5  UNL     1     -34.818  14.202  -3.997  1.00 20.00     0.127 C 
HETATM   10  C6  UNL     1     -33.513  14.588  -4.644  1.00 20.00     0.079 C 
HETATM   11  O10 UNL     1     -35.494  13.241  -4.345  1.00 20.00    -0.298 OA
HETATM   12  C8  UNL     1     -32.962  15.613  -3.658  1.00 20.00     0.018 C 
ENDBRANCH   3   7
TORSDOF 1
ENDMDL
MODEL 3
REMARK VINA RESULT:      -4.9      1.386      1.952
REMARK  1 active torsions:
REMARK  status: ('A' for Active; 'I' for Inactive)
REMARK    1  A    between atoms: C3_3  and  C9_9 
ROOT
HETATM    1  C1  UNL     1     -33.238  16.807  -2.828  1.00 20.00     0.017 A 
HETATM    2  C2  UNL     1     -32.562  17.779  -2.037  1.00 20.00     0.032 A 
HETATM    3  C3  UNL     1     -34.457  16.458  -2.287  1.00 20.00    -0.011 A 
HETATM    4  C4  UNL     1     -33.288  18.136  -0.921  1.00 20.00     0.075 A 
HETATM    5  S11 UNL     1     -34.780  17.300  -0.832  1.00 20.00    -0.082 SA
HETATM    6 CL12 UNL     1     -32.858  19.263   0.296  1.00 20.00    -0.076 Cl
ENDROOT
BRANCH   3   7
HETATM    7  C9  UNL     1     -35.471  15.471  -2.816  1.00 20.00     0.033 C 
HETATM    8  C7  UNL     1     -34.854  14.287  -3.570  1.00 20.00     0.088 C 
HETATM    9  C5  UNL     1     -36.003  13.850  -4.442  1.00 20.00     0.127 C 
HETATM   10  C6  UNL     1     -37.124  14.858  -4.463  1.00 20.00     0.079 C 
HETATM   11  O10 UNL     1     -36.025  12.795  -5.064  1.00 20.00    -0.298 OA
HETATM   12  C8  UNL     1     -36.470  16.072  -3.811  1.00 20.00     0.018 C 
ENDBRANCH   3   7
TORSDOF 1
ENDMDL
MODEL 4
REMARK VINA RESULT:      -4.7      4.016      6.140
REMARK  1 active torsions:
REMARK  status: ('A' for Active; 'I' for Inactive)
REMARK    1  A    between atoms: C3_3  and  C9_9 
ROOT
HETATM    1  C1  UNL     1     -34.894  16.761  -1.372  1.00 20.00     0.017 A 
HETATM    2  C2  UNL     1     -35.245  15.847  -2.407  1.00 20.00     0.032 A 
HETATM    3  C3  UNL     1     -33.660  17.335  -1.586  1.00 20.00    -0.011 A 
HETATM    4  C4  UNL     1     -34.266  15.758  -3.374  1.00 20.00     0.075 A 
HETATM    5  S11 UNL     1     -32.931  16.773  -3.031  1.00 20.00    -0.082 SA
HETATM    6 CL12 UNL     1     -34.271  14.789  -4.786  1.00 20.00    -0.076 Cl
ENDROOT
BRANCH   3   7
HETATM    7  C9  UNL     1     -32.932  18.347  -0.731  1.00 20.00     0.033 C 
HETATM    8  C7  UNL     1     -31.418  18.121  -0.653  1.00 20.00     0.088 C 
HETATM    9  C5  UNL     1     -31.075  18.816   0.641  1.00 20.00     0.127 C 
HETATM   10  C6  UNL     1     -32.299  19.166   1.448  1.00 20.00     0.079 C 
HETATM   11  O10 UNL     1     -29.929  19.069   0.996  1.00 20.00    -0.298 OA
HETATM   12  C8  UNL     1     -33.387  18.371   0.732  1.00 20.00     0.018 C 
ENDBRANCH   3   7
TORSDOF 1
ENDMDL
MODEL 5
REMARK VINA RESULT:      -4.6      4.068      6.116
REMARK  1 active torsions:
REMARK  status: ('A' for Active; 'I' for Inactive)
REMARK    1  A    between atoms: C3_3  and  C9_9 
ROOT
HETATM    1  C1  UNL     1     -32.992  16.351  -3.029  1.00 20.00     0.017 A 
HETATM    2  C2  UNL     1     -33.871  15.460  -3.709  1.00 20.00     0.032 A 
HETATM    3  C3  UNL     1     -33.644  17.081  -2.059  1.00 20.00    -0.011 A 
HETATM    4  C4  UNL     1     -35.162  15.542  -3.233  1.00 20.00     0.075 A 
HETATM    5  S11 UNL     1     -35.309  16.690  -1.971  1.00 20.00    -0.082 SA
HETATM    6 CL12 UNL     1     -36.533  14.658  -3.758  1.00 20.00    -0.076 Cl
ENDROOT
BRANCH   3   7
HETATM    7  C9  UNL     1     -33.075  18.123  -1.124  1.00 20.00     0.033 C 
HETATM    8  C7  UNL     1     -31.550  18.056  -0.973  1.00 20.00     0.088 C 
HETATM    9  C5  UNL     1     -31.350  18.722   0.365  1.00 20.00     0.127 C 
HETATM   10  C6  UNL     1     -32.644  18.901   1.118  1.00 20.00     0.079 C 
HETATM   11  O10 UNL     1     -30.258  19.078   0.792  1.00 20.00    -0.298 OA
HETATM   12  C8  UNL     1     -33.601  18.029   0.312  1.00 20.00     0.018 C 
ENDBRANCH   3   7
TORSDOF 1
ENDMDL
MODEL 6
REMARK VINA RESULT:      -4.6      3.572      5.198
REMARK  1 active torsions:
REMARK  status: ('A' for Active; 'I' for Inactive)
REMARK    1  A    between atoms: C3_3  and  C9_9 
ROOT
HETATM    1  C1  UNL     1     -35.618  14.170  -3.941  1.00 20.00     0.017 A 
HETATM    2  C2  UNL     1     -36.063  13.917  -5.270  1.00 20.00     0.032 A 
HETATM    3  C3  UNL     1     -34.801  15.279  -3.872  1.00 20.00    -0.011 A 
HETATM    4  C4  UNL     1     -35.571  14.841  -6.168  1.00 20.00     0.075 A 
HETATM    5  S11 UNL     1     -34.575  16.007  -5.406  1.00 20.00    -0.082 SA
HETATM    6 CL12 UNL     1     -35.849  14.916  -7.856  1.00 20.00    -0.076 Cl
ENDROOT
BRANCH   3   7
HETATM    7  C9  UNL     1     -34.130  15.877  -2.658  1.00 20.00     0.033 C 
HETATM    8  C7  UNL     1     -35.103  16.518  -1.661  1.00 20.00     0.088 C 
HETATM    9  C5  UNL     1     -34.203  17.493  -0.944  1.00 20.00     0.127 C 
HETATM   10  C6  UNL     1     -32.877  17.669  -1.638  1.00 20.00     0.079 C 
HETATM   11  O10 UNL     1     -34.515  18.075   0.088  1.00 20.00    -0.298 OA
HETATM   12  C8  UNL     1     -33.132  16.994  -2.983  1.00 20.00     0.018 C 
ENDBRANCH   3   7
TORSDOF 1
ENDMDL
MODEL 7
REMARK VINA RESULT:      -4.6      1.033      1.555
REMARK  1 active torsions:
REMARK  status: ('A' for Active; 'I' for Inactive)
REMARK    1  A    between atoms: C3_3  and  C9_9 
ROOT
HETATM    1  C1  UNL     1     -35.161  16.954  -0.960  1.00 20.00     0.017 A 
HETATM    2  C2  UNL     1     -34.101  17.765  -0.460  1.00 20.00     0.032 A 
HETATM    3  C3  UNL     1     -34.838  16.369  -2.165  1.00 20.00    -0.011 A 
HETATM    4  C4  UNL     1     -33.009  17.768  -1.300  1.00 20.00     0.075 A 
HETATM    5  S11 UNL     1     -33.263  16.796  -2.687  1.00 20.00    -0.082 SA
HETATM    6 CL12 UNL     1     -31.526  18.601  -1.092  1.00 20.00    -0.076 Cl
ENDROOT
BRANCH   3   7
HETATM    7  C9  UNL     1     -35.678  15.446  -3.017  1.00 20.00     0.033 C 
HETATM    8  C7  UNL     1     -34.901  14.766  -4.151  1.00 20.00     0.088 C 
HETATM    9  C5  UNL     1     -36.007  14.439  -5.122  1.00 20.00     0.127 C 
HETATM   10  C6  UNL     1     -37.302  15.128  -4.773  1.00 20.00     0.079 C 
HETATM   11  O10 UNL     1     -35.870  13.695  -6.086  1.00 20.00    -0.298 OA
HETATM   12  C8  UNL     1     -36.848  16.138  -3.723  1.00 20.00     0.018 C 
ENDBRANCH   3   7
TORSDOF 1
ENDMDL
MODEL 8
REMARK VINA RESULT:      -4.4      3.749      5.602
REMARK  1 active torsions:
REMARK  status: ('A' for Active; 'I' for Inactive)
REMARK    1  A    between atoms: C3_3  and  C9_9 
ROOT
HETATM    1  C1  UNL     1     -36.264  17.349  -2.904  1.00 20.00     0.017 A 
HETATM    2  C2  UNL     1     -36.836  16.248  -3.604  1.00 20.00     0.032 A 
HETATM    3  C3  UNL     1     -34.971  17.091  -2.504  1.00 20.00    -0.011 A 
HETATM    4  C4  UNL     1     -35.958  15.190  -3.713  1.00 20.00     0.075 A 
HETATM    5  S11 UNL     1     -34.452  15.528  -2.972  1.00 20.00    -0.082 SA
HETATM    6 CL12 UNL     1     -36.226  13.677  -4.470  1.00 20.00    -0.076 Cl
ENDROOT
BRANCH   3   7
HETATM    7  C9  UNL     1     -34.025  17.992  -1.743  1.00 20.00     0.033 C 
HETATM    8  C7  UNL     1     -32.543  17.709  -2.015  1.00 20.00     0.088 C 
HETATM    9  C5  UNL     1     -31.896  18.266  -0.772  1.00 20.00     0.127 C 
HETATM   10  C6  UNL     1     -32.899  18.578   0.308  1.00 20.00     0.079 C 
HETATM   11  O10 UNL     1     -30.689  18.446  -0.654  1.00 20.00    -0.298 OA
HETATM   12  C8  UNL     1     -34.155  17.891  -0.219  1.00 20.00     0.018 C 
ENDBRANCH   3   7
TORSDOF 1
ENDMDL
MODEL 9
REMARK VINA RESULT:      -4.4      3.103      3.658
REMARK  1 active torsions:
REMARK  status: ('A' for Active; 'I' for Inactive)
REMARK    1  A    between atoms: C3_3  and  C9_9 
ROOT
HETATM    1  C1  UNL     1     -35.341  17.131  -0.069  1.00 20.00     0.017 A 
HETATM    2  C2  UNL     1     -36.262  17.785   0.798  1.00 20.00     0.032 A 
HETATM    3  C3  UNL     1     -35.706  17.248  -1.393  1.00 20.00    -0.011 A 
HETATM    4  C4  UNL     1     -37.296  18.377   0.106  1.00 20.00     0.075 A 
HETATM    5  S11 UNL     1     -37.153  18.143  -1.584  1.00 20.00    -0.082 SA
HETATM    6 CL12 UNL     1     -38.617  19.262   0.744  1.00 20.00    -0.076 Cl
ENDROOT
BRANCH   3   7
HETATM    7  C9  UNL     1     -35.002  16.702  -2.614  1.00 20.00     0.033 C 
HETATM    8  C7  UNL     1     -35.449  15.290  -3.011  1.00 20.00     0.088 C 
HETATM    9  C5  UNL     1     -34.254  14.802  -3.790  1.00 20.00     0.127 C 
HETATM   10  C6  UNL     1     -33.054  15.700  -3.626  1.00 20.00     0.079 C 
HETATM   11  O10 UNL     1     -34.257  13.789  -4.480  1.00 20.00    -0.298 OA
HETATM   12  C8  UNL     1     -33.481  16.587  -2.460  1.00 20.00     0.018 C 
ENDBRANCH   3   7
TORSDOF 1
ENDMDL
