MODEL 1
REMARK VINA RESULT:      -4.9      0.000      0.000
REMARK  0 active torsions:
REMARK  status: ('A' for Active; 'I' for Inactive)
ROOT
HETATM    1  C1  UNL     1     -33.321   5.377   2.551  1.00 20.00     0.017 C 
HETATM    2  C2  UNL     1     -34.022   5.092   3.483  1.00 20.00    -0.090 C 
HETATM    3  C3  UNL     1     -34.857   4.750   4.580  1.00 20.00     0.059 C 
HETATM    4  C4  UNL     1     -34.844   5.453   5.720  1.00 20.00    -0.022 C 
HETATM    5  C5  UNL     1     -33.972   6.642   5.950  1.00 20.00     0.036 C 
ENDROOT
TORSDOF 0
ENDMDL
MODEL 2
REMARK VINA RESULT:      -4.5      0.765      2.778
REMARK  0 active torsions:
REMARK  status: ('A' for Active; 'I' for Inactive)
ROOT
HETATM    1  C1  UNL     1     -34.873   5.458   5.870  1.00 20.00     0.017 C 
HETATM    2  C2  UNL     1     -34.560   5.013   4.800  1.00 20.00    -0.090 C 
HETATM    3  C3  UNL     1     -34.190   4.480   3.536  1.00 20.00     0.059 C 
HETATM    4  C4  UNL     1     -33.438   5.173   2.672  1.00 20.00    -0.022 C 
HETATM    5  C5  UNL     1     -32.921   6.548   2.942  1.00 20.00     0.036 C 
ENDROOT
TORSDOF 0
ENDMDL
MODEL 3
REMARK VINA RESULT:      -4.3      1.281      1.970
REMARK  0 active torsions:
REMARK  status: ('A' for Active; 'I' for Inactive)
ROOT
HETATM    1  C1  UNL     1     -32.782   6.868   2.939  1.00 20.00     0.017 C 
HETATM    2  C2  UNL     1     -33.184   6.908   4.070  1.00 20.00    -0.090 C 
HETATM    3  C3  UNL     1     -33.653   6.959   5.410  1.00 20.00     0.059 C 
HETATM    4  C4  UNL     1     -34.457   6.013   5.911  1.00 20.00    -0.022 C 
HETATM    5  C5  UNL     1     -34.931   4.831   5.131  1.00 20.00     0.036 C 
ENDROOT
TORSDOF 0
ENDMDL
MODEL 4
REMARK VINA RESULT:      -3.8      1.123      1.751
REMARK  0 active torsions:
REMARK  status: ('A' for Active; 'I' for Inactive)
ROOT
HETATM    1  C1  UNL     1     -34.527   4.240   3.904  1.00 20.00     0.017 C 
HETATM    2  C2  UNL     1     -34.557   4.919   4.893  1.00 20.00    -0.090 C 
HETATM    3  C3  UNL     1     -34.600   5.718   6.067  1.00 20.00     0.059 C 
HETATM    4  C4  UNL     1     -33.959   6.892   6.143  1.00 20.00    -0.022 C 
HETATM    5  C5  UNL     1     -33.153   7.469   5.026  1.00 20.00     0.036 C 
ENDROOT
TORSDOF 0
ENDMDL
MODEL 5
REMARK VINA RESULT:      -3.3      2.426      3.736
REMARK  0 active torsions:
REMARK  status: ('A' for Active; 'I' for Inactive)
ROOT
HETATM    1  C1  UNL     1     -32.656   8.269   0.415  1.00 20.00     0.017 C 
HETATM    2  C2  UNL     1     -32.536   7.860   1.537  1.00 20.00    -0.090 C 
HETATM    3  C3  UNL     1     -32.389   7.381   2.867  1.00 20.00     0.059 C 
HETATM    4  C4  UNL     1     -32.796   6.156   3.223  1.00 20.00    -0.022 C 
HETATM    5  C5  UNL     1     -33.431   5.187   2.280  1.00 20.00     0.036 C 
ENDROOT
TORSDOF 0
ENDMDL
MODEL 6
REMARK VINA RESULT:      -3.2      8.745      9.220
REMARK  0 active torsions:
REMARK  status: ('A' for Active; 'I' for Inactive)
ROOT
HETATM    1  C1  UNL     1     -41.511   9.336   0.309  1.00 20.00     0.017 C 
HETATM    2  C2  UNL     1     -41.327   8.389  -0.405  1.00 20.00    -0.090 C 
HETATM    3  C3  UNL     1     -41.109   7.272  -1.256  1.00 20.00     0.059 C 
HETATM    4  C4  UNL     1     -41.348   6.019  -0.848  1.00 20.00    -0.022 C 
HETATM    5  C5  UNL     1     -41.857   5.674   0.512  1.00 20.00     0.036 C 
ENDROOT
TORSDOF 0
ENDMDL
MODEL 7
REMARK VINA RESULT:      -3.2     12.117     12.915
REMARK  0 active torsions:
REMARK  status: ('A' for Active; 'I' for Inactive)
ROOT
HETATM    1  C1  UNL     1     -35.029  16.636  -1.408  1.00 20.00     0.017 C 
HETATM    2  C2  UNL     1     -34.258  16.315  -2.270  1.00 20.00    -0.090 C 
HETATM    3  C3  UNL     1     -33.342  15.943  -3.291  1.00 20.00     0.059 C 
HETATM    4  C4  UNL     1     -33.561  14.884  -4.081  1.00 20.00    -0.022 C 
HETATM    5  C5  UNL     1     -34.764  14.006  -3.975  1.00 20.00     0.036 C 
ENDROOT
TORSDOF 0
ENDMDL
MODEL 8
REMARK VINA RESULT:      -3.1      2.567      3.939
REMARK  0 active torsions:
REMARK  status: ('A' for Active; 'I' for Inactive)
ROOT
HETATM    1  C1  UNL     1     -33.545   4.904   2.447  1.00 20.00     0.017 C 
HETATM    2  C2  UNL     1     -32.972   5.938   2.655  1.00 20.00    -0.090 C 
HETATM    3  C3  UNL     1     -32.294   7.160   2.909  1.00 20.00     0.059 C 
HETATM    4  C4  UNL     1     -32.215   8.127   1.985  1.00 20.00    -0.022 C 
HETATM    5  C5  UNL     1     -32.819   8.022   0.624  1.00 20.00     0.036 C 
ENDROOT
TORSDOF 0
ENDMDL
MODEL 9
REMARK VINA RESULT:      -3.1      8.627      9.080
REMARK  0 active torsions:
REMARK  status: ('A' for Active; 'I' for Inactive)
ROOT
HETATM    1  C1  UNL     1     -41.554   9.142   0.332  1.00 20.00     0.017 C 
HETATM    2  C2  UNL     1     -41.427   7.950   0.278  1.00 20.00    -0.090 C 
HETATM    3  C3  UNL     1     -41.273   6.539   0.208  1.00 20.00     0.059 C 
HETATM    4  C4  UNL     1     -42.179   5.705   0.734  1.00 20.00    -0.022 C 
HETATM    5  C5  UNL     1     -43.417   6.160   1.432  1.00 20.00     0.036 C 
ENDROOT
TORSDOF 0
ENDMDL
