MODEL 1
REMARK VINA RESULT:      -4.8      0.000      0.000
REMARK  2 active torsions:
REMARK  status: ('A' for Active; 'I' for Inactive)
REMARK    1  A    between atoms: C1_1  and  C3_3 
REMARK    2  A    between atoms: C2_2  and  C8_8 
ROOT
HETATM    1  C4  UNL     1     -32.422  17.766  -1.583  1.00 20.00     0.011 C 
HETATM    2  C5  UNL     1     -33.293  17.009  -2.584  1.00 20.00     0.010 C 
HETATM    3  C6  UNL     1     -33.187  18.826  -0.805  1.00 20.00     0.074 C 
HETATM    4  C7  UNL     1     -35.394  17.214  -1.161  1.00 20.00     0.082 C 
HETATM    5  C8  UNL     1     -34.461  16.265  -1.920  1.00 20.00     0.017 C 
HETATM    6  S11 UNL     1     -34.532  18.099   0.172  1.00 20.00    -0.168 SA
ENDROOT
BRANCH   5   7
HETATM    7  C2  UNL     1     -35.240  15.503  -2.955  1.00 20.00    -0.018 C 
HETATM    8  C1  UNL     1     -34.714  14.520  -3.696  1.00 20.00     0.046 C 
BRANCH   8   9
HETATM    9  C3  UNL     1     -35.542  13.805  -4.706  1.00 20.00     0.145 C 
HETATM   10  C9  UNL     1     -35.917  14.575  -5.946  1.00 20.00     0.096 C 
HETATM   11  O10 UNL     1     -35.918  12.646  -4.543  1.00 20.00    -0.294 OA
ENDBRANCH   8   9
ENDBRANCH   5   7
TORSDOF 2
ENDMDL
MODEL 2
REMARK VINA RESULT:      -4.6      1.250      1.788
REMARK  2 active torsions:
REMARK  status: ('A' for Active; 'I' for Inactive)
REMARK    1  A    between atoms: C1_1  and  C3_3 
REMARK    2  A    between atoms: C2_2  and  C8_8 
ROOT
HETATM    1  C4  UNL     1     -34.338  18.300   0.148  1.00 20.00     0.011 C 
HETATM    2  C5  UNL     1     -34.912  17.054  -0.525  1.00 20.00     0.010 C 
HETATM    3  C6  UNL     1     -32.826  18.410   0.013  1.00 20.00     0.074 C 
HETATM    4  C7  UNL     1     -33.132  17.016  -2.344  1.00 20.00     0.082 C 
HETATM    5  C8  UNL     1     -34.633  17.006  -2.034  1.00 20.00     0.017 C 
HETATM    6  S11 UNL     1     -32.315  18.516  -1.724  1.00 20.00    -0.168 SA
ENDROOT
BRANCH   5   7
HETATM    7  C2  UNL     1     -35.270  15.786  -2.637  1.00 20.00    -0.018 C 
HETATM    8  C1  UNL     1     -34.636  14.966  -3.484  1.00 20.00     0.046 C 
BRANCH   8   9
HETATM    9  C3  UNL     1     -35.327  13.774  -4.047  1.00 20.00     0.145 C 
HETATM   10  C9  UNL     1     -36.619  14.021  -4.782  1.00 20.00     0.096 C 
HETATM   11  O10 UNL     1     -34.882  12.636  -3.916  1.00 20.00    -0.294 OA
ENDBRANCH   8   9
ENDBRANCH   5   7
TORSDOF 2
ENDMDL
MODEL 3
REMARK VINA RESULT:      -4.5      3.427      5.606
REMARK  2 active torsions:
REMARK  status: ('A' for Active; 'I' for Inactive)
REMARK    1  A    between atoms: C1_1  and  C3_3 
REMARK    2  A    between atoms: C2_2  and  C8_8 
ROOT
HETATM    1  C4  UNL     1     -35.876  13.782  -4.524  1.00 20.00     0.011 C 
HETATM    2  C5  UNL     1     -35.434  14.742  -3.420  1.00 20.00     0.010 C 
HETATM    3  C6  UNL     1     -36.002  14.451  -5.884  1.00 20.00     0.074 C 
HETATM    4  C7  UNL     1     -34.044  16.176  -4.998  1.00 20.00     0.082 C 
HETATM    5  C8  UNL     1     -34.062  15.376  -3.691  1.00 20.00     0.017 C 
HETATM    6  S11 UNL     1     -34.417  15.138  -6.442  1.00 20.00    -0.168 SA
ENDROOT
BRANCH   5   7
HETATM    7  C2  UNL     1     -33.669  16.264  -2.544  1.00 20.00    -0.018 C 
HETATM    8  C1  UNL     1     -32.849  17.314  -2.673  1.00 20.00     0.046 C 
BRANCH   8   9
HETATM    9  C3  UNL     1     -32.499  18.153  -1.494  1.00 20.00     0.145 C 
HETATM   10  C9  UNL     1     -33.474  18.152  -0.345  1.00 20.00     0.096 C 
HETATM   11  O10 UNL     1     -31.472  18.827  -1.452  1.00 20.00    -0.294 OA
ENDBRANCH   8   9
ENDBRANCH   5   7
TORSDOF 2
ENDMDL
MODEL 4
REMARK VINA RESULT:      -4.4      3.253      5.579
REMARK  2 active torsions:
REMARK  status: ('A' for Active; 'I' for Inactive)
REMARK    1  A    between atoms: C1_1  and  C3_3 
REMARK    2  A    between atoms: C2_2  and  C8_8 
ROOT
HETATM    1  C4  UNL     1     -35.930  13.787  -4.500  1.00 20.00     0.011 C 
HETATM    2  C5  UNL     1     -35.636  14.769  -3.367  1.00 20.00     0.010 C 
HETATM    3  C6  UNL     1     -35.900  14.436  -5.877  1.00 20.00     0.074 C 
HETATM    4  C7  UNL     1     -34.084  16.201  -4.789  1.00 20.00     0.082 C 
HETATM    5  C8  UNL     1     -34.249  15.418  -3.481  1.00 20.00     0.017 C 
HETATM    6  S11 UNL     1     -34.268  15.137  -6.251  1.00 20.00    -0.168 SA
ENDROOT
BRANCH   5   7
HETATM    7  C2  UNL     1     -34.008  16.327  -2.309  1.00 20.00    -0.018 C 
HETATM    8  C1  UNL     1     -33.005  17.212  -2.258  1.00 20.00     0.046 C 
BRANCH   8   9
HETATM    9  C3  UNL     1     -32.821  18.083  -1.064  1.00 20.00     0.145 C 
HETATM   10  C9  UNL     1     -31.403  18.348  -0.629  1.00 20.00     0.096 C 
HETATM   11  O10 UNL     1     -33.772  18.557  -0.446  1.00 20.00    -0.294 OA
ENDBRANCH   8   9
ENDBRANCH   5   7
TORSDOF 2
ENDMDL
MODEL 5
REMARK VINA RESULT:      -4.3      3.151      5.377
REMARK  2 active torsions:
REMARK  status: ('A' for Active; 'I' for Inactive)
REMARK    1  A    between atoms: C1_1  and  C3_3 
REMARK    2  A    between atoms: C2_2  and  C8_8 
ROOT
HETATM    1  C4  UNL     1     -36.056  13.744  -4.824  1.00 20.00     0.011 C 
HETATM    2  C5  UNL     1     -35.820  14.663  -3.627  1.00 20.00     0.010 C 
HETATM    3  C6  UNL     1     -35.884  14.448  -6.162  1.00 20.00     0.074 C 
HETATM    4  C7  UNL     1     -34.098  16.085  -4.848  1.00 20.00     0.082 C 
HETATM    5  C8  UNL     1     -34.404  15.257  -3.596  1.00 20.00     0.017 C 
HETATM    6  S11 UNL     1     -34.201  15.093  -6.368  1.00 20.00    -0.168 SA
ENDROOT
BRANCH   5   7
HETATM    7  C2  UNL     1     -34.227  16.104  -2.368  1.00 20.00    -0.018 C 
HETATM    8  C1  UNL     1     -35.230  16.416  -1.538  1.00 20.00     0.046 C 
BRANCH   8   9
HETATM    9  C3  UNL     1     -34.987  17.262  -0.337  1.00 20.00     0.145 C 
HETATM   10  C9  UNL     1     -33.837  18.232  -0.411  1.00 20.00     0.096 C 
HETATM   11  O10 UNL     1     -35.676  17.174   0.677  1.00 20.00    -0.294 OA
ENDBRANCH   8   9
ENDBRANCH   5   7
TORSDOF 2
ENDMDL
MODEL 6
REMARK VINA RESULT:      -4.3      3.253      5.396
REMARK  2 active torsions:
REMARK  status: ('A' for Active; 'I' for Inactive)
REMARK    1  A    between atoms: C1_1  and  C3_3 
REMARK    2  A    between atoms: C2_2  and  C8_8 
ROOT
HETATM    1  C4  UNL     1     -35.101  14.670  -4.141  1.00 20.00     0.011 C 
HETATM    2  C5  UNL     1     -34.335  15.284  -2.971  1.00 20.00     0.010 C 
HETATM    3  C6  UNL     1     -36.611  14.777  -3.990  1.00 20.00     0.074 C 
HETATM    4  C7  UNL     1     -36.106  17.058  -2.529  1.00 20.00     0.082 C 
HETATM    5  C8  UNL     1     -34.621  16.781  -2.787  1.00 20.00     0.017 C 
HETATM    6  S11 UNL     1     -37.155  16.506  -3.907  1.00 20.00    -0.168 SA
ENDROOT
BRANCH   5   7
HETATM    7  C2  UNL     1     -33.796  17.329  -1.657  1.00 20.00    -0.018 C 
HETATM    8  C1  UNL     1     -32.554  17.802  -1.814  1.00 20.00     0.046 C 
BRANCH   8   9
HETATM    9  C3  UNL     1     -31.789  18.329  -0.650  1.00 20.00     0.145 C 
HETATM   10  C9  UNL     1     -32.591  18.779   0.543  1.00 20.00     0.096 C 
HETATM   11  O10 UNL     1     -30.562  18.411  -0.655  1.00 20.00    -0.294 OA
ENDBRANCH   8   9
ENDBRANCH   5   7
TORSDOF 2
ENDMDL
MODEL 7
REMARK VINA RESULT:      -4.2     11.846     13.435
REMARK  2 active torsions:
REMARK  status: ('A' for Active; 'I' for Inactive)
REMARK    1  A    between atoms: C1_1  and  C3_3 
REMARK    2  A    between atoms: C2_2  and  C8_8 
ROOT
HETATM    1  C4  UNL     1     -40.900   6.828   0.222  1.00 20.00     0.011 C 
HETATM    2  C5  UNL     1     -41.203   5.693  -0.756  1.00 20.00     0.010 C 
HETATM    3  C6  UNL     1     -41.438   8.175  -0.239  1.00 20.00     0.074 C 
HETATM    4  C7  UNL     1     -43.394   6.729  -1.534  1.00 20.00     0.082 C 
HETATM    5  C8  UNL     1     -42.707   5.478  -0.976  1.00 20.00     0.017 C 
HETATM    6  S11 UNL     1     -43.244   8.150  -0.412  1.00 20.00    -0.168 SA
ENDROOT
BRANCH   5   7
HETATM    7  C2  UNL     1     -42.930   4.316  -1.904  1.00 20.00    -0.018 C 
HETATM    8  C1  UNL     1     -41.937   3.676  -2.533  1.00 20.00     0.046 C 
BRANCH   8   9
HETATM    9  C3  UNL     1     -42.227   2.532  -3.441  1.00 20.00     0.145 C 
HETATM   10  C9  UNL     1     -41.919   2.729  -4.903  1.00 20.00     0.096 C 
HETATM   11  O10 UNL     1     -42.707   1.477  -3.033  1.00 20.00    -0.294 OA
ENDBRANCH   8   9
ENDBRANCH   5   7
TORSDOF 2
ENDMDL
MODEL 8
REMARK VINA RESULT:      -4.0      1.422      2.118
REMARK  2 active torsions:
REMARK  status: ('A' for Active; 'I' for Inactive)
REMARK    1  A    between atoms: C1_1  and  C3_3 
REMARK    2  A    between atoms: C2_2  and  C8_8 
ROOT
HETATM    1  C4  UNL     1     -35.277  17.917   0.573  1.00 20.00     0.011 C 
HETATM    2  C5  UNL     1     -35.154  16.988  -0.634  1.00 20.00     0.010 C 
HETATM    3  C6  UNL     1     -33.932  18.310   1.165  1.00 20.00     0.074 C 
HETATM    4  C7  UNL     1     -32.935  17.985  -1.383  1.00 20.00     0.082 C 
HETATM    5  C8  UNL     1     -34.364  17.612  -1.793  1.00 20.00     0.017 C 
HETATM    6  S11 UNL     1     -32.906  19.204  -0.035  1.00 20.00    -0.168 SA
ENDROOT
BRANCH   5   7
HETATM    7  C2  UNL     1     -34.329  16.666  -2.960  1.00 20.00    -0.018 C 
HETATM    8  C1  UNL     1     -34.472  15.341  -2.839  1.00 20.00     0.046 C 
BRANCH   8   9
HETATM    9  C3  UNL     1     -34.426  14.459  -4.038  1.00 20.00     0.145 C 
HETATM   10  C9  UNL     1     -34.027  15.103  -5.340  1.00 20.00     0.096 C 
HETATM   11  O10 UNL     1     -34.710  13.264  -3.983  1.00 20.00    -0.294 OA
ENDBRANCH   8   9
ENDBRANCH   5   7
TORSDOF 2
ENDMDL
MODEL 9
REMARK VINA RESULT:      -4.0      1.433      1.512
REMARK  2 active torsions:
REMARK  status: ('A' for Active; 'I' for Inactive)
REMARK    1  A    between atoms: C1_1  and  C3_3 
REMARK    2  A    between atoms: C2_2  and  C8_8 
ROOT
HETATM    1  C4  UNL     1     -32.569  17.722  -2.467  1.00 20.00     0.011 C 
HETATM    2  C5  UNL     1     -33.566  16.833  -3.207  1.00 20.00     0.010 C 
HETATM    3  C6  UNL     1     -33.238  18.756  -1.573  1.00 20.00     0.074 C 
HETATM    4  C7  UNL     1     -35.295  16.937  -1.342  1.00 20.00     0.082 C 
HETATM    5  C8  UNL     1     -34.471  16.030  -2.261  1.00 20.00     0.017 C 
HETATM    6  S11 UNL     1     -34.244  17.974  -0.282  1.00 20.00    -0.168 SA
ENDROOT
BRANCH   5   7
HETATM    7  C2  UNL     1     -35.386  15.140  -3.055  1.00 20.00    -0.018 C 
HETATM    8  C1  UNL     1     -36.620  15.500  -3.429  1.00 20.00     0.046 C 
BRANCH   8   9
HETATM    9  C3  UNL     1     -37.477  14.569  -4.214  1.00 20.00     0.145 C 
HETATM   10  C9  UNL     1     -38.895  15.007  -4.474  1.00 20.00     0.096 C 
HETATM   11  O10 UNL     1     -37.063  13.487  -4.625  1.00 20.00    -0.294 OA
ENDBRANCH   8   9
ENDBRANCH   5   7
TORSDOF 2
ENDMDL
