MODEL 1
REMARK VINA RESULT:      -4.4      0.000      0.000
REMARK  2 active torsions:
REMARK  status: ('A' for Active; 'I' for Inactive)
REMARK    1  A    between atoms: C6_6  and  C8_8 
REMARK    2  A    between atoms: C7_7  and  C9_9 
ROOT
HETATM    1  C1  UNL     1     -24.553  18.631   8.973  1.00 20.00     0.132 C 
HETATM    2  C2  UNL     1     -23.233  18.148   8.082  1.00 20.00     0.084 C 
HETATM    3  C6  UNL     1     -23.874  17.892  10.132  1.00 20.00     0.064 C 
HETATM    4  C7  UNL     1     -22.551  18.471   9.460  1.00 20.00     0.008 C 
HETATM    5  O10 UNL     1     -25.567  19.263   8.818  1.00 20.00    -0.298 OA
ENDROOT
BRANCH   3   6
HETATM    6  C8  UNL     1     -23.565  18.134  11.608  1.00 20.00    -0.003 C 
HETATM    7  C3  UNL     1     -24.974  18.255  12.248  1.00 20.00     0.006 C 
HETATM    8  C4  UNL     1     -25.559  16.842  11.993  1.00 20.00     0.005 C 
HETATM    9  C9  UNL     1     -24.335  16.023  11.544  1.00 20.00    -0.009 C 
HETATM   10  C5  UNL     1     -23.171  16.785  12.220  1.00 20.00     0.010 C 
ENDBRANCH   3   6
TORSDOF 2
ENDMDL
MODEL 2
REMARK VINA RESULT:      -4.2     23.340     24.255
REMARK  2 active torsions:
REMARK  status: ('A' for Active; 'I' for Inactive)
REMARK    1  A    between atoms: C6_6  and  C8_8 
REMARK    2  A    between atoms: C7_7  and  C9_9 
ROOT
HETATM    1  C1  UNL     1     -41.615   5.021  -1.381  1.00 20.00     0.132 C 
HETATM    2  C2  UNL     1     -43.074   4.366  -1.843  1.00 20.00     0.084 C 
HETATM    3  C6  UNL     1     -42.467   6.072  -0.661  1.00 20.00     0.064 C 
HETATM    4  C7  UNL     1     -43.411   4.821  -0.378  1.00 20.00     0.008 C 
HETATM    5  O10 UNL     1     -40.439   4.799  -1.520  1.00 20.00    -0.298 OA
ENDROOT
BRANCH   3   6
HETATM    6  C8  UNL     1     -42.507   6.765   0.700  1.00 20.00    -0.003 C 
HETATM    7  C3  UNL     1     -41.148   7.513   0.755  1.00 20.00     0.006 C 
HETATM    8  C4  UNL     1     -41.293   8.515  -0.419  1.00 20.00     0.005 C 
HETATM    9  C9  UNL     1     -42.788   8.436  -0.777  1.00 20.00    -0.009 C 
HETATM   10  C5  UNL     1     -43.417   7.990   0.565  1.00 20.00     0.010 C 
ENDBRANCH   3   6
TORSDOF 2
ENDMDL
MODEL 3
REMARK VINA RESULT:      -4.2     16.863     18.354
REMARK  2 active torsions:
REMARK  status: ('A' for Active; 'I' for Inactive)
REMARK    1  A    between atoms: C6_6  and  C8_8 
REMARK    2  A    between atoms: C7_7  and  C9_9 
ROOT
HETATM    1  C1  UNL     1     -34.596  14.763  -5.650  1.00 20.00     0.132 C 
HETATM    2  C2  UNL     1     -36.170  14.222  -5.674  1.00 20.00     0.084 C 
HETATM    3  C6  UNL     1     -34.959  15.349  -4.281  1.00 20.00     0.064 C 
HETATM    4  C7  UNL     1     -35.812  14.010  -4.159  1.00 20.00     0.008 C 
HETATM    5  O10 UNL     1     -33.616  14.726  -6.350  1.00 20.00    -0.298 OA
ENDROOT
BRANCH   3   6
HETATM    6  C8  UNL     1     -34.354  15.422  -2.880  1.00 20.00    -0.003 C 
HETATM    7  C3  UNL     1     -33.087  16.295  -3.087  1.00 20.00     0.006 C 
HETATM    8  C4  UNL     1     -33.706  17.646  -3.532  1.00 20.00     0.005 C 
HETATM    9  C9  UNL     1     -35.204  17.474  -3.221  1.00 20.00    -0.009 C 
HETATM   10  C5  UNL     1     -35.179  16.433  -2.076  1.00 20.00     0.010 C 
ENDBRANCH   3   6
TORSDOF 2
ENDMDL
MODEL 4
REMARK VINA RESULT:      -4.0     17.603     19.062
REMARK  2 active torsions:
REMARK  status: ('A' for Active; 'I' for Inactive)
REMARK    1  A    between atoms: C6_6  and  C8_8 
REMARK    2  A    between atoms: C7_7  and  C9_9 
ROOT
HETATM    1  C1  UNL     1     -36.308  15.771  -6.031  1.00 20.00     0.132 C 
HETATM    2  C2  UNL     1     -36.962  17.280  -5.769  1.00 20.00     0.084 C 
HETATM    3  C6  UNL     1     -35.662  15.959  -4.653  1.00 20.00     0.064 C 
HETATM    4  C7  UNL     1     -37.049  16.669  -4.324  1.00 20.00     0.008 C 
HETATM    5  O10 UNL     1     -36.319  14.915  -6.878  1.00 20.00    -0.298 OA
ENDROOT
BRANCH   3   6
HETATM    6  C8  UNL     1     -35.456  15.147  -3.375  1.00 20.00    -0.003 C 
HETATM    7  C3  UNL     1     -34.567  13.965  -3.848  1.00 20.00     0.006 C 
HETATM    8  C4  UNL     1     -33.276  14.700  -4.294  1.00 20.00     0.005 C 
HETATM    9  C9  UNL     1     -33.463  16.124  -3.737  1.00 20.00    -0.009 C 
HETATM   10  C5  UNL     1     -34.404  15.878  -2.533  1.00 20.00     0.010 C 
ENDBRANCH   3   6
TORSDOF 2
ENDMDL
MODEL 5
REMARK VINA RESULT:      -4.0     13.629     15.371
REMARK  2 active torsions:
REMARK  status: ('A' for Active; 'I' for Inactive)
REMARK    1  A    between atoms: C6_6  and  C8_8 
REMARK    2  A    between atoms: C7_7  and  C9_9 
ROOT
HETATM    1  C1  UNL     1     -31.791  18.321  -0.351  1.00 20.00     0.132 C 
HETATM    2  C2  UNL     1     -32.708  18.487   1.028  1.00 20.00     0.084 C 
HETATM    3  C6  UNL     1     -33.129  18.036  -1.045  1.00 20.00     0.064 C 
HETATM    4  C7  UNL     1     -33.659  19.147  -0.034  1.00 20.00     0.008 C 
HETATM    5  O10 UNL     1     -30.635  18.390  -0.683  1.00 20.00    -0.298 OA
ENDROOT
BRANCH   3   6
HETATM    6  C8  UNL     1     -33.857  18.452  -2.322  1.00 20.00    -0.003 C 
HETATM    7  C3  UNL     1     -32.995  17.813  -3.444  1.00 20.00     0.006 C 
HETATM    8  C4  UNL     1     -33.154  16.301  -3.141  1.00 20.00     0.005 C 
HETATM    9  C9  UNL     1     -34.305  16.258  -2.120  1.00 20.00    -0.009 C 
HETATM   10  C5  UNL     1     -35.088  17.549  -2.461  1.00 20.00     0.010 C 
ENDBRANCH   3   6
TORSDOF 2
ENDMDL
MODEL 6
REMARK VINA RESULT:      -4.0     17.511     18.952
REMARK  2 active torsions:
REMARK  status: ('A' for Active; 'I' for Inactive)
REMARK    1  A    between atoms: C6_6  and  C8_8 
REMARK    2  A    between atoms: C7_7  and  C9_9 
ROOT
HETATM    1  C1  UNL     1     -35.084  14.759  -6.318  1.00 20.00     0.132 C 
HETATM    2  C2  UNL     1     -34.000  15.241  -7.485  1.00 20.00     0.084 C 
HETATM    3  C6  UNL     1     -34.475  15.886  -5.476  1.00 20.00     0.064 C 
HETATM    4  C7  UNL     1     -34.416  16.631  -6.882  1.00 20.00     0.008 C 
HETATM    5  O10 UNL     1     -35.949  13.932  -6.173  1.00 20.00    -0.298 OA
ENDROOT
BRANCH   3   6
HETATM    6  C8  UNL     1     -34.961  17.023  -4.579  1.00 20.00    -0.003 C 
HETATM    7  C3  UNL     1     -35.734  16.281  -3.455  1.00 20.00     0.006 C 
HETATM    8  C4  UNL     1     -34.605  15.449  -2.793  1.00 20.00     0.005 C 
HETATM    9  C9  UNL     1     -33.319  16.047  -3.393  1.00 20.00    -0.009 C 
HETATM   10  C5  UNL     1     -33.764  17.487  -3.740  1.00 20.00     0.010 C 
ENDBRANCH   3   6
TORSDOF 2
ENDMDL
MODEL 7
REMARK VINA RESULT:      -4.0     17.444     18.915
REMARK  2 active torsions:
REMARK  status: ('A' for Active; 'I' for Inactive)
REMARK    1  A    between atoms: C6_6  and  C8_8 
REMARK    2  A    between atoms: C7_7  and  C9_9 
ROOT
HETATM    1  C1  UNL     1     -35.796  13.914  -5.070  1.00 20.00     0.132 C 
HETATM    2  C2  UNL     1     -35.891  14.547  -6.607  1.00 20.00     0.084 C 
HETATM    3  C6  UNL     1     -35.489  15.353  -4.640  1.00 20.00     0.064 C 
HETATM    4  C7  UNL     1     -36.550  15.705  -5.774  1.00 20.00     0.008 C 
HETATM    5  O10 UNL     1     -35.914  12.848  -4.522  1.00 20.00    -0.298 OA
ENDROOT
BRANCH   3   6
HETATM    6  C8  UNL     1     -35.918  16.328  -3.545  1.00 20.00    -0.003 C 
HETATM    7  C3  UNL     1     -35.139  15.826  -2.300  1.00 20.00     0.006 C 
HETATM    8  C4  UNL     1     -33.668  16.044  -2.739  1.00 20.00     0.005 C 
HETATM    9  C9  UNL     1     -33.796  16.912  -4.004  1.00 20.00    -0.009 C 
HETATM   10  C5  UNL     1     -35.144  17.633  -3.766  1.00 20.00     0.010 C 
ENDBRANCH   3   6
TORSDOF 2
ENDMDL
MODEL 8
REMARK VINA RESULT:      -4.0     17.278     18.792
REMARK  2 active torsions:
REMARK  status: ('A' for Active; 'I' for Inactive)
REMARK    1  A    between atoms: C6_6  and  C8_8 
REMARK    2  A    between atoms: C7_7  and  C9_9 
ROOT
HETATM    1  C1  UNL     1     -34.608  15.995  -2.543  1.00 20.00     0.132 C 
HETATM    2  C2  UNL     1     -33.110  16.391  -3.150  1.00 20.00     0.084 C 
HETATM    3  C6  UNL     1     -34.897  15.478  -3.957  1.00 20.00     0.064 C 
HETATM    4  C7  UNL     1     -33.371  15.028  -3.887  1.00 20.00     0.008 C 
HETATM    5  O10 UNL     1     -35.207  16.062  -1.500  1.00 20.00    -0.298 OA
ENDROOT
BRANCH   3   6
HETATM    6  C8  UNL     1     -35.521  14.247  -4.610  1.00 20.00    -0.003 C 
HETATM    7  C3  UNL     1     -37.011  14.338  -4.185  1.00 20.00     0.006 C 
HETATM    8  C4  UNL     1     -37.454  15.656  -4.871  1.00 20.00     0.005 C 
HETATM    9  C9  UNL     1     -36.292  15.969  -5.831  1.00 20.00    -0.009 C 
HETATM   10  C5  UNL     1     -35.706  14.562  -6.099  1.00 20.00     0.010 C 
ENDBRANCH   3   6
TORSDOF 2
ENDMDL
MODEL 9
REMARK VINA RESULT:      -3.9     16.084     17.664
REMARK  2 active torsions:
REMARK  status: ('A' for Active; 'I' for Inactive)
REMARK    1  A    between atoms: C6_6  and  C8_8 
REMARK    2  A    between atoms: C7_7  and  C9_9 
ROOT
HETATM    1  C1  UNL     1     -33.228  17.770  -3.474  1.00 20.00     0.132 C 
HETATM    2  C2  UNL     1     -32.784  17.561  -1.884  1.00 20.00     0.084 C 
HETATM    3  C6  UNL     1     -33.783  16.345  -3.367  1.00 20.00     0.064 C 
HETATM    4  C7  UNL     1     -34.170  16.822  -1.898  1.00 20.00     0.008 C 
HETATM    5  O10 UNL     1     -33.166  18.619  -4.326  1.00 20.00    -0.298 OA
ENDROOT
BRANCH   3   6
HETATM    6  C8  UNL     1     -35.051  15.587  -3.757  1.00 20.00    -0.003 C 
HETATM    7  C3  UNL     1     -35.128  15.796  -5.294  1.00 20.00     0.006 C 
HETATM    8  C4  UNL     1     -33.841  15.076  -5.774  1.00 20.00     0.005 C 
HETATM    9  C9  UNL     1     -33.378  14.298  -4.529  1.00 20.00    -0.009 C 
HETATM   10  C5  UNL     1     -34.708  14.093  -3.764  1.00 20.00     0.010 C 
ENDBRANCH   3   6
TORSDOF 2
ENDMDL
