MODEL 1
REMARK VINA RESULT:      -3.9      0.000      0.000
REMARK  2 active torsions:
REMARK  status: ('A' for Active; 'I' for Inactive)
REMARK    1  A    between atoms: C6_6  and  O11_11 
REMARK    2  A    between atoms: C9_9  and  O11_11 
ROOT
HETATM    1  C1  UNL     1     -33.000  14.677  -4.315  1.00 20.00     0.002 C 
HETATM    2  C2  UNL     1     -34.001  15.369  -3.355  1.00 20.00     0.015 C 
HETATM    3  C3  UNL     1     -34.010  14.924  -5.465  1.00 20.00     0.015 C 
HETATM    4  C4  UNL     1     -37.120  14.879  -4.846  1.00 20.00     0.069 C 
HETATM    5  C5  UNL     1     -36.095  13.998  -4.078  1.00 20.00     0.173 C 
HETATM    6  C6  UNL     1     -36.171  16.094  -4.622  1.00 20.00     0.135 C 
HETATM    7  C7  UNL     1     -35.070  15.072  -4.387  1.00 20.00     0.015 C 
HETATM    8  O10 UNL     1     -35.901  12.746  -4.676  1.00 20.00    -0.234 OA
ENDROOT
BRANCH   6   9
HETATM    9  O11 UNL     1     -36.519  16.940  -3.506  1.00 20.00    -0.385 OA
BRANCH   9  10
HETATM   10  C9  UNL     1     -36.631  18.290  -3.913  1.00 20.00     0.163 C 
HETATM   11  C8  UNL     1     -35.285  18.767  -4.415  1.00 20.00     0.033 C 
ENDBRANCH   9  10
ENDBRANCH   6   9
TORSDOF 2
ENDMDL
MODEL 2
REMARK VINA RESULT:      -3.9      2.005      3.167
REMARK  2 active torsions:
REMARK  status: ('A' for Active; 'I' for Inactive)
REMARK    1  A    between atoms: C6_6  and  O11_11 
REMARK    2  A    between atoms: C9_9  and  O11_11 
ROOT
HETATM    1  C1  UNL     1     -37.576  14.456  -4.301  1.00 20.00     0.002 C 
HETATM    2  C2  UNL     1     -36.703  15.737  -4.292  1.00 20.00     0.015 C 
HETATM    3  C3  UNL     1     -36.300  13.648  -4.648  1.00 20.00     0.015 C 
HETATM    4  C4  UNL     1     -34.039  14.988  -6.422  1.00 20.00     0.069 C 
HETATM    5  C5  UNL     1     -35.548  15.319  -6.590  1.00 20.00     0.173 C 
HETATM    6  C6  UNL     1     -34.217  15.182  -4.887  1.00 20.00     0.135 C 
HETATM    7  C7  UNL     1     -35.702  14.960  -5.124  1.00 20.00     0.015 C 
HETATM    8  O10 UNL     1     -36.186  14.484  -7.517  1.00 20.00    -0.234 OA
ENDROOT
BRANCH   6   9
HETATM    9  O11 UNL     1     -33.827  16.478  -4.387  1.00 20.00    -0.385 OA
BRANCH   9  10
HETATM   10  C9  UNL     1     -33.108  16.355  -3.175  1.00 20.00     0.163 C 
HETATM   11  C8  UNL     1     -34.006  16.764  -2.026  1.00 20.00     0.033 C 
ENDBRANCH   9  10
ENDBRANCH   6   9
TORSDOF 2
ENDMDL
MODEL 3
REMARK VINA RESULT:      -3.9      1.734      2.025
REMARK  2 active torsions:
REMARK  status: ('A' for Active; 'I' for Inactive)
REMARK    1  A    between atoms: C6_6  and  O11_11 
REMARK    2  A    between atoms: C9_9  and  O11_11 
ROOT
HETATM    1  C1  UNL     1     -34.651  15.510  -2.554  1.00 20.00     0.002 C 
HETATM    2  C2  UNL     1     -35.810  16.138  -3.370  1.00 20.00     0.015 C 
HETATM    3  C3  UNL     1     -33.991  15.106  -3.897  1.00 20.00     0.015 C 
HETATM    4  C4  UNL     1     -35.824  14.357  -6.373  1.00 20.00     0.069 C 
HETATM    5  C5  UNL     1     -36.239  14.075  -4.902  1.00 20.00     0.173 C 
HETATM    6  C6  UNL     1     -35.441  15.802  -5.937  1.00 20.00     0.135 C 
HETATM    7  C7  UNL     1     -35.367  15.256  -4.521  1.00 20.00     0.015 C 
HETATM    8  O10 UNL     1     -35.826  12.812  -4.456  1.00 20.00    -0.234 OA
ENDROOT
BRANCH   6   9
HETATM    9  O11 UNL     1     -36.447  16.803  -6.195  1.00 20.00    -0.385 OA
BRANCH   9  10
HETATM   10  C9  UNL     1     -35.897  17.902  -6.896  1.00 20.00     0.163 C 
HETATM   11  C8  UNL     1     -34.387  17.790  -6.883  1.00 20.00     0.033 C 
ENDBRANCH   9  10
ENDBRANCH   6   9
TORSDOF 2
ENDMDL
MODEL 4
REMARK VINA RESULT:      -3.9      1.621      1.910
REMARK  2 active torsions:
REMARK  status: ('A' for Active; 'I' for Inactive)
REMARK    1  A    between atoms: C6_6  and  O11_11 
REMARK    2  A    between atoms: C9_9  and  O11_11 
ROOT
HETATM    1  C1  UNL     1     -33.557  16.434  -2.469  1.00 20.00     0.002 C 
HETATM    2  C2  UNL     1     -35.009  15.936  -2.259  1.00 20.00     0.015 C 
HETATM    3  C3  UNL     1     -33.820  16.404  -3.996  1.00 20.00     0.015 C 
HETATM    4  C4  UNL     1     -35.773  14.214  -5.199  1.00 20.00     0.069 C 
HETATM    5  C5  UNL     1     -34.886  13.956  -3.949  1.00 20.00     0.173 C 
HETATM    6  C6  UNL     1     -36.214  15.559  -4.550  1.00 20.00     0.135 C 
HETATM    7  C7  UNL     1     -34.962  15.450  -3.694  1.00 20.00     0.015 C 
HETATM    8  O10 UNL     1     -33.628  13.433  -4.275  1.00 20.00    -0.234 OA
ENDROOT
BRANCH   6   9
HETATM    9  O11 UNL     1     -37.478  15.515  -3.858  1.00 20.00    -0.385 OA
BRANCH   9  10
HETATM   10  C9  UNL     1     -38.346  16.530  -4.327  1.00 20.00     0.163 C 
HETATM   11  C8  UNL     1     -37.669  17.874  -4.160  1.00 20.00     0.033 C 
ENDBRANCH   9  10
ENDBRANCH   6   9
TORSDOF 2
ENDMDL
MODEL 5
REMARK VINA RESULT:      -3.9      1.957      2.678
REMARK  2 active torsions:
REMARK  status: ('A' for Active; 'I' for Inactive)
REMARK    1  A    between atoms: C6_6  and  O11_11 
REMARK    2  A    between atoms: C9_9  and  O11_11 
ROOT
HETATM    1  C1  UNL     1     -35.317  14.957  -7.287  1.00 20.00     0.002 C 
HETATM    2  C2  UNL     1     -34.042  15.088  -6.415  1.00 20.00     0.015 C 
HETATM    3  C3  UNL     1     -36.135  15.484  -6.080  1.00 20.00     0.015 C 
HETATM    4  C4  UNL     1     -35.195  14.784  -3.134  1.00 20.00     0.069 C 
HETATM    5  C5  UNL     1     -34.977  13.825  -4.337  1.00 20.00     0.173 C 
HETATM    6  C6  UNL     1     -34.629  15.938  -4.013  1.00 20.00     0.135 C 
HETATM    7  C7  UNL     1     -34.962  15.065  -5.211  1.00 20.00     0.015 C 
HETATM    8  O10 UNL     1     -36.044  12.934  -4.520  1.00 20.00    -0.234 OA
ENDROOT
BRANCH   6   9
HETATM    9  O11 UNL     1     -33.235  16.239  -3.798  1.00 20.00    -0.385 OA
BRANCH   9  10
HETATM   10  C9  UNL     1     -33.064  17.589  -3.409  1.00 20.00     0.163 C 
HETATM   11  C8  UNL     1     -32.820  17.645  -1.916  1.00 20.00     0.033 C 
ENDBRANCH   9  10
ENDBRANCH   6   9
TORSDOF 2
ENDMDL
MODEL 6
REMARK VINA RESULT:      -3.8      3.198      4.595
REMARK  2 active torsions:
REMARK  status: ('A' for Active; 'I' for Inactive)
REMARK    1  A    between atoms: C6_6  and  O11_11 
REMARK    2  A    between atoms: C9_9  and  O11_11 
ROOT
HETATM    1  C1  UNL     1     -34.466  15.254  -3.104  1.00 20.00     0.002 C 
HETATM    2  C2  UNL     1     -34.755  16.412  -2.114  1.00 20.00     0.015 C 
HETATM    3  C3  UNL     1     -33.068  15.879  -3.348  1.00 20.00     0.015 C 
HETATM    4  C4  UNL     1     -32.723  19.028  -3.219  1.00 20.00     0.069 C 
HETATM    5  C5  UNL     1     -34.031  18.343  -3.706  1.00 20.00     0.173 C 
HETATM    6  C6  UNL     1     -32.735  18.069  -1.992  1.00 20.00     0.135 C 
HETATM    7  C7  UNL     1     -33.649  17.176  -2.815  1.00 20.00     0.015 C 
HETATM    8  O10 UNL     1     -34.038  18.110  -5.087  1.00 20.00    -0.234 OA
ENDROOT
BRANCH   6   9
HETATM    9  O11 UNL     1     -33.291  18.630  -0.785  1.00 20.00    -0.385 OA
BRANCH   9  10
HETATM   10  C9  UNL     1     -32.393  18.487   0.298  1.00 20.00     0.163 C 
HETATM   11  C8  UNL     1     -31.005  18.217  -0.244  1.00 20.00     0.033 C 
ENDBRANCH   9  10
ENDBRANCH   6   9
TORSDOF 2
ENDMDL
MODEL 7
REMARK VINA RESULT:      -3.7      1.882      3.192
REMARK  2 active torsions:
REMARK  status: ('A' for Active; 'I' for Inactive)
REMARK    1  A    between atoms: C6_6  and  O11_11 
REMARK    2  A    between atoms: C9_9  and  O11_11 
ROOT
HETATM    1  C1  UNL     1     -37.093  14.989  -4.538  1.00 20.00     0.002 C 
HETATM    2  C2  UNL     1     -36.353  16.319  -4.243  1.00 20.00     0.015 C 
HETATM    3  C3  UNL     1     -35.962  14.249  -3.778  1.00 20.00     0.015 C 
HETATM    4  C4  UNL     1     -33.006  15.391  -3.885  1.00 20.00     0.069 C 
HETATM    5  C5  UNL     1     -34.008  15.536  -5.064  1.00 20.00     0.173 C 
HETATM    6  C6  UNL     1     -34.133  15.887  -2.930  1.00 20.00     0.135 C 
HETATM    7  C7  UNL     1     -35.109  15.482  -4.022  1.00 20.00     0.015 C 
HETATM    8  O10 UNL     1     -33.938  14.468  -5.968  1.00 20.00    -0.234 OA
ENDROOT
BRANCH   6   9
HETATM    9  O11 UNL     1     -34.076  17.290  -2.599  1.00 20.00    -0.385 OA
BRANCH   9  10
HETATM   10  C9  UNL     1     -34.058  17.476  -1.197  1.00 20.00     0.163 C 
HETATM   11  C8  UNL     1     -35.367  16.984  -0.617  1.00 20.00     0.033 C 
ENDBRANCH   9  10
ENDBRANCH   6   9
TORSDOF 2
ENDMDL
MODEL 8
REMARK VINA RESULT:      -3.6      1.851      2.985
REMARK  2 active torsions:
REMARK  status: ('A' for Active; 'I' for Inactive)
REMARK    1  A    between atoms: C6_6  and  O11_11 
REMARK    2  A    between atoms: C9_9  and  O11_11 
ROOT
HETATM    1  C1  UNL     1     -36.225  17.270  -6.212  1.00 20.00     0.002 C 
HETATM    2  C2  UNL     1     -34.743  17.038  -5.820  1.00 20.00     0.015 C 
HETATM    3  C3  UNL     1     -36.633  16.490  -4.937  1.00 20.00     0.015 C 
HETATM    4  C4  UNL     1     -34.797  14.119  -3.906  1.00 20.00     0.069 C 
HETATM    5  C5  UNL     1     -34.948  14.473  -5.412  1.00 20.00     0.173 C 
HETATM    6  C6  UNL     1     -34.563  15.632  -3.623  1.00 20.00     0.135 C 
HETATM    7  C7  UNL     1     -35.237  15.892  -4.960  1.00 20.00     0.015 C 
HETATM    8  O10 UNL     1     -35.997  13.779  -6.029  1.00 20.00    -0.234 OA
ENDROOT
BRANCH   6   9
HETATM    9  O11 UNL     1     -33.179  16.023  -3.507  1.00 20.00    -0.385 OA
BRANCH   9  10
HETATM   10  C9  UNL     1     -33.020  17.035  -2.532  1.00 20.00     0.163 C 
HETATM   11  C8  UNL     1     -34.233  17.042  -1.626  1.00 20.00     0.033 C 
ENDBRANCH   9  10
ENDBRANCH   6   9
TORSDOF 2
ENDMDL
MODEL 9
REMARK VINA RESULT:      -3.6      1.706      3.690
REMARK  2 active torsions:
REMARK  status: ('A' for Active; 'I' for Inactive)
REMARK    1  A    between atoms: C6_6  and  O11_11 
REMARK    2  A    between atoms: C9_9  and  O11_11 
ROOT
HETATM    1  C1  UNL     1     -37.696  15.286  -4.150  1.00 20.00     0.002 C 
HETATM    2  C2  UNL     1     -36.575  14.368  -4.701  1.00 20.00     0.015 C 
HETATM    3  C3  UNL     1     -36.722  16.483  -4.304  1.00 20.00     0.015 C 
HETATM    4  C4  UNL     1     -33.612  16.026  -3.886  1.00 20.00     0.069 C 
HETATM    5  C5  UNL     1     -34.693  15.220  -3.113  1.00 20.00     0.173 C 
HETATM    6  C6  UNL     1     -34.401  15.734  -5.197  1.00 20.00     0.135 C 
HETATM    7  C7  UNL     1     -35.600  15.459  -4.305  1.00 20.00     0.015 C 
HETATM    8  O10 UNL     1     -35.061  15.827  -1.905  1.00 20.00    -0.234 OA
ENDROOT
BRANCH   6   9
HETATM    9  O11 UNL     1     -33.902  14.625  -5.973  1.00 20.00    -0.385 OA
BRANCH   9  10
HETATM   10  C9  UNL     1     -33.699  15.002  -7.321  1.00 20.00     0.163 C 
HETATM   11  C8  UNL     1     -34.348  16.350  -7.558  1.00 20.00     0.033 C 
ENDBRANCH   9  10
ENDBRANCH   6   9
TORSDOF 2
ENDMDL
