MODEL 1
REMARK VINA RESULT:      -4.4      0.000      0.000
REMARK  2 active torsions:
REMARK  status: ('A' for Active; 'I' for Inactive)
REMARK    1  A    between atoms: C6_6  and  O11_11 
REMARK    2  A    between atoms: C9_9  and  O11_11 
ROOT
HETATM    1  C1  UNL     1     -21.293  17.312   8.787  1.00 20.00     0.002 C 
HETATM    2  C2  UNL     1     -22.750  16.787   8.860  1.00 20.00     0.015 C 
HETATM    3  C3  UNL     1     -21.734  18.507   9.670  1.00 20.00     0.015 C 
HETATM    4  C4  UNL     1     -25.132  18.892   9.012  1.00 20.00     0.069 C 
HETATM    5  C5  UNL     1     -23.809  19.161   8.243  1.00 20.00     0.173 C 
HETATM    6  C6  UNL     1     -24.275  18.427  10.224  1.00 20.00     0.135 C 
HETATM    7  C7  UNL     1     -23.152  18.205   9.225  1.00 20.00     0.015 C 
HETATM    8  O10 UNL     1     -23.869  18.752   6.904  1.00 20.00    -0.234 OA
ENDROOT
BRANCH   6   9
HETATM    9  O11 UNL     1     -24.769  17.284  10.943  1.00 20.00    -0.385 OA
BRANCH   9  10
HETATM   10  C9  UNL     1     -25.100  17.628  12.274  1.00 20.00     0.163 C 
HETATM   11  C8  UNL     1     -26.553  18.047  12.329  1.00 20.00     0.033 C 
ENDBRANCH   9  10
ENDBRANCH   6   9
TORSDOF 2
ENDMDL
MODEL 2
REMARK VINA RESULT:      -4.3     17.458     18.684
REMARK  2 active torsions:
REMARK  status: ('A' for Active; 'I' for Inactive)
REMARK    1  A    between atoms: C6_6  and  O11_11 
REMARK    2  A    between atoms: C9_9  and  O11_11 
ROOT
HETATM    1  C1  UNL     1     -33.274  14.756  -4.382  1.00 20.00     0.002 C 
HETATM    2  C2  UNL     1     -34.424  14.904  -3.354  1.00 20.00     0.015 C 
HETATM    3  C3  UNL     1     -34.225  15.344  -5.456  1.00 20.00     0.015 C 
HETATM    4  C4  UNL     1     -37.426  14.532  -4.348  1.00 20.00     0.069 C 
HETATM    5  C5  UNL     1     -36.226  13.757  -4.960  1.00 20.00     0.173 C 
HETATM    6  C6  UNL     1     -36.592  15.838  -4.497  1.00 20.00     0.135 C 
HETATM    7  C7  UNL     1     -35.368  14.940  -4.544  1.00 20.00     0.015 C 
HETATM    8  O10 UNL     1     -35.982  12.539  -4.311  1.00 20.00    -0.234 OA
ENDROOT
BRANCH   6   9
HETATM    9  O11 UNL     1     -36.695  16.777  -3.412  1.00 20.00    -0.385 OA
BRANCH   9  10
HETATM   10  C9  UNL     1     -36.752  18.105  -3.897  1.00 20.00     0.163 C 
HETATM   11  C8  UNL     1     -35.344  18.649  -4.012  1.00 20.00     0.033 C 
ENDBRANCH   9  10
ENDBRANCH   6   9
TORSDOF 2
ENDMDL
MODEL 3
REMARK VINA RESULT:      -4.1     17.892     19.191
REMARK  2 active torsions:
REMARK  status: ('A' for Active; 'I' for Inactive)
REMARK    1  A    between atoms: C6_6  and  O11_11 
REMARK    2  A    between atoms: C9_9  and  O11_11 
ROOT
HETATM    1  C1  UNL     1     -34.182  15.782  -2.932  1.00 20.00     0.002 C 
HETATM    2  C2  UNL     1     -34.817  14.475  -3.474  1.00 20.00     0.015 C 
HETATM    3  C3  UNL     1     -35.182  16.573  -3.812  1.00 20.00     0.015 C 
HETATM    4  C4  UNL     1     -35.925  14.434  -6.458  1.00 20.00     0.069 C 
HETATM    5  C5  UNL     1     -34.699  15.282  -6.019  1.00 20.00     0.173 C 
HETATM    6  C6  UNL     1     -36.693  15.000  -5.230  1.00 20.00     0.135 C 
HETATM    7  C7  UNL     1     -35.329  15.309  -4.636  1.00 20.00     0.015 C 
HETATM    8  O10 UNL     1     -33.488  14.590  -6.150  1.00 20.00    -0.234 OA
ENDROOT
BRANCH   6   9
HETATM    9  O11 UNL     1     -37.534  14.067  -4.529  1.00 20.00    -0.385 OA
BRANCH   9  10
HETATM   10  C9  UNL     1     -38.777  14.657  -4.199  1.00 20.00     0.163 C 
HETATM   11  C8  UNL     1     -38.851  16.034  -4.822  1.00 20.00     0.033 C 
ENDBRANCH   9  10
ENDBRANCH   6   9
TORSDOF 2
ENDMDL
MODEL 4
REMARK VINA RESULT:      -4.1     17.714     19.138
REMARK  2 active torsions:
REMARK  status: ('A' for Active; 'I' for Inactive)
REMARK    1  A    between atoms: C6_6  and  O11_11 
REMARK    2  A    between atoms: C9_9  and  O11_11 
ROOT
HETATM    1  C1  UNL     1     -37.496  14.519  -4.368  1.00 20.00     0.002 C 
HETATM    2  C2  UNL     1     -36.765  15.809  -4.822  1.00 20.00     0.015 C 
HETATM    3  C3  UNL     1     -36.144  13.771  -4.487  1.00 20.00     0.015 C 
HETATM    4  C4  UNL     1     -34.349  15.556  -6.879  1.00 20.00     0.069 C 
HETATM    5  C5  UNL     1     -35.574  14.600  -6.887  1.00 20.00     0.173 C 
HETATM    6  C6  UNL     1     -34.241  15.324  -5.345  1.00 20.00     0.135 C 
HETATM    7  C7  UNL     1     -35.697  14.896  -5.401  1.00 20.00     0.015 C 
HETATM    8  O10 UNL     1     -36.611  15.057  -7.711  1.00 20.00    -0.234 OA
ENDROOT
BRANCH   6   9
HETATM    9  O11 UNL     1     -33.911  16.480  -4.555  1.00 20.00    -0.385 OA
BRANCH   9  10
HETATM   10  C9  UNL     1     -33.247  16.105  -3.363  1.00 20.00     0.163 C 
HETATM   11  C8  UNL     1     -34.203  16.251  -2.199  1.00 20.00     0.033 C 
ENDBRANCH   9  10
ENDBRANCH   6   9
TORSDOF 2
ENDMDL
MODEL 5
REMARK VINA RESULT:      -4.0     17.165     18.599
REMARK  2 active torsions:
REMARK  status: ('A' for Active; 'I' for Inactive)
REMARK    1  A    between atoms: C6_6  and  O11_11 
REMARK    2  A    between atoms: C9_9  and  O11_11 
ROOT
HETATM    1  C1  UNL     1     -35.629  15.076  -7.390  1.00 20.00     0.002 C 
HETATM    2  C2  UNL     1     -34.457  14.835  -6.404  1.00 20.00     0.015 C 
HETATM    3  C3  UNL     1     -36.305  15.941  -6.296  1.00 20.00     0.015 C 
HETATM    4  C4  UNL     1     -35.085  14.682  -3.287  1.00 20.00     0.069 C 
HETATM    5  C5  UNL     1     -36.079  14.197  -4.378  1.00 20.00     0.173 C 
HETATM    6  C6  UNL     1     -34.914  15.999  -4.098  1.00 20.00     0.135 C 
HETATM    7  C7  UNL     1     -35.425  15.216  -5.296  1.00 20.00     0.015 C 
HETATM    8  O10 UNL     1     -35.906  12.846  -4.706  1.00 20.00    -0.234 OA
ENDROOT
BRANCH   6   9
HETATM    9  O11 UNL     1     -33.579  16.529  -4.163  1.00 20.00    -0.385 OA
BRANCH   9  10
HETATM   10  C9  UNL     1     -33.491  17.760  -3.469  1.00 20.00     0.163 C 
HETATM   11  C8  UNL     1     -32.894  17.512  -2.100  1.00 20.00     0.033 C 
ENDBRANCH   9  10
ENDBRANCH   6   9
TORSDOF 2
ENDMDL
MODEL 6
REMARK VINA RESULT:      -4.0     16.763     18.320
REMARK  2 active torsions:
REMARK  status: ('A' for Active; 'I' for Inactive)
REMARK    1  A    between atoms: C6_6  and  O11_11 
REMARK    2  A    between atoms: C9_9  and  O11_11 
ROOT
HETATM    1  C1  UNL     1     -34.812  15.947  -2.020  1.00 20.00     0.002 C 
HETATM    2  C2  UNL     1     -35.635  15.598  -3.287  1.00 20.00     0.015 C 
HETATM    3  C3  UNL     1     -33.760  16.608  -2.947  1.00 20.00     0.015 C 
HETATM    4  C4  UNL     1     -34.084  14.943  -5.989  1.00 20.00     0.069 C 
HETATM    5  C5  UNL     1     -33.522  14.598  -4.582  1.00 20.00     0.173 C 
HETATM    6  C6  UNL     1     -34.389  16.374  -5.461  1.00 20.00     0.135 C 
HETATM    7  C7  UNL     1     -34.343  15.769  -4.068  1.00 20.00     0.015 C 
HETATM    8  O10 UNL     1     -33.899  13.321  -4.147  1.00 20.00    -0.234 OA
ENDROOT
BRANCH   6   9
HETATM    9  O11 UNL     1     -35.629  16.956  -5.899  1.00 20.00    -0.385 OA
BRANCH   9  10
HETATM   10  C9  UNL     1     -35.479  18.341  -6.146  1.00 20.00     0.163 C 
HETATM   11  C8  UNL     1     -34.013  18.646  -6.367  1.00 20.00     0.033 C 
ENDBRANCH   9  10
ENDBRANCH   6   9
TORSDOF 2
ENDMDL
MODEL 7
REMARK VINA RESULT:      -3.9     16.873     18.293
REMARK  2 active torsions:
REMARK  status: ('A' for Active; 'I' for Inactive)
REMARK    1  A    between atoms: C6_6  and  O11_11 
REMARK    2  A    between atoms: C9_9  and  O11_11 
ROOT
HETATM    1  C1  UNL     1     -35.670  17.132  -6.467  1.00 20.00     0.002 C 
HETATM    2  C2  UNL     1     -34.466  16.226  -6.102  1.00 20.00     0.015 C 
HETATM    3  C3  UNL     1     -36.151  16.997  -4.999  1.00 20.00     0.015 C 
HETATM    4  C4  UNL     1     -34.869  13.943  -3.920  1.00 20.00     0.069 C 
HETATM    5  C5  UNL     1     -35.995  14.402  -4.888  1.00 20.00     0.173 C 
HETATM    6  C6  UNL     1     -34.601  15.442  -3.603  1.00 20.00     0.135 C 
HETATM    7  C7  UNL     1     -35.292  15.749  -4.920  1.00 20.00     0.015 C 
HETATM    8  O10 UNL     1     -36.014  13.669  -6.082  1.00 20.00    -0.234 OA
ENDROOT
BRANCH   6   9
HETATM    9  O11 UNL     1     -33.219  15.819  -3.467  1.00 20.00    -0.385 OA
BRANCH   9  10
HETATM   10  C9  UNL     1     -33.080  16.919  -2.588  1.00 20.00     0.163 C 
HETATM   11  C8  UNL     1     -34.267  16.954  -1.649  1.00 20.00     0.033 C 
ENDBRANCH   9  10
ENDBRANCH   6   9
TORSDOF 2
ENDMDL
MODEL 8
REMARK VINA RESULT:      -3.9     15.860     17.366
REMARK  2 active torsions:
REMARK  status: ('A' for Active; 'I' for Inactive)
REMARK    1  A    between atoms: C6_6  and  O11_11 
REMARK    2  A    between atoms: C9_9  and  O11_11 
ROOT
HETATM    1  C1  UNL     1     -35.910  17.653  -1.570  1.00 20.00     0.002 C 
HETATM    2  C2  UNL     1     -35.187  16.283  -1.515  1.00 20.00     0.015 C 
HETATM    3  C3  UNL     1     -35.823  17.580  -3.116  1.00 20.00     0.015 C 
HETATM    4  C4  UNL     1     -33.034  15.595  -3.756  1.00 20.00     0.069 C 
HETATM    5  C5  UNL     1     -33.281  17.036  -3.230  1.00 20.00     0.173 C 
HETATM    6  C6  UNL     1     -34.574  15.446  -3.924  1.00 20.00     0.135 C 
HETATM    7  C7  UNL     1     -34.698  16.581  -2.922  1.00 20.00     0.015 C 
HETATM    8  O10 UNL     1     -32.468  17.358  -2.136  1.00 20.00    -0.234 OA
ENDROOT
BRANCH   6   9
HETATM    9  O11 UNL     1     -35.125  14.168  -3.561  1.00 20.00    -0.385 OA
BRANCH   9  10
HETATM   10  C9  UNL     1     -36.049  13.722  -4.536  1.00 20.00     0.163 C 
HETATM   11  C8  UNL     1     -37.365  14.444  -4.334  1.00 20.00     0.033 C 
ENDBRANCH   9  10
ENDBRANCH   6   9
TORSDOF 2
ENDMDL
MODEL 9
REMARK VINA RESULT:      -3.9      1.825      2.488
REMARK  2 active torsions:
REMARK  status: ('A' for Active; 'I' for Inactive)
REMARK    1  A    between atoms: C6_6  and  O11_11 
REMARK    2  A    between atoms: C9_9  and  O11_11 
ROOT
HETATM    1  C1  UNL     1     -23.608  16.091  12.010  1.00 20.00     0.002 C 
HETATM    2  C2  UNL     1     -24.511  16.385  10.784  1.00 20.00     0.015 C 
HETATM    3  C3  UNL     1     -23.286  17.606  12.072  1.00 20.00     0.015 C 
HETATM    4  C4  UNL     1     -23.688  18.735   8.801  1.00 20.00     0.069 C 
HETATM    5  C5  UNL     1     -22.651  17.862   9.561  1.00 20.00     0.173 C 
HETATM    6  C6  UNL     1     -24.438  18.929  10.150  1.00 20.00     0.135 C 
HETATM    7  C7  UNL     1     -23.724  17.674  10.621  1.00 20.00     0.015 C 
HETATM    8  O10 UNL     1     -22.268  16.725   8.838  1.00 20.00    -0.234 OA
ENDROOT
BRANCH   6   9
HETATM    9  O11 UNL     1     -25.874  18.898  10.081  1.00 20.00    -0.385 OA
BRANCH   9  10
HETATM   10  C9  UNL     1     -26.448  19.261  11.323  1.00 20.00     0.163 C 
HETATM   11  C8  UNL     1     -27.955  19.263  11.188  1.00 20.00     0.033 C 
ENDBRANCH   9  10
ENDBRANCH   6   9
TORSDOF 2
ENDMDL
