MODEL 1
REMARK VINA RESULT:      -5.2      0.000      0.000
REMARK  2 active torsions:
REMARK  status: ('A' for Active; 'I' for Inactive)
REMARK    1  A    between atoms: C3_3  and  C6_6 
REMARK    2  A    between atoms: C6_6  and  C7_7 
ROOT
HETATM    1  C1  UNL     1     -32.598   7.718   1.737  1.00 20.00    -0.176 C 
HETATM    2  C2  UNL     1     -32.709   8.469   0.684  1.00 20.00     0.091 C 
HETATM    3  C3  UNL     1     -32.485   6.966   2.793  1.00 20.00     0.067 C 
ENDROOT
BRANCH   3   4
HETATM    4  C6  UNL     1     -33.384   5.809   3.123  1.00 20.00     0.021 C 
BRANCH   4   5
HETATM    5  C7  UNL     1     -34.353   6.107   4.282  1.00 20.00    -0.021 C 
HETATM    6  C4  UNL     1     -33.678   6.891   5.410  1.00 20.00     0.009 C 
HETATM    7  C5  UNL     1     -34.922   4.798   4.833  1.00 20.00     0.009 C 
ENDBRANCH   4   5
ENDBRANCH   3   4
TORSDOF 2
ENDMDL
MODEL 2
REMARK VINA RESULT:      -5.1      0.884      1.119
REMARK  2 active torsions:
REMARK  status: ('A' for Active; 'I' for Inactive)
REMARK    1  A    between atoms: C3_3  and  C6_6 
REMARK    2  A    between atoms: C6_6  and  C7_7 
ROOT
HETATM    1  C1  UNL     1     -32.681   7.392   1.935  1.00 20.00    -0.176 C 
HETATM    2  C2  UNL     1     -32.495   8.275   1.002  1.00 20.00     0.091 C 
HETATM    3  C3  UNL     1     -32.866   6.505   2.869  1.00 20.00     0.067 C 
ENDROOT
BRANCH   3   4
HETATM    4  C6  UNL     1     -33.643   6.738   4.133  1.00 20.00     0.021 C 
BRANCH   4   5
HETATM    5  C7  UNL     1     -34.648   5.613   4.442  1.00 20.00    -0.021 C 
HETATM    6  C4  UNL     1     -34.792   5.367   5.946  1.00 20.00     0.009 C 
HETATM    7  C5  UNL     1     -34.214   4.322   3.746  1.00 20.00     0.009 C 
ENDBRANCH   4   5
ENDBRANCH   3   4
TORSDOF 2
ENDMDL
MODEL 3
REMARK VINA RESULT:      -4.7      0.988      3.937
REMARK  2 active torsions:
REMARK  status: ('A' for Active; 'I' for Inactive)
REMARK    1  A    between atoms: C3_3  and  C6_6 
REMARK    2  A    between atoms: C6_6  and  C7_7 
ROOT
HETATM    1  C1  UNL     1     -34.532   5.223   4.575  1.00 20.00    -0.176 C 
HETATM    2  C2  UNL     1     -34.818   5.397   5.829  1.00 20.00     0.091 C 
HETATM    3  C3  UNL     1     -34.247   5.048   3.317  1.00 20.00     0.067 C 
ENDROOT
BRANCH   3   4
HETATM    4  C6  UNL     1     -33.009   5.560   2.638  1.00 20.00     0.021 C 
BRANCH   4   5
HETATM    5  C7  UNL     1     -32.878   7.093   2.693  1.00 20.00    -0.021 C 
HETATM    6  C4  UNL     1     -32.562   7.694   1.321  1.00 20.00     0.009 C 
HETATM    7  C5  UNL     1     -31.788   7.487   3.692  1.00 20.00     0.009 C 
ENDBRANCH   4   5
ENDBRANCH   3   4
TORSDOF 2
ENDMDL
MODEL 4
REMARK VINA RESULT:      -4.5      0.760      1.116
REMARK  2 active torsions:
REMARK  status: ('A' for Active; 'I' for Inactive)
REMARK    1  A    between atoms: C3_3  and  C6_6 
REMARK    2  A    between atoms: C6_6  and  C7_7 
ROOT
HETATM    1  C1  UNL     1     -32.761   6.863   2.405  1.00 20.00    -0.176 C 
HETATM    2  C2  UNL     1     -32.418   7.792   1.566  1.00 20.00     0.091 C 
HETATM    3  C3  UNL     1     -33.102   5.931   3.246  1.00 20.00     0.067 C 
ENDROOT
BRANCH   3   4
HETATM    4  C6  UNL     1     -34.494   5.711   3.766  1.00 20.00     0.021 C 
BRANCH   4   5
HETATM    5  C7  UNL     1     -34.657   6.108   5.246  1.00 20.00    -0.021 C 
HETATM    6  C4  UNL     1     -33.549   7.054   5.714  1.00 20.00     0.009 C 
HETATM    7  C5  UNL     1     -34.670   4.854   6.122  1.00 20.00     0.009 C 
ENDBRANCH   4   5
ENDBRANCH   3   4
TORSDOF 2
ENDMDL
MODEL 5
REMARK VINA RESULT:      -4.3      0.968      4.054
REMARK  2 active torsions:
REMARK  status: ('A' for Active; 'I' for Inactive)
REMARK    1  A    between atoms: C3_3  and  C6_6 
REMARK    2  A    between atoms: C6_6  and  C7_7 
ROOT
HETATM    1  C1  UNL     1     -34.200   6.180   5.652  1.00 20.00    -0.176 C 
HETATM    2  C2  UNL     1     -34.899   5.154   6.032  1.00 20.00     0.091 C 
HETATM    3  C3  UNL     1     -33.500   7.209   5.273  1.00 20.00     0.067 C 
ENDROOT
BRANCH   3   4
HETATM    4  C6  UNL     1     -32.519   7.209   4.136  1.00 20.00     0.021 C 
BRANCH   4   5
HETATM    5  C7  UNL     1     -33.157   6.837   2.785  1.00 20.00    -0.021 C 
HETATM    6  C4  UNL     1     -33.074   5.334   2.503  1.00 20.00     0.009 C 
HETATM    7  C5  UNL     1     -32.476   7.613   1.656  1.00 20.00     0.009 C 
ENDBRANCH   4   5
ENDBRANCH   3   4
TORSDOF 2
ENDMDL
MODEL 6
REMARK VINA RESULT:      -4.3      1.297      2.083
REMARK  2 active torsions:
REMARK  status: ('A' for Active; 'I' for Inactive)
REMARK    1  A    between atoms: C3_3  and  C6_6 
REMARK    2  A    between atoms: C6_6  and  C7_7 
ROOT
HETATM    1  C1  UNL     1     -32.934   6.116   2.629  1.00 20.00    -0.176 C 
HETATM    2  C2  UNL     1     -32.280   7.235   2.564  1.00 20.00     0.091 C 
HETATM    3  C3  UNL     1     -33.589   4.993   2.692  1.00 20.00     0.067 C 
ENDROOT
BRANCH   3   4
HETATM    4  C6  UNL     1     -33.870   4.233   3.956  1.00 20.00     0.021 C 
BRANCH   4   5
HETATM    5  C7  UNL     1     -35.023   4.834   4.781  1.00 20.00    -0.021 C 
HETATM    6  C4  UNL     1     -35.934   5.725   3.934  1.00 20.00     0.009 C 
HETATM    7  C5  UNL     1     -34.459   5.638   5.954  1.00 20.00     0.009 C 
ENDBRANCH   4   5
ENDBRANCH   3   4
TORSDOF 2
ENDMDL
MODEL 7
REMARK VINA RESULT:      -4.0      1.379      3.716
REMARK  2 active torsions:
REMARK  status: ('A' for Active; 'I' for Inactive)
REMARK    1  A    between atoms: C3_3  and  C6_6 
REMARK    2  A    between atoms: C6_6  and  C7_7 
ROOT
HETATM    1  C1  UNL     1     -34.290   6.282   5.789  1.00 20.00    -0.176 C 
HETATM    2  C2  UNL     1     -33.736   7.267   6.427  1.00 20.00     0.091 C 
HETATM    3  C3  UNL     1     -34.847   5.294   5.151  1.00 20.00     0.067 C 
ENDROOT
BRANCH   3   4
HETATM    4  C6  UNL     1     -34.742   5.059   3.671  1.00 20.00     0.021 C 
BRANCH   4   5
HETATM    5  C7  UNL     1     -33.303   5.190   3.138  1.00 20.00    -0.021 C 
HETATM    6  C4  UNL     1     -32.994   6.609   2.654  1.00 20.00     0.009 C 
HETATM    7  C5  UNL     1     -33.078   4.195   1.998  1.00 20.00     0.009 C 
ENDBRANCH   4   5
ENDBRANCH   3   4
TORSDOF 2
ENDMDL
MODEL 8
REMARK VINA RESULT:      -3.7      9.128      9.759
REMARK  2 active torsions:
REMARK  status: ('A' for Active; 'I' for Inactive)
REMARK    1  A    between atoms: C3_3  and  C6_6 
REMARK    2  A    between atoms: C6_6  and  C7_7 
ROOT
HETATM    1  C1  UNL     1     -41.986   4.821  -1.585  1.00 20.00    -0.176 C 
HETATM    2  C2  UNL     1     -42.827   4.029  -2.176  1.00 20.00     0.091 C 
HETATM    3  C3  UNL     1     -41.141   5.613  -0.992  1.00 20.00     0.067 C 
ENDROOT
BRANCH   3   4
HETATM    4  C6  UNL     1     -41.204   7.113  -1.022  1.00 20.00     0.021 C 
BRANCH   4   5
HETATM    5  C7  UNL     1     -41.503   7.735   0.354  1.00 20.00    -0.021 C 
HETATM    6  C4  UNL     1     -42.858   7.285   0.907  1.00 20.00     0.009 C 
HETATM    7  C5  UNL     1     -41.467   9.261   0.255  1.00 20.00     0.009 C 
ENDBRANCH   4   5
ENDBRANCH   3   4
TORSDOF 2
ENDMDL
MODEL 9
REMARK VINA RESULT:      -3.7      1.458      2.504
REMARK  2 active torsions:
REMARK  status: ('A' for Active; 'I' for Inactive)
REMARK    1  A    between atoms: C3_3  and  C6_6 
REMARK    2  A    between atoms: C6_6  and  C7_7 
ROOT
HETATM    1  C1  UNL     1     -32.969   5.221   2.368  1.00 20.00    -0.176 C 
HETATM    2  C2  UNL     1     -33.029   3.984   1.978  1.00 20.00     0.091 C 
HETATM    3  C3  UNL     1     -32.908   6.461   2.757  1.00 20.00     0.067 C 
ENDROOT
BRANCH   3   4
HETATM    4  C6  UNL     1     -33.612   7.019   3.960  1.00 20.00     0.021 C 
BRANCH   4   5
HETATM    5  C7  UNL     1     -34.127   5.931   4.920  1.00 20.00    -0.021 C 
HETATM    6  C4  UNL     1     -35.470   5.351   4.467  1.00 20.00     0.009 C 
HETATM    7  C5  UNL     1     -34.262   6.504   6.332  1.00 20.00     0.009 C 
ENDBRANCH   4   5
ENDBRANCH   3   4
TORSDOF 2
ENDMDL
