MODEL 1
REMARK VINA RESULT:      -4.5      0.000      0.000
REMARK  3 active torsions:
REMARK  status: ('A' for Active; 'I' for Inactive)
REMARK    1  A    between atoms: C1_1  and  C6_6 
REMARK    2  A    between atoms: C6_6  and  C7_7 
REMARK    3  A    between atoms: C6_6  and  O9_9 
ROOT
HETATM    1  C2  UNL     1     -21.330  18.017   9.757  1.00 20.00     0.054 C 
HETATM    2  C6  UNL     1     -22.727  17.435   9.515  1.00 20.00     0.113 C 
ENDROOT
BRANCH   2   3
HETATM    3  C1  UNL     1     -23.330  18.166   8.321  1.00 20.00     0.269 C 
HETATM    4  O8  UNL     1     -22.836  18.182   7.197  1.00 20.00    -0.304 OA
ENDBRANCH   2   3
BRANCH   2   5
HETATM    5  C7  UNL     1     -23.679  17.484  10.762  1.00 20.00    -0.014 C 
HETATM    6  C3  UNL     1     -24.323  16.099  11.009  1.00 20.00     0.018 C 
HETATM    7  C4  UNL     1     -24.836  18.484  10.527  1.00 20.00     0.018 C 
HETATM    8  C5  UNL     1     -22.947  17.908  12.051  1.00 20.00     0.018 C 
ENDBRANCH   2   5
BRANCH   2   9
HETATM    9  O9  UNL     1     -22.569  16.072   9.114  1.00 20.00    -0.382 OA
HETATM   10  H23 UNL     1     -23.453  15.677   9.138  1.00 20.00     0.211 HD
ENDBRANCH   2   9
TORSDOF 3
ENDMDL
MODEL 2
REMARK VINA RESULT:      -4.3     18.151     19.388
REMARK  3 active torsions:
REMARK  status: ('A' for Active; 'I' for Inactive)
REMARK    1  A    between atoms: C1_1  and  C6_6 
REMARK    2  A    between atoms: C6_6  and  C7_7 
REMARK    3  A    between atoms: C6_6  and  O9_9 
ROOT
HETATM    1  C2  UNL     1     -35.968  14.314  -6.382  1.00 20.00     0.054 C 
HETATM    2  C6  UNL     1     -35.878  14.216  -4.856  1.00 20.00     0.113 C 
ENDROOT
BRANCH   2   3
HETATM    3  C1  UNL     1     -37.241  14.601  -4.289  1.00 20.00     0.269 C 
HETATM    4  O8  UNL     1     -38.242  13.894  -4.355  1.00 20.00    -0.304 OA
ENDBRANCH   2   3
BRANCH   2   5
HETATM    5  C7  UNL     1     -34.725  15.066  -4.214  1.00 20.00    -0.014 C 
HETATM    6  C3  UNL     1     -35.046  15.386  -2.734  1.00 20.00     0.018 C 
HETATM    7  C4  UNL     1     -34.573  16.421  -4.946  1.00 20.00     0.018 C 
HETATM    8  C5  UNL     1     -33.361  14.349  -4.263  1.00 20.00     0.018 C 
ENDBRANCH   2   5
BRANCH   2   9
HETATM    9  O9  UNL     1     -35.675  12.842  -4.517  1.00 20.00    -0.382 OA
HETATM   10  H23 UNL     1     -36.291  12.645  -3.797  1.00 20.00     0.211 HD
ENDBRANCH   2   9
TORSDOF 3
ENDMDL
MODEL 3
REMARK VINA RESULT:      -4.3     18.037     19.306
REMARK  3 active torsions:
REMARK  status: ('A' for Active; 'I' for Inactive)
REMARK    1  A    between atoms: C1_1  and  C6_6 
REMARK    2  A    between atoms: C6_6  and  C7_7 
REMARK    3  A    between atoms: C6_6  and  O9_9 
ROOT
HETATM    1  C2  UNL     1     -35.885  14.316  -6.308  1.00 20.00     0.054 C 
HETATM    2  C6  UNL     1     -35.760  14.249  -4.782  1.00 20.00     0.113 C 
ENDROOT
BRANCH   2   3
HETATM    3  C1  UNL     1     -37.129  14.572  -4.194  1.00 20.00     0.269 C 
HETATM    4  O8  UNL     1     -38.133  13.884  -4.356  1.00 20.00    -0.304 OA
ENDBRANCH   2   3
BRANCH   2   5
HETATM    5  C7  UNL     1     -34.641  15.168  -4.178  1.00 20.00    -0.014 C 
HETATM    6  C3  UNL     1     -34.572  16.513  -4.940  1.00 20.00     0.018 C 
HETATM    7  C4  UNL     1     -33.252  14.500  -4.313  1.00 20.00     0.018 C 
HETATM    8  C5  UNL     1     -34.870  15.477  -2.684  1.00 20.00     0.018 C 
ENDBRANCH   2   5
BRANCH   2   9
HETATM    9  O9  UNL     1     -35.480  12.893  -4.425  1.00 20.00    -0.382 OA
HETATM   10  H23 UNL     1     -35.583  12.371  -5.235  1.00 20.00     0.211 HD
ENDBRANCH   2   9
TORSDOF 3
ENDMDL
MODEL 4
REMARK VINA RESULT:      -4.3     17.914     19.117
REMARK  3 active torsions:
REMARK  status: ('A' for Active; 'I' for Inactive)
REMARK    1  A    between atoms: C1_1  and  C6_6 
REMARK    2  A    between atoms: C6_6  and  C7_7 
REMARK    3  A    between atoms: C6_6  and  O9_9 
ROOT
HETATM    1  C2  UNL     1     -36.496  15.842  -5.759  1.00 20.00     0.054 C 
HETATM    2  C6  UNL     1     -35.454  14.872  -5.192  1.00 20.00     0.113 C 
ENDROOT
BRANCH   2   3
HETATM    3  C1  UNL     1     -36.207  13.723  -4.530  1.00 20.00     0.269 C 
HETATM    4  O8  UNL     1     -35.815  12.560  -4.507  1.00 20.00    -0.304 OA
ENDBRANCH   2   3
BRANCH   2   5
HETATM    5  C7  UNL     1     -34.419  15.526  -4.210  1.00 20.00    -0.014 C 
HETATM    6  C3  UNL     1     -34.147  16.996  -4.607  1.00 20.00     0.018 C 
HETATM    7  C4  UNL     1     -33.063  14.783  -4.272  1.00 20.00     0.018 C 
HETATM    8  C5  UNL     1     -34.899  15.508  -2.745  1.00 20.00     0.018 C 
ENDBRANCH   2   5
BRANCH   2   9
HETATM    9  O9  UNL     1     -34.742  14.303  -6.294  1.00 20.00    -0.382 OA
HETATM   10  H23 UNL     1     -35.360  14.286  -7.039  1.00 20.00     0.211 HD
ENDBRANCH   2   9
TORSDOF 3
ENDMDL
MODEL 5
REMARK VINA RESULT:      -4.2     17.935     19.101
REMARK  3 active torsions:
REMARK  status: ('A' for Active; 'I' for Inactive)
REMARK    1  A    between atoms: C1_1  and  C6_6 
REMARK    2  A    between atoms: C6_6  and  C7_7 
REMARK    3  A    between atoms: C6_6  and  O9_9 
ROOT
HETATM    1  C2  UNL     1     -36.517  15.863  -5.726  1.00 20.00     0.054 C 
HETATM    2  C6  UNL     1     -35.470  14.875  -5.201  1.00 20.00     0.113 C 
ENDROOT
BRANCH   2   3
HETATM    3  C1  UNL     1     -36.217  13.732  -4.521  1.00 20.00     0.269 C 
HETATM    4  O8  UNL     1     -35.831  12.567  -4.503  1.00 20.00    -0.304 OA
ENDBRANCH   2   3
BRANCH   2   5
HETATM    5  C7  UNL     1     -34.394  15.508  -4.250  1.00 20.00    -0.014 C 
HETATM    6  C3  UNL     1     -34.893  15.502  -2.785  1.00 20.00     0.018 C 
HETATM    7  C4  UNL     1     -34.129  16.984  -4.630  1.00 20.00     0.018 C 
HETATM    8  C5  UNL     1     -33.046  14.761  -4.299  1.00 20.00     0.018 C 
ENDBRANCH   2   5
BRANCH   2   9
HETATM    9  O9  UNL     1     -34.803  14.304  -6.329  1.00 20.00    -0.382 OA
HETATM   10  H23 UNL     1     -35.304  14.581  -7.111  1.00 20.00     0.211 HD
ENDBRANCH   2   9
TORSDOF 3
ENDMDL
MODEL 6
REMARK VINA RESULT:      -4.2     17.945     19.141
REMARK  3 active torsions:
REMARK  status: ('A' for Active; 'I' for Inactive)
REMARK    1  A    between atoms: C1_1  and  C6_6 
REMARK    2  A    between atoms: C6_6  and  C7_7 
REMARK    3  A    between atoms: C6_6  and  O9_9 
ROOT
HETATM    1  C2  UNL     1     -36.642  15.790  -5.668  1.00 20.00     0.054 C 
HETATM    2  C6  UNL     1     -35.541  14.844  -5.178  1.00 20.00     0.113 C 
ENDROOT
BRANCH   2   3
HETATM    3  C1  UNL     1     -36.219  13.671  -4.479  1.00 20.00     0.269 C 
HETATM    4  O8  UNL     1     -35.787  12.522  -4.480  1.00 20.00    -0.304 OA
ENDBRANCH   2   3
BRANCH   2   5
HETATM    5  C7  UNL     1     -34.463  15.519  -4.258  1.00 20.00    -0.014 C 
HETATM    6  C3  UNL     1     -33.129  14.736  -4.320  1.00 20.00     0.018 C 
HETATM    7  C4  UNL     1     -34.923  15.511  -2.781  1.00 20.00     0.018 C 
HETATM    8  C5  UNL     1     -34.177  16.982  -4.653  1.00 20.00     0.018 C 
ENDBRANCH   2   5
BRANCH   2   9
HETATM    9  O9  UNL     1     -34.886  14.304  -6.328  1.00 20.00    -0.382 OA
HETATM   10  H23 UNL     1     -35.544  13.759  -6.785  1.00 20.00     0.211 HD
ENDBRANCH   2   9
TORSDOF 3
ENDMDL
MODEL 7
REMARK VINA RESULT:      -3.9      1.419      2.377
REMARK  3 active torsions:
REMARK  status: ('A' for Active; 'I' for Inactive)
REMARK    1  A    between atoms: C1_1  and  C6_6 
REMARK    2  A    between atoms: C6_6  and  C7_7 
REMARK    3  A    between atoms: C6_6  and  O9_9 
ROOT
HETATM    1  C2  UNL     1     -24.854  18.534   9.147  1.00 20.00     0.054 C 
HETATM    2  C6  UNL     1     -23.687  17.934   9.939  1.00 20.00     0.113 C 
ENDROOT
BRANCH   2   3
HETATM    3  C1  UNL     1     -23.184  16.719   9.166  1.00 20.00     0.269 C 
HETATM    4  O8  UNL     1     -22.049  16.610   8.711  1.00 20.00    -0.304 OA
ENDBRANCH   2   3
BRANCH   2   5
HETATM    5  C7  UNL     1     -24.027  17.570  11.427  1.00 20.00    -0.014 C 
HETATM    6  C3  UNL     1     -22.788  17.769  12.332  1.00 20.00     0.018 C 
HETATM    7  C4  UNL     1     -24.439  16.083  11.546  1.00 20.00     0.018 C 
HETATM    8  C5  UNL     1     -25.178  18.423  11.998  1.00 20.00     0.018 C 
ENDBRANCH   2   5
BRANCH   2   9
HETATM    9  O9  UNL     1     -22.620  18.885   9.933  1.00 20.00    -0.382 OA
HETATM   10  H23 UNL     1     -21.869  18.455  10.368  1.00 20.00     0.211 HD
ENDBRANCH   2   9
TORSDOF 3
ENDMDL
MODEL 8
REMARK VINA RESULT:      -3.8      2.121      3.408
REMARK  3 active torsions:
REMARK  status: ('A' for Active; 'I' for Inactive)
REMARK    1  A    between atoms: C1_1  and  C6_6 
REMARK    2  A    between atoms: C6_6  and  C7_7 
REMARK    3  A    between atoms: C6_6  and  O9_9 
ROOT
HETATM    1  C2  UNL     1     -22.414  17.726  12.299  1.00 20.00     0.054 C 
HETATM    2  C6  UNL     1     -23.420  17.718  11.144  1.00 20.00     0.113 C 
ENDROOT
BRANCH   2   3
HETATM    3  C1  UNL     1     -24.160  16.385  11.188  1.00 20.00     0.269 C 
HETATM    4  O8  UNL     1     -25.015  16.095  12.019  1.00 20.00    -0.304 OA
ENDBRANCH   2   3
BRANCH   2   5
HETATM    5  C7  UNL     1     -22.792  17.983   9.730  1.00 20.00    -0.014 C 
HETATM    6  C3  UNL     1     -22.876  16.712   8.851  1.00 20.00     0.018 C 
HETATM    7  C4  UNL     1     -21.294  18.347   9.857  1.00 20.00     0.018 C 
HETATM    8  C5  UNL     1     -23.492  19.132   8.976  1.00 20.00     0.018 C 
ENDBRANCH   2   5
BRANCH   2   9
HETATM    9  O9  UNL     1     -24.396  18.728  11.407  1.00 20.00    -0.382 OA
HETATM   10  H23 UNL     1     -24.638  18.637  12.341  1.00 20.00     0.211 HD
ENDBRANCH   2   9
TORSDOF 3
ENDMDL
MODEL 9
REMARK VINA RESULT:      -3.8     23.314     24.241
REMARK  3 active torsions:
REMARK  status: ('A' for Active; 'I' for Inactive)
REMARK    1  A    between atoms: C1_1  and  C6_6 
REMARK    2  A    between atoms: C6_6  and  C7_7 
REMARK    3  A    between atoms: C6_6  and  O9_9 
ROOT
HETATM    1  C2  UNL     1     -41.186   7.889   0.699  1.00 20.00     0.054 C 
HETATM    2  C6  UNL     1     -41.803   7.442  -0.630  1.00 20.00     0.113 C 
ENDROOT
BRANCH   2   3
HETATM    3  C1  UNL     1     -42.990   8.356  -0.916  1.00 20.00     0.269 C 
HETATM    4  O8  UNL     1     -43.417   9.201  -0.135  1.00 20.00    -0.304 OA
ENDBRANCH   2   3
BRANCH   2   5
HETATM    5  C7  UNL     1     -42.215   5.928  -0.683  1.00 20.00    -0.014 C 
HETATM    6  C3  UNL     1     -42.587   5.417   0.729  1.00 20.00     0.018 C 
HETATM    7  C4  UNL     1     -41.037   5.059  -1.182  1.00 20.00     0.018 C 
HETATM    8  C5  UNL     1     -43.416   5.673  -1.616  1.00 20.00     0.018 C 
ENDBRANCH   2   5
BRANCH   2   9
HETATM    9  O9  UNL     1     -40.846   7.692  -1.662  1.00 20.00    -0.382 OA
HETATM   10  H23 UNL     1     -40.470   6.831  -1.900  1.00 20.00     0.211 HD
ENDBRANCH   2   9
TORSDOF 3
ENDMDL
