MODEL 1
REMARK VINA RESULT:      -5.0      0.000      0.000
REMARK  5 active torsions:
REMARK  status: ('A' for Active; 'I' for Inactive)
REMARK    1  A    between atoms: C1_1  and  C3_3 
REMARK    2  A    between atoms: C1_1  and  C4_4 
REMARK    3  A    between atoms: C3_3  and  C5_5 
REMARK    4  A    between atoms: C4_4  and  C6_6 
REMARK    5  A    between atoms: C6_6  and  C7_7 
ROOT
HETATM    1  C1  UNL     1     -34.189   4.670   3.628  1.00 20.00     0.127 C 
HETATM    2  O8  UNL     1     -34.084   3.476   3.906  1.00 20.00    -0.298 OA
ENDROOT
BRANCH   1   3
HETATM    3  C3  UNL     1     -35.106   5.604   4.402  1.00 20.00     0.078 C 
BRANCH   3   4
HETATM    4  C5  UNL     1     -34.749   5.683   5.883  1.00 20.00     0.003 C 
HETATM    5  C2  UNL     1     -33.877   6.892   6.183  1.00 20.00     0.005 C 
ENDBRANCH   3   4
ENDBRANCH   1   3
BRANCH   1   6
HETATM    6  C4  UNL     1     -33.383   5.320   2.512  1.00 20.00     0.079 C 
BRANCH   6   7
HETATM    7  C6  UNL     1     -32.991   6.769   2.795  1.00 20.00     0.022 C 
BRANCH   7   8
HETATM    8  C7  UNL     1     -32.221   7.393   1.636  1.00 20.00     0.115 C 
HETATM    9 CL9  UNL     1     -33.049   8.861   1.065  1.00 20.00    -0.130 Cl
ENDBRANCH   7   8
ENDBRANCH   6   7
ENDBRANCH   1   6
TORSDOF 5
ENDMDL
MODEL 2
REMARK VINA RESULT:      -5.0      2.232      4.255
REMARK  5 active torsions:
REMARK  status: ('A' for Active; 'I' for Inactive)
REMARK    1  A    between atoms: C1_1  and  C3_3 
REMARK    2  A    between atoms: C1_1  and  C4_4 
REMARK    3  A    between atoms: C3_3  and  C5_5 
REMARK    4  A    between atoms: C4_4  and  C6_6 
REMARK    5  A    between atoms: C6_6  and  C7_7 
ROOT
HETATM    1  C1  UNL     1     -33.202   5.938   2.804  1.00 20.00     0.127 C 
HETATM    2  O8  UNL     1     -32.831   4.845   2.379  1.00 20.00    -0.298 OA
ENDROOT
BRANCH   1   3
HETATM    3  C3  UNL     1     -32.428   7.218   2.532  1.00 20.00     0.078 C 
BRANCH   3   4
HETATM    4  C5  UNL     1     -32.420   7.596   1.054  1.00 20.00     0.003 C 
HETATM    5  C2  UNL     1     -32.949   9.004   0.836  1.00 20.00     0.005 C 
ENDBRANCH   3   4
ENDBRANCH   1   3
BRANCH   1   6
HETATM    6  C4  UNL     1     -34.486   6.106   3.605  1.00 20.00     0.079 C 
BRANCH   6   7
HETATM    7  C6  UNL     1     -34.842   4.895   4.465  1.00 20.00     0.022 C 
BRANCH   7   8
HETATM    8  C7  UNL     1     -34.752   5.201   5.956  1.00 20.00     0.115 C 
HETATM    9 CL9  UNL     1     -34.003   6.794   6.214  1.00 20.00    -0.130 Cl
ENDBRANCH   7   8
ENDBRANCH   6   7
ENDBRANCH   1   6
TORSDOF 5
ENDMDL
MODEL 3
REMARK VINA RESULT:      -4.8      1.042      1.294
REMARK  5 active torsions:
REMARK  status: ('A' for Active; 'I' for Inactive)
REMARK    1  A    between atoms: C1_1  and  C3_3 
REMARK    2  A    between atoms: C1_1  and  C4_4 
REMARK    3  A    between atoms: C3_3  and  C5_5 
REMARK    4  A    between atoms: C4_4  and  C6_6 
REMARK    5  A    between atoms: C6_6  and  C7_7 
ROOT
HETATM    1  C1  UNL     1     -33.642   5.509   3.113  1.00 20.00     0.127 C 
HETATM    2  O8  UNL     1     -33.215   4.513   2.530  1.00 20.00    -0.298 OA
ENDROOT
BRANCH   1   3
HETATM    3  C3  UNL     1     -34.923   5.481   3.931  1.00 20.00     0.078 C 
BRANCH   3   4
HETATM    4  C5  UNL     1     -34.671   5.179   5.405  1.00 20.00     0.003 C 
HETATM    5  C2  UNL     1     -34.265   6.429   6.170  1.00 20.00     0.005 C 
ENDBRANCH   3   4
ENDBRANCH   1   3
BRANCH   1   6
HETATM    6  C4  UNL     1     -32.905   6.841   3.094  1.00 20.00     0.079 C 
BRANCH   6   7
HETATM    7  C6  UNL     1     -32.386   7.243   1.714  1.00 20.00     0.022 C 
BRANCH   7   8
HETATM    8  C7  UNL     1     -32.846   8.640   1.312  1.00 20.00     0.115 C 
HETATM    9 CL9  UNL     1     -33.426   8.638  -0.370  1.00 20.00    -0.130 Cl
ENDBRANCH   7   8
ENDBRANCH   6   7
ENDBRANCH   1   6
TORSDOF 5
ENDMDL
MODEL 4
REMARK VINA RESULT:      -4.5      2.904      4.743
REMARK  5 active torsions:
REMARK  status: ('A' for Active; 'I' for Inactive)
REMARK    1  A    between atoms: C1_1  and  C3_3 
REMARK    2  A    between atoms: C1_1  and  C4_4 
REMARK    3  A    between atoms: C3_3  and  C5_5 
REMARK    4  A    between atoms: C4_4  and  C6_6 
REMARK    5  A    between atoms: C6_6  and  C7_7 
ROOT
HETATM    1  C1  UNL     1     -32.389   7.253   3.106  1.00 20.00     0.127 C 
HETATM    2  O8  UNL     1     -31.371   7.582   3.714  1.00 20.00    -0.298 OA
ENDROOT
BRANCH   1   3
HETATM    3  C3  UNL     1     -32.484   7.320   1.590  1.00 20.00     0.078 C 
BRANCH   3   4
HETATM    4  C5  UNL     1     -32.829   8.719   1.086  1.00 20.00     0.003 C 
HETATM    5  C2  UNL     1     -33.376   8.681  -0.332  1.00 20.00     0.005 C 
ENDBRANCH   3   4
ENDBRANCH   1   3
BRANCH   1   6
HETATM    6  C4  UNL     1     -33.623   6.715   3.817  1.00 20.00     0.079 C 
BRANCH   6   7
HETATM    7  C6  UNL     1     -34.026   5.308   3.378  1.00 20.00     0.022 C 
BRANCH   7   8
HETATM    8  C7  UNL     1     -34.800   4.567   4.463  1.00 20.00     0.115 C 
HETATM    9 CL9  UNL     1     -34.749   5.480   5.990  1.00 20.00    -0.130 Cl
ENDBRANCH   7   8
ENDBRANCH   6   7
ENDBRANCH   1   6
TORSDOF 5
ENDMDL
MODEL 5
REMARK VINA RESULT:      -4.1      1.787      2.214
REMARK  5 active torsions:
REMARK  status: ('A' for Active; 'I' for Inactive)
REMARK    1  A    between atoms: C1_1  and  C3_3 
REMARK    2  A    between atoms: C1_1  and  C4_4 
REMARK    3  A    between atoms: C3_3  and  C5_5 
REMARK    4  A    between atoms: C4_4  and  C6_6 
REMARK    5  A    between atoms: C6_6  and  C7_7 
ROOT
HETATM    1  C1  UNL     1     -33.189   6.785   4.110  1.00 20.00     0.127 C 
HETATM    2  O8  UNL     1     -33.359   7.270   5.227  1.00 20.00    -0.298 OA
ENDROOT
BRANCH   1   3
HETATM    3  C3  UNL     1     -34.055   5.655   3.576  1.00 20.00     0.078 C 
BRANCH   3   4
HETATM    4  C5  UNL     1     -35.260   5.369   4.468  1.00 20.00     0.003 C 
HETATM    5  C2  UNL     1     -34.833   4.856   5.834  1.00 20.00     0.005 C 
ENDBRANCH   3   4
ENDBRANCH   1   3
BRANCH   1   6
HETATM    6  C4  UNL     1     -32.122   7.299   3.153  1.00 20.00     0.079 C 
BRANCH   6   7
HETATM    7  C6  UNL     1     -32.556   7.309   1.688  1.00 20.00     0.022 C 
BRANCH   7   8
HETATM    8  C7  UNL     1     -32.717   8.725   1.146  1.00 20.00     0.115 C 
HETATM    9 CL9  UNL     1     -33.495   8.689  -0.454  1.00 20.00    -0.130 Cl
ENDBRANCH   7   8
ENDBRANCH   6   7
ENDBRANCH   1   6
TORSDOF 5
ENDMDL
MODEL 6
REMARK VINA RESULT:      -3.9     11.566     12.372
REMARK  5 active torsions:
REMARK  status: ('A' for Active; 'I' for Inactive)
REMARK    1  A    between atoms: C1_1  and  C3_3 
REMARK    2  A    between atoms: C1_1  and  C4_4 
REMARK    3  A    between atoms: C3_3  and  C5_5 
REMARK    4  A    between atoms: C4_4  and  C6_6 
REMARK    5  A    between atoms: C6_6  and  C7_7 
ROOT
HETATM    1  C1  UNL     1     -35.731  13.883  -4.375  1.00 20.00     0.127 C 
HETATM    2  O8  UNL     1     -35.865  12.664  -4.469  1.00 20.00    -0.298 OA
ENDROOT
BRANCH   1   3
HETATM    3  C3  UNL     1     -34.503  14.518  -3.742  1.00 20.00     0.078 C 
BRANCH   3   4
HETATM    4  C5  UNL     1     -34.859  15.525  -2.652  1.00 20.00     0.003 C 
HETATM    5  C2  UNL     1     -33.743  16.534  -2.440  1.00 20.00     0.005 C 
ENDBRANCH   3   4
ENDBRANCH   1   3
BRANCH   1   6
HETATM    6  C4  UNL     1     -36.766  14.860  -4.919  1.00 20.00     0.079 C 
BRANCH   6   7
HETATM    7  C6  UNL     1     -36.237  15.767  -6.029  1.00 20.00     0.022 C 
BRANCH   7   8
HETATM    8  C7  UNL     1     -35.686  14.972  -7.208  1.00 20.00     0.115 C 
HETATM    9 CL9  UNL     1     -33.920  15.166  -7.312  1.00 20.00    -0.130 Cl
ENDBRANCH   7   8
ENDBRANCH   6   7
ENDBRANCH   1   6
TORSDOF 5
ENDMDL
MODEL 7
REMARK VINA RESULT:      -3.8     11.206     12.606
REMARK  5 active torsions:
REMARK  status: ('A' for Active; 'I' for Inactive)
REMARK    1  A    between atoms: C1_1  and  C3_3 
REMARK    2  A    between atoms: C1_1  and  C4_4 
REMARK    3  A    between atoms: C3_3  and  C5_5 
REMARK    4  A    between atoms: C4_4  and  C6_6 
REMARK    5  A    between atoms: C6_6  and  C7_7 
ROOT
HETATM    1  C1  UNL     1     -36.103  13.969  -4.822  1.00 20.00     0.127 C 
HETATM    2  O8  UNL     1     -37.225  13.547  -4.547  1.00 20.00    -0.298 OA
ENDROOT
BRANCH   1   3
HETATM    3  C3  UNL     1     -35.799  14.664  -6.140  1.00 20.00     0.078 C 
BRANCH   3   4
HETATM    4  C5  UNL     1     -36.667  15.899  -6.365  1.00 20.00     0.003 C 
HETATM    5  C2  UNL     1     -36.247  17.047  -5.462  1.00 20.00     0.005 C 
ENDBRANCH   3   4
ENDBRANCH   1   3
BRANCH   1   6
HETATM    6  C4  UNL     1     -34.933  13.863  -3.853  1.00 20.00     0.079 C 
BRANCH   6   7
HETATM    7  C6  UNL     1     -33.670  14.581  -4.327  1.00 20.00     0.022 C 
BRANCH   7   8
HETATM    8  C7  UNL     1     -33.330  15.783  -3.453  1.00 20.00     0.115 C 
HETATM    9 CL9  UNL     1     -34.580  16.014  -2.207  1.00 20.00    -0.130 Cl
ENDBRANCH   7   8
ENDBRANCH   6   7
ENDBRANCH   1   6
TORSDOF 5
ENDMDL
MODEL 8
REMARK VINA RESULT:      -3.8     11.308     12.682
REMARK  5 active torsions:
REMARK  status: ('A' for Active; 'I' for Inactive)
REMARK    1  A    between atoms: C1_1  and  C3_3 
REMARK    2  A    between atoms: C1_1  and  C4_4 
REMARK    3  A    between atoms: C3_3  and  C5_5 
REMARK    4  A    between atoms: C4_4  and  C6_6 
REMARK    5  A    between atoms: C6_6  and  C7_7 
ROOT
HETATM    1  C1  UNL     1     -36.439  14.299  -4.620  1.00 20.00     0.127 C 
HETATM    2  O8  UNL     1     -37.461  13.628  -4.483  1.00 20.00    -0.298 OA
ENDROOT
BRANCH   1   3
HETATM    3  C3  UNL     1     -36.301  15.354  -5.705  1.00 20.00     0.078 C 
BRANCH   3   4
HETATM    4  C5  UNL     1     -35.647  14.810  -6.972  1.00 20.00     0.003 C 
HETATM    5  C2  UNL     1     -34.364  15.557  -7.301  1.00 20.00     0.005 C 
ENDBRANCH   3   4
ENDBRANCH   1   3
BRANCH   1   6
HETATM    6  C4  UNL     1     -35.242  14.155  -3.691  1.00 20.00     0.079 C 
BRANCH   6   7
HETATM    7  C6  UNL     1     -34.814  15.462  -3.025  1.00 20.00     0.022 C 
BRANCH   7   8
HETATM    8  C7  UNL     1     -33.360  15.811  -3.324  1.00 20.00     0.115 C 
HETATM    9 CL9  UNL     1     -32.627  14.563  -4.360  1.00 20.00    -0.130 Cl
ENDBRANCH   7   8
ENDBRANCH   6   7
ENDBRANCH   1   6
TORSDOF 5
ENDMDL
MODEL 9
REMARK VINA RESULT:      -3.8     11.593     12.496
REMARK  5 active torsions:
REMARK  status: ('A' for Active; 'I' for Inactive)
REMARK    1  A    between atoms: C1_1  and  C3_3 
REMARK    2  A    between atoms: C1_1  and  C4_4 
REMARK    3  A    between atoms: C3_3  and  C5_5 
REMARK    4  A    between atoms: C4_4  and  C6_6 
REMARK    5  A    between atoms: C6_6  and  C7_7 
ROOT
HETATM    1  C1  UNL     1     -35.764  13.890  -4.269  1.00 20.00     0.127 C 
HETATM    2  O8  UNL     1     -35.957  12.723  -4.605  1.00 20.00    -0.298 OA
ENDROOT
BRANCH   1   3
HETATM    3  C3  UNL     1     -34.414  14.376  -3.765  1.00 20.00     0.078 C 
BRANCH   3   4
HETATM    4  C5  UNL     1     -34.538  15.534  -2.780  1.00 20.00     0.003 C 
HETATM    5  C2  UNL     1     -33.326  16.449  -2.840  1.00 20.00     0.005 C 
ENDBRANCH   3   4
ENDBRANCH   1   3
BRANCH   1   6
HETATM    6  C4  UNL     1     -36.848  14.955  -4.367  1.00 20.00     0.079 C 
BRANCH   6   7
HETATM    7  C6  UNL     1     -36.888  15.676  -5.713  1.00 20.00     0.022 C 
BRANCH   7   8
HETATM    8  C7  UNL     1     -36.258  17.063  -5.642  1.00 20.00     0.115 C 
HETATM    9 CL9  UNL     1     -34.598  17.020  -6.283  1.00 20.00    -0.130 Cl
ENDBRANCH   7   8
ENDBRANCH   6   7
ENDBRANCH   1   6
TORSDOF 5
ENDMDL
