MODEL 1
REMARK VINA RESULT:      -4.1      0.000      0.000
REMARK  4 active torsions:
REMARK  status: ('A' for Active; 'I' for Inactive)
REMARK    1  A    between atoms: C3_3  and  C4_4 
REMARK    2  A    between atoms: C3_3  and  C6_6 
REMARK    3  A    between atoms: C4_4  and  O7_7 
REMARK    4  A    between atoms: C5_5  and  C6_6 
ROOT
HETATM    1  C3  UNL     1     -33.012   6.245   2.872  1.00 20.00     0.031 C 
ENDROOT
BRANCH   1   2
HETATM    2  C4  UNL     1     -32.305   7.515   2.415  1.00 20.00     0.167 C 
BRANCH   2   3
HETATM    3  O7  UNL     1     -32.539   7.691   1.023  1.00 20.00    -0.396 OA
HETATM    4  C2  UNL     1     -32.922   9.026   0.724  1.00 20.00     0.201 C 
ENDBRANCH   2   3
ENDBRANCH   1   2
BRANCH   1   5
HETATM    5  C6  UNL     1     -34.053   6.476   3.982  1.00 20.00    -0.003 C 
HETATM    6  C1  UNL     1     -33.379   7.119   5.201  1.00 20.00     0.011 C 
BRANCH   5   7
HETATM    7  C5  UNL     1     -34.851   5.225   4.380  1.00 20.00     0.119 C 
HETATM    8 CL8  UNL     1     -34.897   4.935   6.136  1.00 20.00    -0.130 Cl
ENDBRANCH   5   7
ENDBRANCH   1   5
TORSDOF 4
ENDMDL
MODEL 2
REMARK VINA RESULT:      -4.0      3.314      4.568
REMARK  4 active torsions:
REMARK  status: ('A' for Active; 'I' for Inactive)
REMARK    1  A    between atoms: C3_3  and  C4_4 
REMARK    2  A    between atoms: C3_3  and  C6_6 
REMARK    3  A    between atoms: C4_4  and  O7_7 
REMARK    4  A    between atoms: C5_5  and  C6_6 
ROOT
HETATM    1  C3  UNL     1     -34.373   6.241   3.871  1.00 20.00     0.031 C 
ENDROOT
BRANCH   1   2
HETATM    2  C4  UNL     1     -34.842   4.938   4.508  1.00 20.00     0.167 C 
BRANCH   2   3
HETATM    3  O7  UNL     1     -34.777   5.073   5.922  1.00 20.00    -0.396 OA
HETATM    4  C2  UNL     1     -34.269   6.344   6.302  1.00 20.00     0.201 C 
ENDBRANCH   2   3
ENDBRANCH   1   2
BRANCH   1   5
HETATM    5  C6  UNL     1     -33.531   6.043   2.597  1.00 20.00    -0.003 C 
HETATM    6  C1  UNL     1     -33.030   4.596   2.524  1.00 20.00     0.011 C 
BRANCH   5   7
HETATM    7  C5  UNL     1     -32.376   7.043   2.434  1.00 20.00     0.119 C 
HETATM    8 CL8  UNL     1     -32.597   8.176   1.079  1.00 20.00    -0.130 Cl
ENDBRANCH   5   7
ENDBRANCH   1   5
TORSDOF 4
ENDMDL
MODEL 3
REMARK VINA RESULT:      -3.8      1.850      2.373
REMARK  4 active torsions:
REMARK  status: ('A' for Active; 'I' for Inactive)
REMARK    1  A    between atoms: C3_3  and  C4_4 
REMARK    2  A    between atoms: C3_3  and  C6_6 
REMARK    3  A    between atoms: C4_4  and  O7_7 
REMARK    4  A    between atoms: C5_5  and  C6_6 
ROOT
HETATM    1  C3  UNL     1     -33.808   4.251   3.756  1.00 20.00     0.031 C 
ENDROOT
BRANCH   1   2
HETATM    2  C4  UNL     1     -33.507   5.171   2.580  1.00 20.00     0.167 C 
BRANCH   2   3
HETATM    3  O7  UNL     1     -32.558   6.146   2.995  1.00 20.00    -0.396 OA
HETATM    4  C2  UNL     1     -32.558   7.274   2.131  1.00 20.00     0.201 C 
ENDBRANCH   2   3
ENDBRANCH   1   2
BRANCH   1   5
HETATM    5  C6  UNL     1     -34.966   4.735   4.647  1.00 20.00    -0.003 C 
HETATM    6  C1  UNL     1     -35.787   5.794   3.901  1.00 20.00     0.011 C 
BRANCH   5   7
HETATM    7  C5  UNL     1     -34.538   5.236   6.035  1.00 20.00     0.119 C 
HETATM    8 CL8  UNL     1     -33.904   6.900   6.029  1.00 20.00    -0.130 Cl
ENDBRANCH   5   7
ENDBRANCH   1   5
TORSDOF 4
ENDMDL
MODEL 4
REMARK VINA RESULT:      -3.8     11.106     11.530
REMARK  4 active torsions:
REMARK  status: ('A' for Active; 'I' for Inactive)
REMARK    1  A    between atoms: C3_3  and  C4_4 
REMARK    2  A    between atoms: C3_3  and  C6_6 
REMARK    3  A    between atoms: C4_4  and  O7_7 
REMARK    4  A    between atoms: C5_5  and  C6_6 
ROOT
HETATM    1  C3  UNL     1     -35.937  15.271  -3.933  1.00 20.00     0.031 C 
ENDROOT
BRANCH   1   2
HETATM    2  C4  UNL     1     -36.253  13.858  -4.407  1.00 20.00     0.167 C 
BRANCH   2   3
HETATM    3  O7  UNL     1     -37.665  13.695  -4.444  1.00 20.00    -0.396 OA
HETATM    4  C2  UNL     1     -38.338  14.929  -4.240  1.00 20.00     0.201 C 
ENDBRANCH   2   3
ENDBRANCH   1   2
BRANCH   1   5
HETATM    5  C6  UNL     1     -34.772  15.345  -2.928  1.00 20.00    -0.003 C 
HETATM    6  C1  UNL     1     -35.140  16.288  -1.776  1.00 20.00     0.011 C 
BRANCH   5   7
HETATM    7  C5  UNL     1     -33.418  15.721  -3.548  1.00 20.00     0.119 C 
HETATM    8 CL8  UNL     1     -32.640  14.384  -4.429  1.00 20.00    -0.130 Cl
ENDBRANCH   5   7
ENDBRANCH   1   5
TORSDOF 4
ENDMDL
MODEL 5
REMARK VINA RESULT:      -3.7     11.236     11.650
REMARK  4 active torsions:
REMARK  status: ('A' for Active; 'I' for Inactive)
REMARK    1  A    between atoms: C3_3  and  C4_4 
REMARK    2  A    between atoms: C3_3  and  C6_6 
REMARK    3  A    between atoms: C4_4  and  O7_7 
REMARK    4  A    between atoms: C5_5  and  C6_6 
ROOT
HETATM    1  C3  UNL     1     -35.806  15.230  -4.059  1.00 20.00     0.031 C 
ENDROOT
BRANCH   1   2
HETATM    2  C4  UNL     1     -36.136  13.795  -4.453  1.00 20.00     0.167 C 
BRANCH   2   3
HETATM    3  O7  UNL     1     -37.549  13.634  -4.449  1.00 20.00    -0.396 OA
HETATM    4  C2  UNL     1     -38.214  14.877  -4.274  1.00 20.00     0.201 C 
ENDBRANCH   2   3
ENDBRANCH   1   2
BRANCH   1   5
HETATM    5  C6  UNL     1     -34.718  15.345  -2.976  1.00 20.00    -0.003 C 
HETATM    6  C1  UNL     1     -35.229  16.208  -1.816  1.00 20.00     0.011 C 
BRANCH   5   7
HETATM    7  C5  UNL     1     -33.358  15.844  -3.487  1.00 20.00     0.119 C 
HETATM    8 CL8  UNL     1     -32.697  17.203  -2.547  1.00 20.00    -0.130 Cl
ENDBRANCH   5   7
ENDBRANCH   1   5
TORSDOF 4
ENDMDL
MODEL 6
REMARK VINA RESULT:      -3.7     10.787     11.424
REMARK  4 active torsions:
REMARK  status: ('A' for Active; 'I' for Inactive)
REMARK    1  A    between atoms: C3_3  and  C4_4 
REMARK    2  A    between atoms: C3_3  and  C6_6 
REMARK    3  A    between atoms: C4_4  and  O7_7 
REMARK    4  A    between atoms: C5_5  and  C6_6 
ROOT
HETATM    1  C3  UNL     1     -35.294  14.150  -3.725  1.00 20.00     0.031 C 
ENDROOT
BRANCH   1   2
HETATM    2  C4  UNL     1     -36.222  13.980  -4.922  1.00 20.00     0.167 C 
BRANCH   2   3
HETATM    3  O7  UNL     1     -37.525  13.664  -4.446  1.00 20.00    -0.396 OA
HETATM    4  C2  UNL     1     -38.312  14.833  -4.267  1.00 20.00     0.201 C 
ENDBRANCH   2   3
ENDBRANCH   1   2
BRANCH   1   5
HETATM    5  C6  UNL     1     -34.165  15.172  -3.953  1.00 20.00    -0.003 C 
HETATM    6  C1  UNL     1     -32.914  14.456  -4.477  1.00 20.00     0.011 C 
BRANCH   5   7
HETATM    7  C5  UNL     1     -33.839  16.045  -2.732  1.00 20.00     0.119 C 
HETATM    8 CL8  UNL     1     -35.215  16.266  -1.624  1.00 20.00    -0.130 Cl
ENDBRANCH   5   7
ENDBRANCH   1   5
TORSDOF 4
ENDMDL
MODEL 7
REMARK VINA RESULT:      -3.6      1.950      2.279
REMARK  4 active torsions:
REMARK  status: ('A' for Active; 'I' for Inactive)
REMARK    1  A    between atoms: C3_3  and  C4_4 
REMARK    2  A    between atoms: C3_3  and  C6_6 
REMARK    3  A    between atoms: C4_4  and  O7_7 
REMARK    4  A    between atoms: C5_5  and  C6_6 
ROOT
HETATM    1  C3  UNL     1     -34.194   6.703   3.773  1.00 20.00     0.031 C 
ENDROOT
BRANCH   1   2
HETATM    2  C4  UNL     1     -32.893   7.200   4.391  1.00 20.00     0.167 C 
BRANCH   2   3
HETATM    3  O7  UNL     1     -31.916   7.316   3.364  1.00 20.00    -0.396 OA
HETATM    4  C2  UNL     1     -32.517   7.526   2.094  1.00 20.00     0.201 C 
ENDBRANCH   2   3
ENDBRANCH   1   2
BRANCH   1   5
HETATM    5  C6  UNL     1     -34.786   5.469   4.477  1.00 20.00    -0.003 C 
HETATM    6  C1  UNL     1     -34.623   5.608   5.996  1.00 20.00     0.011 C 
BRANCH   5   7
HETATM    7  C5  UNL     1     -34.236   4.124   3.977  1.00 20.00     0.119 C 
HETATM    8 CL8  UNL     1     -33.296   4.253   2.471  1.00 20.00    -0.130 Cl
ENDBRANCH   5   7
ENDBRANCH   1   5
TORSDOF 4
ENDMDL
MODEL 8
REMARK VINA RESULT:      -3.6      2.512      3.907
REMARK  4 active torsions:
REMARK  status: ('A' for Active; 'I' for Inactive)
REMARK    1  A    between atoms: C3_3  and  C4_4 
REMARK    2  A    between atoms: C3_3  and  C6_6 
REMARK    3  A    between atoms: C4_4  and  O7_7 
REMARK    4  A    between atoms: C5_5  and  C6_6 
ROOT
HETATM    1  C3  UNL     1     -33.932   6.778   4.020  1.00 20.00     0.031 C 
ENDROOT
BRANCH   1   2
HETATM    2  C4  UNL     1     -33.401   7.069   5.419  1.00 20.00     0.167 C 
BRANCH   2   3
HETATM    3  O7  UNL     1     -34.369   6.648   6.371  1.00 20.00    -0.396 OA
HETATM    4  C2  UNL     1     -34.832   5.333   6.097  1.00 20.00     0.201 C 
ENDBRANCH   2   3
ENDBRANCH   1   2
BRANCH   1   5
HETATM    5  C6  UNL     1     -32.852   6.306   3.030  1.00 20.00    -0.003 C 
HETATM    6  C1  UNL     1     -32.572   7.409   2.002  1.00 20.00     0.011 C 
BRANCH   5   7
HETATM    7  C5  UNL     1     -33.159   4.967   2.342  1.00 20.00     0.119 C 
HETATM    8 CL8  UNL     1     -33.985   3.794   3.397  1.00 20.00    -0.130 Cl
ENDBRANCH   5   7
ENDBRANCH   1   5
TORSDOF 4
ENDMDL
MODEL 9
REMARK VINA RESULT:      -3.5     11.132     11.580
REMARK  4 active torsions:
REMARK  status: ('A' for Active; 'I' for Inactive)
REMARK    1  A    between atoms: C3_3  and  C4_4 
REMARK    2  A    between atoms: C3_3  and  C6_6 
REMARK    3  A    between atoms: C4_4  and  O7_7 
REMARK    4  A    between atoms: C5_5  and  C6_6 
ROOT
HETATM    1  C3  UNL     1     -35.827  15.288  -4.036  1.00 20.00     0.031 C 
ENDROOT
BRANCH   1   2
HETATM    2  C4  UNL     1     -36.259  13.869  -4.385  1.00 20.00     0.167 C 
BRANCH   2   3
HETATM    3  O7  UNL     1     -36.033  13.652  -5.773  1.00 20.00    -0.396 OA
HETATM    4  C2  UNL     1     -35.700  14.860  -6.442  1.00 20.00     0.201 C 
ENDBRANCH   2   3
ENDBRANCH   1   2
BRANCH   1   5
HETATM    5  C6  UNL     1     -34.728  15.359  -2.961  1.00 20.00    -0.003 C 
HETATM    6  C1  UNL     1     -35.150  16.326  -1.848  1.00 20.00     0.011 C 
BRANCH   5   7
HETATM    7  C5  UNL     1     -33.330  15.702  -3.499  1.00 20.00     0.119 C 
HETATM    8 CL8  UNL     1     -32.589  14.391  -4.448  1.00 20.00    -0.130 Cl
ENDBRANCH   5   7
ENDBRANCH   1   5
TORSDOF 4
ENDMDL
