MODEL 1
REMARK VINA RESULT:      -4.9      0.000      0.000
REMARK  3 active torsions:
REMARK  status: ('A' for Active; 'I' for Inactive)
REMARK    1  A    between atoms: C1_1  and  C5_5 
REMARK    2  A    between atoms: C2_2  and  C6_6 
REMARK    3  A    between atoms: C6_6  and  C7_7 
ROOT
HETATM    1  C1  UNL     1     -33.854   6.794   4.160  1.00 20.00    -0.026 C 
HETATM    2  C2  UNL     1     -33.191   6.535   3.023  1.00 20.00    -0.029 C 
ENDROOT
BRANCH   1   3
HETATM    3  C5  UNL     1     -34.925   5.962   4.738  1.00 20.00     0.008 A 
HETATM    4  C3  UNL     1     -34.760   4.476   4.716  1.00 20.00     0.009 A 
HETATM    5  C4  UNL     1     -34.645   5.226   6.009  1.00 20.00     0.009 A 
ENDBRANCH   1   3
BRANCH   2   6
HETATM    6  C6  UNL     1     -32.100   7.408   2.470  1.00 20.00     0.042 C 
BRANCH   6   7
HETATM    7  C7  UNL     1     -32.310   7.756   1.000  1.00 20.00     0.118 C 
HETATM    8 CL8  UNL     1     -32.981   9.394   0.801  1.00 20.00    -0.130 Cl
ENDBRANCH   6   7
ENDBRANCH   2   6
TORSDOF 3
ENDMDL
MODEL 2
REMARK VINA RESULT:      -4.7      2.641      4.886
REMARK  3 active torsions:
REMARK  status: ('A' for Active; 'I' for Inactive)
REMARK    1  A    between atoms: C1_1  and  C5_5 
REMARK    2  A    between atoms: C2_2  and  C6_6 
REMARK    3  A    between atoms: C6_6  and  C7_7 
ROOT
HETATM    1  C1  UNL     1     -32.770   7.257   2.237  1.00 20.00    -0.026 C 
HETATM    2  C2  UNL     1     -33.172   5.978   2.200  1.00 20.00    -0.029 C 
ENDROOT
BRANCH   1   3
HETATM    3  C5  UNL     1     -32.261   8.031   1.090  1.00 20.00     0.008 A 
HETATM    4  C3  UNL     1     -33.148   8.200  -0.102  1.00 20.00     0.009 A 
HETATM    5  C4  UNL     1     -32.875   9.363   0.803  1.00 20.00     0.009 A 
ENDBRANCH   1   3
BRANCH   2   6
HETATM    6  C6  UNL     1     -33.690   5.226   3.393  1.00 20.00     0.042 C 
BRANCH   6   7
HETATM    7  C7  UNL     1     -34.334   6.139   4.433  1.00 20.00     0.118 C 
HETATM    8 CL8  UNL     1     -34.813   5.238   5.892  1.00 20.00    -0.130 Cl
ENDBRANCH   6   7
ENDBRANCH   2   6
TORSDOF 3
ENDMDL
MODEL 3
REMARK VINA RESULT:      -3.7     10.982     11.932
REMARK  3 active torsions:
REMARK  status: ('A' for Active; 'I' for Inactive)
REMARK    1  A    between atoms: C1_1  and  C5_5 
REMARK    2  A    between atoms: C2_2  and  C6_6 
REMARK    3  A    between atoms: C6_6  and  C7_7 
ROOT
HETATM    1  C1  UNL     1     -33.199  16.036  -3.285  1.00 20.00    -0.026 C 
HETATM    2  C2  UNL     1     -33.924  16.414  -2.221  1.00 20.00    -0.029 C 
ENDROOT
BRANCH   1   3
HETATM    3  C5  UNL     1     -33.449  14.843  -4.114  1.00 20.00     0.008 A 
HETATM    4  C3  UNL     1     -34.747  14.120  -3.945  1.00 20.00     0.009 A 
HETATM    5  C4  UNL     1     -34.490  14.926  -5.183  1.00 20.00     0.009 A 
ENDBRANCH   1   3
BRANCH   2   6
HETATM    6  C6  UNL     1     -33.639  17.643  -1.405  1.00 20.00     0.042 C 
BRANCH   6   7
HETATM    7  C7  UNL     1     -32.325  18.316  -1.789  1.00 20.00     0.118 C 
HETATM    8 CL8  UNL     1     -31.151  18.281  -0.450  1.00 20.00    -0.130 Cl
ENDBRANCH   6   7
ENDBRANCH   2   6
TORSDOF 3
ENDMDL
MODEL 4
REMARK VINA RESULT:      -3.6     11.255     12.022
REMARK  3 active torsions:
REMARK  status: ('A' for Active; 'I' for Inactive)
REMARK    1  A    between atoms: C1_1  and  C5_5 
REMARK    2  A    between atoms: C2_2  and  C6_6 
REMARK    3  A    between atoms: C6_6  and  C7_7 
ROOT
HETATM    1  C1  UNL     1     -34.269  15.794  -2.583  1.00 20.00    -0.026 C 
HETATM    2  C2  UNL     1     -33.403  16.815  -2.510  1.00 20.00    -0.029 C 
ENDROOT
BRANCH   1   3
HETATM    3  C5  UNL     1     -34.376  14.836  -3.699  1.00 20.00     0.008 A 
HETATM    4  C3  UNL     1     -34.153  15.339  -5.090  1.00 20.00     0.009 A 
HETATM    5  C4  UNL     1     -33.129  14.461  -4.434  1.00 20.00     0.009 A 
ENDBRANCH   1   3
BRANCH   2   6
HETATM    6  C6  UNL     1     -33.324  17.767  -1.350  1.00 20.00     0.042 C 
BRANCH   6   7
HETATM    7  C7  UNL     1     -32.094  18.667  -1.407  1.00 20.00     0.118 C 
HETATM    8 CL8  UNL     1     -30.906  18.239  -0.152  1.00 20.00    -0.130 Cl
ENDBRANCH   6   7
ENDBRANCH   2   6
TORSDOF 3
ENDMDL
MODEL 5
REMARK VINA RESULT:      -3.6     11.127     12.152
REMARK  3 active torsions:
REMARK  status: ('A' for Active; 'I' for Inactive)
REMARK    1  A    between atoms: C1_1  and  C5_5 
REMARK    2  A    between atoms: C2_2  and  C6_6 
REMARK    3  A    between atoms: C6_6  and  C7_7 
ROOT
HETATM    1  C1  UNL     1     -32.888  17.401  -2.170  1.00 20.00    -0.026 C 
HETATM    2  C2  UNL     1     -34.054  16.808  -1.870  1.00 20.00    -0.029 C 
ENDROOT
BRANCH   1   3
HETATM    3  C5  UNL     1     -32.278  18.519  -1.428  1.00 20.00     0.008 A 
HETATM    4  C3  UNL     1     -32.533  18.620   0.041  1.00 20.00     0.009 A 
HETATM    5  C4  UNL     1     -31.180  18.214  -0.461  1.00 20.00     0.009 A 
ENDBRANCH   1   3
BRANCH   2   6
HETATM    6  C6  UNL     1     -34.639  15.665  -2.650  1.00 20.00     0.042 C 
BRANCH   6   7
HETATM    7  C7  UNL     1     -34.190  15.652  -4.108  1.00 20.00     0.118 C 
HETATM    8 CL8  UNL     1     -32.877  14.480  -4.380  1.00 20.00    -0.130 Cl
ENDBRANCH   6   7
ENDBRANCH   2   6
TORSDOF 3
ENDMDL
MODEL 6
REMARK VINA RESULT:      -3.5     11.114     11.868
REMARK  3 active torsions:
REMARK  status: ('A' for Active; 'I' for Inactive)
REMARK    1  A    between atoms: C1_1  and  C5_5 
REMARK    2  A    between atoms: C2_2  and  C6_6 
REMARK    3  A    between atoms: C6_6  and  C7_7 
ROOT
HETATM    1  C1  UNL     1     -35.239  15.636  -2.857  1.00 20.00    -0.026 C 
HETATM    2  C2  UNL     1     -34.917  14.590  -3.631  1.00 20.00    -0.029 C 
ENDROOT
BRANCH   1   3
HETATM    3  C5  UNL     1     -34.308  16.380  -1.988  1.00 20.00     0.008 A 
HETATM    4  C3  UNL     1     -33.039  16.897  -2.586  1.00 20.00     0.009 A 
HETATM    5  C4  UNL     1     -34.140  17.847  -2.219  1.00 20.00     0.009 A 
ENDBRANCH   1   3
BRANCH   2   6
HETATM    6  C6  UNL     1     -35.896  13.861  -4.508  1.00 20.00     0.042 C 
BRANCH   6   7
HETATM    7  C7  UNL     1     -35.843  14.321  -5.962  1.00 20.00     0.118 C 
HETATM    8 CL8  UNL     1     -34.245  14.985  -6.384  1.00 20.00    -0.130 Cl
ENDBRANCH   6   7
ENDBRANCH   2   6
TORSDOF 3
ENDMDL
MODEL 7
REMARK VINA RESULT:      -3.5     11.133     11.852
REMARK  3 active torsions:
REMARK  status: ('A' for Active; 'I' for Inactive)
REMARK    1  A    between atoms: C1_1  and  C5_5 
REMARK    2  A    between atoms: C2_2  and  C6_6 
REMARK    3  A    between atoms: C6_6  and  C7_7 
ROOT
HETATM    1  C1  UNL     1     -33.804  16.293  -2.484  1.00 20.00    -0.026 C 
HETATM    2  C2  UNL     1     -34.995  16.227  -1.870  1.00 20.00    -0.029 C 
ENDROOT
BRANCH   1   3
HETATM    3  C5  UNL     1     -33.417  15.540  -3.690  1.00 20.00     0.008 A 
HETATM    4  C3  UNL     1     -34.248  14.362  -4.089  1.00 20.00     0.009 A 
HETATM    5  C4  UNL     1     -34.299  15.625  -4.895  1.00 20.00     0.009 A 
ENDBRANCH   1   3
BRANCH   2   6
HETATM    6  C6  UNL     1     -35.352  17.018  -0.643  1.00 20.00     0.042 C 
BRANCH   6   7
HETATM    7  C7  UNL     1     -34.295  18.057  -0.281  1.00 20.00     0.118 C 
HETATM    8 CL8  UNL     1     -33.929  18.043   1.462  1.00 20.00    -0.130 Cl
ENDBRANCH   6   7
ENDBRANCH   2   6
TORSDOF 3
ENDMDL
MODEL 8
REMARK VINA RESULT:      -3.4     11.115     11.533
REMARK  3 active torsions:
REMARK  status: ('A' for Active; 'I' for Inactive)
REMARK    1  A    between atoms: C1_1  and  C5_5 
REMARK    2  A    between atoms: C2_2  and  C6_6 
REMARK    3  A    between atoms: C6_6  and  C7_7 
ROOT
HETATM    1  C1  UNL     1     -34.489  16.047  -2.299  1.00 20.00    -0.026 C 
HETATM    2  C2  UNL     1     -33.595  15.847  -3.279  1.00 20.00    -0.029 C 
ENDROOT
BRANCH   1   3
HETATM    3  C5  UNL     1     -34.476  17.167  -1.340  1.00 20.00     0.008 A 
HETATM    4  C3  UNL     1     -35.691  18.032  -1.242  1.00 20.00     0.009 A 
HETATM    5  C4  UNL     1     -35.355  17.080  -0.135  1.00 20.00     0.009 A 
ENDBRANCH   1   3
BRANCH   2   6
HETATM    6  C6  UNL     1     -33.647  14.694  -4.241  1.00 20.00     0.042 C 
BRANCH   6   7
HETATM    7  C7  UNL     1     -34.904  14.702  -5.106  1.00 20.00     0.118 C 
HETATM    8 CL8  UNL     1     -36.126  13.556  -4.501  1.00 20.00    -0.130 Cl
ENDBRANCH   6   7
ENDBRANCH   2   6
TORSDOF 3
ENDMDL
MODEL 9
REMARK VINA RESULT:      -3.4      9.842     10.484
REMARK  3 active torsions:
REMARK  status: ('A' for Active; 'I' for Inactive)
REMARK    1  A    between atoms: C1_1  and  C5_5 
REMARK    2  A    between atoms: C2_2  and  C6_6 
REMARK    3  A    between atoms: C6_6  and  C7_7 
ROOT
HETATM    1  C1  UNL     1     -41.369   5.238  -1.200  1.00 20.00    -0.026 C 
HETATM    2  C2  UNL     1     -42.642   4.960  -1.516  1.00 20.00    -0.029 C 
ENDROOT
BRANCH   1   3
HETATM    3  C5  UNL     1     -40.918   6.361  -0.358  1.00 20.00     0.008 A 
HETATM    4  C3  UNL     1     -41.377   7.740  -0.710  1.00 20.00     0.009 A 
HETATM    5  C4  UNL     1     -41.926   7.052   0.504  1.00 20.00     0.009 A 
ENDBRANCH   1   3
BRANCH   2   6
HETATM    6  C6  UNL     1     -43.060   3.799  -2.374  1.00 20.00     0.042 C 
BRANCH   6   7
HETATM    7  C7  UNL     1     -41.881   3.121  -3.065  1.00 20.00     0.118 C 
HETATM    8 CL8  UNL     1     -42.232   2.777  -4.777  1.00 20.00    -0.130 Cl
ENDBRANCH   6   7
ENDBRANCH   2   6
TORSDOF 3
ENDMDL
