MODEL 1
REMARK VINA RESULT:      -4.9      0.000      0.000
REMARK  3 active torsions:
REMARK  status: ('A' for Active; 'I' for Inactive)
REMARK    1  A    between atoms: C1_1  and  C3_3 
REMARK    2  A    between atoms: C2_2  and  C6_6 
REMARK    3  A    between atoms: C3_3  and  O10_10 
ROOT
HETATM    1  C1  UNL     1     -22.895  17.959  10.929  1.00 20.00     0.014 C 
HETATM    2  C2  UNL     1     -24.205  18.287  10.842  1.00 20.00    -0.067 C 
HETATM    3  C7  UNL     1     -22.148  17.646  12.195  1.00 20.00     0.056 C 
HETATM    4  C8  UNL     1     -24.930  18.570   9.569  1.00 20.00     0.044 C 
ENDROOT
BRANCH   1   5
HETATM    5  C3  UNL     1     -22.103  17.849   9.675  1.00 20.00     0.171 C 
HETATM    6  O9  UNL     1     -21.573  18.774   9.084  1.00 20.00    -0.646 OA
BRANCH   5   7
HETATM    7  O10 UNL     1     -22.061  16.556   9.279  1.00 20.00    -0.773 OA
HETATM    8  H22 UNL     1     -22.211  15.939  10.027  1.00 20.00     0.167 HD
ENDBRANCH   5   7
ENDBRANCH   1   5
BRANCH   2   9
HETATM    9  C6  UNL     1     -25.073  18.437  12.073  1.00 20.00     0.015 A 
HETATM   10  C4  UNL     1     -26.447  18.938  11.868  1.00 20.00     0.010 A 
HETATM   11  C5  UNL     1     -26.206  17.500  12.213  1.00 20.00     0.010 A 
ENDBRANCH   2   9
TORSDOF 3
ENDMDL
MODEL 2
REMARK VINA RESULT:      -4.8     17.655     19.091
REMARK  3 active torsions:
REMARK  status: ('A' for Active; 'I' for Inactive)
REMARK    1  A    between atoms: C1_1  and  C3_3 
REMARK    2  A    between atoms: C2_2  and  C6_6 
REMARK    3  A    between atoms: C3_3  and  O10_10 
ROOT
HETATM    1  C1  UNL     1     -35.795  14.921  -4.288  1.00 20.00     0.014 C 
HETATM    2  C2  UNL     1     -34.578  15.409  -3.954  1.00 20.00    -0.067 C 
HETATM    3  C7  UNL     1     -37.113  15.604  -4.050  1.00 20.00     0.056 C 
HETATM    4  C8  UNL     1     -33.280  14.722  -4.223  1.00 20.00     0.044 C 
ENDROOT
BRANCH   1   5
HETATM    5  C3  UNL     1     -35.870  13.613  -4.992  1.00 20.00     0.171 C 
HETATM    6  O9  UNL     1     -35.887  12.517  -4.458  1.00 20.00    -0.646 OA
BRANCH   5   7
HETATM    7  O10 UNL     1     -35.911  13.820  -6.328  1.00 20.00    -0.773 OA
HETATM    8  H22 UNL     1     -35.420  14.629  -6.589  1.00 20.00     0.167 HD
ENDBRANCH   5   7
ENDBRANCH   1   5
BRANCH   2   9
HETATM    9  C6  UNL     1     -34.420  16.724  -3.221  1.00 20.00     0.015 A 
HETATM   10  C4  UNL     1     -34.451  16.676  -1.745  1.00 20.00     0.010 A 
HETATM   11  C5  UNL     1     -33.164  16.926  -2.471  1.00 20.00     0.010 A 
ENDBRANCH   2   9
TORSDOF 3
ENDMDL
MODEL 3
REMARK VINA RESULT:      -4.6     16.794     18.129
REMARK  3 active torsions:
REMARK  status: ('A' for Active; 'I' for Inactive)
REMARK    1  A    between atoms: C1_1  and  C3_3 
REMARK    2  A    between atoms: C2_2  and  C6_6 
REMARK    3  A    between atoms: C3_3  and  O10_10 
ROOT
HETATM    1  C1  UNL     1     -34.604  14.670  -3.994  1.00 20.00     0.014 C 
HETATM    2  C2  UNL     1     -34.284  15.637  -3.102  1.00 20.00    -0.067 C 
HETATM    3  C7  UNL     1     -35.908  13.926  -4.055  1.00 20.00     0.056 C 
HETATM    4  C8  UNL     1     -32.989  16.379  -3.077  1.00 20.00     0.044 C 
ENDROOT
BRANCH   1   5
HETATM    5  C3  UNL     1     -33.614  14.316  -5.046  1.00 20.00     0.171 C 
HETATM    6  O9  UNL     1     -33.597  14.754  -6.184  1.00 20.00    -0.646 OA
BRANCH   5   7
HETATM    7  O10 UNL     1     -32.728  13.422  -4.551  1.00 20.00    -0.773 OA
HETATM    8  H22 UNL     1     -32.725  12.585  -5.064  1.00 20.00     0.167 HD
ENDBRANCH   5   7
ENDBRANCH   1   5
BRANCH   2   9
HETATM    9  C6  UNL     1     -35.229  16.042  -1.991  1.00 20.00     0.015 A 
HETATM   10  C4  UNL     1     -34.784  17.127  -1.095  1.00 20.00     0.010 A 
HETATM   11  C5  UNL     1     -35.866  17.369  -2.103  1.00 20.00     0.010 A 
ENDBRANCH   2   9
TORSDOF 3
ENDMDL
MODEL 4
REMARK VINA RESULT:      -4.5     17.534     18.964
REMARK  3 active torsions:
REMARK  status: ('A' for Active; 'I' for Inactive)
REMARK    1  A    between atoms: C1_1  and  C3_3 
REMARK    2  A    between atoms: C2_2  and  C6_6 
REMARK    3  A    between atoms: C3_3  and  O10_10 
ROOT
HETATM    1  C1  UNL     1     -34.750  14.815  -4.800  1.00 20.00     0.014 C 
HETATM    2  C2  UNL     1     -34.431  15.459  -3.653  1.00 20.00    -0.067 C 
HETATM    3  C7  UNL     1     -33.900  14.748  -6.037  1.00 20.00     0.056 C 
HETATM    4  C8  UNL     1     -35.282  15.491  -2.428  1.00 20.00     0.044 C 
ENDROOT
BRANCH   1   5
HETATM    5  C3  UNL     1     -36.030  14.060  -4.860  1.00 20.00     0.171 C 
HETATM    6  O9  UNL     1     -37.115  14.521  -5.169  1.00 20.00    -0.646 OA
BRANCH   5   7
HETATM    7  O10 UNL     1     -35.810  12.770  -4.514  1.00 20.00    -0.773 OA
HETATM    8  H22 UNL     1     -35.517  12.686  -3.581  1.00 20.00     0.167 HD
ENDBRANCH   5   7
ENDBRANCH   1   5
BRANCH   2   9
HETATM    9  C6  UNL     1     -33.156  16.264  -3.519  1.00 20.00     0.015 A 
HETATM   10  C4  UNL     1     -33.270  17.729  -3.663  1.00 20.00     0.010 A 
HETATM   11  C5  UNL     1     -33.023  17.114  -2.319  1.00 20.00     0.010 A 
ENDBRANCH   2   9
TORSDOF 3
ENDMDL
MODEL 5
REMARK VINA RESULT:      -4.5     17.552     18.996
REMARK  3 active torsions:
REMARK  status: ('A' for Active; 'I' for Inactive)
REMARK    1  A    between atoms: C1_1  and  C3_3 
REMARK    2  A    between atoms: C2_2  and  C6_6 
REMARK    3  A    between atoms: C3_3  and  O10_10 
ROOT
HETATM    1  C1  UNL     1     -34.682  14.806  -4.833  1.00 20.00     0.014 C 
HETATM    2  C2  UNL     1     -34.379  15.460  -3.687  1.00 20.00    -0.067 C 
HETATM    3  C7  UNL     1     -33.856  14.798  -6.088  1.00 20.00     0.056 C 
HETATM    4  C8  UNL     1     -35.204  15.432  -2.445  1.00 20.00     0.044 C 
ENDROOT
BRANCH   1   5
HETATM    5  C3  UNL     1     -35.916  13.976  -4.873  1.00 20.00     0.171 C 
HETATM    6  O9  UNL     1     -36.000  12.807  -4.537  1.00 20.00    -0.646 OA
BRANCH   5   7
HETATM    7  O10 UNL     1     -36.944  14.718  -5.348  1.00 20.00    -0.773 OA
HETATM    8  H22 UNL     1     -37.449  15.150  -4.626  1.00 20.00     0.167 HD
ENDBRANCH   5   7
ENDBRANCH   1   5
BRANCH   2   9
HETATM    9  C6  UNL     1     -33.152  16.339  -3.573  1.00 20.00     0.015 A 
HETATM   10  C4  UNL     1     -33.359  17.797  -3.673  1.00 20.00     0.010 A 
HETATM   11  C5  UNL     1     -33.030  17.165  -2.355  1.00 20.00     0.010 A 
ENDBRANCH   2   9
TORSDOF 3
ENDMDL
MODEL 6
REMARK VINA RESULT:      -4.5     17.768     19.158
REMARK  3 active torsions:
REMARK  status: ('A' for Active; 'I' for Inactive)
REMARK    1  A    between atoms: C1_1  and  C3_3 
REMARK    2  A    between atoms: C2_2  and  C6_6 
REMARK    3  A    between atoms: C3_3  and  O10_10 
ROOT
HETATM    1  C1  UNL     1     -35.721  14.543  -3.923  1.00 20.00     0.014 C 
HETATM    2  C2  UNL     1     -35.557  15.674  -3.197  1.00 20.00    -0.067 C 
HETATM    3  C7  UNL     1     -34.765  13.385  -3.976  1.00 20.00     0.056 C 
HETATM    4  C8  UNL     1     -36.534  16.801  -3.141  1.00 20.00     0.044 C 
ENDROOT
BRANCH   1   5
HETATM    5  C3  UNL     1     -36.968  14.382  -4.717  1.00 20.00     0.171 C 
HETATM    6  O9  UNL     1     -38.006  13.880  -4.321  1.00 20.00    -0.646 OA
BRANCH   5   7
HETATM    7  O10 UNL     1     -36.777  14.875  -5.963  1.00 20.00    -0.773 OA
HETATM    8  H22 UNL     1     -37.608  15.224  -6.351  1.00 20.00     0.167 HD
ENDBRANCH   5   7
ENDBRANCH   1   5
BRANCH   2   9
HETATM    9  C6  UNL     1     -34.309  15.922  -2.377  1.00 20.00     0.015 A 
HETATM   10  C4  UNL     1     -33.196  16.625  -3.046  1.00 20.00     0.010 A 
HETATM   11  C5  UNL     1     -34.018  17.320  -2.004  1.00 20.00     0.010 A 
ENDBRANCH   2   9
TORSDOF 3
ENDMDL
MODEL 7
REMARK VINA RESULT:      -4.4      0.922      2.022
REMARK  3 active torsions:
REMARK  status: ('A' for Active; 'I' for Inactive)
REMARK    1  A    between atoms: C1_1  and  C3_3 
REMARK    2  A    between atoms: C2_2  and  C6_6 
REMARK    3  A    between atoms: C3_3  and  O10_10 
ROOT
HETATM    1  C1  UNL     1     -23.661  18.071   9.356  1.00 20.00     0.014 C 
HETATM    2  C2  UNL     1     -24.089  18.114  10.639  1.00 20.00    -0.067 C 
HETATM    3  C7  UNL     1     -24.453  18.493   8.150  1.00 20.00     0.056 C 
HETATM    4  C8  UNL     1     -23.274  17.712  11.823  1.00 20.00     0.044 C 
ENDROOT
BRANCH   1   5
HETATM    5  C3  UNL     1     -22.274  17.610   9.082  1.00 20.00     0.171 C 
HETATM    6  O9  UNL     1     -21.293  18.326   8.979  1.00 20.00    -0.646 OA
BRANCH   5   7
HETATM    7  O10 UNL     1     -22.261  16.263   8.958  1.00 20.00    -0.773 OA
HETATM    8  H22 UNL     1     -21.494  15.950   8.433  1.00 20.00     0.167 HD
ENDBRANCH   5   7
ENDBRANCH   1   5
BRANCH   2   9
HETATM    9  C6  UNL     1     -25.492  18.553  10.998  1.00 20.00     0.015 A 
HETATM   10  C4  UNL     1     -26.191  17.777  12.041  1.00 20.00     0.010 A 
HETATM   11  C5  UNL     1     -25.685  19.157  12.332  1.00 20.00     0.010 A 
ENDBRANCH   2   9
TORSDOF 3
ENDMDL
MODEL 8
REMARK VINA RESULT:      -4.3     16.592     17.586
REMARK  3 active torsions:
REMARK  status: ('A' for Active; 'I' for Inactive)
REMARK    1  A    between atoms: C1_1  and  C3_3 
REMARK    2  A    between atoms: C2_2  and  C6_6 
REMARK    3  A    between atoms: C3_3  and  O10_10 
ROOT
HETATM    1  C1  UNL     1     -33.817   6.062   4.088  1.00 20.00     0.014 C 
HETATM    2  C2  UNL     1     -33.214   6.158   2.879  1.00 20.00    -0.067 C 
HETATM    3  C7  UNL     1     -33.759   7.088   5.184  1.00 20.00     0.056 C 
HETATM    4  C8  UNL     1     -33.307   5.135   1.797  1.00 20.00     0.044 C 
ENDROOT
BRANCH   1   5
HETATM    5  C3  UNL     1     -34.654   4.867   4.373  1.00 20.00     0.171 C 
HETATM    6  O9  UNL     1     -34.239   3.740   4.584  1.00 20.00    -0.646 OA
BRANCH   5   7
HETATM    7  O10 UNL     1     -35.962   5.217   4.361  1.00 20.00    -0.773 OA
HETATM    8  H22 UNL     1     -36.549   4.436   4.271  1.00 20.00     0.167 HD
ENDBRANCH   5   7
ENDBRANCH   1   5
BRANCH   2   9
HETATM    9  C6  UNL     1     -32.332   7.333   2.519  1.00 20.00     0.015 A 
HETATM   10  C4  UNL     1     -32.051   7.547   1.085  1.00 20.00     0.010 A 
HETATM   11  C5  UNL     1     -32.975   8.467   1.825  1.00 20.00     0.010 A 
ENDBRANCH   2   9
TORSDOF 3
ENDMDL
MODEL 9
REMARK VINA RESULT:      -4.2     18.889     20.342
REMARK  3 active torsions:
REMARK  status: ('A' for Active; 'I' for Inactive)
REMARK    1  A    between atoms: C1_1  and  C3_3 
REMARK    2  A    between atoms: C2_2  and  C6_6 
REMARK    3  A    between atoms: C3_3  and  O10_10 
ROOT
HETATM    1  C1  UNL     1     -35.574  14.904  -4.429  1.00 20.00     0.014 C 
HETATM    2  C2  UNL     1     -35.266  15.492  -5.609  1.00 20.00    -0.067 C 
HETATM    3  C7  UNL     1     -35.285  15.465  -3.065  1.00 20.00     0.056 C 
HETATM    4  C8  UNL     1     -35.585  14.926  -6.953  1.00 20.00     0.044 C 
ENDROOT
BRANCH   1   5
HETATM    5  C3  UNL     1     -36.300  13.606  -4.448  1.00 20.00     0.171 C 
HETATM    6  O9  UNL     1     -35.784  12.502  -4.475  1.00 20.00    -0.646 OA
BRANCH   5   7
HETATM    7  O10 UNL     1     -37.634  13.835  -4.436  1.00 20.00    -0.773 OA
HETATM    8  H22 UNL     1     -38.135  13.098  -4.848  1.00 20.00     0.167 HD
ENDBRANCH   5   7
ENDBRANCH   1   5
BRANCH   2   9
HETATM    9  C6  UNL     1     -34.512  16.803  -5.674  1.00 20.00     0.015 A 
HETATM   10  C4  UNL     1     -34.457  17.480  -6.985  1.00 20.00     0.010 A 
HETATM   11  C5  UNL     1     -35.312  18.027  -5.882  1.00 20.00     0.010 A 
ENDBRANCH   2   9
TORSDOF 3
ENDMDL
