MODEL 1
REMARK VINA RESULT:      -4.5      0.000      0.000
REMARK  2 active torsions:
REMARK  status: ('A' for Active; 'I' for Inactive)
REMARK    1  A    between atoms: C2_2  and  C4_4 
REMARK    2  A    between atoms: C4_4  and  C5_5 
ROOT
HETATM    1  C1  UNL     1     -32.957   6.542   2.933  1.00 20.00    -0.035 C 
HETATM    2  C2  UNL     1     -33.478   5.334   2.668  1.00 20.00    -0.030 C 
HETATM    3  C3  UNL     1     -32.375   7.462   1.940  1.00 20.00     0.036 C 
ENDROOT
BRANCH   2   4
HETATM    4  C4  UNL     1     -34.067   4.427   3.711  1.00 20.00     0.042 C 
BRANCH   4   5
HETATM    5  C5  UNL     1     -35.176   5.096   4.517  1.00 20.00     0.118 C 
HETATM    6 CL6  UNL     1     -34.592   5.655   6.103  1.00 20.00    -0.130 Cl
ENDBRANCH   4   5
ENDBRANCH   2   4
TORSDOF 2
ENDMDL
MODEL 2
REMARK VINA RESULT:      -4.1      2.493      3.737
REMARK  2 active torsions:
REMARK  status: ('A' for Active; 'I' for Inactive)
REMARK    1  A    between atoms: C2_2  and  C4_4 
REMARK    2  A    between atoms: C4_4  and  C5_5 
ROOT
HETATM    1  C1  UNL     1     -34.280   5.852   4.747  1.00 20.00    -0.035 C 
HETATM    2  C2  UNL     1     -34.042   5.109   3.654  1.00 20.00    -0.030 C 
HETATM    3  C3  UNL     1     -34.982   5.395   5.959  1.00 20.00     0.036 C 
ENDROOT
BRANCH   2   4
HETATM    4  C4  UNL     1     -33.318   5.612   2.439  1.00 20.00     0.042 C 
BRANCH   4   5
HETATM    5  C5  UNL     1     -32.568   6.916   2.694  1.00 20.00     0.118 C 
HETATM    6 CL6  UNL     1     -32.615   7.991   1.275  1.00 20.00    -0.130 Cl
ENDBRANCH   4   5
ENDBRANCH   2   4
TORSDOF 2
ENDMDL
MODEL 3
REMARK VINA RESULT:      -4.0      1.744      1.885
REMARK  2 active torsions:
REMARK  status: ('A' for Active; 'I' for Inactive)
REMARK    1  A    between atoms: C2_2  and  C4_4 
REMARK    2  A    between atoms: C4_4  and  C5_5 
ROOT
HETATM    1  C1  UNL     1     -32.558   7.087   3.436  1.00 20.00    -0.035 C 
HETATM    2  C2  UNL     1     -33.710   7.006   4.121  1.00 20.00    -0.030 C 
HETATM    3  C3  UNL     1     -32.436   7.322   1.987  1.00 20.00     0.036 C 
ENDROOT
BRANCH   2   4
HETATM    4  C4  UNL     1     -33.791   6.769   5.602  1.00 20.00     0.042 C 
BRANCH   4   5
HETATM    5  C5  UNL     1     -34.590   5.520   5.958  1.00 20.00     0.118 C 
HETATM    6 CL6  UNL     1     -34.992   4.561   4.512  1.00 20.00    -0.130 Cl
ENDBRANCH   4   5
ENDBRANCH   2   4
TORSDOF 2
ENDMDL
MODEL 4
REMARK VINA RESULT:      -4.0      2.786      4.142
REMARK  2 active torsions:
REMARK  status: ('A' for Active; 'I' for Inactive)
REMARK    1  A    between atoms: C2_2  and  C4_4 
REMARK    2  A    between atoms: C4_4  and  C5_5 
ROOT
HETATM    1  C1  UNL     1     -34.144   6.146   4.154  1.00 20.00    -0.035 C 
HETATM    2  C2  UNL     1     -33.300   6.144   3.110  1.00 20.00    -0.030 C 
HETATM    3  C3  UNL     1     -35.012   5.027   4.559  1.00 20.00     0.036 C 
ENDROOT
BRANCH   2   4
HETATM    4  C4  UNL     1     -32.428   7.307   2.733  1.00 20.00     0.042 C 
BRANCH   4   5
HETATM    5  C5  UNL     1     -32.427   7.583   1.232  1.00 20.00     0.118 C 
HETATM    6 CL6  UNL     1     -32.996   9.230   0.865  1.00 20.00    -0.130 Cl
ENDBRANCH   4   5
ENDBRANCH   2   4
TORSDOF 2
ENDMDL
MODEL 5
REMARK VINA RESULT:      -3.8      1.584      2.362
REMARK  2 active torsions:
REMARK  status: ('A' for Active; 'I' for Inactive)
REMARK    1  A    between atoms: C2_2  and  C4_4 
REMARK    2  A    between atoms: C4_4  and  C5_5 
ROOT
HETATM    1  C1  UNL     1     -32.884   8.478   1.374  1.00 20.00    -0.035 C 
HETATM    2  C2  UNL     1     -32.585   7.280   1.899  1.00 20.00    -0.030 C 
HETATM    3  C3  UNL     1     -33.026   8.775  -0.062  1.00 20.00     0.036 C 
ENDROOT
BRANCH   2   4
HETATM    4  C4  UNL     1     -32.455   7.017   3.372  1.00 20.00     0.042 C 
BRANCH   4   5
HETATM    5  C5  UNL     1     -33.750   6.513   4.000  1.00 20.00     0.118 C 
HETATM    6 CL6  UNL     1     -33.826   6.884   5.740  1.00 20.00    -0.130 Cl
ENDBRANCH   4   5
ENDBRANCH   2   4
TORSDOF 2
ENDMDL
MODEL 6
REMARK VINA RESULT:      -3.3      2.282      3.201
REMARK  2 active torsions:
REMARK  status: ('A' for Active; 'I' for Inactive)
REMARK    1  A    between atoms: C2_2  and  C4_4 
REMARK    2  A    between atoms: C4_4  and  C5_5 
ROOT
HETATM    1  C1  UNL     1     -33.943   6.001   5.496  1.00 20.00    -0.035 C 
HETATM    2  C2  UNL     1     -34.588   5.733   4.350  1.00 20.00    -0.030 C 
HETATM    3  C3  UNL     1     -34.198   7.154   6.376  1.00 20.00     0.036 C 
ENDROOT
BRANCH   2   4
HETATM    4  C4  UNL     1     -34.300   4.542   3.483  1.00 20.00     0.042 C 
BRANCH   4   5
HETATM    5  C5  UNL     1     -33.174   4.794   2.486  1.00 20.00     0.118 C 
HETATM    6 CL6  UNL     1     -32.766   6.524   2.378  1.00 20.00    -0.130 Cl
ENDBRANCH   4   5
ENDBRANCH   2   4
TORSDOF 2
ENDMDL
MODEL 7
REMARK VINA RESULT:      -3.1     11.938     12.237
REMARK  2 active torsions:
REMARK  status: ('A' for Active; 'I' for Inactive)
REMARK    1  A    between atoms: C2_2  and  C4_4 
REMARK    2  A    between atoms: C4_4  and  C5_5 
ROOT
HETATM    1  C1  UNL     1     -34.921  15.919  -2.223  1.00 20.00    -0.035 C 
HETATM    2  C2  UNL     1     -33.869  15.791  -3.046  1.00 20.00    -0.030 C 
HETATM    3  C3  UNL     1     -35.048  16.910  -1.140  1.00 20.00     0.036 C 
ENDROOT
BRANCH   2   4
HETATM    4  C4  UNL     1     -33.781  14.768  -4.143  1.00 20.00     0.042 C 
BRANCH   4   5
HETATM    5  C5  UNL     1     -35.007  14.767  -5.050  1.00 20.00     0.118 C 
HETATM    6 CL6  UNL     1     -36.170  13.502  -4.584  1.00 20.00    -0.130 Cl
ENDBRANCH   4   5
ENDBRANCH   2   4
TORSDOF 2
ENDMDL
MODEL 8
REMARK VINA RESULT:      -3.1      8.959      9.314
REMARK  2 active torsions:
REMARK  status: ('A' for Active; 'I' for Inactive)
REMARK    1  A    between atoms: C2_2  and  C4_4 
REMARK    2  A    between atoms: C4_4  and  C5_5 
ROOT
HETATM    1  C1  UNL     1     -42.148   8.482   0.288  1.00 20.00    -0.035 C 
HETATM    2  C2  UNL     1     -41.851   7.267   0.775  1.00 20.00    -0.030 C 
HETATM    3  C3  UNL     1     -41.261   9.658   0.318  1.00 20.00     0.036 C 
ENDROOT
BRANCH   2   4
HETATM    4  C4  UNL     1     -42.783   6.090   0.720  1.00 20.00     0.042 C 
BRANCH   4   5
HETATM    5  C5  UNL     1     -42.608   5.256  -0.545  1.00 20.00     0.118 C 
HETATM    6 CL6  UNL     1     -40.934   5.318  -1.148  1.00 20.00    -0.130 Cl
ENDBRANCH   4   5
ENDBRANCH   2   4
TORSDOF 2
ENDMDL
MODEL 9
REMARK VINA RESULT:      -3.0     12.098     12.710
REMARK  2 active torsions:
REMARK  status: ('A' for Active; 'I' for Inactive)
REMARK    1  A    between atoms: C2_2  and  C4_4 
REMARK    2  A    between atoms: C4_4  and  C5_5 
ROOT
HETATM    1  C1  UNL     1     -33.289  16.199  -3.055  1.00 20.00    -0.035 C 
HETATM    2  C2  UNL     1     -34.412  15.465  -3.012  1.00 20.00    -0.030 C 
HETATM    3  C3  UNL     1     -32.980  17.347  -2.185  1.00 20.00     0.036 C 
ENDROOT
BRANCH   2   4
HETATM    4  C4  UNL     1     -34.687  14.297  -3.917  1.00 20.00     0.042 C 
BRANCH   4   5
HETATM    5  C5  UNL     1     -35.224  14.720  -5.280  1.00 20.00     0.118 C 
HETATM    6 CL6  UNL     1     -33.914  14.937  -6.466  1.00 20.00    -0.130 Cl
ENDBRANCH   4   5
ENDBRANCH   2   4
TORSDOF 2
ENDMDL
