MODEL 1
REMARK VINA RESULT:      -3.5      0.000      0.000
REMARK  3 active torsions:
REMARK  status: ('A' for Active; 'I' for Inactive)
REMARK    1  A    between atoms: C4_4  and  O9_9 
REMARK    2  A    between atoms: C6_6  and  C7_7 
REMARK    3  A    between atoms: C6_6  and  N8_8 
ROOT
HETATM    1  C1  UNL     1     -36.146  13.654  -4.573  1.00 20.00     0.064 C 
HETATM    2  C2  UNL     1     -34.798  13.884  -3.908  1.00 20.00     0.275 C 
HETATM    3  C3  UNL     1     -35.243  15.858  -5.064  1.00 20.00     0.304 C 
HETATM    4  C4  UNL     1     -36.316  14.859  -5.497  1.00 20.00     0.150 C 
HETATM    5  N8  UNL     1     -34.772  15.340  -3.777  1.00 20.00     0.092 N 
ENDROOT
BRANCH   5   6
HETATM    6  C6  UNL     1     -33.454  15.844  -3.421  1.00 20.00     0.287 C 
BRANCH   6   7
HETATM    7  C7  UNL     1     -33.502  16.862  -2.296  1.00 20.00     0.144 C 
HETATM    8 CL10 UNL     1     -34.964  16.658  -1.300  1.00 20.00    -0.129 Cl
ENDBRANCH   6   7
ENDBRANCH   5   6
BRANCH   4   9
HETATM    9  O9  UNL     1     -36.091  14.482  -6.848  1.00 20.00    -0.389 OA
HETATM   10  C5  UNL     1     -35.035  15.232  -7.431  1.00 20.00     0.202 C 
ENDBRANCH   4   9
TORSDOF 3
ENDMDL
MODEL 2
REMARK VINA RESULT:      -3.4      2.310      3.058
REMARK  3 active torsions:
REMARK  status: ('A' for Active; 'I' for Inactive)
REMARK    1  A    between atoms: C4_4  and  O9_9 
REMARK    2  A    between atoms: C6_6  and  C7_7 
REMARK    3  A    between atoms: C6_6  and  N8_8 
ROOT
HETATM    1  C1  UNL     1     -33.558  15.246  -3.880  1.00 20.00     0.064 C 
HETATM    2  C2  UNL     1     -33.145  16.640  -3.432  1.00 20.00     0.275 C 
HETATM    3  C3  UNL     1     -34.999  16.113  -2.123  1.00 20.00     0.304 C 
HETATM    4  C4  UNL     1     -34.894  15.012  -3.177  1.00 20.00     0.150 C 
HETATM    5  N8  UNL     1     -33.648  16.677  -2.060  1.00 20.00     0.092 N 
ENDROOT
BRANCH   5   6
HETATM    6  C6  UNL     1     -33.628  18.018  -1.495  1.00 20.00     0.287 C 
BRANCH   6   7
HETATM    7  C7  UNL     1     -32.297  18.718  -1.701  1.00 20.00     0.144 C 
HETATM    8 CL10 UNL     1     -31.109  18.230  -0.467  1.00 20.00    -0.129 Cl
ENDBRANCH   6   7
ENDBRANCH   5   6
BRANCH   4   9
HETATM    9  O9  UNL     1     -35.967  15.137  -4.099  1.00 20.00    -0.389 OA
HETATM   10  C5  UNL     1     -36.335  13.877  -4.646  1.00 20.00     0.202 C 
ENDBRANCH   4   9
TORSDOF 3
ENDMDL
MODEL 3
REMARK VINA RESULT:      -3.4      1.484      2.291
REMARK  3 active torsions:
REMARK  status: ('A' for Active; 'I' for Inactive)
REMARK    1  A    between atoms: C4_4  and  O9_9 
REMARK    2  A    between atoms: C6_6  and  C7_7 
REMARK    3  A    between atoms: C6_6  and  N8_8 
ROOT
HETATM    1  C1  UNL     1     -36.473  15.422  -5.656  1.00 20.00     0.064 C 
HETATM    2  C2  UNL     1     -35.481  16.209  -4.813  1.00 20.00     0.275 C 
HETATM    3  C3  UNL     1     -35.172  13.986  -4.186  1.00 20.00     0.304 C 
HETATM    4  C4  UNL     1     -36.413  14.009  -5.078  1.00 20.00     0.150 C 
HETATM    5  N8  UNL     1     -34.449  15.208  -4.549  1.00 20.00     0.092 N 
ENDROOT
BRANCH   5   6
HETATM    6  C6  UNL     1     -33.514  15.631  -3.517  1.00 20.00     0.287 C 
BRANCH   6   7
HETATM    7  C7  UNL     1     -34.211  16.202  -2.296  1.00 20.00     0.144 C 
HETATM    8 CL10 UNL     1     -33.271  17.533  -1.576  1.00 20.00    -0.129 Cl
ENDBRANCH   6   7
ENDBRANCH   5   6
BRANCH   4   9
HETATM    9  O9  UNL     1     -37.566  13.749  -4.289  1.00 20.00    -0.389 OA
HETATM   10  C5  UNL     1     -38.517  14.800  -4.394  1.00 20.00     0.202 C 
ENDBRANCH   4   9
TORSDOF 3
ENDMDL
MODEL 4
REMARK VINA RESULT:      -3.4      1.221      2.198
REMARK  3 active torsions:
REMARK  status: ('A' for Active; 'I' for Inactive)
REMARK    1  A    between atoms: C4_4  and  O9_9 
REMARK    2  A    between atoms: C6_6  and  C7_7 
REMARK    3  A    between atoms: C6_6  and  N8_8 
ROOT
HETATM    1  C1  UNL     1     -34.607  16.287  -6.098  1.00 20.00     0.064 C 
HETATM    2  C2  UNL     1     -34.628  16.948  -4.729  1.00 20.00     0.275 C 
HETATM    3  C3  UNL     1     -33.959  14.753  -4.326  1.00 20.00     0.304 C 
HETATM    4  C4  UNL     1     -34.385  14.807  -5.793  1.00 20.00     0.150 C 
HETATM    5  N8  UNL     1     -33.653  16.146  -3.992  1.00 20.00     0.092 N 
ENDROOT
BRANCH   5   6
HETATM    6  C6  UNL     1     -33.692  16.398  -2.559  1.00 20.00     0.287 C 
BRANCH   6   7
HETATM    7  C7  UNL     1     -35.060  16.132  -1.957  1.00 20.00     0.144 C 
HETATM    8 CL10 UNL     1     -35.256  16.968  -0.397  1.00 20.00    -0.129 Cl
ENDBRANCH   6   7
ENDBRANCH   5   6
BRANCH   4   9
HETATM    9  O9  UNL     1     -35.595  14.081  -5.960  1.00 20.00    -0.389 OA
HETATM   10  C5  UNL     1     -36.145  13.688  -4.710  1.00 20.00     0.202 C 
ENDBRANCH   4   9
TORSDOF 3
ENDMDL
MODEL 5
REMARK VINA RESULT:      -3.4      1.608      2.474
REMARK  3 active torsions:
REMARK  status: ('A' for Active; 'I' for Inactive)
REMARK    1  A    between atoms: C4_4  and  O9_9 
REMARK    2  A    between atoms: C6_6  and  C7_7 
REMARK    3  A    between atoms: C6_6  and  N8_8 
ROOT
HETATM    1  C1  UNL     1     -32.907  15.151  -3.908  1.00 20.00     0.064 C 
HETATM    2  C2  UNL     1     -33.452  16.385  -3.206  1.00 20.00     0.275 C 
HETATM    3  C3  UNL     1     -35.272  14.940  -3.381  1.00 20.00     0.304 C 
HETATM    4  C4  UNL     1     -34.150  14.316  -4.210  1.00 20.00     0.150 C 
HETATM    5  N8  UNL     1     -34.574  15.831  -2.450  1.00 20.00     0.092 N 
ENDROOT
BRANCH   5   6
HETATM    6  C6  UNL     1     -35.444  16.863  -1.907  1.00 20.00     0.287 C 
BRANCH   6   7
HETATM    7  C7  UNL     1     -35.306  17.011  -0.402  1.00 20.00     0.144 C 
HETATM    8 CL10 UNL     1     -33.894  18.009   0.025  1.00 20.00    -0.129 Cl
ENDBRANCH   6   7
ENDBRANCH   5   6
BRANCH   4   9
HETATM    9  O9  UNL     1     -34.479  14.402  -5.589  1.00 20.00    -0.389 OA
HETATM   10  C5  UNL     1     -35.886  14.426  -5.790  1.00 20.00     0.202 C 
ENDBRANCH   4   9
TORSDOF 3
ENDMDL
MODEL 6
REMARK VINA RESULT:      -3.3      2.640      4.092
REMARK  3 active torsions:
REMARK  status: ('A' for Active; 'I' for Inactive)
REMARK    1  A    between atoms: C4_4  and  O9_9 
REMARK    2  A    between atoms: C6_6  and  C7_7 
REMARK    3  A    between atoms: C6_6  and  N8_8 
ROOT
HETATM    1  C1  UNL     1     -34.511  16.110  -2.263  1.00 20.00     0.064 C 
HETATM    2  C2  UNL     1     -35.718  15.584  -3.025  1.00 20.00     0.275 C 
HETATM    3  C3  UNL     1     -33.880  15.002  -4.334  1.00 20.00     0.304 C 
HETATM    4  C4  UNL     1     -33.347  15.918  -3.233  1.00 20.00     0.150 C 
HETATM    5  N8  UNL     1     -35.136  14.481  -3.787  1.00 20.00     0.092 N 
ENDROOT
BRANCH   5   6
HETATM    6  C6  UNL     1     -36.032  13.984  -4.820  1.00 20.00     0.287 C 
BRANCH   6   7
HETATM    7  C7  UNL     1     -35.718  14.559  -6.190  1.00 20.00     0.144 C 
HETATM    8 CL10 UNL     1     -36.743  15.970  -6.551  1.00 20.00    -0.129 Cl
ENDBRANCH   6   7
ENDBRANCH   5   6
BRANCH   4   9
HETATM    9  O9  UNL     1     -32.966  17.164  -3.800  1.00 20.00    -0.389 OA
HETATM   10  C5  UNL     1     -32.819  18.167  -2.803  1.00 20.00     0.202 C 
ENDBRANCH   4   9
TORSDOF 3
ENDMDL
MODEL 7
REMARK VINA RESULT:      -3.2     11.599     12.646
REMARK  3 active torsions:
REMARK  status: ('A' for Active; 'I' for Inactive)
REMARK    1  A    between atoms: C4_4  and  O9_9 
REMARK    2  A    between atoms: C6_6  and  C7_7 
REMARK    3  A    between atoms: C6_6  and  N8_8 
ROOT
HETATM    1  C1  UNL     1     -34.609   6.127   5.852  1.00 20.00     0.064 C 
HETATM    2  C2  UNL     1     -33.283   6.777   5.488  1.00 20.00     0.275 C 
HETATM    3  C3  UNL     1     -34.168   6.042   3.462  1.00 20.00     0.304 C 
HETATM    4  C4  UNL     1     -35.064   5.461   4.554  1.00 20.00     0.150 C 
HETATM    5  N8  UNL     1     -33.518   7.187   4.104  1.00 20.00     0.092 N 
ENDROOT
BRANCH   5   6
HETATM    6  C6  UNL     1     -32.295   7.589   3.426  1.00 20.00     0.287 C 
BRANCH   6   7
HETATM    7  C7  UNL     1     -32.351   7.345   1.929  1.00 20.00     0.144 C 
HETATM    8 CL10 UNL     1     -32.848   8.813   1.051  1.00 20.00    -0.129 Cl
ENDBRANCH   6   7
ENDBRANCH   5   6
BRANCH   4   9
HETATM    9  O9  UNL     1     -34.870   4.056   4.626  1.00 20.00    -0.389 OA
HETATM   10  C5  UNL     1     -33.906   3.613   3.680  1.00 20.00     0.202 C 
ENDBRANCH   4   9
TORSDOF 3
ENDMDL
MODEL 8
REMARK VINA RESULT:      -3.2      3.122      4.276
REMARK  3 active torsions:
REMARK  status: ('A' for Active; 'I' for Inactive)
REMARK    1  A    between atoms: C4_4  and  O9_9 
REMARK    2  A    between atoms: C6_6  and  C7_7 
REMARK    3  A    between atoms: C6_6  and  N8_8 
ROOT
HETATM    1  C1  UNL     1     -34.960  16.417  -1.752  1.00 20.00     0.064 C 
HETATM    2  C2  UNL     1     -35.491  15.706  -2.988  1.00 20.00     0.275 C 
HETATM    3  C3  UNL     1     -33.238  16.092  -3.438  1.00 20.00     0.304 C 
HETATM    4  C4  UNL     1     -33.552  16.856  -2.153  1.00 20.00     0.150 C 
HETATM    5  N8  UNL     1     -34.284  15.068  -3.510  1.00 20.00     0.092 N 
ENDROOT
BRANCH   5   6
HETATM    6  C6  UNL     1     -34.466  14.550  -4.858  1.00 20.00     0.287 C 
BRANCH   6   7
HETATM    7  C7  UNL     1     -34.444  15.643  -5.911  1.00 20.00     0.144 C 
HETATM    8 CL10 UNL     1     -33.705  15.068  -7.426  1.00 20.00    -0.129 Cl
ENDBRANCH   6   7
ENDBRANCH   5   6
BRANCH   4   9
HETATM    9  O9  UNL     1     -33.526  18.252  -2.415  1.00 20.00    -0.389 OA
HETATM   10  C5  UNL     1     -32.991  18.531  -3.701  1.00 20.00     0.202 C 
ENDBRANCH   4   9
TORSDOF 3
ENDMDL
MODEL 9
REMARK VINA RESULT:      -3.2     11.412     12.856
REMARK  3 active torsions:
REMARK  status: ('A' for Active; 'I' for Inactive)
REMARK    1  A    between atoms: C4_4  and  O9_9 
REMARK    2  A    between atoms: C6_6  and  C7_7 
REMARK    3  A    between atoms: C6_6  and  N8_8 
ROOT
HETATM    1  C1  UNL     1     -42.542   7.184   0.904  1.00 20.00     0.064 C 
HETATM    2  C2  UNL     1     -43.417   6.334  -0.004  1.00 20.00     0.275 C 
HETATM    3  C3  UNL     1     -41.264   6.114  -0.866  1.00 20.00     0.304 C 
HETATM    4  C4  UNL     1     -41.187   7.206   0.200  1.00 20.00     0.150 C 
HETATM    5  N8  UNL     1     -42.462   5.349  -0.507  1.00 20.00     0.092 N 
ENDROOT
BRANCH   5   6
HETATM    6  C6  UNL     1     -42.990   4.582  -1.625  1.00 20.00     0.287 C 
BRANCH   6   7
HETATM    7  C7  UNL     1     -41.905   3.845  -2.391  1.00 20.00     0.144 C 
HETATM    8 CL10 UNL     1     -42.582   2.498  -3.339  1.00 20.00    -0.129 Cl
ENDBRANCH   6   7
ENDBRANCH   5   6
BRANCH   4   9
HETATM    9  O9  UNL     1     -40.977   8.463  -0.428  1.00 20.00    -0.389 OA
HETATM   10  C5  UNL     1     -41.537   9.526   0.333  1.00 20.00     0.202 C 
ENDBRANCH   4   9
TORSDOF 3
ENDMDL
