MODEL 1
REMARK VINA RESULT:      -3.8      0.000      0.000
REMARK  4 active torsions:
REMARK  status: ('A' for Active; 'I' for Inactive)
REMARK    1  A    between atoms: C1_1  and  C6_6 
REMARK    2  A    between atoms: C2_2  and  C7_7 
REMARK    3  A    between atoms: C6_6  and  O9_9 
REMARK    4  A    between atoms: C8_8  and  O9_9 
ROOT
HETATM    1  C6  UNL     1     -32.845   5.951   2.942  1.00 20.00     0.196 C 
ENDROOT
BRANCH   1   2
HETATM    2  C1  UNL     1     -32.843   6.936   1.818  1.00 20.00    -0.004 C 
HETATM    3  C2  UNL     1     -32.733   8.261   1.991  1.00 20.00    -0.014 C 
BRANCH   3   4
HETATM    4  C7  UNL     1     -32.717   9.243   0.866  1.00 20.00     0.141 C 
HETATM    5 CL10 UNL     1     -33.487   8.533  -0.569  1.00 20.00    -0.126 Cl
ENDBRANCH   3   4
ENDBRANCH   1   2
BRANCH   1   6
HETATM    6  O9  UNL     1     -33.664   6.452   3.986  1.00 20.00    -0.378 OA
BRANCH   6   7
HETATM    7  C8  UNL     1     -34.565   5.450   4.463  1.00 20.00     0.050 C 
HETATM    8  C3  UNL     1     -34.606   5.521   5.988  1.00 20.00     0.045 C 
HETATM    9  C4  UNL     1     -35.941   5.752   3.874  1.00 20.00     0.045 C 
HETATM   10  C5  UNL     1     -34.067   4.084   3.993  1.00 20.00     0.045 C 
ENDBRANCH   6   7
ENDBRANCH   1   6
TORSDOF 4
ENDMDL
MODEL 2
REMARK VINA RESULT:      -3.7     10.937     11.893
REMARK  4 active torsions:
REMARK  status: ('A' for Active; 'I' for Inactive)
REMARK    1  A    between atoms: C1_1  and  C6_6 
REMARK    2  A    between atoms: C2_2  and  C7_7 
REMARK    3  A    between atoms: C6_6  and  O9_9 
REMARK    4  A    between atoms: C8_8  and  O9_9 
ROOT
HETATM    1  C6  UNL     1     -34.667  15.875  -2.532  1.00 20.00     0.196 C 
ENDROOT
BRANCH   1   2
HETATM    2  C1  UNL     1     -34.028  17.019  -1.815  1.00 20.00    -0.004 C 
HETATM    3  C2  UNL     1     -32.847  17.550  -2.165  1.00 20.00    -0.014 C 
BRANCH   3   4
HETATM    4  C7  UNL     1     -32.216  18.703  -1.456  1.00 20.00     0.141 C 
HETATM    5 CL10 UNL     1     -30.948  18.119  -0.358  1.00 20.00    -0.126 Cl
ENDBRANCH   3   4
ENDBRANCH   1   2
BRANCH   1   6
HETATM    6  O9  UNL     1     -34.567  16.100  -3.929  1.00 20.00    -0.378 OA
BRANCH   6   7
HETATM    7  C8  UNL     1     -34.321  14.881  -4.633  1.00 20.00     0.050 C 
HETATM    8  C3  UNL     1     -35.293  13.820  -4.123  1.00 20.00     0.045 C 
HETATM    9  C4  UNL     1     -34.553  15.154  -6.118  1.00 20.00     0.045 C 
HETATM   10  C5  UNL     1     -32.873  14.460  -4.384  1.00 20.00     0.045 C 
ENDBRANCH   6   7
ENDBRANCH   1   6
TORSDOF 4
ENDMDL
MODEL 3
REMARK VINA RESULT:      -3.6     11.086     11.887
REMARK  4 active torsions:
REMARK  status: ('A' for Active; 'I' for Inactive)
REMARK    1  A    between atoms: C1_1  and  C6_6 
REMARK    2  A    between atoms: C2_2  and  C7_7 
REMARK    3  A    between atoms: C6_6  and  O9_9 
REMARK    4  A    between atoms: C8_8  and  O9_9 
ROOT
HETATM    1  C6  UNL     1     -33.274  16.357  -3.063  1.00 20.00     0.196 C 
ENDROOT
BRANCH   1   2
HETATM    2  C1  UNL     1     -33.900  17.035  -1.888  1.00 20.00    -0.004 C 
HETATM    3  C2  UNL     1     -35.064  16.654  -1.342  1.00 20.00    -0.014 C 
BRANCH   3   4
HETATM    4  C7  UNL     1     -35.681  17.324  -0.158  1.00 20.00     0.141 C 
HETATM    5 CL10 UNL     1     -34.415  17.826   0.982  1.00 20.00    -0.126 Cl
ENDBRANCH   3   4
ENDBRANCH   1   2
BRANCH   1   6
HETATM    6  O9  UNL     1     -34.241  16.249  -4.095  1.00 20.00    -0.378 OA
BRANCH   6   7
HETATM    7  C8  UNL     1     -34.184  14.969  -4.726  1.00 20.00     0.050 C 
HETATM    8  C3  UNL     1     -34.350  15.161  -6.232  1.00 20.00     0.045 C 
HETATM    9  C4  UNL     1     -32.820  14.361  -4.409  1.00 20.00     0.045 C 
HETATM   10  C5  UNL     1     -35.305  14.097  -4.160  1.00 20.00     0.045 C 
ENDBRANCH   6   7
ENDBRANCH   1   6
TORSDOF 4
ENDMDL
MODEL 4
REMARK VINA RESULT:      -3.5     11.177     12.163
REMARK  4 active torsions:
REMARK  status: ('A' for Active; 'I' for Inactive)
REMARK    1  A    between atoms: C1_1  and  C6_6 
REMARK    2  A    between atoms: C2_2  and  C7_7 
REMARK    3  A    between atoms: C6_6  and  O9_9 
REMARK    4  A    between atoms: C8_8  and  O9_9 
ROOT
HETATM    1  C6  UNL     1     -32.864  17.777  -2.921  1.00 20.00     0.196 C 
ENDROOT
BRANCH   1   2
HETATM    2  C1  UNL     1     -32.277  18.153  -1.600  1.00 20.00    -0.004 C 
HETATM    3  C2  UNL     1     -32.992  18.256  -0.470  1.00 20.00    -0.014 C 
BRANCH   3   4
HETATM    4  C7  UNL     1     -32.401  18.617   0.852  1.00 20.00     0.141 C 
HETATM    5 CL10 UNL     1     -30.678  18.187   0.884  1.00 20.00    -0.126 Cl
ENDBRANCH   3   4
ENDBRANCH   1   2
BRANCH   1   6
HETATM    6  O9  UNL     1     -32.831  16.365  -3.050  1.00 20.00    -0.378 OA
BRANCH   6   7
HETATM    7  C8  UNL     1     -34.064  15.863  -3.569  1.00 20.00     0.050 C 
HETATM    8  C3  UNL     1     -35.063  15.748  -2.419  1.00 20.00     0.045 C 
HETATM    9  C4  UNL     1     -34.561  16.858  -4.615  1.00 20.00     0.045 C 
HETATM   10  C5  UNL     1     -33.805  14.498  -4.205  1.00 20.00     0.045 C 
ENDBRANCH   6   7
ENDBRANCH   1   6
TORSDOF 4
ENDMDL
MODEL 5
REMARK VINA RESULT:      -3.5     11.242     12.471
REMARK  4 active torsions:
REMARK  status: ('A' for Active; 'I' for Inactive)
REMARK    1  A    between atoms: C1_1  and  C6_6 
REMARK    2  A    between atoms: C2_2  and  C7_7 
REMARK    3  A    between atoms: C6_6  and  O9_9 
REMARK    4  A    between atoms: C8_8  and  O9_9 
ROOT
HETATM    1  C6  UNL     1     -34.408  14.830  -3.724  1.00 20.00     0.196 C 
ENDROOT
BRANCH   1   2
HETATM    2  C1  UNL     1     -34.362  15.839  -2.624  1.00 20.00    -0.004 C 
HETATM    3  C2  UNL     1     -33.372  16.731  -2.472  1.00 20.00    -0.014 C 
BRANCH   3   4
HETATM    4  C7  UNL     1     -33.335  17.748  -1.380  1.00 20.00     0.141 C 
HETATM    5 CL10 UNL     1     -31.654  18.213  -1.042  1.00 20.00    -0.126 Cl
ENDBRANCH   3   4
ENDBRANCH   1   2
BRANCH   1   6
HETATM    6  O9  UNL     1     -33.788  15.382  -4.875  1.00 20.00    -0.378 OA
BRANCH   6   7
HETATM    7  C8  UNL     1     -34.700  15.449  -5.972  1.00 20.00     0.050 C 
HETATM    8  C3  UNL     1     -35.286  16.859  -6.030  1.00 20.00     0.045 C 
HETATM    9  C4  UNL     1     -33.912  15.142  -7.244  1.00 20.00     0.045 C 
HETATM   10  C5  UNL     1     -35.800  14.410  -5.756  1.00 20.00     0.045 C 
ENDBRANCH   6   7
ENDBRANCH   1   6
TORSDOF 4
ENDMDL
MODEL 6
REMARK VINA RESULT:      -3.5     11.302     12.381
REMARK  4 active torsions:
REMARK  status: ('A' for Active; 'I' for Inactive)
REMARK    1  A    between atoms: C1_1  and  C6_6 
REMARK    2  A    between atoms: C2_2  and  C7_7 
REMARK    3  A    between atoms: C6_6  and  O9_9 
REMARK    4  A    between atoms: C8_8  and  O9_9 
ROOT
HETATM    1  C6  UNL     1     -32.818  18.267  -2.275  1.00 20.00     0.196 C 
ENDROOT
BRANCH   1   2
HETATM    2  C1  UNL     1     -32.359  18.628  -0.901  1.00 20.00    -0.004 C 
HETATM    3  C2  UNL     1     -31.169  18.273  -0.396  1.00 20.00    -0.014 C 
BRANCH   3   4
HETATM    4  C7  UNL     1     -30.705  18.647   0.973  1.00 20.00     0.141 C 
HETATM    5 CL10 UNL     1     -31.869  18.073   2.185  1.00 20.00    -0.126 Cl
ENDBRANCH   3   4
ENDBRANCH   1   2
BRANCH   1   6
HETATM    6  O9  UNL     1     -32.741  16.858  -2.426  1.00 20.00    -0.378 OA
BRANCH   6   7
HETATM    7  C8  UNL     1     -33.850  16.356  -3.174  1.00 20.00     0.050 C 
HETATM    8  C3  UNL     1     -33.391  15.127  -3.957  1.00 20.00     0.045 C 
HETATM    9  C4  UNL     1     -34.944  15.980  -2.177  1.00 20.00     0.045 C 
HETATM   10  C5  UNL     1     -34.338  17.454  -4.119  1.00 20.00     0.045 C 
ENDBRANCH   6   7
ENDBRANCH   1   6
TORSDOF 4
ENDMDL
MODEL 7
REMARK VINA RESULT:      -3.4      9.474     10.804
REMARK  4 active torsions:
REMARK  status: ('A' for Active; 'I' for Inactive)
REMARK    1  A    between atoms: C1_1  and  C6_6 
REMARK    2  A    between atoms: C2_2  and  C7_7 
REMARK    3  A    between atoms: C6_6  and  O9_9 
REMARK    4  A    between atoms: C8_8  and  O9_9 
ROOT
HETATM    1  C6  UNL     1     -43.214   4.387  -1.470  1.00 20.00     0.196 C 
ENDROOT
BRANCH   1   2
HETATM    2  C1  UNL     1     -43.127   3.673  -2.779  1.00 20.00    -0.004 C 
HETATM    3  C2  UNL     1     -42.034   3.019  -3.200  1.00 20.00    -0.014 C 
BRANCH   3   4
HETATM    4  C7  UNL     1     -41.954   2.294  -4.502  1.00 20.00     0.141 C 
HETATM    5 CL10 UNL     1     -41.820   0.546  -4.216  1.00 20.00    -0.126 Cl
ENDBRANCH   3   4
ENDBRANCH   1   2
BRANCH   1   6
HETATM    6  O9  UNL     1     -43.112   5.782  -1.704  1.00 20.00    -0.378 OA
BRANCH   6   7
HETATM    7  C8  UNL     1     -42.173   6.389  -0.815  1.00 20.00     0.050 C 
HETATM    8  C3  UNL     1     -41.926   7.824  -1.275  1.00 20.00     0.045 C 
HETATM    9  C4  UNL     1     -42.786   6.371   0.583  1.00 20.00     0.045 C 
HETATM   10  C5  UNL     1     -40.879   5.577  -0.845  1.00 20.00     0.045 C 
ENDBRANCH   6   7
ENDBRANCH   1   6
TORSDOF 4
ENDMDL
MODEL 8
REMARK VINA RESULT:      -3.4     10.933     11.525
REMARK  4 active torsions:
REMARK  status: ('A' for Active; 'I' for Inactive)
REMARK    1  A    between atoms: C1_1  and  C6_6 
REMARK    2  A    between atoms: C2_2  and  C7_7 
REMARK    3  A    between atoms: C6_6  and  O9_9 
REMARK    4  A    between atoms: C8_8  and  O9_9 
ROOT
HETATM    1  C6  UNL     1     -34.123  16.092  -2.439  1.00 20.00     0.196 C 
ENDROOT
BRANCH   1   2
HETATM    2  C1  UNL     1     -34.542  15.086  -3.461  1.00 20.00    -0.004 C 
HETATM    3  C2  UNL     1     -35.821  14.795  -3.738  1.00 20.00    -0.014 C 
BRANCH   3   4
HETATM    4  C7  UNL     1     -36.238  13.800  -4.770  1.00 20.00     0.141 C 
HETATM    5 CL10 UNL     1     -35.778  14.373  -6.386  1.00 20.00    -0.126 Cl
ENDBRANCH   3   4
ENDBRANCH   1   2
BRANCH   1   6
HETATM    6  O9  UNL     1     -35.127  16.172  -1.439  1.00 20.00    -0.378 OA
BRANCH   6   7
HETATM    7  C8  UNL     1     -35.097  17.436  -0.775  1.00 20.00     0.050 C 
HETATM    8  C3  UNL     1     -33.674  17.988  -0.845  1.00 20.00     0.045 C 
HETATM    9  C4  UNL     1     -36.069  18.361  -1.504  1.00 20.00     0.045 C 
HETATM   10  C5  UNL     1     -35.533  17.234   0.676  1.00 20.00     0.045 C 
ENDBRANCH   6   7
ENDBRANCH   1   6
TORSDOF 4
ENDMDL
MODEL 9
REMARK VINA RESULT:      -3.4     11.040     11.887
REMARK  4 active torsions:
REMARK  status: ('A' for Active; 'I' for Inactive)
REMARK    1  A    between atoms: C1_1  and  C6_6 
REMARK    2  A    between atoms: C2_2  and  C7_7 
REMARK    3  A    between atoms: C6_6  and  O9_9 
REMARK    4  A    between atoms: C8_8  and  O9_9 
ROOT
HETATM    1  C6  UNL     1     -33.318  16.471  -3.211  1.00 20.00     0.196 C 
ENDROOT
BRANCH   1   2
HETATM    2  C1  UNL     1     -33.981  16.873  -1.934  1.00 20.00    -0.004 C 
HETATM    3  C2  UNL     1     -33.511  17.831  -1.122  1.00 20.00    -0.014 C 
BRANCH   3   4
HETATM    4  C7  UNL     1     -34.182  18.242   0.147  1.00 20.00     0.141 C 
HETATM    5 CL10 UNL     1     -35.473  17.091   0.550  1.00 20.00    -0.126 Cl
ENDBRANCH   3   4
ENDBRANCH   1   2
BRANCH   1   6
HETATM    6  O9  UNL     1     -34.318  16.251  -4.194  1.00 20.00    -0.378 OA
BRANCH   6   7
HETATM    7  C8  UNL     1     -34.210  14.943  -4.759  1.00 20.00     0.050 C 
HETATM    8  C3  UNL     1     -35.318  14.069  -4.175  1.00 20.00     0.045 C 
HETATM    9  C4  UNL     1     -34.375  15.082  -6.271  1.00 20.00     0.045 C 
HETATM   10  C5  UNL     1     -32.832  14.377  -4.418  1.00 20.00     0.045 C 
ENDBRANCH   6   7
ENDBRANCH   1   6
TORSDOF 4
ENDMDL
