MODEL 1
REMARK VINA RESULT:      -4.4      0.000      0.000
REMARK  2 active torsions:
REMARK  status: ('A' for Active; 'I' for Inactive)
REMARK    1  A    between atoms: C1_1  and  C6_6 
REMARK    2  A    between atoms: C2_2  and  C7_7 
ROOT
HETATM    1  C1  UNL     1     -33.029   6.465   2.716  1.00 20.00    -0.015 C 
HETATM    2  C2  UNL     1     -33.628   6.475   3.917  1.00 20.00    -0.021 C 
ENDROOT
BRANCH   2   3
HETATM    3  C7  UNL     1     -34.572   5.428   4.491  1.00 20.00    -0.034 C 
HETATM    4  C3  UNL     1     -34.084   4.040   4.040  1.00 20.00     0.018 C 
HETATM    5  C4  UNL     1     -34.667   5.436   6.028  1.00 20.00     0.018 C 
HETATM    6  C5  UNL     1     -35.977   5.678   3.914  1.00 20.00     0.018 C 
ENDBRANCH   2   3
BRANCH   1   7
HETATM    7  C6  UNL     1     -32.107   7.544   2.248  1.00 20.00     0.141 C 
HETATM    8 CL8  UNL     1     -32.795   8.346   0.818  1.00 20.00    -0.126 Cl
ENDBRANCH   1   7
TORSDOF 2
ENDMDL
MODEL 2
REMARK VINA RESULT:      -4.3      0.086      1.544
REMARK  2 active torsions:
REMARK  status: ('A' for Active; 'I' for Inactive)
REMARK    1  A    between atoms: C1_1  and  C6_6 
REMARK    2  A    between atoms: C2_2  and  C7_7 
ROOT
HETATM    1  C1  UNL     1     -33.037   6.483   2.681  1.00 20.00    -0.015 C 
HETATM    2  C2  UNL     1     -33.617   6.489   3.891  1.00 20.00    -0.021 C 
ENDROOT
BRANCH   2   3
HETATM    3  C7  UNL     1     -34.584   5.462   4.462  1.00 20.00    -0.034 C 
HETATM    4  C3  UNL     1     -34.594   5.610   5.995  1.00 20.00     0.018 C 
HETATM    5  C4  UNL     1     -36.029   5.598   3.949  1.00 20.00     0.018 C 
HETATM    6  C5  UNL     1     -34.066   4.059   4.097  1.00 20.00     0.018 C 
ENDBRANCH   2   3
BRANCH   1   7
HETATM    7  C6  UNL     1     -32.091   7.542   2.217  1.00 20.00     0.141 C 
HETATM    8 CL8  UNL     1     -32.770   8.383   0.806  1.00 20.00    -0.126 Cl
ENDBRANCH   1   7
TORSDOF 2
ENDMDL
MODEL 3
REMARK VINA RESULT:      -3.6     11.369     12.305
REMARK  2 active torsions:
REMARK  status: ('A' for Active; 'I' for Inactive)
REMARK    1  A    between atoms: C1_1  and  C6_6 
REMARK    2  A    between atoms: C2_2  and  C7_7 
ROOT
HETATM    1  C1  UNL     1     -33.263  17.070  -2.511  1.00 20.00    -0.015 C 
HETATM    2  C2  UNL     1     -34.029  15.988  -2.718  1.00 20.00    -0.021 C 
ENDROOT
BRANCH   2   3
HETATM    3  C7  UNL     1     -34.169  15.181  -4.000  1.00 20.00    -0.034 C 
HETATM    4  C3  UNL     1     -32.794  14.576  -4.340  1.00 20.00     0.018 C 
HETATM    5  C4  UNL     1     -35.198  14.038  -3.920  1.00 20.00     0.018 C 
HETATM    6  C5  UNL     1     -34.589  16.138  -5.129  1.00 20.00     0.018 C 
ENDBRANCH   2   3
BRANCH   1   7
HETATM    7  C6  UNL     1     -33.190  17.790  -1.204  1.00 20.00     0.141 C 
HETATM    8 CL8  UNL     1     -31.505  18.228  -0.849  1.00 20.00    -0.126 Cl
ENDBRANCH   1   7
TORSDOF 2
ENDMDL
MODEL 4
REMARK VINA RESULT:      -3.6     11.307     12.152
REMARK  2 active torsions:
REMARK  status: ('A' for Active; 'I' for Inactive)
REMARK    1  A    between atoms: C1_1  and  C6_6 
REMARK    2  A    between atoms: C2_2  and  C7_7 
ROOT
HETATM    1  C1  UNL     1     -35.180  16.221  -1.945  1.00 20.00    -0.015 C 
HETATM    2  C2  UNL     1     -34.127  15.964  -2.736  1.00 20.00    -0.021 C 
ENDROOT
BRANCH   2   3
HETATM    3  C7  UNL     1     -34.109  15.154  -4.024  1.00 20.00    -0.034 C 
HETATM    4  C3  UNL     1     -34.506  16.085  -5.184  1.00 20.00     0.018 C 
HETATM    5  C4  UNL     1     -32.746  14.518  -4.353  1.00 20.00     0.018 C 
HETATM    6  C5  UNL     1     -35.154  14.031  -3.901  1.00 20.00     0.018 C 
ENDBRANCH   2   3
BRANCH   1   7
HETATM    7  C6  UNL     1     -35.093  17.039  -0.698  1.00 20.00     0.141 C 
HETATM    8 CL8  UNL     1     -33.549  17.918  -0.660  1.00 20.00    -0.126 Cl
ENDBRANCH   1   7
TORSDOF 2
ENDMDL
MODEL 5
REMARK VINA RESULT:      -3.6     15.884     16.824
REMARK  2 active torsions:
REMARK  status: ('A' for Active; 'I' for Inactive)
REMARK    1  A    between atoms: C1_1  and  C6_6 
REMARK    2  A    between atoms: C2_2  and  C7_7 
ROOT
HETATM    1  C1  UNL     1     -22.948  17.626   9.385  1.00 20.00    -0.015 C 
HETATM    2  C2  UNL     1     -24.052  17.794  10.129  1.00 20.00    -0.021 C 
ENDROOT
BRANCH   2   3
HETATM    3  C7  UNL     1     -24.245  17.443  11.597  1.00 20.00    -0.034 C 
HETATM    4  C3  UNL     1     -25.305  18.392  12.184  1.00 20.00     0.018 C 
HETATM    5  C4  UNL     1     -24.696  15.992  11.847  1.00 20.00     0.018 C 
HETATM    6  C5  UNL     1     -22.908  17.670  12.326  1.00 20.00     0.018 C 
ENDBRANCH   2   3
BRANCH   1   7
HETATM    7  C6  UNL     1     -22.859  18.014   7.945  1.00 20.00     0.141 C 
HETATM    8 CL8  UNL     1     -24.332  18.882   7.461  1.00 20.00    -0.126 Cl
ENDBRANCH   1   7
TORSDOF 2
ENDMDL
MODEL 6
REMARK VINA RESULT:      -3.5     11.669     12.779
REMARK  2 active torsions:
REMARK  status: ('A' for Active; 'I' for Inactive)
REMARK    1  A    between atoms: C1_1  and  C6_6 
REMARK    2  A    between atoms: C2_2  and  C7_7 
ROOT
HETATM    1  C1  UNL     1     -33.038  17.717  -1.903  1.00 20.00    -0.015 C 
HETATM    2  C2  UNL     1     -32.993  17.146  -3.117  1.00 20.00    -0.021 C 
ENDROOT
BRANCH   2   3
HETATM    3  C7  UNL     1     -33.905  16.057  -3.664  1.00 20.00    -0.034 C 
HETATM    4  C3  UNL     1     -34.715  16.650  -4.831  1.00 20.00     0.018 C 
HETATM    5  C4  UNL     1     -33.163  14.806  -4.171  1.00 20.00     0.018 C 
HETATM    6  C5  UNL     1     -34.873  15.631  -2.546  1.00 20.00     0.018 C 
ENDBRANCH   2   3
BRANCH   1   7
HETATM    7  C6  UNL     1     -32.097  18.791  -1.463  1.00 20.00     0.141 C 
HETATM    8 CL8  UNL     1     -30.932  18.130  -0.295  1.00 20.00    -0.126 Cl
ENDBRANCH   1   7
TORSDOF 2
ENDMDL
MODEL 7
REMARK VINA RESULT:      -3.5     11.354     12.209
REMARK  2 active torsions:
REMARK  status: ('A' for Active; 'I' for Inactive)
REMARK    1  A    between atoms: C1_1  and  C6_6 
REMARK    2  A    between atoms: C2_2  and  C7_7 
ROOT
HETATM    1  C1  UNL     1     -34.855  16.987  -1.248  1.00 20.00    -0.015 C 
HETATM    2  C2  UNL     1     -35.147  15.965  -2.067  1.00 20.00    -0.021 C 
ENDROOT
BRANCH   2   3
HETATM    3  C7  UNL     1     -34.546  15.670  -3.434  1.00 20.00    -0.034 C 
HETATM    4  C3  UNL     1     -33.052  16.042  -3.393  1.00 20.00     0.018 C 
HETATM    5  C4  UNL     1     -34.671  14.201  -3.877  1.00 20.00     0.018 C 
HETATM    6  C5  UNL     1     -35.255  16.556  -4.474  1.00 20.00     0.018 C 
ENDBRANCH   2   3
BRANCH   1   7
HETATM    7  C6  UNL     1     -35.500  17.184   0.085  1.00 20.00     0.141 C 
HETATM    8 CL8  UNL     1     -34.324  17.865   1.230  1.00 20.00    -0.126 Cl
ENDBRANCH   1   7
TORSDOF 2
ENDMDL
MODEL 8
REMARK VINA RESULT:      -3.5     11.549     12.249
REMARK  2 active torsions:
REMARK  status: ('A' for Active; 'I' for Inactive)
REMARK    1  A    between atoms: C1_1  and  C6_6 
REMARK    2  A    between atoms: C2_2  and  C7_7 
ROOT
HETATM    1  C1  UNL     1     -33.398  16.070  -3.308  1.00 20.00    -0.015 C 
HETATM    2  C2  UNL     1     -34.302  16.209  -2.325  1.00 20.00    -0.021 C 
ENDROOT
BRANCH   2   3
HETATM    3  C7  UNL     1     -34.501  17.409  -1.411  1.00 20.00    -0.034 C 
HETATM    4  C3  UNL     1     -35.242  18.501  -2.206  1.00 20.00     0.018 C 
HETATM    5  C4  UNL     1     -35.305  17.106  -0.134  1.00 20.00     0.018 C 
HETATM    6  C5  UNL     1     -33.116  17.940  -1.002  1.00 20.00     0.018 C 
ENDBRANCH   2   3
BRANCH   1   7
HETATM    7  C6  UNL     1     -33.289  14.846  -4.158  1.00 20.00     0.141 C 
HETATM    8 CL8  UNL     1     -34.734  13.832  -3.945  1.00 20.00    -0.126 Cl
ENDBRANCH   1   7
TORSDOF 2
ENDMDL
MODEL 9
REMARK VINA RESULT:      -3.1      9.072     10.552
REMARK  2 active torsions:
REMARK  status: ('A' for Active; 'I' for Inactive)
REMARK    1  A    between atoms: C1_1  and  C6_6 
REMARK    2  A    between atoms: C2_2  and  C7_7 
ROOT
HETATM    1  C1  UNL     1     -42.147   3.859  -2.403  1.00 20.00    -0.015 C 
HETATM    2  C2  UNL     1     -42.898   4.622  -1.594  1.00 20.00    -0.021 C 
ENDROOT
BRANCH   2   3
HETATM    3  C7  UNL     1     -42.439   5.784  -0.725  1.00 20.00    -0.034 C 
HETATM    4  C3  UNL     1     -43.088   7.073  -1.262  1.00 20.00     0.018 C 
HETATM    5  C4  UNL     1     -42.800   5.641   0.765  1.00 20.00     0.018 C 
HETATM    6  C5  UNL     1     -40.910   5.903  -0.847  1.00 20.00     0.018 C 
ENDBRANCH   2   3
BRANCH   1   7
HETATM    7  C6  UNL     1     -42.698   2.741  -3.226  1.00 20.00     0.141 C 
HETATM    8 CL8  UNL     1     -41.532   2.288  -4.489  1.00 20.00    -0.126 Cl
ENDBRANCH   1   7
TORSDOF 2
ENDMDL
