MODEL 1
REMARK VINA RESULT:      -4.3      0.000      0.000
REMARK  0 active torsions:
REMARK  status: ('A' for Active; 'I' for Inactive)
ROOT
HETATM    1  C1  UNL     1     -23.288  17.941   9.394  1.00 20.00     0.109 C 
HETATM    2  C2  UNL     1     -24.485  18.889   9.290  1.00 20.00     0.226 C 
HETATM    3  C3  UNL     1     -25.363  18.402  11.516  1.00 20.00     0.230 C 
HETATM    4  C4  UNL     1     -24.289  17.366  11.912  1.00 20.00     0.076 C 
HETATM    5  C5  UNL     1     -24.919  19.011   7.827  1.00 20.00     0.043 C 
HETATM    6  C6  UNL     1     -26.685  18.150  12.251  1.00 20.00     0.043 C 
HETATM    7  C7  UNL     1     -24.657  15.911  11.613  1.00 20.00     0.023 C 
HETATM    8  N8  UNL     1     -25.637  18.422  10.073  1.00 20.00     0.093 N 
HETATM    9  S9  UNL     1     -22.698  17.778  11.103  1.00 20.00    -0.160 SA
HETATM   10  H24 UNL     1     -26.434  19.032   9.890  1.00 20.00     0.316 HD
ENDROOT
TORSDOF 0
ENDMDL
MODEL 2
REMARK VINA RESULT:      -3.9     17.186     18.768
REMARK  0 active torsions:
REMARK  status: ('A' for Active; 'I' for Inactive)
ROOT
HETATM    1  C1  UNL     1     -35.735  14.610  -6.176  1.00 20.00     0.109 C 
HETATM    2  C2  UNL     1     -34.244  14.936  -6.300  1.00 20.00     0.226 C 
HETATM    3  C3  UNL     1     -33.902  15.371  -3.922  1.00 20.00     0.230 C 
HETATM    4  C4  UNL     1     -35.360  15.123  -3.480  1.00 20.00     0.076 C 
HETATM    5  C5  UNL     1     -33.962  15.528  -7.684  1.00 20.00     0.043 C 
HETATM    6  C6  UNL     1     -33.185  16.342  -2.975  1.00 20.00     0.043 C 
HETATM    7  C7  UNL     1     -36.240  16.374  -3.428  1.00 20.00     0.023 C 
HETATM    8  N8  UNL     1     -33.799  15.903  -5.288  1.00 20.00     0.093 N 
HETATM    9  S9  UNL     1     -36.136  13.869  -4.567  1.00 20.00    -0.160 SA
HETATM   10  H24 UNL     1     -32.830  16.161  -5.477  1.00 20.00     0.316 HD
ENDROOT
TORSDOF 0
ENDMDL
MODEL 3
REMARK VINA RESULT:      -3.7     16.575     18.192
REMARK  0 active torsions:
REMARK  status: ('A' for Active; 'I' for Inactive)
ROOT
HETATM    1  C1  UNL     1     -33.633  16.050  -3.216  1.00 20.00     0.109 C 
HETATM    2  C2  UNL     1     -34.818  15.835  -2.270  1.00 20.00     0.226 C 
HETATM    3  C3  UNL     1     -36.202  14.649  -3.895  1.00 20.00     0.230 C 
HETATM    4  C4  UNL     1     -35.205  14.725  -5.072  1.00 20.00     0.076 C 
HETATM    5  C5  UNL     1     -34.872  16.973  -1.248  1.00 20.00     0.043 C 
HETATM    6  C6  UNL     1     -37.650  14.556  -4.390  1.00 20.00     0.043 C 
HETATM    7  C7  UNL     1     -35.400  15.922  -6.005  1.00 20.00     0.023 C 
HETATM    8  N8  UNL     1     -36.101  15.796  -2.983  1.00 20.00     0.093 N 
HETATM    9  S9  UNL     1     -33.488  14.712  -4.436  1.00 20.00    -0.160 SA
HETATM   10  H24 UNL     1     -36.860  15.753  -2.302  1.00 20.00     0.316 HD
ENDROOT
TORSDOF 0
ENDMDL
MODEL 4
REMARK VINA RESULT:      -3.4      1.790      2.990
REMARK  0 active torsions:
REMARK  status: ('A' for Active; 'I' for Inactive)
ROOT
HETATM    1  C1  UNL     1     -25.515  18.902   9.634  1.00 20.00     0.109 C 
HETATM    2  C2  UNL     1     -25.524  18.980  11.163  1.00 20.00     0.226 C 
HETATM    3  C3  UNL     1     -23.202  18.281  11.445  1.00 20.00     0.230 C 
HETATM    4  C4  UNL     1     -22.886  18.088   9.946  1.00 20.00     0.076 C 
HETATM    5  C5  UNL     1     -26.937  18.698  11.684  1.00 20.00     0.043 C 
HETATM    6  C6  UNL     1     -22.321  17.385  12.325  1.00 20.00     0.043 C 
HETATM    7  C7  UNL     1     -23.093  16.665   9.423  1.00 20.00     0.023 C 
HETATM    8  N8  UNL     1     -24.607  18.010  11.776  1.00 20.00     0.093 N 
HETATM    9  S9  UNL     1     -23.874  19.263   8.946  1.00 20.00    -0.160 SA
HETATM   10  H24 UNL     1     -24.726  18.033  12.789  1.00 20.00     0.316 HD
ENDROOT
TORSDOF 0
ENDMDL
MODEL 5
REMARK VINA RESULT:      -3.4     17.108     18.641
REMARK  0 active torsions:
REMARK  status: ('A' for Active; 'I' for Inactive)
ROOT
HETATM    1  C1  UNL     1     -36.354  15.168  -5.691  1.00 20.00     0.109 C 
HETATM    2  C2  UNL     1     -37.160  15.561  -4.450  1.00 20.00     0.226 C 
HETATM    3  C3  UNL     1     -35.258  16.463  -3.213  1.00 20.00     0.230 C 
HETATM    4  C4  UNL     1     -34.188  16.170  -4.286  1.00 20.00     0.076 C 
HETATM    5  C5  UNL     1     -38.357  14.618  -4.296  1.00 20.00     0.043 C 
HETATM    6  C6  UNL     1     -34.650  16.488  -1.805  1.00 20.00     0.043 C 
HETATM    7  C7  UNL     1     -33.464  14.831  -4.126  1.00 20.00     0.023 C 
HETATM    8  N8  UNL     1     -36.360  15.491  -3.220  1.00 20.00     0.093 N 
HETATM    9  S9  UNL     1     -34.936  16.271  -5.956  1.00 20.00    -0.160 SA
HETATM   10  H24 UNL     1     -36.966  15.662  -2.418  1.00 20.00     0.316 HD
ENDROOT
TORSDOF 0
ENDMDL
MODEL 6
REMARK VINA RESULT:      -3.3     16.370     17.791
REMARK  0 active torsions:
REMARK  status: ('A' for Active; 'I' for Inactive)
ROOT
HETATM    1  C1  UNL     1     -34.977  15.641  -5.271  1.00 20.00     0.109 C 
HETATM    2  C2  UNL     1     -36.047  15.149  -4.293  1.00 20.00     0.226 C 
HETATM    3  C3  UNL     1     -35.485  16.731  -2.520  1.00 20.00     0.230 C 
HETATM    4  C4  UNL     1     -34.318  17.424  -3.257  1.00 20.00     0.076 C 
HETATM    5  C5  UNL     1     -36.321  13.662  -4.535  1.00 20.00     0.043 C 
HETATM    6  C6  UNL     1     -35.313  16.810  -0.998  1.00 20.00     0.043 C 
HETATM    7  C7  UNL     1     -32.935  16.839  -2.967  1.00 20.00     0.023 C 
HETATM    8  N8  UNL     1     -35.640  15.318  -2.891  1.00 20.00     0.093 N 
HETATM    9  S9  UNL     1     -34.628  17.411  -5.062  1.00 20.00    -0.160 SA
HETATM   10  H24 UNL     1     -36.340  14.886  -2.287  1.00 20.00     0.316 HD
ENDROOT
TORSDOF 0
ENDMDL
MODEL 7
REMARK VINA RESULT:      -3.3     16.801     18.514
REMARK  0 active torsions:
REMARK  status: ('A' for Active; 'I' for Inactive)
ROOT
HETATM    1  C1  UNL     1     -35.409  16.438  -2.750  1.00 20.00     0.109 C 
HETATM    2  C2  UNL     1     -34.140  16.894  -3.475  1.00 20.00     0.226 C 
HETATM    3  C3  UNL     1     -34.700  15.843  -5.607  1.00 20.00     0.230 C 
HETATM    4  C4  UNL     1     -36.041  15.223  -5.157  1.00 20.00     0.076 C 
HETATM    5  C5  UNL     1     -32.995  17.037  -2.469  1.00 20.00     0.043 C 
HETATM    6  C6  UNL     1     -34.064  15.038  -6.747  1.00 20.00     0.043 C 
HETATM    7  C7  UNL     1     -35.947  13.785  -4.644  1.00 20.00     0.023 C 
HETATM    8  N8  UNL     1     -33.721  15.946  -4.516  1.00 20.00     0.093 N 
HETATM    9  S9  UNL     1     -36.820  16.283  -3.882  1.00 20.00    -0.160 SA
HETATM   10  H24 UNL     1     -32.823  16.244  -4.897  1.00 20.00     0.316 HD
ENDROOT
TORSDOF 0
ENDMDL
MODEL 8
REMARK VINA RESULT:      -3.3     15.647     16.854
REMARK  0 active torsions:
REMARK  status: ('A' for Active; 'I' for Inactive)
ROOT
HETATM    1  C1  UNL     1     -34.293  18.313  -1.808  1.00 20.00     0.109 C 
HETATM    2  C2  UNL     1     -34.724  17.029  -1.094  1.00 20.00     0.226 C 
HETATM    3  C3  UNL     1     -34.305  15.553  -2.993  1.00 20.00     0.230 C 
HETATM    4  C4  UNL     1     -33.835  16.648  -3.974  1.00 20.00     0.076 C 
HETATM    5  C5  UNL     1     -35.784  17.359  -0.039  1.00 20.00     0.043 C 
HETATM    6  C6  UNL     1     -34.913  14.357  -3.735  1.00 20.00     0.043 C 
HETATM    7  C7  UNL     1     -34.935  17.231  -4.864  1.00 20.00     0.023 C 
HETATM    8  N8  UNL     1     -35.291  16.039  -2.019  1.00 20.00     0.093 N 
HETATM    9  S9  UNL     1     -33.008  17.998  -3.052  1.00 20.00    -0.160 SA
HETATM   10  H24 UNL     1     -35.653  15.250  -1.482  1.00 20.00     0.316 HD
ENDROOT
TORSDOF 0
ENDMDL
MODEL 9
REMARK VINA RESULT:      -3.3     17.295     18.776
REMARK  0 active torsions:
REMARK  status: ('A' for Active; 'I' for Inactive)
ROOT
HETATM    1  C1  UNL     1     -36.365  16.726  -5.228  1.00 20.00     0.109 C 
HETATM    2  C2  UNL     1     -35.226  16.453  -6.214  1.00 20.00     0.226 C 
HETATM    3  C3  UNL     1     -34.083  14.821  -4.802  1.00 20.00     0.230 C 
HETATM    4  C4  UNL     1     -35.063  14.892  -3.611  1.00 20.00     0.076 C 
HETATM    5  C5  UNL     1     -34.966  17.704  -7.058  1.00 20.00     0.043 C 
HETATM    6  C6  UNL     1     -32.677  14.409  -4.349  1.00 20.00     0.043 C 
HETATM    7  C7  UNL     1     -34.675  15.887  -2.516  1.00 20.00     0.023 C 
HETATM    8  N8  UNL     1     -33.975  16.091  -5.534  1.00 20.00     0.093 N 
HETATM    9  S9  UNL     1     -36.751  15.268  -4.216  1.00 20.00    -0.160 SA
HETATM   10  H24 UNL     1     -33.228  16.019  -6.226  1.00 20.00     0.316 HD
ENDROOT
TORSDOF 0
ENDMDL
