MODEL 1
REMARK VINA RESULT:      -4.6      0.000      0.000
REMARK  0 active torsions:
REMARK  status: ('A' for Active; 'I' for Inactive)
ROOT
HETATM    1  C1  UNL     1     -25.917  18.681  11.539  1.00 20.00    -0.088 C 
HETATM    2  C2  UNL     1     -27.119  18.348  12.030  1.00 20.00     0.014 C 
HETATM    3  C3  UNL     1     -25.735  19.225  10.148  1.00 20.00     0.033 C 
HETATM    4  C4  UNL     1     -24.644  18.523  12.332  1.00 20.00     0.042 C 
HETATM    5  C5  UNL     1     -24.706  18.403   9.371  1.00 20.00     0.005 C 
HETATM    6  C6  UNL     1     -23.393  18.245  10.144  1.00 20.00     0.009 C 
HETATM    7  C7  UNL     1     -23.586  17.683  11.575  1.00 20.00    -0.044 C 
HETATM    8  C8  UNL     1     -22.246  17.764  12.330  1.00 20.00     0.015 C 
HETATM    9  C9  UNL     1     -24.012  16.201  11.519  1.00 20.00     0.015 C 
ENDROOT
TORSDOF 0
ENDMDL
MODEL 2
REMARK VINA RESULT:      -4.4      1.215      3.552
REMARK  0 active torsions:
REMARK  status: ('A' for Active; 'I' for Inactive)
ROOT
HETATM    1  C1  UNL     1     -22.605  17.716   9.556  1.00 20.00    -0.088 C 
HETATM    2  C2  UNL     1     -22.285  17.026   8.453  1.00 20.00     0.014 C 
HETATM    3  C3  UNL     1     -21.583  18.111  10.588  1.00 20.00     0.033 C 
HETATM    4  C4  UNL     1     -24.019  18.140   9.867  1.00 20.00     0.042 C 
HETATM    5  C5  UNL     1     -22.001  17.638  11.980  1.00 20.00     0.005 C 
HETATM    6  C6  UNL     1     -23.427  18.075  12.331  1.00 20.00     0.009 C 
HETATM    7  C7  UNL     1     -24.476  17.664  11.268  1.00 20.00    -0.044 C 
HETATM    8  C8  UNL     1     -25.823  18.329  11.609  1.00 20.00     0.015 C 
HETATM    9  C9  UNL     1     -24.684  16.135  11.277  1.00 20.00     0.015 C 
ENDROOT
TORSDOF 0
ENDMDL
MODEL 3
REMARK VINA RESULT:      -4.3      1.563      3.478
REMARK  0 active torsions:
REMARK  status: ('A' for Active; 'I' for Inactive)
ROOT
HETATM    1  C1  UNL     1     -22.701  17.457   8.578  1.00 20.00    -0.088 C 
HETATM    2  C2  UNL     1     -21.423  17.399   8.177  1.00 20.00     0.014 C 
HETATM    3  C3  UNL     1     -23.660  18.501   8.075  1.00 20.00     0.033 C 
HETATM    4  C4  UNL     1     -23.280  16.491   9.581  1.00 20.00     0.042 C 
HETATM    5  C5  UNL     1     -24.312  19.249   9.239  1.00 20.00     0.005 C 
HETATM    6  C6  UNL     1     -24.930  18.292  10.263  1.00 20.00     0.009 C 
HETATM    7  C7  UNL     1     -23.939  17.219  10.779  1.00 20.00    -0.044 C 
HETATM    8  C8  UNL     1     -24.709  16.192  11.629  1.00 20.00     0.015 C 
HETATM    9  C9  UNL     1     -22.862  17.867  11.674  1.00 20.00     0.015 C 
ENDROOT
TORSDOF 0
ENDMDL
MODEL 4
REMARK VINA RESULT:      -4.2     16.487     17.499
REMARK  0 active torsions:
REMARK  status: ('A' for Active; 'I' for Inactive)
ROOT
HETATM    1  C1  UNL     1     -32.975   6.540   2.854  1.00 20.00    -0.088 C 
HETATM    2  C2  UNL     1     -32.940   7.630   2.075  1.00 20.00     0.014 C 
HETATM    3  C3  UNL     1     -32.578   5.176   2.356  1.00 20.00     0.033 C 
HETATM    4  C4  UNL     1     -33.431   6.584   4.291  1.00 20.00     0.042 C 
HETATM    5  C5  UNL     1     -33.691   4.158   2.607  1.00 20.00     0.005 C 
HETATM    6  C6  UNL     1     -34.158   4.166   4.065  1.00 20.00     0.009 C 
HETATM    7  C7  UNL     1     -34.567   5.571   4.573  1.00 20.00    -0.044 C 
HETATM    8  C8  UNL     1     -34.814   5.503   6.092  1.00 20.00     0.015 C 
HETATM    9  C9  UNL     1     -35.877   6.028   3.898  1.00 20.00     0.015 C 
ENDROOT
TORSDOF 0
ENDMDL
MODEL 5
REMARK VINA RESULT:      -4.2     15.938     16.856
REMARK  0 active torsions:
REMARK  status: ('A' for Active; 'I' for Inactive)
ROOT
HETATM    1  C1  UNL     1     -34.270   6.210   4.648  1.00 20.00    -0.088 C 
HETATM    2  C2  UNL     1     -34.259   6.440   5.968  1.00 20.00     0.014 C 
HETATM    3  C3  UNL     1     -34.490   4.839   4.068  1.00 20.00     0.033 C 
HETATM    4  C4  UNL     1     -34.045   7.302   3.633  1.00 20.00     0.042 C 
HETATM    5  C5  UNL     1     -33.362   4.466   3.105  1.00 20.00     0.005 C 
HETATM    6  C6  UNL     1     -33.127   5.549   2.047  1.00 20.00     0.009 C 
HETATM    7  C7  UNL     1     -32.899   6.958   2.650  1.00 20.00    -0.044 C 
HETATM    8  C8  UNL     1     -32.886   7.994   1.511  1.00 20.00     0.015 C 
HETATM    9  C9  UNL     1     -31.535   7.023   3.368  1.00 20.00     0.015 C 
ENDROOT
TORSDOF 0
ENDMDL
MODEL 6
REMARK VINA RESULT:      -4.1     16.254     17.930
REMARK  0 active torsions:
REMARK  status: ('A' for Active; 'I' for Inactive)
ROOT
HETATM    1  C1  UNL     1     -33.879  14.972  -4.569  1.00 20.00    -0.088 C 
HETATM    2  C2  UNL     1     -33.705  14.847  -5.892  1.00 20.00     0.014 C 
HETATM    3  C3  UNL     1     -35.014  14.310  -3.836  1.00 20.00     0.033 C 
HETATM    4  C4  UNL     1     -32.960  15.799  -3.705  1.00 20.00     0.042 C 
HETATM    5  C5  UNL     1     -35.806  15.332  -3.021  1.00 20.00     0.005 C 
HETATM    6  C6  UNL     1     -34.900  16.173  -2.116  1.00 20.00     0.009 C 
HETATM    7  C7  UNL     1     -33.734  16.853  -2.875  1.00 20.00    -0.044 C 
HETATM    8  C8  UNL     1     -32.774  17.490  -1.853  1.00 20.00     0.015 C 
HETATM    9  C9  UNL     1     -34.267  17.975  -3.790  1.00 20.00     0.015 C 
ENDROOT
TORSDOF 0
ENDMDL
MODEL 7
REMARK VINA RESULT:      -4.1     15.605     17.176
REMARK  0 active torsions:
REMARK  status: ('A' for Active; 'I' for Inactive)
ROOT
HETATM    1  C1  UNL     1     -34.972  17.201  -1.356  1.00 20.00    -0.088 C 
HETATM    2  C2  UNL     1     -35.993  17.949  -0.915  1.00 20.00     0.014 C 
HETATM    3  C3  UNL     1     -33.538  17.642  -1.240  1.00 20.00     0.033 C 
HETATM    4  C4  UNL     1     -35.174  15.863  -2.020  1.00 20.00     0.042 C 
HETATM    5  C5  UNL     1     -32.841  17.597  -2.600  1.00 20.00     0.005 C 
HETATM    6  C6  UNL     1     -33.011  16.239  -3.289  1.00 20.00     0.009 C 
HETATM    7  C7  UNL     1     -34.489  15.791  -3.407  1.00 20.00    -0.044 C 
HETATM    8  C8  UNL     1     -34.533  14.337  -3.915  1.00 20.00     0.015 C 
HETATM    9  C9  UNL     1     -35.241  16.673  -4.426  1.00 20.00     0.015 C 
ENDROOT
TORSDOF 0
ENDMDL
MODEL 8
REMARK VINA RESULT:      -4.0     17.468     19.130
REMARK  0 active torsions:
REMARK  status: ('A' for Active; 'I' for Inactive)
ROOT
HETATM    1  C1  UNL     1     -33.976  15.607  -3.269  1.00 20.00    -0.088 C 
HETATM    2  C2  UNL     1     -33.395  16.562  -2.531  1.00 20.00     0.014 C 
HETATM    3  C3  UNL     1     -33.229  14.831  -4.320  1.00 20.00     0.033 C 
HETATM    4  C4  UNL     1     -35.431  15.240  -3.122  1.00 20.00     0.042 C 
HETATM    5  C5  UNL     1     -33.949  14.903  -5.667  1.00 20.00     0.005 C 
HETATM    6  C6  UNL     1     -35.425  14.513  -5.551  1.00 20.00     0.009 C 
HETATM    7  C7  UNL     1     -36.191  15.316  -4.470  1.00 20.00    -0.044 C 
HETATM    8  C8  UNL     1     -37.593  14.706  -4.291  1.00 20.00     0.015 C 
HETATM    9  C9  UNL     1     -36.363  16.785  -4.910  1.00 20.00     0.015 C 
ENDROOT
TORSDOF 0
ENDMDL
MODEL 9
REMARK VINA RESULT:      -4.0      1.709      3.316
REMARK  0 active torsions:
REMARK  status: ('A' for Active; 'I' for Inactive)
ROOT
HETATM    1  C1  UNL     1     -24.055  16.762  11.144  1.00 20.00    -0.088 C 
HETATM    2  C2  UNL     1     -25.348  16.778  11.497  1.00 20.00     0.014 C 
HETATM    3  C3  UNL     1     -22.941  16.922  12.143  1.00 20.00     0.033 C 
HETATM    4  C4  UNL     1     -23.607  16.599   9.713  1.00 20.00     0.042 C 
HETATM    5  C5  UNL     1     -22.000  18.055  11.734  1.00 20.00     0.005 C 
HETATM    6  C6  UNL     1     -21.510  17.903  10.290  1.00 20.00     0.009 C 
HETATM    7  C7  UNL     1     -22.660  17.740   9.265  1.00 20.00    -0.044 C 
HETATM    8  C8  UNL     1     -22.062  17.386   7.891  1.00 20.00     0.015 C 
HETATM    9  C9  UNL     1     -23.442  19.062   9.117  1.00 20.00     0.015 C 
ENDROOT
TORSDOF 0
ENDMDL
