MODEL 1
REMARK VINA RESULT:      -4.3      0.000      0.000
REMARK  2 active torsions:
REMARK  status: ('A' for Active; 'I' for Inactive)
REMARK    1  A    between atoms: C2_2  and  C6_6 
REMARK    2  A    between atoms: C3_3  and  O7_7 
ROOT
HETATM    1  C1  UNL     1     -35.493   5.857   3.787  1.00 20.00     0.045 A 
HETATM    2  C2  UNL     1     -34.026   6.186   3.889  1.00 20.00     0.022 A 
HETATM    3  C3  UNL     1     -34.595   5.024   4.667  1.00 20.00     0.058 A 
HETATM    4  C4  UNL     1     -34.719   5.113   6.152  1.00 20.00     0.046 C 
ENDROOT
BRANCH   3   5
HETATM    5  O7  UNL     1     -34.301   3.701   4.188  1.00 20.00    -0.390 OA
HETATM    6  H19 UNL     1     -35.086   3.416   3.703  1.00 20.00     0.210 HD
ENDBRANCH   3   5
BRANCH   2   7
HETATM    7  C6  UNL     1     -33.131   5.974   2.716  1.00 20.00     0.003 C 
HETATM    8  C5  UNL     1     -32.473   7.244   2.241  1.00 20.00     0.005 C 
ENDBRANCH   2   7
TORSDOF 2
ENDMDL
MODEL 2
REMARK VINA RESULT:      -3.8      8.329      9.023
REMARK  2 active torsions:
REMARK  status: ('A' for Active; 'I' for Inactive)
REMARK    1  A    between atoms: C2_2  and  C6_6 
REMARK    2  A    between atoms: C3_3  and  O7_7 
ROOT
HETATM    1  C1  UNL     1     -40.956   5.642  -0.930  1.00 20.00     0.045 A 
HETATM    2  C2  UNL     1     -41.779   6.818  -0.474  1.00 20.00     0.022 A 
HETATM    3  C3  UNL     1     -42.215   5.414  -0.131  1.00 20.00     0.058 A 
HETATM    4  C4  UNL     1     -43.417   4.825  -0.790  1.00 20.00     0.046 C 
ENDROOT
BRANCH   3   5
HETATM    5  O7  UNL     1     -42.026   4.976   1.225  1.00 20.00    -0.390 OA
HETATM    6  H19 UNL     1     -42.395   5.674   1.782  1.00 20.00     0.210 HD
ENDBRANCH   3   5
BRANCH   2   7
HETATM    7  C6  UNL     1     -41.247   7.744   0.566  1.00 20.00     0.003 C 
HETATM    8  C5  UNL     1     -41.508   9.195   0.251  1.00 20.00     0.005 C 
ENDBRANCH   2   7
TORSDOF 2
ENDMDL
MODEL 3
REMARK VINA RESULT:      -3.7      1.249      3.390
REMARK  2 active torsions:
REMARK  status: ('A' for Active; 'I' for Inactive)
REMARK    1  A    between atoms: C2_2  and  C6_6 
REMARK    2  A    between atoms: C3_3  and  O7_7 
ROOT
HETATM    1  C1  UNL     1     -32.771   6.855   4.372  1.00 20.00     0.045 A 
HETATM    2  C2  UNL     1     -34.186   6.667   3.888  1.00 20.00     0.022 A 
HETATM    3  C3  UNL     1     -33.031   6.470   2.936  1.00 20.00     0.058 A 
HETATM    4  C4  UNL     1     -32.787   7.459   1.846  1.00 20.00     0.046 C 
ENDROOT
BRANCH   3   5
HETATM    5  O7  UNL     1     -32.692   5.119   2.579  1.00 20.00    -0.390 OA
HETATM    6  H19 UNL     1     -32.316   4.722   3.376  1.00 20.00     0.210 HD
ENDBRANCH   3   5
BRANCH   2   7
HETATM    7  C6  UNL     1     -34.996   5.516   4.379  1.00 20.00     0.003 C 
HETATM    8  C5  UNL     1     -34.820   5.259   5.854  1.00 20.00     0.005 C 
ENDBRANCH   2   7
TORSDOF 2
ENDMDL
MODEL 4
REMARK VINA RESULT:      -3.7     16.773     17.415
REMARK  2 active torsions:
REMARK  status: ('A' for Active; 'I' for Inactive)
REMARK    1  A    between atoms: C2_2  and  C6_6 
REMARK    2  A    between atoms: C3_3  and  O7_7 
ROOT
HETATM    1  C1  UNL     1     -22.781  17.436  12.045  1.00 20.00     0.045 A 
HETATM    2  C2  UNL     1     -24.018  18.115  11.517  1.00 20.00     0.022 A 
HETATM    3  C3  UNL     1     -23.516  16.849  10.866  1.00 20.00     0.058 A 
HETATM    4  C4  UNL     1     -22.904  16.903   9.506  1.00 20.00     0.046 C 
ENDROOT
BRANCH   3   5
HETATM    5  O7  UNL     1     -24.248  15.639  11.124  1.00 20.00    -0.390 OA
HETATM    6  H19 UNL     1     -23.596  14.927  11.103  1.00 20.00     0.210 HD
ENDBRANCH   3   5
BRANCH   2   7
HETATM    7  C6  UNL     1     -25.266  18.130  12.332  1.00 20.00     0.003 C 
HETATM    8  C5  UNL     1     -26.254  19.174  11.875  1.00 20.00     0.005 C 
ENDBRANCH   2   7
TORSDOF 2
ENDMDL
MODEL 5
REMARK VINA RESULT:      -3.6     12.130     12.480
REMARK  2 active torsions:
REMARK  status: ('A' for Active; 'I' for Inactive)
REMARK    1  A    between atoms: C2_2  and  C6_6 
REMARK    2  A    between atoms: C3_3  and  O7_7 
ROOT
HETATM    1  C1  UNL     1     -35.629  14.621  -5.987  1.00 20.00     0.045 A 
HETATM    2  C2  UNL     1     -35.150  15.066  -4.630  1.00 20.00     0.022 A 
HETATM    3  C3  UNL     1     -36.237  14.025  -4.742  1.00 20.00     0.058 A 
HETATM    4  C4  UNL     1     -37.639  14.368  -4.362  1.00 20.00     0.046 C 
ENDROOT
BRANCH   3   5
HETATM    5  O7  UNL     1     -35.878  12.662  -4.461  1.00 20.00    -0.390 OA
HETATM    6  H19 UNL     1     -36.506  12.117  -4.954  1.00 20.00     0.210 HD
ENDBRANCH   3   5
BRANCH   2   7
HETATM    7  C6  UNL     1     -33.777  14.712  -4.170  1.00 20.00     0.003 C 
HETATM    8  C5  UNL     1     -33.096  15.836  -3.431  1.00 20.00     0.005 C 
ENDBRANCH   2   7
TORSDOF 2
ENDMDL
MODEL 6
REMARK VINA RESULT:      -3.6     16.254     17.103
REMARK  2 active torsions:
REMARK  status: ('A' for Active; 'I' for Inactive)
REMARK    1  A    between atoms: C2_2  and  C6_6 
REMARK    2  A    between atoms: C3_3  and  O7_7 
ROOT
HETATM    1  C1  UNL     1     -22.753  18.064  10.705  1.00 20.00     0.045 A 
HETATM    2  C2  UNL     1     -24.087  17.382  10.545  1.00 20.00     0.022 A 
HETATM    3  C3  UNL     1     -23.106  17.399   9.398  1.00 20.00     0.058 A 
HETATM    4  C4  UNL     1     -23.385  18.232   8.192  1.00 20.00     0.046 C 
ENDROOT
BRANCH   3   5
HETATM    5  O7  UNL     1     -22.407  16.176   9.108  1.00 20.00    -0.390 OA
HETATM    6  H19 UNL     1     -22.586  15.984   8.179  1.00 20.00     0.210 HD
ENDBRANCH   3   5
BRANCH   2   7
HETATM    7  C6  UNL     1     -24.381  16.131  11.301  1.00 20.00     0.003 C 
HETATM    8  C5  UNL     1     -25.468  16.307  12.330  1.00 20.00     0.005 C 
ENDBRANCH   2   7
TORSDOF 2
ENDMDL
MODEL 7
REMARK VINA RESULT:      -3.5     16.871     17.649
REMARK  2 active torsions:
REMARK  status: ('A' for Active; 'I' for Inactive)
REMARK    1  A    between atoms: C2_2  and  C6_6 
REMARK    2  A    between atoms: C3_3  and  O7_7 
ROOT
HETATM    1  C1  UNL     1     -23.772  16.739  10.207  1.00 20.00     0.045 A 
HETATM    2  C2  UNL     1     -23.794  18.230   9.993  1.00 20.00     0.022 A 
HETATM    3  C3  UNL     1     -22.713  17.605  10.843  1.00 20.00     0.058 A 
HETATM    4  C4  UNL     1     -22.715  17.815  12.321  1.00 20.00     0.046 C 
ENDROOT
BRANCH   3   5
HETATM    5  O7  UNL     1     -21.398  17.507  10.273  1.00 20.00    -0.390 OA
HETATM    6  H19 UNL     1     -21.449  16.805   9.612  1.00 20.00     0.210 HD
ENDBRANCH   3   5
BRANCH   2   7
HETATM    7  C6  UNL     1     -23.495  18.795   8.646  1.00 20.00     0.003 C 
HETATM    8  C5  UNL     1     -24.728  18.980   7.799  1.00 20.00     0.005 C 
ENDBRANCH   2   7
TORSDOF 2
ENDMDL
MODEL 8
REMARK VINA RESULT:      -3.5      8.697      9.288
REMARK  2 active torsions:
REMARK  status: ('A' for Active; 'I' for Inactive)
REMARK    1  A    between atoms: C2_2  and  C6_6 
REMARK    2  A    between atoms: C3_3  and  O7_7 
ROOT
HETATM    1  C1  UNL     1     -42.722   7.430  -1.158  1.00 20.00     0.045 A 
HETATM    2  C2  UNL     1     -41.282   6.990  -1.116  1.00 20.00     0.022 A 
HETATM    3  C3  UNL     1     -41.870   7.761   0.041  1.00 20.00     0.058 A 
HETATM    4  C4  UNL     1     -41.449   9.172   0.286  1.00 20.00     0.046 C 
ENDROOT
BRANCH   3   5
HETATM    5  O7  UNL     1     -42.166   7.028   1.242  1.00 20.00    -0.390 OA
HETATM    6  H19 UNL     1     -43.129   6.976   1.288  1.00 20.00     0.210 HD
ENDBRANCH   3   5
BRANCH   2   7
HETATM    7  C6  UNL     1     -40.946   5.543  -0.996  1.00 20.00     0.003 C 
HETATM    8  C5  UNL     1     -41.927   4.650  -1.715  1.00 20.00     0.005 C 
ENDBRANCH   2   7
TORSDOF 2
ENDMDL
MODEL 9
REMARK VINA RESULT:      -3.4     12.145     13.313
REMARK  2 active torsions:
REMARK  status: ('A' for Active; 'I' for Inactive)
REMARK    1  A    between atoms: C2_2  and  C6_6 
REMARK    2  A    between atoms: C3_3  and  O7_7 
ROOT
HETATM    1  C1  UNL     1     -34.520  14.320  -4.141  1.00 20.00     0.045 A 
HETATM    2  C2  UNL     1     -34.326  15.372  -5.202  1.00 20.00     0.022 A 
HETATM    3  C3  UNL     1     -33.286  15.188  -4.123  1.00 20.00     0.058 A 
HETATM    4  C4  UNL     1     -33.123  16.225  -3.062  1.00 20.00     0.046 C 
ENDROOT
BRANCH   3   5
HETATM    5  O7  UNL     1     -32.058  14.538  -4.492  1.00 20.00    -0.390 OA
HETATM    6  H19 UNL     1     -32.105  13.651  -4.114  1.00 20.00     0.210 HD
ENDBRANCH   3   5
BRANCH   2   7
HETATM    7  C6  UNL     1     -34.063  14.969  -6.613  1.00 20.00     0.003 C 
HETATM    8  C5  UNL     1     -34.239  16.103  -7.591  1.00 20.00     0.005 C 
ENDBRANCH   2   7
TORSDOF 2
ENDMDL
