MODEL 1
REMARK VINA RESULT:      -4.4      0.000      0.000
REMARK  3 active torsions:
REMARK  status: ('A' for Active; 'I' for Inactive)
REMARK    1  A    between atoms: C6_6  and  C8_8 
REMARK    2  A    between atoms: C6_6  and  C9_9 
REMARK    3  A    between atoms: C9_9  and  O10_10 
ROOT
HETATM    1  C1  UNL     1     -33.576  16.252  -2.608  1.00 20.00     0.000 C 
HETATM    2  C2  UNL     1     -34.983  16.795  -2.830  1.00 20.00     0.001 C 
HETATM    3  C3  UNL     1     -33.075  15.465  -3.814  1.00 20.00     0.001 C 
HETATM    4  C4  UNL     1     -35.962  15.689  -3.225  1.00 20.00     0.011 C 
HETATM    5  C5  UNL     1     -34.049  14.357  -4.211  1.00 20.00     0.011 C 
HETATM    6  C6  UNL     1     -35.491  14.861  -4.443  1.00 20.00    -0.019 C 
ENDROOT
BRANCH   6   7
HETATM    7  C8  UNL     1     -35.570  15.701  -5.732  1.00 20.00     0.007 C 
HETATM    8  C7  UNL     1     -35.613  14.832  -6.940  1.00 20.00     0.006 C 
ENDBRANCH   6   7
BRANCH   6   9
HETATM    9  C9  UNL     1     -36.425  13.647  -4.612  1.00 20.00     0.173 C 
BRANCH   9  10
HETATM   10  O10 UNL     1     -35.696  12.486  -4.278  1.00 20.00    -0.400 OA
HETATM   11  H28 UNL     1     -35.664  11.924  -5.072  1.00 20.00     0.209 HD
ENDBRANCH   9  10
ENDBRANCH   6   9
TORSDOF 3
ENDMDL
MODEL 2
REMARK VINA RESULT:      -4.3      1.700      3.413
REMARK  3 active torsions:
REMARK  status: ('A' for Active; 'I' for Inactive)
REMARK    1  A    between atoms: C6_6  and  C8_8 
REMARK    2  A    between atoms: C6_6  and  C9_9 
REMARK    3  A    between atoms: C9_9  and  O10_10 
ROOT
HETATM    1  C1  UNL     1     -37.277  15.613  -5.210  1.00 20.00     0.000 C 
HETATM    2  C2  UNL     1     -36.265  16.745  -5.075  1.00 20.00     0.001 C 
HETATM    3  C3  UNL     1     -37.025  14.502  -4.195  1.00 20.00     0.001 C 
HETATM    4  C4  UNL     1     -34.827  16.230  -5.152  1.00 20.00     0.011 C 
HETATM    5  C5  UNL     1     -35.589  13.984  -4.270  1.00 20.00     0.011 C 
HETATM    6  C6  UNL     1     -34.526  15.098  -4.143  1.00 20.00    -0.019 C 
ENDROOT
BRANCH   6   7
HETATM    7  C8  UNL     1     -34.491  15.650  -2.705  1.00 20.00     0.007 C 
HETATM    8  C7  UNL     1     -33.401  16.651  -2.538  1.00 20.00     0.006 C 
ENDBRANCH   6   7
BRANCH   6   9
HETATM    9  C9  UNL     1     -33.139  14.506  -4.456  1.00 20.00     0.173 C 
BRANCH   9  10
HETATM   10  O10 UNL     1     -32.977  14.493  -5.857  1.00 20.00    -0.400 OA
HETATM   11  H28 UNL     1     -33.684  13.934  -6.227  1.00 20.00     0.209 HD
ENDBRANCH   9  10
ENDBRANCH   6   9
TORSDOF 3
ENDMDL
MODEL 3
REMARK VINA RESULT:      -4.2      1.887      2.356
REMARK  3 active torsions:
REMARK  status: ('A' for Active; 'I' for Inactive)
REMARK    1  A    between atoms: C6_6  and  C8_8 
REMARK    2  A    between atoms: C6_6  and  C9_9 
REMARK    3  A    between atoms: C9_9  and  O10_10 
ROOT
HETATM    1  C1  UNL     1     -34.387  17.135  -1.282  1.00 20.00     0.000 C 
HETATM    2  C2  UNL     1     -35.541  16.477  -2.029  1.00 20.00     0.001 C 
HETATM    3  C3  UNL     1     -33.271  17.566  -2.229  1.00 20.00     0.001 C 
HETATM    4  C4  UNL     1     -35.064  15.315  -2.900  1.00 20.00     0.011 C 
HETATM    5  C5  UNL     1     -32.789  16.406  -3.100  1.00 20.00     0.011 C 
HETATM    6  C6  UNL     1     -33.928  15.705  -3.874  1.00 20.00    -0.019 C 
ENDROOT
BRANCH   6   7
HETATM    7  C8  UNL     1     -34.464  16.618  -4.993  1.00 20.00     0.007 C 
HETATM    8  C7  UNL     1     -34.861  15.828  -6.190  1.00 20.00     0.006 C 
ENDBRANCH   6   7
BRANCH   6   9
HETATM    9  C9  UNL     1     -33.374  14.427  -4.532  1.00 20.00     0.173 C 
BRANCH   9  10
HETATM   10  O10 UNL     1     -31.966  14.514  -4.536  1.00 20.00    -0.400 OA
HETATM   11  H28 UNL     1     -31.619  13.628  -4.332  1.00 20.00     0.209 HD
ENDBRANCH   9  10
ENDBRANCH   6   9
TORSDOF 3
ENDMDL
MODEL 4
REMARK VINA RESULT:      -4.1      1.572      2.647
REMARK  3 active torsions:
REMARK  status: ('A' for Active; 'I' for Inactive)
REMARK    1  A    between atoms: C6_6  and  C8_8 
REMARK    2  A    between atoms: C6_6  and  C9_9 
REMARK    3  A    between atoms: C9_9  and  O10_10 
ROOT
HETATM    1  C1  UNL     1     -34.798  17.524  -2.348  1.00 20.00     0.000 C 
HETATM    2  C2  UNL     1     -33.651  16.521  -2.360  1.00 20.00     0.001 C 
HETATM    3  C3  UNL     1     -36.043  16.971  -3.034  1.00 20.00     0.001 C 
HETATM    4  C4  UNL     1     -33.341  16.031  -3.775  1.00 20.00     0.011 C 
HETATM    5  C5  UNL     1     -35.738  16.483  -4.449  1.00 20.00     0.011 C 
HETATM    6  C6  UNL     1     -34.577  15.465  -4.511  1.00 20.00    -0.019 C 
ENDROOT
BRANCH   6   7
HETATM    7  C8  UNL     1     -35.003  14.119  -3.897  1.00 20.00     0.007 C 
HETATM    8  C7  UNL     1     -36.200  13.565  -4.588  1.00 20.00     0.006 C 
ENDBRANCH   6   7
BRANCH   6   9
HETATM    9  C9  UNL     1     -34.208  15.215  -5.986  1.00 20.00     0.173 C 
BRANCH   9  10
HETATM   10  O10 UNL     1     -33.001  14.486  -6.016  1.00 20.00    -0.400 OA
HETATM   11  H28 UNL     1     -32.311  15.048  -5.620  1.00 20.00     0.209 HD
ENDBRANCH   9  10
ENDBRANCH   6   9
TORSDOF 3
ENDMDL
MODEL 5
REMARK VINA RESULT:      -4.1     10.437     12.048
REMARK  3 active torsions:
REMARK  status: ('A' for Active; 'I' for Inactive)
REMARK    1  A    between atoms: C6_6  and  C8_8 
REMARK    2  A    between atoms: C6_6  and  C9_9 
REMARK    3  A    between atoms: C9_9  and  O10_10 
ROOT
HETATM    1  C1  UNL     1     -41.447   8.886  -0.130  1.00 20.00     0.000 C 
HETATM    2  C2  UNL     1     -42.965   8.777  -0.045  1.00 20.00     0.001 C 
HETATM    3  C3  UNL     1     -40.825   7.653  -0.778  1.00 20.00     0.001 C 
HETATM    4  C4  UNL     1     -43.402   7.492   0.659  1.00 20.00     0.011 C 
HETATM    5  C5  UNL     1     -41.257   6.367  -0.076  1.00 20.00     0.011 C 
HETATM    6  C6  UNL     1     -42.791   6.215   0.038  1.00 20.00    -0.019 C 
ENDROOT
BRANCH   6   7
HETATM    7  C8  UNL     1     -43.411   5.935  -1.344  1.00 20.00     0.007 C 
HETATM    8  C7  UNL     1     -42.951   4.628  -1.887  1.00 20.00     0.006 C 
ENDBRANCH   6   7
BRANCH   6   9
HETATM    9  C9  UNL     1     -43.110   5.015   0.950  1.00 20.00     0.173 C 
BRANCH   9  10
HETATM   10  O10 UNL     1     -41.916   4.630   1.596  1.00 20.00    -0.400 OA
HETATM   11  H28 UNL     1     -41.223   5.259   1.327  1.00 20.00     0.209 HD
ENDBRANCH   9  10
ENDBRANCH   6   9
TORSDOF 3
ENDMDL
MODEL 6
REMARK VINA RESULT:      -4.0     10.227     11.905
REMARK  3 active torsions:
REMARK  status: ('A' for Active; 'I' for Inactive)
REMARK    1  A    between atoms: C6_6  and  C8_8 
REMARK    2  A    between atoms: C6_6  and  C9_9 
REMARK    3  A    between atoms: C9_9  and  O10_10 
ROOT
HETATM    1  C1  UNL     1     -41.718   9.105  -0.006  1.00 20.00     0.000 C 
HETATM    2  C2  UNL     1     -41.248   7.986   0.916  1.00 20.00     0.001 C 
HETATM    3  C3  UNL     1     -42.970   8.711  -0.783  1.00 20.00     0.001 C 
HETATM    4  C4  UNL     1     -41.047   6.674   0.157  1.00 20.00     0.011 C 
HETATM    5  C5  UNL     1     -42.773   7.401  -1.545  1.00 20.00     0.011 C 
HETATM    6  C6  UNL     1     -42.291   6.237  -0.650  1.00 20.00    -0.019 C 
ENDROOT
BRANCH   6   7
HETATM    7  C8  UNL     1     -43.417   5.779   0.296  1.00 20.00     0.007 C 
HETATM    8  C7  UNL     1     -42.874   5.012   1.450  1.00 20.00     0.006 C 
ENDBRANCH   6   7
BRANCH   6   9
HETATM    9  C9  UNL     1     -41.911   5.042  -1.545  1.00 20.00     0.173 C 
BRANCH   9  10
HETATM   10  O10 UNL     1     -40.602   4.642  -1.205  1.00 20.00    -0.400 OA
HETATM   11  H28 UNL     1     -40.404   5.011  -0.326  1.00 20.00     0.209 HD
ENDBRANCH   9  10
ENDBRANCH   6   9
TORSDOF 3
ENDMDL
MODEL 7
REMARK VINA RESULT:      -4.0      1.485      2.610
REMARK  3 active torsions:
REMARK  status: ('A' for Active; 'I' for Inactive)
REMARK    1  A    between atoms: C6_6  and  C8_8 
REMARK    2  A    between atoms: C6_6  and  C9_9 
REMARK    3  A    between atoms: C9_9  and  O10_10 
ROOT
HETATM    1  C1  UNL     1     -33.172  15.948  -3.410  1.00 20.00     0.000 C 
HETATM    2  C2  UNL     1     -33.066  14.677  -4.244  1.00 20.00     0.001 C 
HETATM    3  C3  UNL     1     -34.623  16.315  -3.115  1.00 20.00     0.001 C 
HETATM    4  C4  UNL     1     -33.892  14.772  -5.527  1.00 20.00     0.011 C 
HETATM    5  C5  UNL     1     -35.452  16.412  -4.395  1.00 20.00     0.011 C 
HETATM    6  C6  UNL     1     -35.371  15.146  -5.278  1.00 20.00    -0.019 C 
ENDROOT
BRANCH   6   7
HETATM    7  C8  UNL     1     -36.121  13.975  -4.614  1.00 20.00     0.007 C 
HETATM    8  C7  UNL     1     -37.521  14.353  -4.278  1.00 20.00     0.006 C 
ENDBRANCH   6   7
BRANCH   6   9
HETATM    9  C9  UNL     1     -36.049  15.434  -6.631  1.00 20.00     0.173 C 
BRANCH   9  10
HETATM   10  O10 UNL     1     -35.962  14.267  -7.419  1.00 20.00    -0.400 OA
HETATM   11  H28 UNL     1     -35.025  14.004  -7.448  1.00 20.00     0.209 HD
ENDBRANCH   9  10
ENDBRANCH   6   9
TORSDOF 3
ENDMDL
MODEL 8
REMARK VINA RESULT:      -3.9      1.484      1.953
REMARK  3 active torsions:
REMARK  status: ('A' for Active; 'I' for Inactive)
REMARK    1  A    between atoms: C6_6  and  C8_8 
REMARK    2  A    between atoms: C6_6  and  C9_9 
REMARK    3  A    between atoms: C9_9  and  O10_10 
ROOT
HETATM    1  C1  UNL     1     -33.201  14.710  -4.426  1.00 20.00     0.000 C 
HETATM    2  C2  UNL     1     -33.792  15.561  -3.307  1.00 20.00     0.001 C 
HETATM    3  C3  UNL     1     -33.941  14.914  -5.744  1.00 20.00     0.001 C 
HETATM    4  C4  UNL     1     -35.294  15.326  -3.149  1.00 20.00     0.011 C 
HETATM    5  C5  UNL     1     -35.443  14.677  -5.591  1.00 20.00     0.011 C 
HETATM    6  C6  UNL     1     -36.085  15.516  -4.463  1.00 20.00    -0.019 C 
ENDROOT
BRANCH   6   7
HETATM    7  C8  UNL     1     -36.132  17.005  -4.856  1.00 20.00     0.007 C 
HETATM    8  C7  UNL     1     -36.928  17.211  -6.097  1.00 20.00     0.006 C 
ENDBRANCH   6   7
BRANCH   6   9
HETATM    9  C9  UNL     1     -37.535  15.040  -4.247  1.00 20.00     0.173 C 
BRANCH   9  10
HETATM   10  O10 UNL     1     -37.569  13.644  -4.448  1.00 20.00    -0.400 OA
HETATM   11  H28 UNL     1     -37.572  13.488  -5.409  1.00 20.00     0.209 HD
ENDBRANCH   9  10
ENDBRANCH   6   9
TORSDOF 3
ENDMDL
MODEL 9
REMARK VINA RESULT:      -3.9      1.753      2.130
REMARK  3 active torsions:
REMARK  status: ('A' for Active; 'I' for Inactive)
REMARK    1  A    between atoms: C6_6  and  C8_8 
REMARK    2  A    between atoms: C6_6  and  C9_9 
REMARK    3  A    between atoms: C9_9  and  O10_10 
ROOT
HETATM    1  C1  UNL     1     -34.736  16.553  -1.649  1.00 20.00     0.000 C 
HETATM    2  C2  UNL     1     -35.910  16.647  -2.617  1.00 20.00     0.001 C 
HETATM    3  C3  UNL     1     -33.406  16.829  -2.341  1.00 20.00     0.001 C 
HETATM    4  C4  UNL     1     -35.713  15.744  -3.835  1.00 20.00     0.011 C 
HETATM    5  C5  UNL     1     -33.204  15.927  -3.557  1.00 20.00     0.011 C 
HETATM    6  C6  UNL     1     -34.373  15.986  -4.567  1.00 20.00    -0.019 C 
ENDROOT
BRANCH   6   7
HETATM    7  C8  UNL     1     -34.391  17.343  -5.295  1.00 20.00     0.007 C 
HETATM    8  C7  UNL     1     -34.808  17.187  -6.716  1.00 20.00     0.006 C 
ENDBRANCH   6   7
BRANCH   6   9
HETATM    9  C9  UNL     1     -34.176  14.884  -5.626  1.00 20.00     0.173 C 
BRANCH   9  10
HETATM   10  O10 UNL     1     -32.857  14.397  -5.509  1.00 20.00    -0.400 OA
HETATM   11  H28 UNL     1     -32.733  14.112  -4.586  1.00 20.00     0.209 HD
ENDBRANCH   9  10
ENDBRANCH   6   9
TORSDOF 3
ENDMDL
