MODEL 1
REMARK VINA RESULT:      -4.7      0.000      0.000
REMARK  3 active torsions:
REMARK  status: ('A' for Active; 'I' for Inactive)
REMARK    1  A    between atoms: C1_1  and  C6_6 
REMARK    2  A    between atoms: C2_2  and  C7_7 
REMARK    3  A    between atoms: C3_3  and  C7_7 
ROOT
HETATM    1  C1  UNL     1     -33.292   6.120   2.750  1.00 20.00    -0.026 C 
HETATM    2  C2  UNL     1     -32.691   7.282   2.449  1.00 20.00    -0.020 C 
ENDROOT
BRANCH   2   3
HETATM    3  C7  UNL     1     -32.126   7.603   1.101  1.00 20.00     0.140 C 
BRANCH   3   4
HETATM    4  C3  UNL     1     -32.961   8.726   0.498  1.00 20.00     0.176 C 
HETATM    5  O8  UNL     1     -32.883   9.836   1.098  1.00 20.00    -0.648 OA
HETATM    6  O9  UNL     1     -33.638   8.405  -0.519  1.00 20.00    -0.648 OA
ENDBRANCH   3   4
ENDBRANCH   2   3
BRANCH   1   7
HETATM    7  C6  UNL     1     -33.852   5.758   4.064  1.00 20.00     0.008 A 
HETATM    8  C4  UNL     1     -35.331   5.569   4.178  1.00 20.00     0.009 A 
HETATM    9  C5  UNL     1     -34.415   4.384   4.243  1.00 20.00     0.009 A 
ENDBRANCH   1   7
TORSDOF 3
ENDMDL
MODEL 2
REMARK VINA RESULT:      -4.7      0.031      1.079
REMARK  3 active torsions:
REMARK  status: ('A' for Active; 'I' for Inactive)
REMARK    1  A    between atoms: C1_1  and  C6_6 
REMARK    2  A    between atoms: C2_2  and  C7_7 
REMARK    3  A    between atoms: C3_3  and  C7_7 
ROOT
HETATM    1  C1  UNL     1     -33.271   6.105   2.779  1.00 20.00    -0.026 C 
HETATM    2  C2  UNL     1     -32.742   7.296   2.456  1.00 20.00    -0.020 C 
ENDROOT
BRANCH   2   3
HETATM    3  C7  UNL     1     -32.144   7.607   1.120  1.00 20.00     0.140 C 
BRANCH   3   4
HETATM    4  C3  UNL     1     -32.960   8.730   0.491  1.00 20.00     0.176 C 
HETATM    5  O8  UNL     1     -33.619   8.406  -0.537  1.00 20.00    -0.648 OA
HETATM    6  O9  UNL     1     -32.865   9.850   1.068  1.00 20.00    -0.648 OA
ENDBRANCH   3   4
ENDBRANCH   2   3
BRANCH   1   7
HETATM    7  C6  UNL     1     -33.860   5.753   4.083  1.00 20.00     0.008 A 
HETATM    8  C4  UNL     1     -35.342   5.571   4.168  1.00 20.00     0.009 A 
HETATM    9  C5  UNL     1     -34.433   4.383   4.257  1.00 20.00     0.009 A 
ENDBRANCH   1   7
TORSDOF 3
ENDMDL
MODEL 3
REMARK VINA RESULT:      -4.6     10.064     10.866
REMARK  3 active torsions:
REMARK  status: ('A' for Active; 'I' for Inactive)
REMARK    1  A    between atoms: C1_1  and  C6_6 
REMARK    2  A    between atoms: C2_2  and  C7_7 
REMARK    3  A    between atoms: C3_3  and  C7_7 
ROOT
HETATM    1  C1  UNL     1     -35.148  15.777  -3.055  1.00 20.00    -0.026 C 
HETATM    2  C2  UNL     1     -34.759  15.289  -4.244  1.00 20.00    -0.020 C 
ENDROOT
BRANCH   2   3
HETATM    3  C7  UNL     1     -35.702  14.750  -5.274  1.00 20.00     0.140 C 
BRANCH   3   4
HETATM    4  C3  UNL     1     -36.443  13.570  -4.658  1.00 20.00     0.176 C 
HETATM    5  O8  UNL     1     -35.737  12.544  -4.443  1.00 20.00    -0.648 OA
HETATM    6  O9  UNL     1     -37.676  13.758  -4.452  1.00 20.00    -0.648 OA
ENDBRANCH   3   4
ENDBRANCH   2   3
BRANCH   1   7
HETATM    7  C6  UNL     1     -34.255  16.306  -2.010  1.00 20.00     0.008 A 
HETATM    8  C4  UNL     1     -33.048  17.081  -2.431  1.00 20.00     0.009 A 
HETATM    9  C5  UNL     1     -34.209  17.785  -1.797  1.00 20.00     0.009 A 
ENDBRANCH   1   7
TORSDOF 3
ENDMDL
MODEL 4
REMARK VINA RESULT:      -4.6      3.132      5.029
REMARK  3 active torsions:
REMARK  status: ('A' for Active; 'I' for Inactive)
REMARK    1  A    between atoms: C1_1  and  C6_6 
REMARK    2  A    between atoms: C2_2  and  C7_7 
REMARK    3  A    between atoms: C3_3  and  C7_7 
ROOT
HETATM    1  C1  UNL     1     -33.003   6.857   2.082  1.00 20.00    -0.026 C 
HETATM    2  C2  UNL     1     -33.377   6.804   3.371  1.00 20.00    -0.020 C 
ENDROOT
BRANCH   2   3
HETATM    3  C7  UNL     1     -34.090   5.639   3.984  1.00 20.00     0.140 C 
BRANCH   3   4
HETATM    4  C3  UNL     1     -34.322   5.955   5.457  1.00 20.00     0.176 C 
HETATM    5  O8  UNL     1     -34.972   5.081   6.098  1.00 20.00    -0.648 OA
HETATM    6  O9  UNL     1     -33.847   7.057   5.851  1.00 20.00    -0.648 OA
ENDBRANCH   3   4
ENDBRANCH   2   3
BRANCH   1   7
HETATM    7  C6  UNL     1     -32.310   7.986   1.436  1.00 20.00     0.008 A 
HETATM    8  C4  UNL     1     -32.758   8.407   0.072  1.00 20.00     0.009 A 
HETATM    9  C5  UNL     1     -33.054   9.271   1.261  1.00 20.00     0.009 A 
ENDBRANCH   1   7
TORSDOF 3
ENDMDL
MODEL 5
REMARK VINA RESULT:      -4.5      0.885      1.522
REMARK  3 active torsions:
REMARK  status: ('A' for Active; 'I' for Inactive)
REMARK    1  A    between atoms: C1_1  and  C6_6 
REMARK    2  A    between atoms: C2_2  and  C7_7 
REMARK    3  A    between atoms: C3_3  and  C7_7 
ROOT
HETATM    1  C1  UNL     1     -33.700   6.771   3.853  1.00 20.00    -0.026 C 
HETATM    2  C2  UNL     1     -33.360   6.727   2.555  1.00 20.00    -0.020 C 
ENDROOT
BRANCH   2   3
HETATM    3  C7  UNL     1     -32.234   7.514   1.961  1.00 20.00     0.140 C 
BRANCH   3   4
HETATM    4  C3  UNL     1     -32.825   8.477   0.938  1.00 20.00     0.176 C 
HETATM    5  O8  UNL     1     -33.136   7.957  -0.172  1.00 20.00    -0.648 OA
HETATM    6  O9  UNL     1     -32.917   9.677   1.321  1.00 20.00    -0.648 OA
ENDBRANCH   3   4
ENDBRANCH   2   3
BRANCH   1   7
HETATM    7  C6  UNL     1     -34.805   6.023   4.478  1.00 20.00     0.008 A 
HETATM    8  C4  UNL     1     -34.663   4.542   4.631  1.00 20.00     0.009 A 
HETATM    9  C5  UNL     1     -34.586   5.432   5.834  1.00 20.00     0.009 A 
ENDBRANCH   1   7
TORSDOF 3
ENDMDL
MODEL 6
REMARK VINA RESULT:      -4.5      9.997     10.924
REMARK  3 active torsions:
REMARK  status: ('A' for Active; 'I' for Inactive)
REMARK    1  A    between atoms: C1_1  and  C6_6 
REMARK    2  A    between atoms: C2_2  and  C7_7 
REMARK    3  A    between atoms: C3_3  and  C7_7 
ROOT
HETATM    1  C1  UNL     1     -34.470  15.608  -3.022  1.00 20.00    -0.026 C 
HETATM    2  C2  UNL     1     -35.374  15.688  -4.012  1.00 20.00    -0.020 C 
ENDROOT
BRANCH   2   3
HETATM    3  C7  UNL     1     -35.488  14.688  -5.119  1.00 20.00     0.140 C 
BRANCH   3   4
HETATM    4  C3  UNL     1     -36.356  13.537  -4.623  1.00 20.00     0.176 C 
HETATM    5  O8  UNL     1     -37.583  13.810  -4.485  1.00 20.00    -0.648 OA
HETATM    6  O9  UNL     1     -35.740  12.457  -4.398  1.00 20.00    -0.648 OA
ENDBRANCH   3   4
ENDBRANCH   2   3
BRANCH   1   7
HETATM    7  C6  UNL     1     -34.316  16.573  -1.920  1.00 20.00     0.008 A 
HETATM    8  C4  UNL     1     -33.089  17.427  -1.889  1.00 20.00     0.009 A 
HETATM    9  C5  UNL     1     -34.416  18.032  -2.233  1.00 20.00     0.009 A 
ENDBRANCH   1   7
TORSDOF 3
ENDMDL
MODEL 7
REMARK VINA RESULT:      -4.5      9.831     10.881
REMARK  3 active torsions:
REMARK  status: ('A' for Active; 'I' for Inactive)
REMARK    1  A    between atoms: C1_1  and  C6_6 
REMARK    2  A    between atoms: C2_2  and  C7_7 
REMARK    3  A    between atoms: C3_3  and  C7_7 
ROOT
HETATM    1  C1  UNL     1     -34.532  15.845  -2.531  1.00 20.00    -0.026 C 
HETATM    2  C2  UNL     1     -34.825  15.309  -3.727  1.00 20.00    -0.020 C 
ENDROOT
BRANCH   2   3
HETATM    3  C7  UNL     1     -35.156  13.864  -3.934  1.00 20.00     0.140 C 
BRANCH   3   4
HETATM    4  C3  UNL     1     -36.309  13.785  -4.928  1.00 20.00     0.176 C 
HETATM    5  O8  UNL     1     -37.457  13.678  -4.412  1.00 20.00    -0.648 OA
HETATM    6  O9  UNL     1     -35.972  13.824  -6.145  1.00 20.00    -0.648 OA
ENDBRANCH   3   4
ENDBRANCH   2   3
BRANCH   1   7
HETATM    7  C6  UNL     1     -34.191  17.256  -2.284  1.00 20.00     0.008 A 
HETATM    8  C4  UNL     1     -33.870  17.675  -0.884  1.00 20.00     0.009 A 
HETATM    9  C5  UNL     1     -32.782  17.593  -1.912  1.00 20.00     0.009 A 
ENDBRANCH   1   7
TORSDOF 3
ENDMDL
MODEL 8
REMARK VINA RESULT:      -4.3     16.115     16.795
REMARK  3 active torsions:
REMARK  status: ('A' for Active; 'I' for Inactive)
REMARK    1  A    between atoms: C1_1  and  C6_6 
REMARK    2  A    between atoms: C2_2  and  C7_7 
REMARK    3  A    between atoms: C3_3  and  C7_7 
ROOT
HETATM    1  C1  UNL     1     -22.896  17.667  11.395  1.00 20.00    -0.026 C 
HETATM    2  C2  UNL     1     -22.882  18.125  10.133  1.00 20.00    -0.020 C 
ENDROOT
BRANCH   2   3
HETATM    3  C7  UNL     1     -21.703  18.011   9.218  1.00 20.00     0.140 C 
BRANCH   3   4
HETATM    4  C3  UNL     1     -22.216  17.609   7.840  1.00 20.00     0.176 C 
HETATM    5  O8  UNL     1     -21.618  16.630   7.309  1.00 20.00    -0.648 OA
HETATM    6  O9  UNL     1     -23.166  18.312   7.394  1.00 20.00    -0.648 OA
ENDBRANCH   3   4
ENDBRANCH   2   3
BRANCH   1   7
HETATM    7  C6  UNL     1     -24.028  17.766  12.332  1.00 20.00     0.008 A 
HETATM    8  C4  UNL     1     -25.291  18.410  11.855  1.00 20.00     0.009 A 
HETATM    9  C5  UNL     1     -25.240  16.928  12.074  1.00 20.00     0.009 A 
ENDBRANCH   1   7
TORSDOF 3
ENDMDL
MODEL 9
REMARK VINA RESULT:      -4.0     10.618     11.555
REMARK  3 active torsions:
REMARK  status: ('A' for Active; 'I' for Inactive)
REMARK    1  A    between atoms: C1_1  and  C6_6 
REMARK    2  A    between atoms: C2_2  and  C7_7 
REMARK    3  A    between atoms: C3_3  and  C7_7 
ROOT
HETATM    1  C1  UNL     1     -33.880  17.303  -1.375  1.00 20.00    -0.026 C 
HETATM    2  C2  UNL     1     -32.828  18.070  -1.049  1.00 20.00    -0.020 C 
ENDROOT
BRANCH   2   3
HETATM    3  C7  UNL     1     -32.528  18.525   0.344  1.00 20.00     0.140 C 
BRANCH   3   4
HETATM    4  C3  UNL     1     -31.014  18.524   0.522  1.00 20.00     0.176 C 
HETATM    5  O8  UNL     1     -30.351  18.267  -0.522  1.00 20.00    -0.648 OA
HETATM    6  O9  UNL     1     -30.611  18.766   1.695  1.00 20.00    -0.648 OA
ENDBRANCH   3   4
ENDBRANCH   2   3
BRANCH   1   7
HETATM    7  C6  UNL     1     -34.219  16.840  -2.733  1.00 20.00     0.008 A 
HETATM    8  C4  UNL     1     -33.314  15.849  -3.392  1.00 20.00     0.009 A 
HETATM    9  C5  UNL     1     -34.669  15.426  -2.911  1.00 20.00     0.009 A 
ENDBRANCH   1   7
TORSDOF 3
ENDMDL
