MODEL 1
REMARK VINA RESULT:      -4.8      0.000      0.000
REMARK  3 active torsions:
REMARK  status: ('A' for Active; 'I' for Inactive)
REMARK    1  A    between atoms: C4_4  and  C5_5 
REMARK    2  A    between atoms: C5_5  and  C6_6 
REMARK    3  A    between atoms: C6_6  and  N8_8 
ROOT
HETATM    1  C1  UNL     1     -32.716   8.328   1.115  1.00 20.00     0.177 C 
HETATM    2  N7  UNL     1     -32.885   9.351   0.595  1.00 20.00    -0.172 NA
HETATM    3  N8  UNL     1     -32.523   7.135   1.757  1.00 20.00    -0.329 N 
HETATM    4  H18 UNL     1     -31.894   6.444   1.287  1.00 20.00     0.171 HD
ENDROOT
BRANCH   3   5
HETATM    5  C6  UNL     1     -32.684   6.923   3.170  1.00 20.00     0.132 C 
BRANCH   5   6
HETATM    6  C5  UNL     1     -33.638   5.777   3.480  1.00 20.00     0.025 C 
BRANCH   6   7
HETATM    7  C4  UNL     1     -34.611   6.108   4.602  1.00 20.00    -0.013 A 
HETATM    8  C2  UNL     1     -34.777   5.169   5.764  1.00 20.00     0.005 A 
HETATM    9  C3  UNL     1     -34.097   6.495   5.961  1.00 20.00     0.005 A 
ENDBRANCH   6   7
ENDBRANCH   5   6
ENDBRANCH   3   5
TORSDOF 3
ENDMDL
MODEL 2
REMARK VINA RESULT:      -4.7      0.992      1.109
REMARK  3 active torsions:
REMARK  status: ('A' for Active; 'I' for Inactive)
REMARK    1  A    between atoms: C4_4  and  C5_5 
REMARK    2  A    between atoms: C5_5  and  C6_6 
REMARK    3  A    between atoms: C6_6  and  N8_8 
ROOT
HETATM    1  C1  UNL     1     -32.660   7.506   1.834  1.00 20.00     0.177 C 
HETATM    2  N7  UNL     1     -32.627   8.381   1.073  1.00 20.00    -0.172 NA
HETATM    3  N8  UNL     1     -32.718   6.457   2.712  1.00 20.00    -0.329 N 
HETATM    4  H18 UNL     1     -32.562   6.680   3.722  1.00 20.00     0.171 HD
ENDROOT
BRANCH   3   5
HETATM    5  C6  UNL     1     -33.420   5.225   2.480  1.00 20.00     0.132 C 
BRANCH   5   6
HETATM    6  C5  UNL     1     -33.960   4.613   3.767  1.00 20.00     0.025 C 
BRANCH   6   7
HETATM    7  C4  UNL     1     -34.744   5.609   4.608  1.00 20.00    -0.013 A 
HETATM    8  C2  UNL     1     -34.961   5.357   6.075  1.00 20.00     0.005 A 
HETATM    9  C3  UNL     1     -34.039   6.457   5.629  1.00 20.00     0.005 A 
ENDBRANCH   6   7
ENDBRANCH   5   6
ENDBRANCH   3   5
TORSDOF 3
ENDMDL
MODEL 3
REMARK VINA RESULT:      -4.1      2.947      4.329
REMARK  3 active torsions:
REMARK  status: ('A' for Active; 'I' for Inactive)
REMARK    1  A    between atoms: C4_4  and  C5_5 
REMARK    2  A    between atoms: C5_5  and  C6_6 
REMARK    3  A    between atoms: C6_6  and  N8_8 
ROOT
HETATM    1  C1  UNL     1     -34.648   5.721   5.657  1.00 20.00     0.177 C 
HETATM    2  N7  UNL     1     -34.374   6.577   6.390  1.00 20.00    -0.172 NA
HETATM    3  N8  UNL     1     -34.946   4.716   4.776  1.00 20.00    -0.329 N 
HETATM    4  H18 UNL     1     -35.955   4.461   4.678  1.00 20.00     0.171 HD
ENDROOT
BRANCH   3   5
HETATM    5  C6  UNL     1     -34.125   4.326   3.663  1.00 20.00     0.132 C 
BRANCH   5   6
HETATM    6  C5  UNL     1     -34.039   5.411   2.597  1.00 20.00     0.025 C 
BRANCH   6   7
HETATM    7  C4  UNL     1     -32.659   6.047   2.513  1.00 20.00    -0.013 A 
HETATM    8  C2  UNL     1     -32.479   7.383   1.848  1.00 20.00     0.005 A 
HETATM    9  C3  UNL     1     -32.333   7.259   3.339  1.00 20.00     0.005 A 
ENDBRANCH   6   7
ENDBRANCH   5   6
ENDBRANCH   3   5
TORSDOF 3
ENDMDL
MODEL 4
REMARK VINA RESULT:      -4.0      2.156      4.680
REMARK  3 active torsions:
REMARK  status: ('A' for Active; 'I' for Inactive)
REMARK    1  A    between atoms: C4_4  and  C5_5 
REMARK    2  A    between atoms: C5_5  and  C6_6 
REMARK    3  A    between atoms: C6_6  and  N8_8 
ROOT
HETATM    1  C1  UNL     1     -34.432   5.603   4.296  1.00 20.00     0.177 C 
HETATM    2  N7  UNL     1     -35.000   4.592   4.283  1.00 20.00    -0.172 NA
HETATM    3  N8  UNL     1     -33.742   6.785   4.289  1.00 20.00    -0.329 N 
HETATM    4  H18 UNL     1     -33.800   7.368   5.155  1.00 20.00     0.171 HD
ENDROOT
BRANCH   3   5
HETATM    5  C6  UNL     1     -32.604   7.071   3.458  1.00 20.00     0.132 C 
BRANCH   5   6
HETATM    6  C5  UNL     1     -32.902   6.871   1.978  1.00 20.00     0.025 C 
BRANCH   6   7
HETATM    7  C4  UNL     1     -32.359   7.997   1.110  1.00 20.00    -0.013 A 
HETATM    8  C2  UNL     1     -33.103   8.431  -0.123  1.00 20.00     0.005 A 
HETATM    9  C3  UNL     1     -33.052   9.331   1.080  1.00 20.00     0.005 A 
ENDBRANCH   6   7
ENDBRANCH   5   6
ENDBRANCH   3   5
TORSDOF 3
ENDMDL
MODEL 5
REMARK VINA RESULT:      -3.9     15.665     16.173
REMARK  3 active torsions:
REMARK  status: ('A' for Active; 'I' for Inactive)
REMARK    1  A    between atoms: C4_4  and  C5_5 
REMARK    2  A    between atoms: C5_5  and  C6_6 
REMARK    3  A    between atoms: C6_6  and  N8_8 
ROOT
HETATM    1  C1  UNL     1     -22.073  17.338   8.175  1.00 20.00     0.177 C 
HETATM    2  N7  UNL     1     -22.046  17.670   7.063  1.00 20.00    -0.172 NA
HETATM    3  N8  UNL     1     -22.099  16.976   9.495  1.00 20.00    -0.329 N 
HETATM    4  H18 UNL     1     -21.859  15.982   9.714  1.00 20.00     0.171 HD
ENDROOT
BRANCH   3   5
HETATM    5  C6  UNL     1     -21.945  17.881  10.601  1.00 20.00     0.132 C 
BRANCH   5   6
HETATM    6  C5  UNL     1     -22.901  17.567  11.745  1.00 20.00     0.025 C 
BRANCH   6   7
HETATM    7  C4  UNL     1     -24.216  16.971  11.266  1.00 20.00    -0.013 A 
HETATM    8  C2  UNL     1     -24.678  15.638  11.787  1.00 20.00     0.005 A 
HETATM    9  C3  UNL     1     -25.395  16.894  12.196  1.00 20.00     0.005 A 
ENDBRANCH   6   7
ENDBRANCH   5   6
ENDBRANCH   3   5
TORSDOF 3
ENDMDL
MODEL 6
REMARK VINA RESULT:      -3.8     10.967     11.540
REMARK  3 active torsions:
REMARK  status: ('A' for Active; 'I' for Inactive)
REMARK    1  A    between atoms: C4_4  and  C5_5 
REMARK    2  A    between atoms: C5_5  and  C6_6 
REMARK    3  A    between atoms: C6_6  and  N8_8 
ROOT
HETATM    1  C1  UNL     1     -36.684  13.962  -4.426  1.00 20.00     0.177 C 
HETATM    2  N7  UNL     1     -37.844  13.945  -4.451  1.00 20.00    -0.172 NA
HETATM    3  N8  UNL     1     -35.316  14.006  -4.418  1.00 20.00    -0.329 N 
HETATM    4  H18 UNL     1     -34.819  13.125  -4.150  1.00 20.00     0.171 HD
ENDROOT
BRANCH   3   5
HETATM    5  C6  UNL     1     -34.516  14.930  -5.174  1.00 20.00     0.132 C 
BRANCH   5   6
HETATM    6  C5  UNL     1     -34.204  16.201  -4.394  1.00 20.00     0.025 C 
BRANCH   6   7
HETATM    7  C4  UNL     1     -33.857  15.927  -2.937  1.00 20.00    -0.013 A 
HETATM    8  C2  UNL     1     -33.546  17.066  -2.006  1.00 20.00     0.005 A 
HETATM    9  C3  UNL     1     -34.826  16.293  -1.847  1.00 20.00     0.005 A 
ENDBRANCH   6   7
ENDBRANCH   5   6
ENDBRANCH   3   5
TORSDOF 3
ENDMDL
MODEL 7
REMARK VINA RESULT:      -3.7     10.866     11.506
REMARK  3 active torsions:
REMARK  status: ('A' for Active; 'I' for Inactive)
REMARK    1  A    between atoms: C4_4  and  C5_5 
REMARK    2  A    between atoms: C5_5  and  C6_6 
REMARK    3  A    between atoms: C6_6  and  N8_8 
ROOT
HETATM    1  C1  UNL     1     -36.831  14.111  -4.572  1.00 20.00     0.177 C 
HETATM    2  N7  UNL     1     -37.955  13.923  -4.352  1.00 20.00    -0.172 NA
HETATM    3  N8  UNL     1     -35.500  14.336  -4.800  1.00 20.00    -0.329 N 
HETATM    4  H18 UNL     1     -35.242  14.712  -5.741  1.00 20.00     0.171 HD
ENDROOT
BRANCH   3   5
HETATM    5  C6  UNL     1     -34.516  14.570  -3.779  1.00 20.00     0.132 C 
BRANCH   5   6
HETATM    6  C5  UNL     1     -35.042  15.462  -2.661  1.00 20.00     0.025 C 
BRANCH   6   7
HETATM    7  C4  UNL     1     -34.438  16.859  -2.690  1.00 20.00    -0.013 A 
HETATM    8  C2  UNL     1     -33.843  17.453  -1.444  1.00 20.00     0.005 A 
HETATM    9  C3  UNL     1     -32.950  17.042  -2.581  1.00 20.00     0.005 A 
ENDBRANCH   6   7
ENDBRANCH   5   6
ENDBRANCH   3   5
TORSDOF 3
ENDMDL
MODEL 8
REMARK VINA RESULT:      -3.7     10.995     11.782
REMARK  3 active torsions:
REMARK  status: ('A' for Active; 'I' for Inactive)
REMARK    1  A    between atoms: C4_4  and  C5_5 
REMARK    2  A    between atoms: C5_5  and  C6_6 
REMARK    3  A    between atoms: C6_6  and  N8_8 
ROOT
HETATM    1  C1  UNL     1     -37.332  14.764  -4.009  1.00 20.00     0.177 C 
HETATM    2  N7  UNL     1     -37.342  13.734  -4.545  1.00 20.00    -0.172 NA
HETATM    3  N8  UNL     1     -37.288  15.978  -3.378  1.00 20.00    -0.329 N 
HETATM    4  H18 UNL     1     -38.125  16.242  -2.810  1.00 20.00     0.171 HD
ENDROOT
BRANCH   3   5
HETATM    5  C6  UNL     1     -36.085  16.679  -3.023  1.00 20.00     0.132 C 
BRANCH   5   6
HETATM    6  C5  UNL     1     -35.016  15.750  -2.461  1.00 20.00     0.025 C 
BRANCH   6   7
HETATM    7  C4  UNL     1     -33.774  15.683  -3.339  1.00 20.00    -0.013 A 
HETATM    8  C2  UNL     1     -33.534  14.490  -4.221  1.00 20.00     0.005 A 
HETATM    9  C3  UNL     1     -33.895  15.815  -4.832  1.00 20.00     0.005 A 
ENDBRANCH   6   7
ENDBRANCH   5   6
ENDBRANCH   3   5
TORSDOF 3
ENDMDL
MODEL 9
REMARK VINA RESULT:      -3.7     11.138     11.656
REMARK  3 active torsions:
REMARK  status: ('A' for Active; 'I' for Inactive)
REMARK    1  A    between atoms: C4_4  and  C5_5 
REMARK    2  A    between atoms: C5_5  and  C6_6 
REMARK    3  A    between atoms: C6_6  and  N8_8 
ROOT
HETATM    1  C1  UNL     1     -34.964  14.797  -6.274  1.00 20.00     0.177 C 
HETATM    2  N7  UNL     1     -36.024  14.523  -6.659  1.00 20.00    -0.172 NA
HETATM    3  N8  UNL     1     -33.720  15.106  -5.793  1.00 20.00    -0.329 N 
HETATM    4  H18 UNL     1     -33.265  15.963  -6.182  1.00 20.00     0.171 HD
ENDROOT
BRANCH   3   5
HETATM    5  C6  UNL     1     -33.202  14.686  -4.519  1.00 20.00     0.132 C 
BRANCH   5   6
HETATM    6  C5  UNL     1     -33.372  15.751  -3.444  1.00 20.00     0.025 C 
BRANCH   6   7
HETATM    7  C4  UNL     1     -34.655  15.579  -2.643  1.00 20.00    -0.013 A 
HETATM    8  C2  UNL     1     -35.017  16.569  -1.571  1.00 20.00     0.005 A 
HETATM    9  C3  UNL     1     -35.807  16.522  -2.849  1.00 20.00     0.005 A 
ENDBRANCH   6   7
ENDBRANCH   5   6
ENDBRANCH   3   5
TORSDOF 3
ENDMDL
