MODEL 1
REMARK VINA RESULT:      -5.7      0.000      0.000
REMARK  1 active torsions:
REMARK  status: ('A' for Active; 'I' for Inactive)
REMARK    1  A    between atoms: C1_1  and  C7_7 
ROOT
HETATM    1  C2  UNL     1     -33.355  17.013  -2.307  1.00 20.00     0.002 C 
HETATM    2  C3  UNL     1     -34.460  15.959  -2.284  1.00 20.00     0.010 C 
HETATM    3  C4  UNL     1     -33.248  17.768  -3.635  1.00 20.00     0.009 C 
HETATM    4  C5  UNL     1     -33.970  14.409  -4.292  1.00 20.00     0.026 A 
HETATM    5  C6  UNL     1     -35.317  16.617  -4.584  1.00 20.00     0.019 C 
HETATM    6  C7  UNL     1     -35.370  14.093  -3.836  1.00 20.00     0.096 A 
HETATM    7  C8  UNL     1     -34.812  15.503  -3.677  1.00 20.00    -0.025 A 
HETATM    8  C9  UNL     1     -34.602  17.977  -4.347  1.00 20.00    -0.047 C 
HETATM    9  C10 UNL     1     -35.500  18.919  -3.520  1.00 20.00     0.015 C 
HETATM   10  C11 UNL     1     -34.343  18.656  -5.707  1.00 20.00     0.015 C 
ENDROOT
BRANCH   6  11
HETATM   11  C1  UNL     1     -36.368  13.836  -4.857  1.00 20.00     0.177 C 
HETATM   12  O12 UNL     1     -35.917  13.700  -6.028  1.00 20.00    -0.648 OA
HETATM   13  O13 UNL     1     -37.557  13.781  -4.434  1.00 20.00    -0.648 OA
ENDBRANCH   6  11
TORSDOF 1
ENDMDL
MODEL 2
REMARK VINA RESULT:      -5.3      1.174      2.555
REMARK  1 active torsions:
REMARK  status: ('A' for Active; 'I' for Inactive)
REMARK    1  A    between atoms: C1_1  and  C7_7 
ROOT
HETATM    1  C2  UNL     1     -34.263  18.149  -4.808  1.00 20.00     0.002 C 
HETATM    2  C3  UNL     1     -34.413  16.735  -5.367  1.00 20.00     0.010 C 
HETATM    3  C4  UNL     1     -34.773  18.303  -3.372  1.00 20.00     0.009 C 
HETATM    4  C5  UNL     1     -36.919  16.160  -5.115  1.00 20.00     0.026 A 
HETATM    5  C6  UNL     1     -35.245  15.806  -3.153  1.00 20.00     0.019 C 
HETATM    6  C7  UNL     1     -36.209  14.867  -5.416  1.00 20.00     0.096 A 
HETATM    7  C8  UNL     1     -35.495  15.972  -4.646  1.00 20.00    -0.025 A 
HETATM    8  C9  UNL     1     -34.573  17.045  -2.499  1.00 20.00    -0.047 C 
HETATM    9  C10 UNL     1     -33.070  16.785  -2.274  1.00 20.00     0.015 C 
HETATM   10  C11 UNL     1     -35.212  17.298  -1.119  1.00 20.00     0.015 C 
ENDROOT
BRANCH   6  11
HETATM   11  C1  UNL     1     -36.648  13.678  -4.709  1.00 20.00     0.177 C 
HETATM   12  O12 UNL     1     -35.777  12.773  -4.585  1.00 20.00    -0.648 OA
HETATM   13  O13 UNL     1     -37.846  13.711  -4.311  1.00 20.00    -0.648 OA
ENDBRANCH   6  11
TORSDOF 1
ENDMDL
MODEL 3
REMARK VINA RESULT:      -5.2      0.829      1.259
REMARK  1 active torsions:
REMARK  status: ('A' for Active; 'I' for Inactive)
REMARK    1  A    between atoms: C1_1  and  C7_7 
ROOT
HETATM    1  C2  UNL     1     -34.164  17.213  -1.786  1.00 20.00     0.002 C 
HETATM    2  C3  UNL     1     -35.012  15.953  -1.953  1.00 20.00     0.010 C 
HETATM    3  C4  UNL     1     -34.240  18.172  -2.978  1.00 20.00     0.009 C 
HETATM    4  C5  UNL     1     -34.220  14.882  -4.167  1.00 20.00     0.026 A 
HETATM    5  C6  UNL     1     -36.019  16.763  -4.141  1.00 20.00     0.019 C 
HETATM    6  C7  UNL     1     -35.512  14.203  -3.797  1.00 20.00     0.096 A 
HETATM    7  C8  UNL     1     -35.273  15.657  -3.408  1.00 20.00    -0.025 A 
HETATM    8  C9  UNL     1     -35.615  18.191  -3.679  1.00 20.00    -0.047 C 
HETATM    9  C10 UNL     1     -36.687  18.774  -2.736  1.00 20.00     0.015 C 
HETATM   10  C11 UNL     1     -35.527  19.115  -4.910  1.00 20.00     0.015 C 
ENDROOT
BRANCH   6  11
HETATM   11  C1  UNL     1     -36.442  13.898  -4.869  1.00 20.00     0.177 C 
HETATM   12  O12 UNL     1     -37.641  13.731  -4.510  1.00 20.00    -0.648 OA
HETATM   13  O13 UNL     1     -35.924  13.842  -6.019  1.00 20.00    -0.648 OA
ENDBRANCH   6  11
TORSDOF 1
ENDMDL
MODEL 4
REMARK VINA RESULT:      -5.2      1.412      2.118
REMARK  1 active torsions:
REMARK  status: ('A' for Active; 'I' for Inactive)
REMARK    1  A    between atoms: C1_1  and  C7_7 
ROOT
HETATM    1  C2  UNL     1     -33.060  17.336  -2.793  1.00 20.00     0.002 C 
HETATM    2  C3  UNL     1     -33.280  15.876  -3.185  1.00 20.00     0.010 C 
HETATM    3  C4  UNL     1     -34.357  18.131  -2.615  1.00 20.00     0.009 C 
HETATM    4  C5  UNL     1     -34.724  15.952  -5.326  1.00 20.00     0.026 A 
HETATM    5  C6  UNL     1     -35.805  16.060  -2.961  1.00 20.00     0.019 C 
HETATM    6  C7  UNL     1     -34.762  14.530  -4.832  1.00 20.00     0.096 A 
HETATM    7  C8  UNL     1     -34.623  15.681  -3.842  1.00 20.00    -0.025 A 
HETATM    8  C9  UNL     1     -35.531  17.296  -2.059  1.00 20.00    -0.047 C 
HETATM    9  C10 UNL     1     -35.232  16.851  -0.614  1.00 20.00     0.015 C 
HETATM   10  C11 UNL     1     -36.791  18.184  -2.021  1.00 20.00     0.015 C 
ENDROOT
BRANCH   6  11
HETATM   11  C1  UNL     1     -36.023  13.819  -4.922  1.00 20.00     0.177 C 
HETATM   12  O12 UNL     1     -36.925  14.404  -5.583  1.00 20.00    -0.648 OA
HETATM   13  O13 UNL     1     -36.048  12.706  -4.325  1.00 20.00    -0.648 OA
ENDBRANCH   6  11
TORSDOF 1
ENDMDL
MODEL 5
REMARK VINA RESULT:      -4.7      3.646      5.282
REMARK  1 active torsions:
REMARK  status: ('A' for Active; 'I' for Inactive)
REMARK    1  A    between atoms: C1_1  and  C7_7 
ROOT
HETATM    1  C2  UNL     1     -35.203  18.104  -4.267  1.00 20.00     0.002 C 
HETATM    2  C3  UNL     1     -34.894  18.610  -2.859  1.00 20.00     0.010 C 
HETATM    3  C4  UNL     1     -34.329  16.925  -4.706  1.00 20.00     0.009 C 
HETATM    4  C5  UNL     1     -32.371  19.167  -2.869  1.00 20.00     0.026 A 
HETATM    5  C6  UNL     1     -33.221  16.749  -2.416  1.00 20.00     0.019 C 
HETATM    6  C7  UNL     1     -32.804  19.153  -1.426  1.00 20.00     0.096 A 
HETATM    7  C8  UNL     1     -33.491  18.247  -2.441  1.00 20.00    -0.025 A 
HETATM    8  C9  UNL     1     -33.939  15.973  -3.555  1.00 20.00    -0.047 C 
HETATM    9  C10 UNL     1     -35.189  15.254  -3.011  1.00 20.00     0.015 C 
HETATM   10  C11 UNL     1     -32.987  14.894  -4.110  1.00 20.00     0.015 C 
ENDROOT
BRANCH   6  11
HETATM   11  C1  UNL     1     -31.894  18.571  -0.458  1.00 20.00     0.177 C 
HETATM   12  O12 UNL     1     -32.413  18.260   0.650  1.00 20.00    -0.648 OA
HETATM   13  O13 UNL     1     -30.701  18.454  -0.855  1.00 20.00    -0.648 OA
ENDBRANCH   6  11
TORSDOF 1
ENDMDL
MODEL 6
REMARK VINA RESULT:      -4.7      1.532      2.173
REMARK  1 active torsions:
REMARK  status: ('A' for Active; 'I' for Inactive)
REMARK    1  A    between atoms: C1_1  and  C7_7 
ROOT
HETATM    1  C2  UNL     1     -33.122  16.600  -2.827  1.00 20.00     0.002 C 
HETATM    2  C3  UNL     1     -33.933  15.385  -3.274  1.00 20.00     0.010 C 
HETATM    3  C4  UNL     1     -33.970  17.849  -2.568  1.00 20.00     0.009 C 
HETATM    4  C5  UNL     1     -35.247  16.167  -5.357  1.00 20.00     0.026 A 
HETATM    5  C6  UNL     1     -36.151  16.584  -2.952  1.00 20.00     0.019 C 
HETATM    6  C7  UNL     1     -35.863  14.863  -4.924  1.00 20.00     0.096 A 
HETATM    7  C8  UNL     1     -35.245  15.799  -3.891  1.00 20.00    -0.025 A 
HETATM    8  C9  UNL     1     -35.376  17.545  -2.008  1.00 20.00    -0.047 C 
HETATM    9  C10 UNL     1     -35.268  16.939  -0.595  1.00 20.00     0.015 C 
HETATM   10  C11 UNL     1     -36.154  18.871  -1.887  1.00 20.00     0.015 C 
ENDROOT
BRANCH   6  11
HETATM   11  C1  UNL     1     -37.307  14.744  -4.999  1.00 20.00     0.177 C 
HETATM   12  O12 UNL     1     -37.880  15.601  -5.727  1.00 20.00    -0.648 OA
HETATM   13  O13 UNL     1     -37.796  13.794  -4.325  1.00 20.00    -0.648 OA
ENDBRANCH   6  11
TORSDOF 1
ENDMDL
MODEL 7
REMARK VINA RESULT:      -4.7      2.692      4.185
REMARK  1 active torsions:
REMARK  status: ('A' for Active; 'I' for Inactive)
REMARK    1  A    between atoms: C1_1  and  C7_7 
ROOT
HETATM    1  C2  UNL     1     -35.448  13.387  -4.173  1.00 20.00     0.002 C 
HETATM    2  C3  UNL     1     -34.229  14.257  -3.872  1.00 20.00     0.010 C 
HETATM    3  C4  UNL     1     -36.679  14.180  -4.620  1.00 20.00     0.009 C 
HETATM    4  C5  UNL     1     -35.027  15.968  -2.108  1.00 20.00     0.026 A 
HETATM    5  C6  UNL     1     -35.388  16.379  -4.653  1.00 20.00     0.019 C 
HETATM    6  C7  UNL     1     -33.707  16.471  -2.629  1.00 20.00     0.096 A 
HETATM    7  C8  UNL     1     -34.634  15.670  -3.537  1.00 20.00    -0.025 A 
HETATM    8  C9  UNL     1     -36.344  15.443  -5.443  1.00 20.00    -0.047 C 
HETATM    9  C10 UNL     1     -35.715  15.049  -6.794  1.00 20.00     0.015 C 
HETATM   10  C11 UNL     1     -37.656  16.196  -5.743  1.00 20.00     0.015 C 
ENDROOT
BRANCH   6  11
HETATM   11  C1  UNL     1     -33.567  17.899  -2.839  1.00 20.00     0.177 C 
HETATM   12  O12 UNL     1     -32.661  18.238  -3.650  1.00 20.00    -0.648 OA
HETATM   13  O13 UNL     1     -34.374  18.613  -2.181  1.00 20.00    -0.648 OA
ENDBRANCH   6  11
TORSDOF 1
ENDMDL
MODEL 8
REMARK VINA RESULT:      -4.7      1.266      1.696
REMARK  1 active torsions:
REMARK  status: ('A' for Active; 'I' for Inactive)
REMARK    1  A    between atoms: C1_1  and  C7_7 
ROOT
HETATM    1  C2  UNL     1     -34.229  16.722  -1.550  1.00 20.00     0.002 C 
HETATM    2  C3  UNL     1     -35.132  15.905  -2.473  1.00 20.00     0.010 C 
HETATM    3  C4  UNL     1     -33.298  17.687  -2.291  1.00 20.00     0.009 C 
HETATM    4  C5  UNL     1     -33.533  14.711  -4.115  1.00 20.00     0.026 A 
HETATM    5  C6  UNL     1     -34.350  17.144  -4.550  1.00 20.00     0.019 C 
HETATM    6  C7  UNL     1     -34.919  14.577  -4.689  1.00 20.00     0.096 A 
HETATM    7  C8  UNL     1     -34.548  15.802  -3.860  1.00 20.00    -0.025 A 
HETATM    8  C9  UNL     1     -33.907  18.276  -3.582  1.00 20.00    -0.047 C 
HETATM    9  C10 UNL     1     -35.101  19.189  -3.240  1.00 20.00     0.015 C 
HETATM   10  C11 UNL     1     -32.840  19.146  -4.276  1.00 20.00     0.015 C 
ENDROOT
BRANCH   6  11
HETATM   11  C1  UNL     1     -35.067  14.711  -6.125  1.00 20.00     0.177 C 
HETATM   12  O12 UNL     1     -36.254  14.838  -6.534  1.00 20.00    -0.648 OA
HETATM   13  O13 UNL     1     -33.984  14.682  -6.774  1.00 20.00    -0.648 OA
ENDBRANCH   6  11
TORSDOF 1
ENDMDL
MODEL 9
REMARK VINA RESULT:      -4.5      1.188      1.515
REMARK  1 active torsions:
REMARK  status: ('A' for Active; 'I' for Inactive)
REMARK    1  A    between atoms: C1_1  and  C7_7 
ROOT
HETATM    1  C2  UNL     1     -34.375  18.218  -3.524  1.00 20.00     0.002 C 
HETATM    2  C3  UNL     1     -35.473  17.217  -3.166  1.00 20.00     0.010 C 
HETATM    3  C4  UNL     1     -33.852  18.075  -4.956  1.00 20.00     0.009 C 
HETATM    4  C5  UNL     1     -34.462  14.889  -3.647  1.00 20.00     0.026 A 
HETATM    5  C6  UNL     1     -35.584  16.293  -5.530  1.00 20.00     0.019 C 
HETATM    6  C7  UNL     1     -35.945  14.688  -3.475  1.00 20.00     0.096 A 
HETATM    7  C8  UNL     1     -35.411  15.996  -4.047  1.00 20.00    -0.025 A 
HETATM    8  C9  UNL     1     -34.925  17.629  -5.973  1.00 20.00    -0.047 C 
HETATM    9  C10 UNL     1     -35.994  18.728  -6.135  1.00 20.00     0.015 C 
HETATM   10  C11 UNL     1     -34.251  17.431  -7.345  1.00 20.00     0.015 C 
ENDROOT
BRANCH   6  11
HETATM   11  C1  UNL     1     -36.603  13.743  -4.358  1.00 20.00     0.177 C 
HETATM   12  O12 UNL     1     -35.856  12.848  -4.841  1.00 20.00    -0.648 OA
HETATM   13  O13 UNL     1     -37.839  13.945  -4.523  1.00 20.00    -0.648 OA
ENDBRANCH   6  11
TORSDOF 1
ENDMDL
