MODEL 1
REMARK VINA RESULT:      -3.5      0.000      0.000
REMARK  0 active torsions:
REMARK  status: ('A' for Active; 'I' for Inactive)
ROOT
HETATM    1  C1  UNL     1     -24.024  16.079  11.881  1.00 20.00     0.290 C 
HETATM    2  C2  UNL     1     -26.107  17.070  12.324  1.00 20.00     0.344 C 
HETATM    3  C3  UNL     1     -23.599  17.532  11.611  1.00 20.00     0.029 C 
HETATM    4  C4  UNL     1     -23.509  17.840  10.112  1.00 20.00     0.028 C 
HETATM    5  C5  UNL     1     -22.285  17.871  12.312  1.00 20.00     0.028 C 
HETATM    6  N6  UNL     1     -25.460  15.977  11.603  1.00 20.00     0.093 N 
HETATM    7  S7  UNL     1     -24.977  18.489  12.332  1.00 20.00    -0.128 SA
HETATM    8  H18 UNL     1     -25.612  16.111  10.603  1.00 20.00     0.316 HD
ENDROOT
TORSDOF 0
ENDMDL
MODEL 2
REMARK VINA RESULT:      -3.5      1.971      2.514
REMARK  0 active torsions:
REMARK  status: ('A' for Active; 'I' for Inactive)
ROOT
HETATM    1  C1  UNL     1     -25.208  18.503  11.697  1.00 20.00     0.290 C 
HETATM    2  C2  UNL     1     -25.110  19.102   9.428  1.00 20.00     0.344 C 
HETATM    3  C3  UNL     1     -24.011  17.614  11.324  1.00 20.00     0.029 C 
HETATM    4  C4  UNL     1     -24.412  16.144  11.159  1.00 20.00     0.028 C 
HETATM    5  C5  UNL     1     -22.872  17.754  12.330  1.00 20.00     0.028 C 
HETATM    6  N6  UNL     1     -26.021  18.686  10.491  1.00 20.00     0.093 N 
HETATM    7  S7  UNL     1     -23.516  18.279   9.696  1.00 20.00    -0.128 SA
HETATM    8  H18 UNL     1     -26.434  17.789  10.234  1.00 20.00     0.316 HD
ENDROOT
TORSDOF 0
ENDMDL
MODEL 3
REMARK VINA RESULT:      -3.5      1.877      3.000
REMARK  0 active torsions:
REMARK  status: ('A' for Active; 'I' for Inactive)
ROOT
HETATM    1  C1  UNL     1     -24.376  17.741  10.047  1.00 20.00     0.290 C 
HETATM    2  C2  UNL     1     -22.057  17.778  10.415  1.00 20.00     0.344 C 
HETATM    3  C3  UNL     1     -24.419  17.336  11.529  1.00 20.00     0.029 C 
HETATM    4  C4  UNL     1     -24.660  15.833  11.711  1.00 20.00     0.028 C 
HETATM    5  C5  UNL     1     -25.455  18.146  12.304  1.00 20.00     0.028 C 
HETATM    6  N6  UNL     1     -23.090  17.298   9.500  1.00 20.00     0.093 N 
HETATM    7  S7  UNL     1     -22.731  17.739  12.098  1.00 20.00    -0.128 SA
HETATM    8  H18 UNL     1     -23.070  16.279   9.492  1.00 20.00     0.316 HD
ENDROOT
TORSDOF 0
ENDMDL
MODEL 4
REMARK VINA RESULT:      -3.4      2.282      3.233
REMARK  0 active torsions:
REMARK  status: ('A' for Active; 'I' for Inactive)
ROOT
HETATM    1  C1  UNL     1     -22.683  17.222   9.473  1.00 20.00     0.290 C 
HETATM    2  C2  UNL     1     -23.722  19.221   8.806  1.00 20.00     0.344 C 
HETATM    3  C3  UNL     1     -23.610  17.363  10.691  1.00 20.00     0.029 C 
HETATM    4  C4  UNL     1     -22.867  17.888  11.925  1.00 20.00     0.028 C 
HETATM    5  C5  UNL     1     -24.324  16.052  11.008  1.00 20.00     0.028 C 
HETATM    6  N6  UNL     1     -22.423  18.568   8.952  1.00 20.00     0.093 N 
HETATM    7  S7  UNL     1     -24.804  18.629  10.136  1.00 20.00    -0.128 SA
HETATM    8  H18 UNL     1     -21.874  19.086   9.638  1.00 20.00     0.316 HD
ENDROOT
TORSDOF 0
ENDMDL
MODEL 5
REMARK VINA RESULT:      -3.3     18.377     19.110
REMARK  0 active torsions:
REMARK  status: ('A' for Active; 'I' for Inactive)
ROOT
HETATM    1  C1  UNL     1     -33.498  14.560  -4.265  1.00 20.00     0.290 C 
HETATM    2  C2  UNL     1     -34.218  15.355  -6.355  1.00 20.00     0.344 C 
HETATM    3  C3  UNL     1     -34.134  15.864  -3.757  1.00 20.00     0.029 C 
HETATM    4  C4  UNL     1     -33.085  16.938  -3.449  1.00 20.00     0.028 C 
HETATM    5  C5  UNL     1     -35.027  15.618  -2.543  1.00 20.00     0.028 C 
HETATM    6  N6  UNL     1     -33.074  14.782  -5.651  1.00 20.00     0.093 N 
HETATM    7  S7  UNL     1     -35.131  16.403  -5.189  1.00 20.00    -0.128 SA
HETATM    8  H18 UNL     1     -32.313  15.461  -5.657  1.00 20.00     0.316 HD
ENDROOT
TORSDOF 0
ENDMDL
MODEL 6
REMARK VINA RESULT:      -3.3      1.745      2.278
REMARK  0 active torsions:
REMARK  status: ('A' for Active; 'I' for Inactive)
ROOT
HETATM    1  C1  UNL     1     -23.198  16.514   9.492  1.00 20.00     0.290 C 
HETATM    2  C2  UNL     1     -23.841  16.403  11.748  1.00 20.00     0.344 C 
HETATM    3  C3  UNL     1     -22.773  17.940   9.875  1.00 20.00     0.029 C 
HETATM    4  C4  UNL     1     -23.780  18.993   9.397  1.00 20.00     0.028 C 
HETATM    5  C5  UNL     1     -21.371  18.265   9.365  1.00 20.00     0.028 C 
HETATM    6  N6  UNL     1     -24.290  16.119  10.387  1.00 20.00     0.093 N 
HETATM    7  S7  UNL     1     -22.795  17.883  11.700  1.00 20.00    -0.128 SA
HETATM    8  H18 UNL     1     -25.106  16.696  10.186  1.00 20.00     0.316 HD
ENDROOT
TORSDOF 0
ENDMDL
MODEL 7
REMARK VINA RESULT:      -3.2     22.989     23.908
REMARK  0 active torsions:
REMARK  status: ('A' for Active; 'I' for Inactive)
ROOT
HETATM    1  C1  UNL     1     -41.162   6.318  -0.075  1.00 20.00     0.290 C 
HETATM    2  C2  UNL     1     -42.858   5.177   1.083  1.00 20.00     0.344 C 
HETATM    3  C3  UNL     1     -42.195   7.456  -0.092  1.00 20.00     0.029 C 
HETATM    4  C4  UNL     1     -42.889   7.587  -1.453  1.00 20.00     0.028 C 
HETATM    5  C5  UNL     1     -41.573   8.786   0.325  1.00 20.00     0.028 C 
HETATM    6  N6  UNL     1     -41.897   5.051  -0.010  1.00 20.00     0.093 N 
HETATM    7  S7  UNL     1     -43.417   6.901   1.146  1.00 20.00    -0.128 SA
HETATM    8  H18 UNL     1     -42.410   4.923  -0.882  1.00 20.00     0.316 HD
ENDROOT
TORSDOF 0
ENDMDL
MODEL 8
REMARK VINA RESULT:      -3.2     23.030     24.041
REMARK  0 active torsions:
REMARK  status: ('A' for Active; 'I' for Inactive)
ROOT
HETATM    1  C1  UNL     1     -41.901   7.726  -1.618  1.00 20.00     0.290 C 
HETATM    2  C2  UNL     1     -41.664   8.468   0.598  1.00 20.00     0.344 C 
HETATM    3  C3  UNL     1     -42.179   6.375  -0.941  1.00 20.00     0.029 C 
HETATM    4  C4  UNL     1     -40.969   5.436  -1.003  1.00 20.00     0.028 C 
HETATM    5  C5  UNL     1     -43.417   5.698  -1.524  1.00 20.00     0.028 C 
HETATM    6  N6  UNL     1     -41.040   8.505  -0.722  1.00 20.00     0.093 N 
HETATM    7  S7  UNL     1     -42.469   6.855   0.798  1.00 20.00    -0.128 SA
HETATM    8  H18 UNL     1     -40.129   8.050  -0.665  1.00 20.00     0.316 HD
ENDROOT
TORSDOF 0
ENDMDL
MODEL 9
REMARK VINA RESULT:      -3.1     22.414     23.455
REMARK  0 active torsions:
REMARK  status: ('A' for Active; 'I' for Inactive)
ROOT
HETATM    1  C1  UNL     1     -42.683   7.147   0.879  1.00 20.00     0.290 C 
HETATM    2  C2  UNL     1     -41.136   5.862  -0.334  1.00 20.00     0.344 C 
HETATM    3  C3  UNL     1     -42.228   8.261  -0.078  1.00 20.00     0.029 C 
HETATM    4  C4  UNL     1     -41.250   9.233   0.590  1.00 20.00     0.028 C 
HETATM    5  C5  UNL     1     -43.417   9.014  -0.670  1.00 20.00     0.028 C 
HETATM    6  N6  UNL     1     -41.574   6.199   1.018  1.00 20.00     0.093 N 
HETATM    7  S7  UNL     1     -41.345   7.330  -1.377  1.00 20.00    -0.128 SA
HETATM    8  H18 UNL     1     -40.806   6.661   1.504  1.00 20.00     0.316 HD
ENDROOT
TORSDOF 0
ENDMDL
