MODEL 1
REMARK VINA RESULT:      -4.1      0.000      0.000
REMARK  4 active torsions:
REMARK  status: ('A' for Active; 'I' for Inactive)
REMARK    1  A    between atoms: C2_2  and  C8_8 
REMARK    2  A    between atoms: C2_2  and  C9_9 
REMARK    3  A    between atoms: C3_3  and  C8_8 
REMARK    4  A    between atoms: C3_3  and  C10_10 
ROOT
HETATM    1  C3  UNL     1     -35.630  14.509  -5.173  1.00 20.00     0.138 C 
HETATM    2  O11 UNL     1     -36.793  14.105  -5.080  1.00 20.00    -0.297 OA
ENDROOT
BRANCH   1   3
HETATM    3  C8  UNL     1     -34.609  14.209  -4.078  1.00 20.00     0.112 C 
BRANCH   3   4
HETATM    4  C2  UNL     1     -34.395  15.410  -3.192  1.00 20.00    -0.083 C 
HETATM    5  C1  UNL     1     -35.368  15.857  -2.382  1.00 20.00     0.014 C 
BRANCH   4   6
HETATM    6  C9  UNL     1     -33.051  16.100  -3.253  1.00 20.00     0.029 C 
HETATM    7  C4  UNL     1     -32.952  17.283  -2.300  1.00 20.00     0.010 C 
ENDBRANCH   4   6
ENDBRANCH   3   4
ENDBRANCH   1   3
BRANCH   1   8
HETATM    8  C10 UNL     1     -35.156  15.311  -6.404  1.00 20.00     0.010 C 
HETATM    9  C5  UNL     1     -35.338  16.809  -6.129  1.00 20.00     0.022 C 
HETATM   10  C6  UNL     1     -33.688  14.995  -6.714  1.00 20.00     0.022 C 
HETATM   11  C7  UNL     1     -36.007  14.925  -7.627  1.00 20.00     0.022 C 
ENDBRANCH   1   8
TORSDOF 4
ENDMDL
MODEL 2
REMARK VINA RESULT:      -4.1      1.674      2.532
REMARK  4 active torsions:
REMARK  status: ('A' for Active; 'I' for Inactive)
REMARK    1  A    between atoms: C2_2  and  C8_8 
REMARK    2  A    between atoms: C2_2  and  C9_9 
REMARK    3  A    between atoms: C3_3  and  C8_8 
REMARK    4  A    between atoms: C3_3  and  C10_10 
ROOT
HETATM    1  C3  UNL     1     -34.564  15.807  -4.911  1.00 20.00     0.138 C 
HETATM    2  O11 UNL     1     -34.234  16.813  -5.544  1.00 20.00    -0.297 OA
ENDROOT
BRANCH   1   3
HETATM    3  C8  UNL     1     -33.755  15.345  -3.700  1.00 20.00     0.112 C 
BRANCH   3   4
HETATM    4  C2  UNL     1     -33.910  16.304  -2.548  1.00 20.00    -0.083 C 
HETATM    5  C1  UNL     1     -32.943  17.185  -2.243  1.00 20.00     0.014 C 
BRANCH   4   6
HETATM    6  C9  UNL     1     -35.187  16.237  -1.741  1.00 20.00     0.029 C 
HETATM    7  C4  UNL     1     -35.164  17.149  -0.523  1.00 20.00     0.010 C 
ENDBRANCH   4   6
ENDBRANCH   3   4
ENDBRANCH   1   3
BRANCH   1   8
HETATM    8  C10 UNL     1     -35.814  14.989  -5.299  1.00 20.00     0.010 C 
HETATM    9  C5  UNL     1     -35.744  14.643  -6.792  1.00 20.00     0.022 C 
HETATM   10  C6  UNL     1     -35.901  13.711  -4.455  1.00 20.00     0.022 C 
HETATM   11  C7  UNL     1     -37.078  15.829  -5.044  1.00 20.00     0.022 C 
ENDBRANCH   1   8
TORSDOF 4
ENDMDL
MODEL 3
REMARK VINA RESULT:      -4.0      1.285      1.595
REMARK  4 active torsions:
REMARK  status: ('A' for Active; 'I' for Inactive)
REMARK    1  A    between atoms: C2_2  and  C8_8 
REMARK    2  A    between atoms: C2_2  and  C9_9 
REMARK    3  A    between atoms: C3_3  and  C8_8 
REMARK    4  A    between atoms: C3_3  and  C10_10 
ROOT
HETATM    1  C3  UNL     1     -34.613  14.843  -5.155  1.00 20.00     0.138 C 
HETATM    2  O11 UNL     1     -33.593  14.447  -5.724  1.00 20.00    -0.297 OA
ENDROOT
BRANCH   1   3
HETATM    3  C8  UNL     1     -34.835  14.569  -3.668  1.00 20.00     0.112 C 
BRANCH   3   4
HETATM    4  C2  UNL     1     -34.352  15.723  -2.827  1.00 20.00    -0.083 C 
HETATM    5  C1  UNL     1     -35.103  16.216  -1.829  1.00 20.00     0.014 C 
BRANCH   4   6
HETATM    6  C9  UNL     1     -32.998  16.312  -3.150  1.00 20.00     0.029 C 
HETATM    7  C4  UNL     1     -32.975  17.830  -3.046  1.00 20.00     0.010 C 
ENDBRANCH   4   6
ENDBRANCH   3   4
ENDBRANCH   1   3
BRANCH   1   8
HETATM    8  C10 UNL     1     -35.692  15.649  -5.910  1.00 20.00     0.010 C 
HETATM    9  C5  UNL     1     -37.039  15.476  -5.198  1.00 20.00     0.022 C 
HETATM   10  C6  UNL     1     -35.304  17.131  -5.975  1.00 20.00     0.022 C 
HETATM   11  C7  UNL     1     -35.820  15.114  -7.348  1.00 20.00     0.022 C 
ENDBRANCH   1   8
TORSDOF 4
ENDMDL
MODEL 4
REMARK VINA RESULT:      -4.0      1.696      2.466
REMARK  4 active torsions:
REMARK  status: ('A' for Active; 'I' for Inactive)
REMARK    1  A    between atoms: C2_2  and  C8_8 
REMARK    2  A    between atoms: C2_2  and  C9_9 
REMARK    3  A    between atoms: C3_3  and  C8_8 
REMARK    4  A    between atoms: C3_3  and  C10_10 
ROOT
HETATM    1  C3  UNL     1     -34.569  15.904  -4.876  1.00 20.00     0.138 C 
HETATM    2  O11 UNL     1     -34.297  16.956  -5.461  1.00 20.00    -0.297 OA
ENDROOT
BRANCH   1   3
HETATM    3  C8  UNL     1     -33.722  15.422  -3.700  1.00 20.00     0.112 C 
BRANCH   3   4
HETATM    4  C2  UNL     1     -33.875  16.336  -2.512  1.00 20.00    -0.083 C 
HETATM    5  C1  UNL     1     -32.913  17.212  -2.181  1.00 20.00     0.014 C 
BRANCH   4   6
HETATM    6  C9  UNL     1     -35.145  16.228  -1.698  1.00 20.00     0.029 C 
HETATM    7  C4  UNL     1     -35.169  17.182  -0.513  1.00 20.00     0.010 C 
ENDBRANCH   4   6
ENDBRANCH   3   4
ENDBRANCH   1   3
BRANCH   1   8
HETATM    8  C10 UNL     1     -35.784  15.047  -5.291  1.00 20.00     0.010 C 
HETATM    9  C5  UNL     1     -37.069  15.852  -5.058  1.00 20.00     0.022 C 
HETATM   10  C6  UNL     1     -35.668  14.633  -6.764  1.00 20.00     0.022 C 
HETATM   11  C7  UNL     1     -35.833  13.773  -4.429  1.00 20.00     0.022 C 
ENDBRANCH   1   8
TORSDOF 4
ENDMDL
MODEL 5
REMARK VINA RESULT:      -4.0      1.690      2.599
REMARK  4 active torsions:
REMARK  status: ('A' for Active; 'I' for Inactive)
REMARK    1  A    between atoms: C2_2  and  C8_8 
REMARK    2  A    between atoms: C2_2  and  C9_9 
REMARK    3  A    between atoms: C3_3  and  C8_8 
REMARK    4  A    between atoms: C3_3  and  C10_10 
ROOT
HETATM    1  C3  UNL     1     -34.557  15.847  -4.882  1.00 20.00     0.138 C 
HETATM    2  O11 UNL     1     -34.249  16.864  -5.510  1.00 20.00    -0.297 OA
ENDROOT
BRANCH   1   3
HETATM    3  C8  UNL     1     -33.730  15.387  -3.684  1.00 20.00     0.112 C 
BRANCH   3   4
HETATM    4  C2  UNL     1     -33.893  16.330  -2.519  1.00 20.00    -0.083 C 
HETATM    5  C1  UNL     1     -32.933  17.213  -2.202  1.00 20.00     0.014 C 
BRANCH   4   6
HETATM    6  C9  UNL     1     -35.171  16.243  -1.715  1.00 20.00     0.029 C 
HETATM    7  C4  UNL     1     -35.169  17.165  -0.504  1.00 20.00     0.010 C 
ENDBRANCH   4   6
ENDBRANCH   3   4
ENDBRANCH   1   3
BRANCH   1   8
HETATM    8  C10 UNL     1     -35.799  15.014  -5.266  1.00 20.00     0.010 C 
HETATM    9  C5  UNL     1     -35.827  13.735  -4.420  1.00 20.00     0.022 C 
HETATM   10  C6  UNL     1     -37.079  15.831  -5.048  1.00 20.00     0.022 C 
HETATM   11  C7  UNL     1     -35.717  14.623  -6.753  1.00 20.00     0.022 C 
ENDBRANCH   1   8
TORSDOF 4
ENDMDL
MODEL 6
REMARK VINA RESULT:      -4.0      1.302      1.817
REMARK  4 active torsions:
REMARK  status: ('A' for Active; 'I' for Inactive)
REMARK    1  A    between atoms: C2_2  and  C8_8 
REMARK    2  A    between atoms: C2_2  and  C9_9 
REMARK    3  A    between atoms: C3_3  and  C8_8 
REMARK    4  A    between atoms: C3_3  and  C10_10 
ROOT
HETATM    1  C3  UNL     1     -35.876  14.893  -5.481  1.00 20.00     0.138 C 
HETATM    2  O11 UNL     1     -35.898  13.925  -6.245  1.00 20.00    -0.297 OA
ENDROOT
BRANCH   1   3
HETATM    3  C8  UNL     1     -35.555  14.713  -3.999  1.00 20.00     0.112 C 
BRANCH   3   4
HETATM    4  C2  UNL     1     -34.118  15.062  -3.709  1.00 20.00    -0.083 C 
HETATM    5  C1  UNL     1     -33.112  14.474  -4.379  1.00 20.00     0.014 C 
BRANCH   4   6
HETATM    6  C9  UNL     1     -33.844  16.089  -2.634  1.00 20.00     0.029 C 
HETATM    7  C4  UNL     1     -35.043  16.327  -1.727  1.00 20.00     0.010 C 
ENDBRANCH   4   6
ENDBRANCH   3   4
ENDBRANCH   1   3
BRANCH   1   8
HETATM    8  C10 UNL     1     -36.147  16.324  -5.993  1.00 20.00     0.010 C 
HETATM    9  C5  UNL     1     -36.807  17.141  -4.875  1.00 20.00     0.022 C 
HETATM   10  C6  UNL     1     -34.839  16.987  -6.443  1.00 20.00     0.022 C 
HETATM   11  C7  UNL     1     -37.104  16.267  -7.196  1.00 20.00     0.022 C 
ENDBRANCH   1   8
TORSDOF 4
ENDMDL
MODEL 7
REMARK VINA RESULT:      -4.0      1.314      2.159
REMARK  4 active torsions:
REMARK  status: ('A' for Active; 'I' for Inactive)
REMARK    1  A    between atoms: C2_2  and  C8_8 
REMARK    2  A    between atoms: C2_2  and  C9_9 
REMARK    3  A    between atoms: C3_3  and  C8_8 
REMARK    4  A    between atoms: C3_3  and  C10_10 
ROOT
HETATM    1  C3  UNL     1     -33.937  14.882  -4.533  1.00 20.00     0.138 C 
HETATM    2  O11 UNL     1     -34.085  13.692  -4.243  1.00 20.00    -0.297 OA
ENDROOT
BRANCH   1   3
HETATM    3  C8  UNL     1     -33.072  15.796  -3.668  1.00 20.00     0.112 C 
BRANCH   3   4
HETATM    4  C2  UNL     1     -33.862  16.359  -2.515  1.00 20.00    -0.083 C 
HETATM    5  C1  UNL     1     -35.075  15.873  -2.202  1.00 20.00     0.014 C 
BRANCH   4   6
HETATM    6  C9  UNL     1     -33.249  17.494  -1.727  1.00 20.00     0.029 C 
HETATM    7  C4  UNL     1     -34.105  17.921  -0.543  1.00 20.00     0.010 C 
ENDBRANCH   4   6
ENDBRANCH   3   4
ENDBRANCH   1   3
BRANCH   1   8
HETATM    8  C10 UNL     1     -34.599  15.490  -5.789  1.00 20.00     0.010 C 
HETATM    9  C5  UNL     1     -33.844  15.012  -7.035  1.00 20.00     0.022 C 
HETATM   10  C6  UNL     1     -36.076  15.082  -5.865  1.00 20.00     0.022 C 
HETATM   11  C7  UNL     1     -34.520  17.025  -5.719  1.00 20.00     0.022 C 
ENDBRANCH   1   8
TORSDOF 4
ENDMDL
MODEL 8
REMARK VINA RESULT:      -3.9     17.831     19.028
REMARK  4 active torsions:
REMARK  status: ('A' for Active; 'I' for Inactive)
REMARK    1  A    between atoms: C2_2  and  C8_8 
REMARK    2  A    between atoms: C2_2  and  C9_9 
REMARK    3  A    between atoms: C3_3  and  C8_8 
REMARK    4  A    between atoms: C3_3  and  C10_10 
ROOT
HETATM    1  C3  UNL     1     -24.829  18.382  10.747  1.00 20.00     0.138 C 
HETATM    2  O11 UNL     1     -25.031  18.800   9.603  1.00 20.00    -0.297 OA
ENDROOT
BRANCH   1   3
HETATM    3  C8  UNL     1     -25.690  18.854  11.916  1.00 20.00     0.112 C 
BRANCH   3   4
HETATM    4  C2  UNL     1     -27.129  18.443  11.729  1.00 20.00    -0.083 C 
HETATM    5  C1  UNL     1     -27.994  19.227  11.067  1.00 20.00     0.014 C 
BRANCH   4   6
HETATM    6  C9  UNL     1     -27.566  17.122  12.321  1.00 20.00     0.029 C 
HETATM    7  C4  UNL     1     -29.079  16.953  12.332  1.00 20.00     0.010 C 
ENDBRANCH   4   6
ENDBRANCH   3   4
ENDBRANCH   1   3
BRANCH   1   8
HETATM    8  C10 UNL     1     -23.716  17.352  11.038  1.00 20.00     0.010 C 
HETATM    9  C5  UNL     1     -22.771  17.279   9.832  1.00 20.00     0.022 C 
HETATM   10  C6  UNL     1     -22.944  17.743  12.304  1.00 20.00     0.022 C 
HETATM   11  C7  UNL     1     -24.346  15.965  11.259  1.00 20.00     0.022 C 
ENDBRANCH   1   8
TORSDOF 4
ENDMDL
MODEL 9
REMARK VINA RESULT:      -3.9      1.633      2.677
REMARK  4 active torsions:
REMARK  status: ('A' for Active; 'I' for Inactive)
REMARK    1  A    between atoms: C2_2  and  C8_8 
REMARK    2  A    between atoms: C2_2  and  C9_9 
REMARK    3  A    between atoms: C3_3  and  C8_8 
REMARK    4  A    between atoms: C3_3  and  C10_10 
ROOT
HETATM    1  C3  UNL     1     -36.110  14.372  -4.077  1.00 20.00     0.138 C 
HETATM    2  O11 UNL     1     -36.098  13.238  -4.563  1.00 20.00    -0.297 OA
ENDROOT
BRANCH   1   3
HETATM    3  C8  UNL     1     -35.059  14.795  -3.052  1.00 20.00     0.112 C 
BRANCH   3   4
HETATM    4  C2  UNL     1     -33.798  15.263  -3.731  1.00 20.00    -0.083 C 
HETATM    5  C1  UNL     1     -33.097  14.446  -4.533  1.00 20.00     0.014 C 
BRANCH   4   6
HETATM    6  C9  UNL     1     -33.343  16.682  -3.472  1.00 20.00     0.029 C 
HETATM    7  C4  UNL     1     -33.589  17.128  -2.038  1.00 20.00     0.010 C 
ENDBRANCH   4   6
ENDBRANCH   3   4
ENDBRANCH   1   3
BRANCH   1   8
HETATM    8  C10 UNL     1     -37.167  15.414  -4.501  1.00 20.00     0.010 C 
HETATM    9  C5  UNL     1     -36.888  15.855  -5.943  1.00 20.00     0.022 C 
HETATM   10  C6  UNL     1     -38.577  14.822  -4.382  1.00 20.00     0.022 C 
HETATM   11  C7  UNL     1     -37.075  16.644  -3.580  1.00 20.00     0.022 C 
ENDBRANCH   1   8
TORSDOF 4
ENDMDL
