MODEL 1
REMARK VINA RESULT:      -4.2      0.000      0.000
REMARK  3 active torsions:
REMARK  status: ('A' for Active; 'I' for Inactive)
REMARK    1  A    between atoms: C1_1  and  C5_5 
REMARK    2  A    between atoms: C3_3  and  C5_5 
REMARK    3  A    between atoms: C4_4  and  C5_5 
ROOT
HETATM    1  C5  UNL     1     -33.919   6.424   3.774  1.00 20.00     0.085 C 
ENDROOT
BRANCH   1   2
HETATM    2  C1  UNL     1     -33.904   6.523   5.300  1.00 20.00     0.224 C 
HETATM    3  O6  UNL     1     -33.261   7.387   5.890  1.00 20.00    -0.279 OA
HETATM    4 CL7  UNL     1     -34.881   5.298   6.061  1.00 20.00    -0.043 Cl
ENDBRANCH   1   2
BRANCH   1   5
HETATM    5  C3  UNL     1     -32.538   6.816   3.218  1.00 20.00     0.010 C 
HETATM    6  C2  UNL     1     -32.630   7.630   1.933  1.00 20.00     0.006 C 
ENDBRANCH   1   5
BRANCH   1   7
HETATM    7  C4  UNL     1     -34.267   4.992   3.350  1.00 20.00     0.128 C 
HETATM    8 CL8  UNL     1     -33.008   4.300   2.293  1.00 20.00    -0.130 Cl
ENDBRANCH   1   7
TORSDOF 3
ENDMDL
MODEL 2
REMARK VINA RESULT:      -4.1      2.321      3.340
REMARK  3 active torsions:
REMARK  status: ('A' for Active; 'I' for Inactive)
REMARK    1  A    between atoms: C1_1  and  C5_5 
REMARK    2  A    between atoms: C3_3  and  C5_5 
REMARK    3  A    between atoms: C4_4  and  C5_5 
ROOT
HETATM    1  C5  UNL     1     -34.090   6.117   3.629  1.00 20.00     0.085 C 
ENDROOT
BRANCH   1   2
HETATM    2  C1  UNL     1     -33.917   4.616   3.392  1.00 20.00     0.224 C 
HETATM    3  O6  UNL     1     -34.411   3.778   4.142  1.00 20.00    -0.279 OA
HETATM    4 CL7  UNL     1     -32.966   4.266   1.976  1.00 20.00    -0.043 Cl
ENDBRANCH   1   2
BRANCH   1   5
HETATM    5  C3  UNL     1     -34.641   6.357   5.046  1.00 20.00     0.010 C 
HETATM    6  C2  UNL     1     -33.611   6.974   5.983  1.00 20.00     0.006 C 
ENDBRANCH   1   5
BRANCH   1   7
HETATM    7  C4  UNL     1     -32.740   6.828   3.466  1.00 20.00     0.128 C 
HETATM    8 CL8  UNL     1     -32.621   7.647   1.887  1.00 20.00    -0.130 Cl
ENDBRANCH   1   7
TORSDOF 3
ENDMDL
MODEL 3
REMARK VINA RESULT:      -4.0     11.901     12.284
REMARK  3 active torsions:
REMARK  status: ('A' for Active; 'I' for Inactive)
REMARK    1  A    between atoms: C1_1  and  C5_5 
REMARK    2  A    between atoms: C3_3  and  C5_5 
REMARK    3  A    between atoms: C4_4  and  C5_5 
ROOT
HETATM    1  C5  UNL     1     -35.189  15.052  -4.309  1.00 20.00     0.085 C 
ENDROOT
BRANCH   1   2
HETATM    2  C1  UNL     1     -36.172  13.885  -4.401  1.00 20.00     0.224 C 
HETATM    3  O6  UNL     1     -35.794  12.723  -4.531  1.00 20.00    -0.279 OA
HETATM    4 CL7  UNL     1     -37.834  14.399  -4.302  1.00 20.00    -0.043 Cl
ENDBRANCH   1   2
BRANCH   1   5
HETATM    5  C3  UNL     1     -34.981  15.438  -2.834  1.00 20.00     0.010 C 
HETATM    6  C2  UNL     1     -33.710  16.248  -2.609  1.00 20.00     0.006 C 
ENDBRANCH   1   5
BRANCH   1   7
HETATM    7  C4  UNL     1     -33.849  14.653  -4.939  1.00 20.00     0.128 C 
HETATM    8 CL8  UNL     1     -33.846  14.931  -6.700  1.00 20.00    -0.130 Cl
ENDBRANCH   1   7
TORSDOF 3
ENDMDL
MODEL 4
REMARK VINA RESULT:      -3.9     11.656     12.222
REMARK  3 active torsions:
REMARK  status: ('A' for Active; 'I' for Inactive)
REMARK    1  A    between atoms: C1_1  and  C5_5 
REMARK    2  A    between atoms: C3_3  and  C5_5 
REMARK    3  A    between atoms: C4_4  and  C5_5 
ROOT
HETATM    1  C5  UNL     1     -34.741  14.576  -3.694  1.00 20.00     0.085 C 
ENDROOT
BRANCH   1   2
HETATM    2  C1  UNL     1     -35.903  13.747  -4.242  1.00 20.00     0.224 C 
HETATM    3  O6  UNL     1     -35.783  12.553  -4.507  1.00 20.00    -0.279 OA
HETATM    4 CL7  UNL     1     -37.360  14.681  -4.435  1.00 20.00    -0.043 Cl
ENDBRANCH   1   2
BRANCH   1   5
HETATM    5  C3  UNL     1     -33.621  14.657  -4.748  1.00 20.00     0.010 C 
HETATM    6  C2  UNL     1     -34.122  15.136  -6.105  1.00 20.00     0.006 C 
ENDBRANCH   1   5
BRANCH   1   7
HETATM    7  C4  UNL     1     -35.229  15.986  -3.341  1.00 20.00     0.128 C 
HETATM    8 CL8  UNL     1     -35.099  16.303  -1.591  1.00 20.00    -0.130 Cl
ENDBRANCH   1   7
TORSDOF 3
ENDMDL
MODEL 5
REMARK VINA RESULT:      -3.9      1.720      3.267
REMARK  3 active torsions:
REMARK  status: ('A' for Active; 'I' for Inactive)
REMARK    1  A    between atoms: C1_1  and  C5_5 
REMARK    2  A    between atoms: C3_3  and  C5_5 
REMARK    3  A    between atoms: C4_4  and  C5_5 
ROOT
HETATM    1  C5  UNL     1     -33.849   6.641   3.757  1.00 20.00     0.085 C 
ENDROOT
BRANCH   1   2
HETATM    2  C1  UNL     1     -32.591   7.242   3.128  1.00 20.00     0.224 C 
HETATM    3  O6  UNL     1     -31.531   7.326   3.745  1.00 20.00    -0.279 OA
HETATM    4 CL7  UNL     1     -32.847   7.771   1.489  1.00 20.00    -0.043 Cl
ENDBRANCH   1   2
BRANCH   1   5
HETATM    5  C3  UNL     1     -33.919   5.137   3.435  1.00 20.00     0.010 C 
HETATM    6  C2  UNL     1     -33.076   4.752   2.225  1.00 20.00     0.006 C 
ENDBRANCH   1   5
BRANCH   1   7
HETATM    7  C4  UNL     1     -33.822   6.850   5.275  1.00 20.00     0.128 C 
HETATM    8 CL8  UNL     1     -34.645   5.521   6.132  1.00 20.00    -0.130 Cl
ENDBRANCH   1   7
TORSDOF 3
ENDMDL
MODEL 6
REMARK VINA RESULT:      -3.8      9.367      9.877
REMARK  3 active torsions:
REMARK  status: ('A' for Active; 'I' for Inactive)
REMARK    1  A    between atoms: C1_1  and  C5_5 
REMARK    2  A    between atoms: C3_3  and  C5_5 
REMARK    3  A    between atoms: C4_4  and  C5_5 
ROOT
HETATM    1  C5  UNL     1     -41.527   6.991   0.077  1.00 20.00     0.085 C 
ENDROOT
BRANCH   1   2
HETATM    2  C1  UNL     1     -41.650   5.899  -0.986  1.00 20.00     0.224 C 
HETATM    3  O6  UNL     1     -40.718   5.146  -1.256  1.00 20.00    -0.279 OA
HETATM    4 CL7  UNL     1     -43.223   5.864  -1.733  1.00 20.00    -0.043 Cl
ENDBRANCH   1   2
BRANCH   1   5
HETATM    5  C3  UNL     1     -41.221   8.340  -0.600  1.00 20.00     0.010 C 
HETATM    6  C2  UNL     1     -41.480   9.531   0.314  1.00 20.00     0.006 C 
ENDBRANCH   1   5
BRANCH   1   7
HETATM    7  C4  UNL     1     -42.834   7.091   0.873  1.00 20.00     0.128 C 
HETATM    8 CL8  UNL     1     -43.189   5.573   1.738  1.00 20.00    -0.130 Cl
ENDBRANCH   1   7
TORSDOF 3
ENDMDL
MODEL 7
REMARK VINA RESULT:      -3.7     11.442     12.045
REMARK  3 active torsions:
REMARK  status: ('A' for Active; 'I' for Inactive)
REMARK    1  A    between atoms: C1_1  and  C5_5 
REMARK    2  A    between atoms: C3_3  and  C5_5 
REMARK    3  A    between atoms: C4_4  and  C5_5 
ROOT
HETATM    1  C5  UNL     1     -35.404  14.941  -3.154  1.00 20.00     0.085 C 
ENDROOT
BRANCH   1   2
HETATM    2  C1  UNL     1     -34.620  13.868  -3.910  1.00 20.00     0.224 C 
HETATM    3  O6  UNL     1     -35.044  12.722  -4.040  1.00 20.00    -0.279 OA
HETATM    4 CL7  UNL     1     -33.107  14.460  -4.537  1.00 20.00    -0.043 Cl
ENDBRANCH   1   2
BRANCH   1   5
HETATM    5  C3  UNL     1     -34.429  15.978  -2.569  1.00 20.00     0.010 C 
HETATM    6  C2  UNL     1     -35.020  16.746  -1.393  1.00 20.00     0.006 C 
ENDBRANCH   1   5
BRANCH   1   7
HETATM    7  C4  UNL     1     -36.392  15.630  -4.104  1.00 20.00     0.128 C 
HETATM    8 CL8  UNL     1     -37.888  14.678  -4.292  1.00 20.00    -0.130 Cl
ENDBRANCH   1   7
TORSDOF 3
ENDMDL
MODEL 8
REMARK VINA RESULT:      -3.7      2.370      3.171
REMARK  3 active torsions:
REMARK  status: ('A' for Active; 'I' for Inactive)
REMARK    1  A    between atoms: C1_1  and  C5_5 
REMARK    2  A    between atoms: C3_3  and  C5_5 
REMARK    3  A    between atoms: C4_4  and  C5_5 
ROOT
HETATM    1  C5  UNL     1     -33.859   6.298   3.290  1.00 20.00     0.085 C 
ENDROOT
BRANCH   1   2
HETATM    2  C1  UNL     1     -33.593   4.820   3.000  1.00 20.00     0.224 C 
HETATM    3  O6  UNL     1     -32.971   4.454   2.006  1.00 20.00    -0.279 OA
HETATM    4 CL7  UNL     1     -34.262   3.767   4.215  1.00 20.00    -0.043 Cl
ENDBRANCH   1   2
BRANCH   1   5
HETATM    5  C3  UNL     1     -34.454   6.448   4.702  1.00 20.00     0.010 C 
HETATM    6  C2  UNL     1     -33.469   7.049   5.697  1.00 20.00     0.006 C 
ENDBRANCH   1   5
BRANCH   1   7
HETATM    7  C4  UNL     1     -32.550   7.091   3.188  1.00 20.00     0.128 C 
HETATM    8 CL8  UNL     1     -32.359   7.829   1.576  1.00 20.00    -0.130 Cl
ENDBRANCH   1   7
TORSDOF 3
ENDMDL
MODEL 9
REMARK VINA RESULT:      -3.7     12.131     12.529
REMARK  3 active torsions:
REMARK  status: ('A' for Active; 'I' for Inactive)
REMARK    1  A    between atoms: C1_1  and  C5_5 
REMARK    2  A    between atoms: C3_3  and  C5_5 
REMARK    3  A    between atoms: C4_4  and  C5_5 
ROOT
HETATM    1  C5  UNL     1     -35.880  14.816  -3.569  1.00 20.00     0.085 C 
ENDROOT
BRANCH   1   2
HETATM    2  C1  UNL     1     -35.831  13.782  -4.694  1.00 20.00     0.224 C 
HETATM    3  O6  UNL     1     -35.860  12.574  -4.470  1.00 20.00    -0.279 OA
HETATM    4 CL7  UNL     1     -35.731  14.512  -6.272  1.00 20.00    -0.043 Cl
ENDBRANCH   1   2
BRANCH   1   5
HETATM    5  C3  UNL     1     -34.453  15.289  -3.238  1.00 20.00     0.010 C 
HETATM    6  C2  UNL     1     -34.421  16.346  -2.141  1.00 20.00     0.006 C 
ENDBRANCH   1   5
BRANCH   1   7
HETATM    7  C4  UNL     1     -36.740  16.011  -3.998  1.00 20.00     0.128 C 
HETATM    8 CL8  UNL     1     -38.451  15.547  -4.193  1.00 20.00    -0.130 Cl
ENDBRANCH   1   7
TORSDOF 3
ENDMDL
