MODEL 1
REMARK VINA RESULT:      -5.1      0.000      0.000
REMARK  2 active torsions:
REMARK  status: ('A' for Active; 'I' for Inactive)
REMARK    1  A    between atoms: C1_1  and  C2_2 
REMARK    2  A    between atoms: C1_1  and  C3_3 
ROOT
HETATM    1  C1  UNL     1     -34.390   6.064   4.315  1.00 20.00     0.299 C 
HETATM    2  F4  UNL     1     -33.353   6.864   3.933  1.00 20.00    -0.238 F 
ENDROOT
BRANCH   1   3
HETATM    3  C2  UNL     1     -34.287   5.847   5.808  1.00 20.00     0.392 C 
HETATM    4  F5  UNL     1     -34.288   7.039   6.454  1.00 20.00    -0.211 F 
HETATM    5  F6  UNL     1     -35.377   5.165   6.240  1.00 20.00    -0.211 F 
ENDBRANCH   1   3
BRANCH   1   6
HETATM    6  C3  UNL     1     -34.300   4.776   3.527  1.00 20.00     0.392 C 
HETATM    7  F7  UNL     1     -34.056   3.735   4.359  1.00 20.00    -0.211 F 
HETATM    8  F8  UNL     1     -33.253   4.846   2.668  1.00 20.00    -0.211 F 
ENDBRANCH   1   6
TORSDOF 2
ENDMDL
MODEL 2
REMARK VINA RESULT:      -5.1      1.379      2.092
REMARK  2 active torsions:
REMARK  status: ('A' for Active; 'I' for Inactive)
REMARK    1  A    between atoms: C1_1  and  C2_2 
REMARK    2  A    between atoms: C1_1  and  C3_3 
ROOT
HETATM    1  C1  UNL     1     -33.970   6.588   4.243  1.00 20.00     0.299 C 
HETATM    2  F4  UNL     1     -33.257   7.038   5.317  1.00 20.00    -0.238 F 
ENDROOT
BRANCH   1   3
HETATM    3  C2  UNL     1     -34.778   5.391   4.689  1.00 20.00     0.392 C 
HETATM    4  F5  UNL     1     -34.958   5.421   6.032  1.00 20.00    -0.211 F 
HETATM    5  F6  UNL     1     -36.011   5.446   4.125  1.00 20.00    -0.211 F 
ENDBRANCH   1   3
BRANCH   1   6
HETATM    6  C3  UNL     1     -32.991   6.259   3.138  1.00 20.00     0.392 C 
HETATM    7  F7  UNL     1     -32.886   7.303   2.280  1.00 20.00    -0.211 F 
HETATM    8  F8  UNL     1     -33.459   5.207   2.422  1.00 20.00    -0.211 F 
ENDBRANCH   1   6
TORSDOF 2
ENDMDL
MODEL 3
REMARK VINA RESULT:      -5.1      1.047      3.260
REMARK  2 active torsions:
REMARK  status: ('A' for Active; 'I' for Inactive)
REMARK    1  A    between atoms: C1_1  and  C2_2 
REMARK    2  A    between atoms: C1_1  and  C3_3 
ROOT
HETATM    1  C1  UNL     1     -34.738   5.860   4.376  1.00 20.00     0.299 C 
HETATM    2  F4  UNL     1     -36.020   5.478   4.111  1.00 20.00    -0.238 F 
ENDROOT
BRANCH   1   3
HETATM    3  C2  UNL     1     -33.809   4.871   3.708  1.00 20.00     0.392 C 
HETATM    4  F5  UNL     1     -34.309   3.615   3.815  1.00 20.00    -0.211 F 
HETATM    5  F6  UNL     1     -33.730   5.152   2.384  1.00 20.00    -0.211 F 
ENDBRANCH   1   3
BRANCH   1   6
HETATM    6  C3  UNL     1     -34.565   5.908   5.877  1.00 20.00     0.392 C 
HETATM    7  F7  UNL     1     -33.533   6.724   6.203  1.00 20.00    -0.211 F 
HETATM    8  F8  UNL     1     -34.246   4.671   6.333  1.00 20.00    -0.211 F 
ENDBRANCH   1   6
TORSDOF 2
ENDMDL
MODEL 4
REMARK VINA RESULT:      -5.1      0.850      3.054
REMARK  2 active torsions:
REMARK  status: ('A' for Active; 'I' for Inactive)
REMARK    1  A    between atoms: C1_1  and  C2_2 
REMARK    2  A    between atoms: C1_1  and  C3_3 
ROOT
HETATM    1  C1  UNL     1     -34.756   5.785   4.218  1.00 20.00     0.299 C 
HETATM    2  F4  UNL     1     -36.115   5.674   4.174  1.00 20.00    -0.238 F 
ENDROOT
BRANCH   1   3
HETATM    3  C2  UNL     1     -34.170   4.685   3.363  1.00 20.00     0.392 C 
HETATM    4  F5  UNL     1     -32.971   5.070   2.862  1.00 20.00    -0.211 F 
HETATM    5  F6  UNL     1     -33.941   3.592   4.133  1.00 20.00    -0.211 F 
ENDBRANCH   1   3
BRANCH   1   6
HETATM    6  C3  UNL     1     -34.328   5.698   5.666  1.00 20.00     0.392 C 
HETATM    7  F7  UNL     1     -35.262   5.036   6.391  1.00 20.00    -0.211 F 
HETATM    8  F8  UNL     1     -34.240   6.947   6.185  1.00 20.00    -0.211 F 
ENDBRANCH   1   6
TORSDOF 2
ENDMDL
MODEL 5
REMARK VINA RESULT:      -5.0      1.073      2.139
REMARK  2 active torsions:
REMARK  status: ('A' for Active; 'I' for Inactive)
REMARK    1  A    between atoms: C1_1  and  C2_2 
REMARK    2  A    between atoms: C1_1  and  C3_3 
ROOT
HETATM    1  C1  UNL     1     -34.181   6.284   4.167  1.00 20.00     0.299 C 
HETATM    2  F4  UNL     1     -33.534   6.881   5.210  1.00 20.00    -0.238 F 
ENDROOT
BRANCH   1   3
HETATM    3  C2  UNL     1     -34.962   5.110   4.713  1.00 20.00     0.392 C 
HETATM    4  F5  UNL     1     -34.280   3.957   4.505  1.00 20.00    -0.211 F 
HETATM    5  F6  UNL     1     -35.100   5.248   6.055  1.00 20.00    -0.211 F 
ENDBRANCH   1   3
BRANCH   1   6
HETATM    6  C3  UNL     1     -33.142   5.875   3.146  1.00 20.00     0.392 C 
HETATM    7  F7  UNL     1     -32.515   6.970   2.653  1.00 20.00    -0.211 F 
HETATM    8  F8  UNL     1     -33.754   5.268   2.100  1.00 20.00    -0.211 F 
ENDBRANCH   1   6
TORSDOF 2
ENDMDL
MODEL 6
REMARK VINA RESULT:      -5.0      1.233      2.014
REMARK  2 active torsions:
REMARK  status: ('A' for Active; 'I' for Inactive)
REMARK    1  A    between atoms: C1_1  and  C2_2 
REMARK    2  A    between atoms: C1_1  and  C3_3 
ROOT
HETATM    1  C1  UNL     1     -34.923   5.077   4.465  1.00 20.00     0.299 C 
HETATM    2  F4  UNL     1     -36.055   5.647   3.961  1.00 20.00    -0.238 F 
ENDROOT
BRANCH   1   3
HETATM    3  C2  UNL     1     -34.846   5.416   5.937  1.00 20.00     0.392 C 
HETATM    4  F5  UNL     1     -33.984   4.580   6.565  1.00 20.00    -0.211 F 
HETATM    5  F6  UNL     1     -34.353   6.671   6.084  1.00 20.00    -0.211 F 
ENDBRANCH   1   3
BRANCH   1   6
HETATM    6  C3  UNL     1     -33.744   5.605   3.678  1.00 20.00     0.392 C 
HETATM    7  F7  UNL     1     -33.885   6.935   3.461  1.00 20.00    -0.211 F 
HETATM    8  F8  UNL     1     -33.713   5.009   2.460  1.00 20.00    -0.211 F 
ENDBRANCH   1   6
TORSDOF 2
ENDMDL
MODEL 7
REMARK VINA RESULT:      -4.9      1.013      3.342
REMARK  2 active torsions:
REMARK  status: ('A' for Active; 'I' for Inactive)
REMARK    1  A    between atoms: C1_1  and  C2_2 
REMARK    2  A    between atoms: C1_1  and  C3_3 
ROOT
HETATM    1  C1  UNL     1     -34.574   6.083   4.302  1.00 20.00     0.299 C 
HETATM    2  F4  UNL     1     -35.516   5.151   3.976  1.00 20.00    -0.238 F 
ENDROOT
BRANCH   1   3
HETATM    3  C2  UNL     1     -33.386   5.884   3.389  1.00 20.00     0.392 C 
HETATM    4  F5  UNL     1     -33.695   5.008   2.403  1.00 20.00    -0.211 F 
HETATM    5  F6  UNL     1     -33.080   7.061   2.788  1.00 20.00    -0.211 F 
ENDBRANCH   1   3
BRANCH   1   6
HETATM    6  C3  UNL     1     -34.229   5.905   5.764  1.00 20.00     0.392 C 
HETATM    7  F7  UNL     1     -35.133   5.093   6.363  1.00 20.00    -0.211 F 
HETATM    8  F8  UNL     1     -34.301   7.105   6.392  1.00 20.00    -0.211 F 
ENDBRANCH   1   6
TORSDOF 2
ENDMDL
MODEL 8
REMARK VINA RESULT:      -4.9      1.556      2.947
REMARK  2 active torsions:
REMARK  status: ('A' for Active; 'I' for Inactive)
REMARK    1  A    between atoms: C1_1  and  C2_2 
REMARK    2  A    between atoms: C1_1  and  C3_3 
ROOT
HETATM    1  C1  UNL     1     -33.610   5.470   2.706  1.00 20.00     0.299 C 
HETATM    2  F4  UNL     1     -32.924   4.396   2.220  1.00 20.00    -0.238 F 
ENDROOT
BRANCH   1   3
HETATM    3  C2  UNL     1     -32.627   6.604   2.894  1.00 20.00     0.392 C 
HETATM    4  F5  UNL     1     -32.879   7.595   2.004  1.00 20.00    -0.211 F 
HETATM    5  F6  UNL     1     -32.787   7.137   4.132  1.00 20.00    -0.211 F 
ENDBRANCH   1   3
BRANCH   1   6
HETATM    6  C3  UNL     1     -34.280   5.053   3.996  1.00 20.00     0.392 C 
HETATM    7  F7  UNL     1     -34.220   3.707   4.139  1.00 20.00    -0.211 F 
HETATM    8  F8  UNL     1     -35.594   5.384   3.948  1.00 20.00    -0.211 F 
ENDBRANCH   1   6
TORSDOF 2
ENDMDL
MODEL 9
REMARK VINA RESULT:      -4.9      1.328      2.922
REMARK  2 active torsions:
REMARK  status: ('A' for Active; 'I' for Inactive)
REMARK    1  A    between atoms: C1_1  and  C2_2 
REMARK    2  A    between atoms: C1_1  and  C3_3 
ROOT
HETATM    1  C1  UNL     1     -33.714   6.147   4.795  1.00 20.00     0.299 C 
HETATM    2  F4  UNL     1     -34.088   7.265   5.483  1.00 20.00    -0.238 F 
ENDROOT
BRANCH   1   3
HETATM    3  C2  UNL     1     -33.394   6.559   3.375  1.00 20.00     0.392 C 
HETATM    4  F5  UNL     1     -32.172   7.143   3.322  1.00 20.00    -0.211 F 
HETATM    5  F6  UNL     1     -33.337   5.455   2.589  1.00 20.00    -0.211 F 
ENDBRANCH   1   3
BRANCH   1   6
HETATM    6  C3  UNL     1     -34.846   5.148   4.876  1.00 20.00     0.392 C 
HETATM    7  F7  UNL     1     -35.908   5.584   4.157  1.00 20.00    -0.211 F 
HETATM    8  F8  UNL     1     -35.260   5.041   6.163  1.00 20.00    -0.211 F 
ENDBRANCH   1   6
TORSDOF 2
ENDMDL
