MODEL 1
REMARK VINA RESULT:      -3.7      0.000      0.000
REMARK  5 active torsions:
REMARK  status: ('A' for Active; 'I' for Inactive)
REMARK    1  A    between atoms: C4_4  and  C7_7 
REMARK    2  A    between atoms: C5_5  and  C9_9 
REMARK    3  A    between atoms: C6_6  and  C9_9 
REMARK    4  A    between atoms: C7_7  and  C9_9 
REMARK    5  A    between atoms: C8_8  and  C9_9 
ROOT
HETATM    1  C9  UNL     1     -23.980  18.019  10.308  1.00 20.00    -0.029 C 
ENDROOT
BRANCH   1   2
HETATM    2  C5  UNL     1     -25.088  18.755   9.484  1.00 20.00     0.006 C 
HETATM    3  C2  UNL     1     -24.857  18.856   7.980  1.00 20.00     0.006 C 
ENDBRANCH   1   2
BRANCH   1   4
HETATM    4  C6  UNL     1     -24.161  16.470  10.229  1.00 20.00     0.006 C 
HETATM    5  C3  UNL     1     -24.495  15.762  11.538  1.00 20.00     0.006 C 
ENDBRANCH   1   4
BRANCH   1   6
HETATM    6  C7  UNL     1     -22.608  18.459   9.695  1.00 20.00     0.010 C 
BRANCH   6   7
HETATM    7  C4  UNL     1     -21.681  17.329   9.230  1.00 20.00    -0.004 C 
HETATM    8  C1  UNL     1     -21.551  17.316   7.713  1.00 20.00     0.005 C 
ENDBRANCH   6   7
ENDBRANCH   1   6
BRANCH   1   9
HETATM    9  C8  UNL     1     -24.067  18.388  11.819  1.00 20.00     0.124 C 
HETATM   10 CL10 UNL     1     -25.645  19.038  12.332  1.00 20.00    -0.130 Cl
ENDBRANCH   1   9
TORSDOF 5
ENDMDL
MODEL 2
REMARK VINA RESULT:      -3.5     16.047     17.907
REMARK  5 active torsions:
REMARK  status: ('A' for Active; 'I' for Inactive)
REMARK    1  A    between atoms: C4_4  and  C7_7 
REMARK    2  A    between atoms: C5_5  and  C9_9 
REMARK    3  A    between atoms: C6_6  and  C9_9 
REMARK    4  A    between atoms: C7_7  and  C9_9 
REMARK    5  A    between atoms: C8_8  and  C9_9 
ROOT
HETATM    1  C9  UNL     1     -34.746  15.545  -3.674  1.00 20.00    -0.029 C 
ENDROOT
BRANCH   1   2
HETATM    2  C5  UNL     1     -33.183  15.581  -3.730  1.00 20.00     0.006 C 
HETATM    3  C2  UNL     1     -32.502  14.381  -4.377  1.00 20.00     0.006 C 
ENDBRANCH   1   2
BRANCH   1   4
HETATM    4  C6  UNL     1     -35.288  14.139  -4.084  1.00 20.00     0.006 C 
HETATM    5  C3  UNL     1     -36.766  14.067  -4.454  1.00 20.00     0.006 C 
ENDBRANCH   1   4
BRANCH   1   6
HETATM    6  C7  UNL     1     -35.144  15.895  -2.200  1.00 20.00     0.010 C 
BRANCH   6   7
HETATM    7  C4  UNL     1     -34.350  17.025  -1.534  1.00 20.00    -0.004 C 
HETATM    8  C1  UNL     1     -34.981  17.430  -0.208  1.00 20.00     0.005 C 
ENDBRANCH   6   7
ENDBRANCH   1   6
BRANCH   1   9
HETATM    9  C8  UNL     1     -35.367  16.559  -4.681  1.00 20.00     0.124 C 
HETATM   10 CL10 UNL     1     -34.685  16.479  -6.325  1.00 20.00    -0.130 Cl
ENDBRANCH   1   9
TORSDOF 5
ENDMDL
MODEL 3
REMARK VINA RESULT:      -3.5     15.879     17.360
REMARK  5 active torsions:
REMARK  status: ('A' for Active; 'I' for Inactive)
REMARK    1  A    between atoms: C4_4  and  C7_7 
REMARK    2  A    between atoms: C5_5  and  C9_9 
REMARK    3  A    between atoms: C6_6  and  C9_9 
REMARK    4  A    between atoms: C7_7  and  C9_9 
REMARK    5  A    between atoms: C8_8  and  C9_9 
ROOT
HETATM    1  C9  UNL     1     -34.065  16.542  -3.013  1.00 20.00    -0.029 C 
ENDROOT
BRANCH   1   2
HETATM    2  C5  UNL     1     -35.081  16.058  -1.926  1.00 20.00     0.006 C 
HETATM    3  C2  UNL     1     -35.268  16.973  -0.720  1.00 20.00     0.006 C 
ENDBRANCH   1   2
BRANCH   1   4
HETATM    4  C6  UNL     1     -32.787  17.151  -2.352  1.00 20.00     0.006 C 
HETATM    5  C3  UNL     1     -32.549  18.637  -2.590  1.00 20.00     0.006 C 
ENDBRANCH   1   4
BRANCH   1   6
HETATM    6  C7  UNL     1     -33.709  15.284  -3.875  1.00 20.00     0.010 C 
BRANCH   6   7
HETATM    7  C4  UNL     1     -34.731  14.142  -3.862  1.00 20.00    -0.004 C 
HETATM    8  C1  UNL     1     -35.680  14.242  -5.049  1.00 20.00     0.005 C 
ENDBRANCH   6   7
ENDBRANCH   1   6
BRANCH   1   9
HETATM    9  C8  UNL     1     -34.679  17.672  -3.891  1.00 20.00     0.124 C 
HETATM   10 CL10 UNL     1     -34.321  17.533  -5.631  1.00 20.00    -0.130 Cl
ENDBRANCH   1   9
TORSDOF 5
ENDMDL
MODEL 4
REMARK VINA RESULT:      -3.5     14.068     15.950
REMARK  5 active torsions:
REMARK  status: ('A' for Active; 'I' for Inactive)
REMARK    1  A    between atoms: C4_4  and  C7_7 
REMARK    2  A    between atoms: C5_5  and  C9_9 
REMARK    3  A    between atoms: C6_6  and  C9_9 
REMARK    4  A    between atoms: C7_7  and  C9_9 
REMARK    5  A    between atoms: C8_8  and  C9_9 
ROOT
HETATM    1  C9  UNL     1     -34.020  17.683  -1.582  1.00 20.00    -0.029 C 
ENDROOT
BRANCH   1   2
HETATM    2  C5  UNL     1     -35.197  16.868  -0.951  1.00 20.00     0.006 C 
HETATM    3  C2  UNL     1     -35.508  17.153   0.514  1.00 20.00     0.006 C 
ENDBRANCH   1   2
BRANCH   1   4
HETATM    4  C6  UNL     1     -33.076  18.251  -0.474  1.00 20.00     0.006 C 
HETATM    5  C3  UNL     1     -31.594  18.324  -0.824  1.00 20.00     0.006 C 
ENDBRANCH   1   4
BRANCH   1   6
HETATM    6  C7  UNL     1     -33.253  16.695  -2.523  1.00 20.00     0.010 C 
BRANCH   6   7
HETATM    7  C4  UNL     1     -34.075  15.541  -3.110  1.00 20.00    -0.004 C 
HETATM    8  C1  UNL     1     -33.310  14.830  -4.217  1.00 20.00     0.005 C 
ENDBRANCH   6   7
ENDBRANCH   1   6
BRANCH   1   9
HETATM    9  C8  UNL     1     -34.551  18.916  -2.371  1.00 20.00     0.124 C 
HETATM   10 CL10 UNL     1     -33.877  19.090  -4.012  1.00 20.00    -0.130 Cl
ENDBRANCH   1   9
TORSDOF 5
ENDMDL
MODEL 5
REMARK VINA RESULT:      -3.5     14.877     16.713
REMARK  5 active torsions:
REMARK  status: ('A' for Active; 'I' for Inactive)
REMARK    1  A    between atoms: C4_4  and  C7_7 
REMARK    2  A    between atoms: C5_5  and  C9_9 
REMARK    3  A    between atoms: C6_6  and  C9_9 
REMARK    4  A    between atoms: C7_7  and  C9_9 
REMARK    5  A    between atoms: C8_8  and  C9_9 
ROOT
HETATM    1  C9  UNL     1     -34.514  16.537  -2.625  1.00 20.00    -0.029 C 
ENDROOT
BRANCH   1   2
HETATM    2  C5  UNL     1     -34.676  15.116  -3.258  1.00 20.00     0.006 C 
HETATM    3  C2  UNL     1     -33.567  14.665  -4.202  1.00 20.00     0.006 C 
ENDBRANCH   1   2
BRANCH   1   4
HETATM    4  C6  UNL     1     -35.132  16.585  -1.191  1.00 20.00     0.006 C 
HETATM    5  C3  UNL     1     -36.096  17.732  -0.911  1.00 20.00     0.006 C 
ENDBRANCH   1   4
BRANCH   1   6
HETATM    6  C7  UNL     1     -32.976  16.830  -2.585  1.00 20.00     0.010 C 
BRANCH   6   7
HETATM    7  C4  UNL     1     -32.568  18.262  -2.217  1.00 20.00    -0.004 C 
HETATM    8  C1  UNL     1     -31.760  18.287  -0.926  1.00 20.00     0.005 C 
ENDBRANCH   6   7
ENDBRANCH   1   6
BRANCH   1   9
HETATM    9  C8  UNL     1     -35.271  17.613  -3.459  1.00 20.00     0.124 C 
HETATM   10 CL10 UNL     1     -36.438  16.952  -4.632  1.00 20.00    -0.130 Cl
ENDBRANCH   1   9
TORSDOF 5
ENDMDL
MODEL 6
REMARK VINA RESULT:      -3.5     15.668     16.960
REMARK  5 active torsions:
REMARK  status: ('A' for Active; 'I' for Inactive)
REMARK    1  A    between atoms: C4_4  and  C7_7 
REMARK    2  A    between atoms: C5_5  and  C9_9 
REMARK    3  A    between atoms: C6_6  and  C9_9 
REMARK    4  A    between atoms: C7_7  and  C9_9 
REMARK    5  A    between atoms: C8_8  and  C9_9 
ROOT
HETATM    1  C9  UNL     1     -33.920  16.684  -2.923  1.00 20.00    -0.029 C 
ENDROOT
BRANCH   1   2
HETATM    2  C5  UNL     1     -32.867  17.396  -2.012  1.00 20.00     0.006 C 
HETATM    3  C2  UNL     1     -32.444  18.799  -2.435  1.00 20.00     0.006 C 
ENDBRANCH   1   2
BRANCH   1   4
HETATM    4  C6  UNL     1     -33.272  15.498  -3.706  1.00 20.00     0.006 C 
HETATM    5  C3  UNL     1     -34.194  14.336  -4.054  1.00 20.00     0.006 C 
ENDBRANCH   1   4
BRANCH   1   6
HETATM    6  C7  UNL     1     -35.056  16.177  -1.972  1.00 20.00     0.010 C 
BRANCH   6   7
HETATM    7  C4  UNL     1     -35.232  16.945  -0.656  1.00 20.00    -0.004 C 
HETATM    8  C1  UNL     1     -36.421  17.893  -0.730  1.00 20.00     0.005 C 
ENDBRANCH   6   7
ENDBRANCH   1   6
BRANCH   1   9
HETATM    9  C8  UNL     1     -34.480  17.660  -4.000  1.00 20.00     0.124 C 
HETATM   10 CL10 UNL     1     -36.208  17.434  -4.374  1.00 20.00    -0.130 Cl
ENDBRANCH   1   9
TORSDOF 5
ENDMDL
MODEL 7
REMARK VINA RESULT:      -3.4     17.052     18.866
REMARK  5 active torsions:
REMARK  status: ('A' for Active; 'I' for Inactive)
REMARK    1  A    between atoms: C4_4  and  C7_7 
REMARK    2  A    between atoms: C5_5  and  C9_9 
REMARK    3  A    between atoms: C6_6  and  C9_9 
REMARK    4  A    between atoms: C7_7  and  C9_9 
REMARK    5  A    between atoms: C8_8  and  C9_9 
ROOT
HETATM    1  C9  UNL     1     -34.562  15.558  -5.282  1.00 20.00    -0.029 C 
ENDROOT
BRANCH   1   2
HETATM    2  C5  UNL     1     -33.788  14.911  -6.478  1.00 20.00     0.006 C 
HETATM    3  C2  UNL     1     -34.079  15.484  -7.861  1.00 20.00     0.006 C 
ENDBRANCH   1   2
BRANCH   1   4
HETATM    4  C6  UNL     1     -36.048  15.076  -5.252  1.00 20.00     0.006 C 
HETATM    5  C3  UNL     1     -36.310  13.741  -4.564  1.00 20.00     0.006 C 
ENDBRANCH   1   4
BRANCH   1   6
HETATM    6  C7  UNL     1     -33.804  15.128  -3.981  1.00 20.00     0.010 C 
BRANCH   6   7
HETATM    7  C4  UNL     1     -33.710  16.183  -2.872  1.00 20.00    -0.004 C 
HETATM    8  C1  UNL     1     -34.905  16.101  -1.933  1.00 20.00     0.005 C 
ENDBRANCH   6   7
ENDBRANCH   1   6
BRANCH   1   9
HETATM    9  C8  UNL     1     -34.612  17.108  -5.419  1.00 20.00     0.124 C 
HETATM   10 CL10 UNL     1     -36.232  17.818  -5.197  1.00 20.00    -0.130 Cl
ENDBRANCH   1   9
TORSDOF 5
ENDMDL
MODEL 8
REMARK VINA RESULT:      -3.4     16.413     18.332
REMARK  5 active torsions:
REMARK  status: ('A' for Active; 'I' for Inactive)
REMARK    1  A    between atoms: C4_4  and  C7_7 
REMARK    2  A    between atoms: C5_5  and  C9_9 
REMARK    3  A    between atoms: C6_6  and  C9_9 
REMARK    4  A    between atoms: C7_7  and  C9_9 
REMARK    5  A    between atoms: C8_8  and  C9_9 
ROOT
HETATM    1  C9  UNL     1     -34.592  15.631  -4.083  1.00 20.00    -0.029 C 
ENDROOT
BRANCH   1   2
HETATM    2  C5  UNL     1     -35.979  14.949  -3.839  1.00 20.00     0.006 C 
HETATM    3  C2  UNL     1     -36.202  13.606  -4.524  1.00 20.00     0.006 C 
ENDBRANCH   1   2
BRANCH   1   4
HETATM    4  C6  UNL     1     -34.752  16.938  -4.924  1.00 20.00     0.006 C 
HETATM    5  C3  UNL     1     -36.179  17.427  -5.145  1.00 20.00     0.006 C 
ENDBRANCH   1   4
BRANCH   1   6
HETATM    6  C7  UNL     1     -33.996  15.941  -2.669  1.00 20.00     0.010 C 
BRANCH   6   7
HETATM    7  C4  UNL     1     -34.993  16.406  -1.601  1.00 20.00    -0.004 C 
HETATM    8  C1  UNL     1     -34.461  17.617  -0.845  1.00 20.00     0.005 C 
ENDBRANCH   6   7
ENDBRANCH   1   6
BRANCH   1   9
HETATM    9  C8  UNL     1     -33.647  14.702  -4.902  1.00 20.00     0.124 C 
HETATM   10 CL10 UNL     1     -33.721  14.942  -6.666  1.00 20.00    -0.130 Cl
ENDBRANCH   1   9
TORSDOF 5
ENDMDL
MODEL 9
REMARK VINA RESULT:      -3.4     16.916     18.706
REMARK  5 active torsions:
REMARK  status: ('A' for Active; 'I' for Inactive)
REMARK    1  A    between atoms: C4_4  and  C7_7 
REMARK    2  A    between atoms: C5_5  and  C9_9 
REMARK    3  A    between atoms: C6_6  and  C9_9 
REMARK    4  A    between atoms: C7_7  and  C9_9 
REMARK    5  A    between atoms: C8_8  and  C9_9 
ROOT
HETATM    1  C9  UNL     1     -35.543  14.977  -4.336  1.00 20.00    -0.029 C 
ENDROOT
BRANCH   1   2
HETATM    2  C5  UNL     1     -35.212  15.734  -5.664  1.00 20.00     0.006 C 
HETATM    3  C2  UNL     1     -35.769  15.125  -6.946  1.00 20.00     0.006 C 
ENDBRANCH   1   2
BRANCH   1   4
HETATM    4  C6  UNL     1     -34.334  14.104  -3.873  1.00 20.00     0.006 C 
HETATM    5  C3  UNL     1     -32.977  14.459  -4.471  1.00 20.00     0.006 C 
ENDBRANCH   1   4
BRANCH   1   6
HETATM    6  C7  UNL     1     -35.883  16.077  -3.274  1.00 20.00     0.010 C 
BRANCH   6   7
HETATM    7  C4  UNL     1     -35.054  16.052  -1.984  1.00 20.00    -0.004 C 
HETATM    8  C1  UNL     1     -34.025  17.175  -1.972  1.00 20.00     0.005 C 
ENDBRANCH   6   7
ENDBRANCH   1   6
BRANCH   1   9
HETATM    9  C8  UNL     1     -36.736  13.995  -4.532  1.00 20.00     0.124 C 
HETATM   10 CL10 UNL     1     -38.340  14.710  -4.230  1.00 20.00    -0.130 Cl
ENDBRANCH   1   9
TORSDOF 5
ENDMDL
