MODEL 1
REMARK VINA RESULT:      -5.8      0.000      0.000
REMARK  0 active torsions:
REMARK  status: ('A' for Active; 'I' for Inactive)
ROOT
HETATM    1  C1  UNL     1     -34.004   6.522   5.628  1.00 20.00    -0.021 C 
HETATM    2  C2  UNL     1     -34.311   5.277   6.028  1.00 20.00    -0.025 C 
HETATM    3  C3  UNL     1     -33.564   5.732   3.349  1.00 20.00    -0.076 C 
HETATM    4  C4  UNL     1     -32.699   6.099   2.402  1.00 20.00    -0.027 C 
HETATM    5  C5  UNL     1     -33.895   4.303   3.768  1.00 20.00     0.043 C 
HETATM    6  C6  UNL     1     -35.701   5.777   4.249  1.00 20.00     0.022 C 
HETATM    7  C7  UNL     1     -34.441   6.647   4.186  1.00 20.00     0.037 C 
HETATM    8  C8  UNL     1     -34.965   4.576   4.854  1.00 20.00     0.013 C 
HETATM    9  C9  UNL     1     -32.414   7.518   2.031  1.00 20.00     0.036 C 
ENDROOT
TORSDOF 0
ENDMDL
MODEL 2
REMARK VINA RESULT:      -4.6     16.038     17.150
REMARK  0 active torsions:
REMARK  status: ('A' for Active; 'I' for Inactive)
ROOT
HETATM    1  C1  UNL     1     -25.032  18.251  10.419  1.00 20.00    -0.021 C 
HETATM    2  C2  UNL     1     -25.009  18.417  11.751  1.00 20.00    -0.025 C 
HETATM    3  C3  UNL     1     -22.687  17.538  10.419  1.00 20.00    -0.076 C 
HETATM    4  C4  UNL     1     -21.681  17.691   9.555  1.00 20.00    -0.027 C 
HETATM    5  C5  UNL     1     -22.618  17.724  11.930  1.00 20.00     0.043 C 
HETATM    6  C6  UNL     1     -24.374  16.233  11.331  1.00 20.00     0.022 C 
HETATM    7  C7  UNL     1     -24.105  17.102  10.096  1.00 20.00     0.037 C 
HETATM    8  C8  UNL     1     -24.074  17.367  12.318  1.00 20.00     0.013 C 
HETATM    9  C9  UNL     1     -21.805  17.494   8.080  1.00 20.00     0.036 C 
ENDROOT
TORSDOF 0
ENDMDL
MODEL 3
REMARK VINA RESULT:      -4.4     15.987     17.181
REMARK  0 active torsions:
REMARK  status: ('A' for Active; 'I' for Inactive)
ROOT
HETATM    1  C1  UNL     1     -23.424  17.688  12.267  1.00 20.00    -0.021 C 
HETATM    2  C2  UNL     1     -22.390  17.729  11.411  1.00 20.00    -0.025 C 
HETATM    3  C3  UNL     1     -24.956  18.482  10.526  1.00 20.00    -0.076 C 
HETATM    4  C4  UNL     1     -26.039  19.263  10.542  1.00 20.00    -0.027 C 
HETATM    5  C5  UNL     1     -23.806  18.551   9.528  1.00 20.00     0.043 C 
HETATM    6  C6  UNL     1     -24.001  16.369  10.460  1.00 20.00     0.022 C 
HETATM    7  C7  UNL     1     -24.653  17.327  11.464  1.00 20.00     0.037 C 
HETATM    8  C8  UNL     1     -22.929  17.381  10.038  1.00 20.00     0.013 C 
HETATM    9  C9  UNL     1     -27.139  19.149  11.546  1.00 20.00     0.036 C 
ENDROOT
TORSDOF 0
ENDMDL
MODEL 4
REMARK VINA RESULT:      -4.3     16.019     16.997
REMARK  0 active torsions:
REMARK  status: ('A' for Active; 'I' for Inactive)
ROOT
HETATM    1  C1  UNL     1     -24.847  18.469  11.713  1.00 20.00    -0.021 C 
HETATM    2  C2  UNL     1     -23.703  18.131  12.332  1.00 20.00    -0.025 C 
HETATM    3  C3  UNL     1     -23.796  18.189   9.516  1.00 20.00    -0.076 C 
HETATM    4  C4  UNL     1     -23.942  18.810   8.343  1.00 20.00    -0.027 C 
HETATM    5  C5  UNL     1     -22.477  17.811  10.181  1.00 20.00     0.043 C 
HETATM    6  C6  UNL     1     -24.242  16.389  10.909  1.00 20.00     0.022 C 
HETATM    7  C7  UNL     1     -24.904  17.684  10.422  1.00 20.00     0.037 C 
HETATM    8  C8  UNL     1     -23.004  17.109  11.457  1.00 20.00     0.013 C 
HETATM    9  C9  UNL     1     -25.262  19.156   7.737  1.00 20.00     0.036 C 
ENDROOT
TORSDOF 0
ENDMDL
MODEL 5
REMARK VINA RESULT:      -4.3     12.055     13.184
REMARK  0 active torsions:
REMARK  status: ('A' for Active; 'I' for Inactive)
ROOT
HETATM    1  C1  UNL     1     -34.231  17.237  -4.489  1.00 20.00    -0.021 C 
HETATM    2  C2  UNL     1     -35.352  16.502  -4.392  1.00 20.00    -0.025 C 
HETATM    3  C3  UNL     1     -33.783  16.953  -2.095  1.00 20.00    -0.076 C 
HETATM    4  C4  UNL     1     -33.233  17.737  -1.165  1.00 20.00    -0.027 C 
HETATM    5  C5  UNL     1     -35.052  16.123  -1.943  1.00 20.00     0.043 C 
HETATM    6  C6  UNL     1     -33.615  15.196  -3.599  1.00 20.00     0.022 C 
HETATM    7  C7  UNL     1     -33.244  16.679  -3.488  1.00 20.00     0.037 C 
HETATM    8  C8  UNL     1     -35.105  15.444  -3.335  1.00 20.00     0.013 C 
HETATM    9  C9  UNL     1     -31.984  18.530  -1.369  1.00 20.00     0.036 C 
ENDROOT
TORSDOF 0
ENDMDL
MODEL 6
REMARK VINA RESULT:      -4.2     11.795     12.870
REMARK  0 active torsions:
REMARK  status: ('A' for Active; 'I' for Inactive)
ROOT
HETATM    1  C1  UNL     1     -35.630  17.534  -3.503  1.00 20.00    -0.021 C 
HETATM    2  C2  UNL     1     -34.479  18.153  -3.189  1.00 20.00    -0.025 C 
HETATM    3  C3  UNL     1     -34.528  15.345  -3.428  1.00 20.00    -0.076 C 
HETATM    4  C4  UNL     1     -34.689  14.213  -4.116  1.00 20.00    -0.027 C 
HETATM    5  C5  UNL     1     -33.201  16.012  -3.080  1.00 20.00     0.043 C 
HETATM    6  C6  UNL     1     -34.895  16.608  -1.518  1.00 20.00     0.022 C 
HETATM    7  C7  UNL     1     -35.621  16.194  -2.803  1.00 20.00     0.037 C 
HETATM    8  C8  UNL     1     -33.709  17.228  -2.267  1.00 20.00     0.013 C 
HETATM    9  C9  UNL     1     -36.016  13.603  -4.427  1.00 20.00     0.036 C 
ENDROOT
TORSDOF 0
ENDMDL
MODEL 7
REMARK VINA RESULT:      -4.2     11.831     13.007
REMARK  0 active torsions:
REMARK  status: ('A' for Active; 'I' for Inactive)
ROOT
HETATM    1  C1  UNL     1     -34.034  17.034  -4.753  1.00 20.00    -0.021 C 
HETATM    2  C2  UNL     1     -34.500  15.990  -5.457  1.00 20.00    -0.025 C 
HETATM    3  C3  UNL     1     -34.648  15.946  -2.644  1.00 20.00    -0.076 C 
HETATM    4  C4  UNL     1     -35.084  16.404  -1.468  1.00 20.00    -0.027 C 
HETATM    5  C5  UNL     1     -35.196  14.747  -3.408  1.00 20.00     0.043 C 
HETATM    6  C6  UNL     1     -32.923  15.161  -3.982  1.00 20.00     0.022 C 
HETATM    7  C7  UNL     1     -33.484  16.487  -3.455  1.00 20.00     0.037 C 
HETATM    8  C8  UNL     1     -34.248  14.744  -4.632  1.00 20.00     0.013 C 
HETATM    9  C9  UNL     1     -34.507  17.586  -0.762  1.00 20.00     0.036 C 
ENDROOT
TORSDOF 0
ENDMDL
MODEL 8
REMARK VINA RESULT:      -4.1      8.346      9.810
REMARK  0 active torsions:
REMARK  status: ('A' for Active; 'I' for Inactive)
ROOT
HETATM    1  C1  UNL     1     -42.956   8.011  -1.055  1.00 20.00    -0.021 C 
HETATM    2  C2  UNL     1     -41.965   8.585  -0.353  1.00 20.00    -0.025 C 
HETATM    3  C3  UNL     1     -41.940   5.798  -0.770  1.00 20.00    -0.076 C 
HETATM    4  C4  UNL     1     -41.875   4.712  -1.543  1.00 20.00    -0.027 C 
HETATM    5  C5  UNL     1     -40.793   6.414   0.023  1.00 20.00     0.043 C 
HETATM    6  C6  UNL     1     -42.895   6.955   0.999  1.00 20.00     0.022 C 
HETATM    7  C7  UNL     1     -43.174   6.633  -0.474  1.00 20.00     0.037 C 
HETATM    8  C8  UNL     1     -41.531   7.591   0.706  1.00 20.00     0.013 C 
HETATM    9  C9  UNL     1     -43.035   4.151  -2.298  1.00 20.00     0.036 C 
ENDROOT
TORSDOF 0
ENDMDL
MODEL 9
REMARK VINA RESULT:      -4.0     11.980     13.149
REMARK  0 active torsions:
REMARK  status: ('A' for Active; 'I' for Inactive)
ROOT
HETATM    1  C1  UNL     1     -34.621  15.538  -2.746  1.00 20.00    -0.021 C 
HETATM    2  C2  UNL     1     -33.443  15.715  -3.369  1.00 20.00    -0.025 C 
HETATM    3  C3  UNL     1     -34.163  17.422  -1.246  1.00 20.00    -0.076 C 
HETATM    4  C4  UNL     1     -34.462  17.672   0.031  1.00 20.00    -0.027 C 
HETATM    5  C5  UNL     1     -32.815  17.648  -1.920  1.00 20.00     0.043 C 
HETATM    6  C6  UNL     1     -34.589  17.720  -3.506  1.00 20.00     0.022 C 
HETATM    7  C7  UNL     1     -35.107  16.903  -2.316  1.00 20.00     0.037 C 
HETATM    8  C8  UNL     1     -33.152  17.202  -3.365  1.00 20.00     0.013 C 
HETATM    9  C9  UNL     1     -35.804  17.432   0.641  1.00 20.00     0.036 C 
ENDROOT
TORSDOF 0
ENDMDL
