MODEL 1
REMARK VINA RESULT:      -4.8      0.000      0.000
REMARK  3 active torsions:
REMARK  status: ('A' for Active; 'I' for Inactive)
REMARK    1  A    between atoms: C2_2  and  C6_6 
REMARK    2  A    between atoms: C6_6  and  C7_7 
REMARK    3  A    between atoms: C7_7  and  C8_8 
ROOT
HETATM    1  C6  UNL     1     -34.472   5.907   3.353  1.00 20.00     0.027 C 
ENDROOT
BRANCH   1   2
HETATM    2  C2  UNL     1     -34.770   4.883   4.410  1.00 20.00    -0.031 C 
HETATM    3  C1  UNL     1     -34.703   5.130   5.725  1.00 20.00    -0.035 C 
HETATM    4  C3  UNL     1     -34.324   6.453   6.306  1.00 20.00     0.035 C 
ENDBRANCH   1   2
BRANCH   1   5
HETATM    5  C7  UNL     1     -33.159   5.635   2.606  1.00 20.00     0.007 C 
BRANCH   5   6
HETATM    6  C8  UNL     1     -32.208   6.842   2.478  1.00 20.00    -0.022 C 
HETATM    7  C4  UNL     1     -32.740   7.807   1.415  1.00 20.00     0.009 C 
HETATM    8  C5  UNL     1     -32.028   7.585   3.803  1.00 20.00     0.009 C 
ENDBRANCH   5   6
ENDBRANCH   1   5
TORSDOF 3
ENDMDL
MODEL 2
REMARK VINA RESULT:      -4.8      1.034      4.300
REMARK  3 active torsions:
REMARK  status: ('A' for Active; 'I' for Inactive)
REMARK    1  A    between atoms: C2_2  and  C6_6 
REMARK    2  A    between atoms: C6_6  and  C7_7 
REMARK    3  A    between atoms: C7_7  and  C8_8 
ROOT
HETATM    1  C6  UNL     1     -32.585   7.226   2.823  1.00 20.00     0.027 C 
ENDROOT
BRANCH   1   2
HETATM    2  C2  UNL     1     -32.317   7.278   1.347  1.00 20.00    -0.031 C 
HETATM    3  C1  UNL     1     -32.585   8.343   0.578  1.00 20.00    -0.035 C 
HETATM    4  C3  UNL     1     -33.184   9.610   1.091  1.00 20.00     0.035 C 
ENDBRANCH   1   2
BRANCH   1   5
HETATM    5  C7  UNL     1     -33.385   5.986   3.245  1.00 20.00     0.007 C 
BRANCH   5   6
HETATM    6  C8  UNL     1     -34.362   6.197   4.420  1.00 20.00    -0.022 C 
HETATM    7  C4  UNL     1     -34.933   4.847   4.864  1.00 20.00     0.009 C 
HETATM    8  C5  UNL     1     -33.699   6.892   5.610  1.00 20.00     0.009 C 
ENDBRANCH   5   6
ENDBRANCH   1   5
TORSDOF 3
ENDMDL
MODEL 3
REMARK VINA RESULT:      -4.4      0.805      2.038
REMARK  3 active torsions:
REMARK  status: ('A' for Active; 'I' for Inactive)
REMARK    1  A    between atoms: C2_2  and  C6_6 
REMARK    2  A    between atoms: C6_6  and  C7_7 
REMARK    3  A    between atoms: C7_7  and  C8_8 
ROOT
HETATM    1  C6  UNL     1     -33.782   7.391   4.492  1.00 20.00     0.027 C 
ENDROOT
BRANCH   1   2
HETATM    2  C2  UNL     1     -33.881   6.716   5.829  1.00 20.00    -0.031 C 
HETATM    3  C1  UNL     1     -34.531   5.563   6.035  1.00 20.00    -0.035 C 
HETATM    4  C3  UNL     1     -35.238   4.803   4.961  1.00 20.00     0.035 C 
ENDBRANCH   1   2
BRANCH   1   5
HETATM    5  C7  UNL     1     -32.354   7.401   3.928  1.00 20.00     0.007 C 
BRANCH   5   6
HETATM    6  C8  UNL     1     -32.205   6.856   2.493  1.00 20.00    -0.022 C 
HETATM    7  C4  UNL     1     -33.052   5.590   2.331  1.00 20.00     0.009 C 
HETATM    8  C5  UNL     1     -32.609   7.884   1.435  1.00 20.00     0.009 C 
ENDBRANCH   5   6
ENDBRANCH   1   5
TORSDOF 3
ENDMDL
MODEL 4
REMARK VINA RESULT:      -4.2      1.053      4.327
REMARK  3 active torsions:
REMARK  status: ('A' for Active; 'I' for Inactive)
REMARK    1  A    between atoms: C2_2  and  C6_6 
REMARK    2  A    between atoms: C6_6  and  C7_7 
REMARK    3  A    between atoms: C7_7  and  C8_8 
ROOT
HETATM    1  C6  UNL     1     -32.627   7.149   2.956  1.00 20.00     0.027 C 
ENDROOT
BRANCH   1   2
HETATM    2  C2  UNL     1     -32.268   7.184   1.499  1.00 20.00    -0.031 C 
HETATM    3  C1  UNL     1     -32.527   8.222   0.693  1.00 20.00    -0.035 C 
HETATM    4  C3  UNL     1     -33.203   9.476   1.141  1.00 20.00     0.035 C 
ENDBRANCH   1   2
BRANCH   1   5
HETATM    5  C7  UNL     1     -33.752   6.155   3.275  1.00 20.00     0.007 C 
BRANCH   5   6
HETATM    6  C8  UNL     1     -33.890   5.765   4.760  1.00 20.00    -0.022 C 
HETATM    7  C4  UNL     1     -33.790   7.018   5.635  1.00 20.00     0.009 C 
HETATM    8  C5  UNL     1     -35.204   5.037   5.052  1.00 20.00     0.009 C 
ENDBRANCH   5   6
ENDBRANCH   1   5
TORSDOF 3
ENDMDL
MODEL 5
REMARK VINA RESULT:      -4.1      1.214      2.575
REMARK  3 active torsions:
REMARK  status: ('A' for Active; 'I' for Inactive)
REMARK    1  A    between atoms: C2_2  and  C6_6 
REMARK    2  A    between atoms: C6_6  and  C7_7 
REMARK    3  A    between atoms: C7_7  and  C8_8 
ROOT
HETATM    1  C6  UNL     1     -32.903   6.797   3.018  1.00 20.00     0.027 C 
ENDROOT
BRANCH   1   2
HETATM    2  C2  UNL     1     -33.332   5.383   2.749  1.00 20.00    -0.031 C 
HETATM    3  C1  UNL     1     -34.226   4.722   3.496  1.00 20.00    -0.035 C 
HETATM    4  C3  UNL     1     -34.909   5.305   4.689  1.00 20.00     0.035 C 
ENDBRANCH   1   2
BRANCH   1   5
HETATM    5  C7  UNL     1     -32.278   7.478   1.793  1.00 20.00     0.007 C 
BRANCH   5   6
HETATM    6  C8  UNL     1     -33.230   8.374   0.976  1.00 20.00    -0.022 C 
HETATM    7  C4  UNL     1     -32.933   9.847   1.271  1.00 20.00     0.009 C 
HETATM    8  C5  UNL     1     -33.122   8.119  -0.529  1.00 20.00     0.009 C 
ENDBRANCH   5   6
ENDBRANCH   1   5
TORSDOF 3
ENDMDL
MODEL 6
REMARK VINA RESULT:      -4.0      0.763      3.790
REMARK  3 active torsions:
REMARK  status: ('A' for Active; 'I' for Inactive)
REMARK    1  A    between atoms: C2_2  and  C6_6 
REMARK    2  A    between atoms: C6_6  and  C7_7 
REMARK    3  A    between atoms: C7_7  and  C8_8 
ROOT
HETATM    1  C6  UNL     1     -33.601   5.198   3.307  1.00 20.00     0.027 C 
ENDROOT
BRANCH   1   2
HETATM    2  C2  UNL     1     -33.246   6.029   2.108  1.00 20.00    -0.031 C 
HETATM    3  C1  UNL     1     -32.430   7.092   2.154  1.00 20.00    -0.035 C 
HETATM    4  C3  UNL     1     -31.772   7.583   3.401  1.00 20.00     0.035 C 
ENDBRANCH   1   2
BRANCH   1   5
HETATM    5  C7  UNL     1     -34.937   5.604   3.945  1.00 20.00     0.007 C 
BRANCH   5   6
HETATM    6  C8  UNL     1     -34.894   5.860   5.465  1.00 20.00    -0.022 C 
HETATM    7  C4  UNL     1     -34.540   4.563   6.197  1.00 20.00     0.009 C 
HETATM    8  C5  UNL     1     -33.892   6.953   5.843  1.00 20.00     0.009 C 
ENDBRANCH   5   6
ENDBRANCH   1   5
TORSDOF 3
ENDMDL
MODEL 7
REMARK VINA RESULT:      -3.9      0.886      2.017
REMARK  3 active torsions:
REMARK  status: ('A' for Active; 'I' for Inactive)
REMARK    1  A    between atoms: C2_2  and  C6_6 
REMARK    2  A    between atoms: C6_6  and  C7_7 
REMARK    3  A    between atoms: C7_7  and  C8_8 
ROOT
HETATM    1  C6  UNL     1     -34.493   4.601   4.588  1.00 20.00     0.027 C 
ENDROOT
BRANCH   1   2
HETATM    2  C2  UNL     1     -34.946   5.152   5.909  1.00 20.00    -0.031 C 
HETATM    3  C1  UNL     1     -34.471   6.285   6.445  1.00 20.00    -0.035 C 
HETATM    4  C3  UNL     1     -33.433   7.141   5.798  1.00 20.00     0.035 C 
ENDBRANCH   1   2
BRANCH   1   5
HETATM    5  C7  UNL     1     -34.713   5.576   3.423  1.00 20.00     0.007 C 
BRANCH   5   6
HETATM    6  C8  UNL     1     -33.629   5.551   2.326  1.00 20.00    -0.022 C 
HETATM    7  C4  UNL     1     -32.648   6.708   2.544  1.00 20.00     0.009 C 
HETATM    8  C5  UNL     1     -32.863   4.227   2.293  1.00 20.00     0.009 C 
ENDBRANCH   5   6
ENDBRANCH   1   5
TORSDOF 3
ENDMDL
MODEL 8
REMARK VINA RESULT:      -3.8     11.477     12.427
REMARK  3 active torsions:
REMARK  status: ('A' for Active; 'I' for Inactive)
REMARK    1  A    between atoms: C2_2  and  C6_6 
REMARK    2  A    between atoms: C6_6  and  C7_7 
REMARK    3  A    between atoms: C7_7  and  C8_8 
ROOT
HETATM    1  C6  UNL     1     -33.610  14.619  -4.202  1.00 20.00     0.027 C 
ENDROOT
BRANCH   1   2
HETATM    2  C2  UNL     1     -33.081  15.851  -3.525  1.00 20.00    -0.031 C 
HETATM    3  C1  UNL     1     -33.728  16.497  -2.545  1.00 20.00    -0.035 C 
HETATM    4  C3  UNL     1     -35.053  16.076  -2.002  1.00 20.00     0.035 C 
ENDBRANCH   1   2
BRANCH   1   5
HETATM    5  C7  UNL     1     -34.227  14.908  -5.577  1.00 20.00     0.007 C 
BRANCH   5   6
HETATM    6  C8  UNL     1     -35.737  14.622  -5.698  1.00 20.00    -0.022 C 
HETATM    7  C4  UNL     1     -36.171  13.661  -4.587  1.00 20.00     0.009 C 
HETATM    8  C5  UNL     1     -36.579  15.898  -5.632  1.00 20.00     0.009 C 
ENDBRANCH   5   6
ENDBRANCH   1   5
TORSDOF 3
ENDMDL
MODEL 9
REMARK VINA RESULT:      -3.6      9.010     10.218
REMARK  3 active torsions:
REMARK  status: ('A' for Active; 'I' for Inactive)
REMARK    1  A    between atoms: C2_2  and  C6_6 
REMARK    2  A    between atoms: C6_6  and  C7_7 
REMARK    3  A    between atoms: C7_7  and  C8_8 
ROOT
HETATM    1  C6  UNL     1     -41.409   5.326  -1.180  1.00 20.00     0.027 C 
ENDROOT
BRANCH   1   2
HETATM    2  C2  UNL     1     -42.774   4.810  -1.531  1.00 20.00    -0.031 C 
HETATM    3  C1  UNL     1     -42.992   3.818  -2.405  1.00 20.00    -0.035 C 
HETATM    4  C3  UNL     1     -41.907   3.101  -3.139  1.00 20.00     0.035 C 
ENDBRANCH   1   2
BRANCH   1   5
HETATM    5  C7  UNL     1     -41.336   6.859  -1.151  1.00 20.00     0.007 C 
BRANCH   5   6
HETATM    6  C8  UNL     1     -41.421   7.500   0.249  1.00 20.00    -0.022 C 
HETATM    7  C4  UNL     1     -41.425   9.025   0.120  1.00 20.00     0.009 C 
HETATM    8  C5  UNL     1     -42.661   7.046   1.023  1.00 20.00     0.009 C 
ENDBRANCH   5   6
ENDBRANCH   1   5
TORSDOF 3
ENDMDL
