MODEL 1
REMARK VINA RESULT:      -4.8      0.000      0.000
REMARK  3 active torsions:
REMARK  status: ('A' for Active; 'I' for Inactive)
REMARK    1  A    between atoms: C5_5  and  C7_7 
REMARK    2  A    between atoms: C5_5  and  N8_8 
REMARK    3  A    between atoms: C6_6  and  C7_7 
ROOT
HETATM    1  C1  UNL     1     -32.579   7.916   1.391  1.00 20.00     0.157 C 
HETATM    2  N8  UNL     1     -32.235   7.015   2.060  1.00 20.00    -0.275 NA
HETATM    3  S9  UNL     1     -33.029   9.129   0.460  1.00 20.00    -0.055 SA
ENDROOT
BRANCH   2   4
HETATM    4  C5  UNL     1     -32.748   7.034   3.432  1.00 20.00     0.155 C 
BRANCH   4   5
HETATM    5  C7  UNL     1     -33.998   6.145   3.563  1.00 20.00     0.005 C 
HETATM    6  C4  UNL     1     -33.676   4.727   3.071  1.00 20.00     0.012 C 
BRANCH   5   7
HETATM    7  C6  UNL     1     -34.608   6.145   4.997  1.00 20.00    -0.017 C 
HETATM    8  C2  UNL     1     -34.798   4.722   5.539  1.00 20.00     0.010 C 
HETATM    9  C3  UNL     1     -33.749   6.935   5.991  1.00 20.00     0.010 C 
ENDBRANCH   5   7
ENDBRANCH   4   5
ENDBRANCH   2   4
TORSDOF 3
ENDMDL
MODEL 2
REMARK VINA RESULT:      -3.9     11.366     12.145
REMARK  3 active torsions:
REMARK  status: ('A' for Active; 'I' for Inactive)
REMARK    1  A    between atoms: C5_5  and  C7_7 
REMARK    2  A    between atoms: C5_5  and  N8_8 
REMARK    3  A    between atoms: C6_6  and  C7_7 
ROOT
HETATM    1  C1  UNL     1     -39.249  14.725  -4.303  1.00 20.00     0.157 C 
HETATM    2  N8  UNL     1     -38.236  14.132  -4.295  1.00 20.00    -0.275 NA
HETATM    3  S9  UNL     1     -40.638  15.505  -4.318  1.00 20.00    -0.055 SA
ENDROOT
BRANCH   2   4
HETATM    4  C5  UNL     1     -37.034  14.964  -4.192  1.00 20.00     0.155 C 
BRANCH   4   5
HETATM    5  C7  UNL     1     -35.790  14.193  -4.668  1.00 20.00     0.005 C 
HETATM    6  C4  UNL     1     -35.470  14.577  -6.120  1.00 20.00     0.012 C 
BRANCH   5   7
HETATM    7  C6  UNL     1     -34.559  14.367  -3.730  1.00 20.00    -0.017 C 
HETATM    8  C2  UNL     1     -33.257  14.561  -4.520  1.00 20.00     0.010 C 
HETATM    9  C3  UNL     1     -34.727  15.550  -2.769  1.00 20.00     0.010 C 
ENDBRANCH   5   7
ENDBRANCH   4   5
ENDBRANCH   2   4
TORSDOF 3
ENDMDL
MODEL 3
REMARK VINA RESULT:      -3.9     11.307     11.777
REMARK  3 active torsions:
REMARK  status: ('A' for Active; 'I' for Inactive)
REMARK    1  A    between atoms: C5_5  and  C7_7 
REMARK    2  A    between atoms: C5_5  and  N8_8 
REMARK    3  A    between atoms: C6_6  and  C7_7 
ROOT
HETATM    1  C1  UNL     1     -38.033  14.540  -4.242  1.00 20.00     0.157 C 
HETATM    2  N8  UNL     1     -37.027  13.935  -4.230  1.00 20.00    -0.275 NA
HETATM    3  S9  UNL     1     -39.412  15.338  -4.247  1.00 20.00    -0.055 SA
ENDROOT
BRANCH   2   4
HETATM    4  C5  UNL     1     -35.867  14.656  -4.760  1.00 20.00     0.155 C 
BRANCH   4   5
HETATM    5  C7  UNL     1     -34.742  14.732  -3.712  1.00 20.00     0.005 C 
HETATM    6  C4  UNL     1     -33.435  14.201  -4.319  1.00 20.00     0.012 C 
BRANCH   5   7
HETATM    7  C6  UNL     1     -34.569  16.152  -3.094  1.00 20.00    -0.017 C 
HETATM    8  C2  UNL     1     -35.236  16.264  -1.717  1.00 20.00     0.010 C 
HETATM    9  C3  UNL     1     -33.093  16.545  -2.955  1.00 20.00     0.010 C 
ENDBRANCH   5   7
ENDBRANCH   4   5
ENDBRANCH   2   4
TORSDOF 3
ENDMDL
MODEL 4
REMARK VINA RESULT:      -3.8     15.645     16.763
REMARK  3 active torsions:
REMARK  status: ('A' for Active; 'I' for Inactive)
REMARK    1  A    between atoms: C5_5  and  C7_7 
REMARK    2  A    between atoms: C5_5  and  N8_8 
REMARK    3  A    between atoms: C6_6  and  C7_7 
ROOT
HETATM    1  C1  UNL     1     -25.787  16.909  12.067  1.00 20.00     0.157 C 
HETATM    2  N8  UNL     1     -24.909  16.145  11.913  1.00 20.00    -0.275 NA
HETATM    3  S9  UNL     1     -26.988  17.930  12.298  1.00 20.00    -0.055 SA
ENDROOT
BRANCH   2   4
HETATM    4  C5  UNL     1     -24.019  16.446  10.790  1.00 20.00     0.155 C 
BRANCH   4   5
HETATM    5  C7  UNL     1     -23.345  17.818  10.975  1.00 20.00     0.005 C 
HETATM    6  C4  UNL     1     -22.271  17.721  12.068  1.00 20.00     0.012 C 
BRANCH   5   7
HETATM    7  C6  UNL     1     -22.783  18.414   9.650  1.00 20.00    -0.017 C 
HETATM    8  C2  UNL     1     -22.216  17.328   8.727  1.00 20.00     0.010 C 
HETATM    9  C3  UNL     1     -23.844  19.207   8.877  1.00 20.00     0.010 C 
ENDBRANCH   5   7
ENDBRANCH   4   5
ENDBRANCH   2   4
TORSDOF 3
ENDMDL
MODEL 5
REMARK VINA RESULT:      -3.8     11.534     12.119
REMARK  3 active torsions:
REMARK  status: ('A' for Active; 'I' for Inactive)
REMARK    1  A    between atoms: C5_5  and  C7_7 
REMARK    2  A    between atoms: C5_5  and  N8_8 
REMARK    3  A    between atoms: C6_6  and  C7_7 
ROOT
HETATM    1  C1  UNL     1     -35.290  14.716  -6.653  1.00 20.00     0.157 C 
HETATM    2  N8  UNL     1     -36.089  14.039  -6.122  1.00 20.00    -0.275 NA
HETATM    3  S9  UNL     1     -34.216  15.626  -7.399  1.00 20.00    -0.055 SA
ENDROOT
BRANCH   2   4
HETATM    4  C5  UNL     1     -36.014  14.028  -4.659  1.00 20.00     0.155 C 
BRANCH   4   5
HETATM    5  C7  UNL     1     -35.682  15.429  -4.116  1.00 20.00     0.005 C 
HETATM    6  C4  UNL     1     -36.977  16.137  -3.692  1.00 20.00     0.012 C 
BRANCH   5   7
HETATM    7  C6  UNL     1     -34.621  15.414  -2.974  1.00 20.00    -0.017 C 
HETATM    8  C2  UNL     1     -33.242  15.873  -3.467  1.00 20.00     0.010 C 
HETATM    9  C3  UNL     1     -35.034  16.294  -1.789  1.00 20.00     0.010 C 
ENDBRANCH   5   7
ENDBRANCH   4   5
ENDBRANCH   2   4
TORSDOF 3
ENDMDL
MODEL 6
REMARK VINA RESULT:      -3.8     11.327     11.893
REMARK  3 active torsions:
REMARK  status: ('A' for Active; 'I' for Inactive)
REMARK    1  A    between atoms: C5_5  and  C7_7 
REMARK    2  A    between atoms: C5_5  and  N8_8 
REMARK    3  A    between atoms: C6_6  and  C7_7 
ROOT
HETATM    1  C1  UNL     1     -38.352  14.582  -4.264  1.00 20.00     0.157 C 
HETATM    2  N8  UNL     1     -37.289  14.084  -4.237  1.00 20.00    -0.275 NA
HETATM    3  S9  UNL     1     -39.807  15.231  -4.297  1.00 20.00    -0.055 SA
ENDROOT
BRANCH   2   4
HETATM    4  C5  UNL     1     -36.171  15.005  -4.456  1.00 20.00     0.155 C 
BRANCH   4   5
HETATM    5  C7  UNL     1     -35.023  14.718  -3.472  1.00 20.00     0.005 C 
HETATM    6  C4  UNL     1     -33.741  14.398  -4.254  1.00 20.00     0.012 C 
BRANCH   5   7
HETATM    7  C6  UNL     1     -34.806  15.855  -2.428  1.00 20.00    -0.017 C 
HETATM    8  C2  UNL     1     -33.433  16.521  -2.583  1.00 20.00     0.010 C 
HETATM    9  C3  UNL     1     -35.887  16.938  -2.520  1.00 20.00     0.010 C 
ENDBRANCH   5   7
ENDBRANCH   4   5
ENDBRANCH   2   4
TORSDOF 3
ENDMDL
MODEL 7
REMARK VINA RESULT:      -3.7     11.482     12.040
REMARK  3 active torsions:
REMARK  status: ('A' for Active; 'I' for Inactive)
REMARK    1  A    between atoms: C5_5  and  C7_7 
REMARK    2  A    between atoms: C5_5  and  N8_8 
REMARK    3  A    between atoms: C6_6  and  C7_7 
ROOT
HETATM    1  C1  UNL     1     -35.714  15.134  -6.629  1.00 20.00     0.157 C 
HETATM    2  N8  UNL     1     -35.121  14.379  -5.953  1.00 20.00    -0.275 NA
HETATM    3  S9  UNL     1     -36.501  16.151  -7.570  1.00 20.00    -0.055 SA
ENDROOT
BRANCH   2   4
HETATM    4  C5  UNL     1     -35.526  14.363  -4.545  1.00 20.00     0.155 C 
BRANCH   4   5
HETATM    5  C7  UNL     1     -34.338  14.706  -3.629  1.00 20.00     0.005 C 
HETATM    6  C4  UNL     1     -33.021  14.422  -4.365  1.00 20.00     0.012 C 
BRANCH   5   7
HETATM    7  C6  UNL     1     -34.393  16.156  -3.062  1.00 20.00    -0.017 C 
HETATM    8  C2  UNL     1     -35.130  16.219  -1.717  1.00 20.00     0.010 C 
HETATM    9  C3  UNL     1     -32.996  16.760  -2.881  1.00 20.00     0.010 C 
ENDBRANCH   5   7
ENDBRANCH   4   5
ENDBRANCH   2   4
TORSDOF 3
ENDMDL
MODEL 8
REMARK VINA RESULT:      -3.6     11.392     12.098
REMARK  3 active torsions:
REMARK  status: ('A' for Active; 'I' for Inactive)
REMARK    1  A    between atoms: C5_5  and  C7_7 
REMARK    2  A    between atoms: C5_5  and  N8_8 
REMARK    3  A    between atoms: C6_6  and  C7_7 
ROOT
HETATM    1  C1  UNL     1     -35.819  15.142  -6.687  1.00 20.00     0.157 C 
HETATM    2  N8  UNL     1     -35.210  14.368  -6.048  1.00 20.00    -0.275 NA
HETATM    3  S9  UNL     1     -36.627  16.187  -7.578  1.00 20.00    -0.055 SA
ENDROOT
BRANCH   2   4
HETATM    4  C5  UNL     1     -35.675  14.207  -4.668  1.00 20.00     0.155 C 
BRANCH   4   5
HETATM    5  C7  UNL     1     -34.518  14.406  -3.672  1.00 20.00     0.005 C 
HETATM    6  C4  UNL     1     -33.192  14.514  -4.438  1.00 20.00     0.012 C 
BRANCH   5   7
HETATM    7  C6  UNL     1     -34.736  15.606  -2.703  1.00 20.00    -0.017 C 
HETATM    8  C2  UNL     1     -33.499  16.509  -2.620  1.00 20.00     0.010 C 
HETATM    9  C3  UNL     1     -35.941  16.464  -3.107  1.00 20.00     0.010 C 
ENDBRANCH   5   7
ENDBRANCH   4   5
ENDBRANCH   2   4
TORSDOF 3
ENDMDL
MODEL 9
REMARK VINA RESULT:      -3.6      0.709      1.917
REMARK  3 active torsions:
REMARK  status: ('A' for Active; 'I' for Inactive)
REMARK    1  A    between atoms: C5_5  and  C7_7 
REMARK    2  A    between atoms: C5_5  and  N8_8 
REMARK    3  A    between atoms: C6_6  and  C7_7 
ROOT
HETATM    1  C1  UNL     1     -32.544   7.907   1.534  1.00 20.00     0.157 C 
HETATM    2  N8  UNL     1     -32.233   7.193   2.412  1.00 20.00    -0.275 NA
HETATM    3  S9  UNL     1     -32.951   8.860   0.323  1.00 20.00    -0.055 SA
ENDROOT
BRANCH   2   4
HETATM    4  C5  UNL     1     -32.687   7.613   3.740  1.00 20.00     0.155 C 
BRANCH   4   5
HETATM    5  C7  UNL     1     -33.267   6.422   4.524  1.00 20.00     0.005 C 
HETATM    6  C4  UNL     1     -33.798   6.907   5.880  1.00 20.00     0.012 C 
BRANCH   5   7
HETATM    7  C6  UNL     1     -34.340   5.621   3.726  1.00 20.00    -0.017 C 
HETATM    8  C2  UNL     1     -33.721   4.462   2.935  1.00 20.00     0.010 C 
HETATM    9  C3  UNL     1     -35.437   5.059   4.638  1.00 20.00     0.010 C 
ENDBRANCH   5   7
ENDBRANCH   4   5
ENDBRANCH   2   4
TORSDOF 3
ENDMDL
