MODEL 1
REMARK VINA RESULT:      -4.0      0.000      0.000
REMARK  1 active torsions:
REMARK  status: ('A' for Active; 'I' for Inactive)
REMARK       I    between atoms: C1_1  and  N8_8 
REMARK    1  A    between atoms: C5_5  and  N8_8 
ROOT
HETATM    1  C2  UNL     1     -25.489  18.835  10.641  1.00 20.00     0.036 C 
HETATM    2  C3  UNL     1     -26.126  18.514  11.984  1.00 20.00     0.076 C 
HETATM    3  C4  UNL     1     -24.429  16.670  11.008  1.00 20.00     0.099 C 
HETATM    4  C5  UNL     1     -24.147  18.115  10.623  1.00 20.00     0.096 C 
HETATM    5  S10 UNL     1     -25.695  16.781  12.307  1.00 20.00    -0.167 SA
ENDROOT
BRANCH   4   6
HETATM    6  N8  UNL     1     -23.502  18.215   9.342  1.00 20.00    -0.351 N 
HETATM    7  C1  UNL     1     -22.146  17.889   9.163  1.00 20.00     0.215 C 
HETATM    8  C6  UNL     1     -21.735  17.356   7.814  1.00 20.00     0.117 C 
HETATM    9  O9  UNL     1     -21.294  18.015  10.045  1.00 20.00    -0.274 OA
HETATM   10  C7  UNL     1     -24.343  18.677   8.231  1.00 20.00     0.153 C 
ENDBRANCH   4   6
TORSDOF 1
ENDMDL
MODEL 2
REMARK VINA RESULT:      -3.7     16.254     17.246
REMARK  1 active torsions:
REMARK  status: ('A' for Active; 'I' for Inactive)
REMARK       I    between atoms: C1_1  and  N8_8 
REMARK    1  A    between atoms: C5_5  and  N8_8 
ROOT
HETATM    1  C2  UNL     1     -33.374  17.079  -3.019  1.00 20.00     0.036 C 
HETATM    2  C3  UNL     1     -32.650  17.699  -1.834  1.00 20.00     0.076 C 
HETATM    3  C4  UNL     1     -35.142  16.808  -1.362  1.00 20.00     0.099 C 
HETATM    4  C5  UNL     1     -34.357  16.070  -2.437  1.00 20.00     0.096 C 
HETATM    5  S10 UNL     1     -33.915  17.870  -0.545  1.00 20.00    -0.167 SA
ENDROOT
BRANCH   4   6
HETATM    6  N8  UNL     1     -35.217  15.516  -3.447  1.00 20.00    -0.351 N 
HETATM    7  C1  UNL     1     -34.947  14.279  -4.057  1.00 20.00     0.215 C 
HETATM    8  C6  UNL     1     -36.128  13.468  -4.529  1.00 20.00     0.117 C 
HETATM    9  O9  UNL     1     -33.809  13.834  -4.220  1.00 20.00    -0.274 OA
HETATM   10  C7  UNL     1     -36.393  16.319  -3.804  1.00 20.00     0.153 C 
ENDBRANCH   4   6
TORSDOF 1
ENDMDL
MODEL 3
REMARK VINA RESULT:      -3.6     17.505     18.426
REMARK  1 active torsions:
REMARK  status: ('A' for Active; 'I' for Inactive)
REMARK       I    between atoms: C1_1  and  N8_8 
REMARK    1  A    between atoms: C5_5  and  N8_8 
ROOT
HETATM    1  C2  UNL     1     -34.458  16.163  -2.184  1.00 20.00     0.036 C 
HETATM    2  C3  UNL     1     -35.023  16.948  -1.010  1.00 20.00     0.076 C 
HETATM    3  C4  UNL     1     -36.552  16.860  -3.221  1.00 20.00     0.099 C 
HETATM    4  C5  UNL     1     -35.658  15.654  -2.973  1.00 20.00     0.096 C 
HETATM    5  S10 UNL     1     -36.471  17.816  -1.677  1.00 20.00    -0.167 SA
ENDROOT
BRANCH   4   6
HETATM    6  N8  UNL     1     -35.262  15.017  -4.200  1.00 20.00    -0.351 N 
HETATM    7  C1  UNL     1     -36.176  14.316  -5.004  1.00 20.00     0.215 C 
HETATM    8  C6  UNL     1     -35.915  14.290  -6.488  1.00 20.00     0.117 C 
HETATM    9  O9  UNL     1     -37.166  13.731  -4.557  1.00 20.00    -0.274 OA
HETATM   10  C7  UNL     1     -33.845  15.144  -4.564  1.00 20.00     0.153 C 
ENDBRANCH   4   6
TORSDOF 1
ENDMDL
MODEL 4
REMARK VINA RESULT:      -3.6     18.091     19.158
REMARK  1 active torsions:
REMARK  status: ('A' for Active; 'I' for Inactive)
REMARK       I    between atoms: C1_1  and  N8_8 
REMARK    1  A    between atoms: C5_5  and  N8_8 
ROOT
HETATM    1  C2  UNL     1     -34.653  15.529  -4.565  1.00 20.00     0.036 C 
HETATM    2  C3  UNL     1     -33.345  15.503  -3.789  1.00 20.00     0.076 C 
HETATM    3  C4  UNL     1     -35.387  16.808  -2.623  1.00 20.00     0.099 C 
HETATM    4  C5  UNL     1     -35.762  15.641  -3.526  1.00 20.00     0.096 C 
HETATM    5  S10 UNL     1     -33.586  16.670  -2.420  1.00 20.00    -0.167 SA
ENDROOT
BRANCH   4   6
HETATM    6  N8  UNL     1     -37.051  15.827  -4.136  1.00 20.00    -0.351 N 
HETATM    7  C1  UNL     1     -37.961  14.767  -4.290  1.00 20.00     0.215 C 
HETATM    8  C6  UNL     1     -39.430  15.107  -4.266  1.00 20.00     0.117 C 
HETATM    9  O9  UNL     1     -37.618  13.592  -4.441  1.00 20.00    -0.274 OA
HETATM   10  C7  UNL     1     -37.360  17.189  -4.588  1.00 20.00     0.153 C 
ENDBRANCH   4   6
TORSDOF 1
ENDMDL
MODEL 5
REMARK VINA RESULT:      -3.5      2.168      2.786
REMARK  1 active torsions:
REMARK  status: ('A' for Active; 'I' for Inactive)
REMARK       I    between atoms: C1_1  and  N8_8 
REMARK    1  A    between atoms: C5_5  and  N8_8 
ROOT
HETATM    1  C2  UNL     1     -24.476  17.663  10.741  1.00 20.00     0.036 C 
HETATM    2  C3  UNL     1     -24.160  17.788  12.224  1.00 20.00     0.076 C 
HETATM    3  C4  UNL     1     -22.071  18.011  10.545  1.00 20.00     0.099 C 
HETATM    4  C5  UNL     1     -23.417  18.478  10.009  1.00 20.00     0.096 C 
HETATM    5  S10 UNL     1     -22.348  17.757  12.323  1.00 20.00    -0.167 SA
ENDROOT
BRANCH   4   6
HETATM    6  N8  UNL     1     -23.512  18.322   8.583  1.00 20.00    -0.351 N 
HETATM    7  C1  UNL     1     -24.587  18.849   7.846  1.00 20.00     0.215 C 
HETATM    8  C6  UNL     1     -24.312  19.261   6.422  1.00 20.00     0.117 C 
HETATM    9  O9  UNL     1     -25.723  18.988   8.305  1.00 20.00    -0.274 OA
HETATM   10  C7  UNL     1     -22.419  17.580   7.942  1.00 20.00     0.153 C 
ENDBRANCH   4   6
TORSDOF 1
ENDMDL
MODEL 6
REMARK VINA RESULT:      -3.5     16.906     17.850
REMARK  1 active torsions:
REMARK  status: ('A' for Active; 'I' for Inactive)
REMARK       I    between atoms: C1_1  and  N8_8 
REMARK    1  A    between atoms: C5_5  and  N8_8 
ROOT
HETATM    1  C2  UNL     1     -34.924  15.765  -2.431  1.00 20.00     0.036 C 
HETATM    2  C3  UNL     1     -35.002  16.806  -1.325  1.00 20.00     0.076 C 
HETATM    3  C4  UNL     1     -33.077  17.178  -3.165  1.00 20.00     0.099 C 
HETATM    4  C5  UNL     1     -34.340  16.477  -3.645  1.00 20.00     0.096 C 
HETATM    5  S10 UNL     1     -33.503  17.810  -1.515  1.00 20.00    -0.167 SA
ENDROOT
BRANCH   4   6
HETATM    6  N8  UNL     1     -34.071  15.565  -4.724  1.00 20.00    -0.351 N 
HETATM    7  C1  UNL     1     -34.728  15.662  -5.962  1.00 20.00     0.215 C 
HETATM    8  C6  UNL     1     -33.974  15.200  -7.183  1.00 20.00     0.117 C 
HETATM    9  O9  UNL     1     -35.873  16.102  -6.092  1.00 20.00    -0.274 OA
HETATM   10  C7  UNL     1     -33.070  14.525  -4.454  1.00 20.00     0.153 C 
ENDBRANCH   4   6
TORSDOF 1
ENDMDL
MODEL 7
REMARK VINA RESULT:      -3.3     19.344     20.228
REMARK  1 active torsions:
REMARK  status: ('A' for Active; 'I' for Inactive)
REMARK       I    between atoms: C1_1  and  N8_8 
REMARK    1  A    between atoms: C5_5  and  N8_8 
ROOT
HETATM    1  C2  UNL     1     -38.930  14.960  -4.029  1.00 20.00     0.036 C 
HETATM    2  C3  UNL     1     -40.140  15.285  -4.892  1.00 20.00     0.076 C 
HETATM    3  C4  UNL     1     -37.880  16.624  -5.469  1.00 20.00     0.099 C 
HETATM    4  C5  UNL     1     -37.705  15.225  -4.895  1.00 20.00     0.096 C 
HETATM    5  S10 UNL     1     -39.652  16.742  -5.858  1.00 20.00    -0.167 SA
ENDROOT
BRANCH   4   6
HETATM    6  N8  UNL     1     -36.483  15.100  -4.148  1.00 20.00    -0.351 N 
HETATM    7  C1  UNL     1     -35.642  13.981  -4.279  1.00 20.00     0.215 C 
HETATM    8  C6  UNL     1     -34.166  14.196  -4.059  1.00 20.00     0.117 C 
HETATM    9  O9  UNL     1     -36.050  12.852  -4.562  1.00 20.00    -0.274 OA
HETATM   10  C7  UNL     1     -36.166  16.209  -3.239  1.00 20.00     0.153 C 
ENDBRANCH   4   6
TORSDOF 1
ENDMDL
MODEL 8
REMARK VINA RESULT:      -3.3     17.956     19.097
REMARK  1 active torsions:
REMARK  status: ('A' for Active; 'I' for Inactive)
REMARK       I    between atoms: C1_1  and  N8_8 
REMARK    1  A    between atoms: C5_5  and  N8_8 
ROOT
HETATM    1  C2  UNL     1     -35.407  14.784  -6.440  1.00 20.00     0.036 C 
HETATM    2  C3  UNL     1     -34.984  15.229  -7.832  1.00 20.00     0.076 C 
HETATM    3  C4  UNL     1     -34.794  17.079  -5.890  1.00 20.00     0.099 C 
HETATM    4  C5  UNL     1     -34.604  15.631  -5.461  1.00 20.00     0.096 C 
HETATM    5  S10 UNL     1     -34.766  17.026  -7.707  1.00 20.00    -0.167 SA
ENDROOT
BRANCH   4   6
HETATM    6  N8  UNL     1     -35.018  15.415  -4.101  1.00 20.00    -0.351 N 
HETATM    7  C1  UNL     1     -34.262  15.878  -3.010  1.00 20.00     0.215 C 
HETATM    8  C6  UNL     1     -35.012  16.240  -1.753  1.00 20.00     0.117 C 
HETATM    9  O9  UNL     1     -33.035  15.999  -3.035  1.00 20.00    -0.274 OA
HETATM   10  C7  UNL     1     -36.278  14.682  -3.919  1.00 20.00     0.153 C 
ENDBRANCH   4   6
TORSDOF 1
ENDMDL
MODEL 9
REMARK VINA RESULT:      -3.2     15.401     16.480
REMARK  1 active torsions:
REMARK  status: ('A' for Active; 'I' for Inactive)
REMARK       I    between atoms: C1_1  and  N8_8 
REMARK    1  A    between atoms: C5_5  and  N8_8 
ROOT
HETATM    1  C2  UNL     1     -35.550  15.981  -2.958  1.00 20.00     0.036 C 
HETATM    2  C3  UNL     1     -35.250  14.706  -3.731  1.00 20.00     0.076 C 
HETATM    3  C4  UNL     1     -33.136  16.266  -3.158  1.00 20.00     0.099 C 
HETATM    4  C5  UNL     1     -34.290  16.304  -2.165  1.00 20.00     0.096 C 
HETATM    5  S10 UNL     1     -33.519  14.866  -4.251  1.00 20.00    -0.167 SA
ENDROOT
BRANCH   4   6
HETATM    6  N8  UNL     1     -34.386  17.576  -1.501  1.00 20.00    -0.351 N 
HETATM    7  C1  UNL     1     -34.739  17.683  -0.145  1.00 20.00     0.215 C 
HETATM    8  C6  UNL     1     -34.175  18.849   0.627  1.00 20.00     0.117 C 
HETATM    9  O9  UNL     1     -35.475  16.879   0.432  1.00 20.00    -0.274 OA
HETATM   10  C7  UNL     1     -34.094  18.756  -2.324  1.00 20.00     0.153 C 
ENDBRANCH   4   6
TORSDOF 1
ENDMDL
