MODEL 1
REMARK VINA RESULT:      -4.6      0.000      0.000
REMARK  3 active torsions:
REMARK  status: ('A' for Active; 'I' for Inactive)
REMARK    1  A    between atoms: C1_1  and  C8_8 
REMARK       I    between atoms: C1_1  and  N10_10 
REMARK    2  A    between atoms: C4_4  and  C9_9 
REMARK    3  A    between atoms: C9_9  and  N10_10 
ROOT
HETATM    1  C1  UNL     1     -24.504  18.972   7.368  1.00 20.00     0.219 C 
HETATM    2  C7  UNL     1     -22.680  18.697   9.060  1.00 20.00     0.152 C 
HETATM    3  N10 UNL     1     -24.083  18.854   8.697  1.00 20.00    -0.356 N 
HETATM    4  O11 UNL     1     -23.731  18.954   6.406  1.00 20.00    -0.273 OA
ENDROOT
BRANCH   3   5
HETATM    5  C9  UNL     1     -25.016  18.878   9.820  1.00 20.00     0.130 C 
BRANCH   5   6
HETATM    6  C4  UNL     1     -24.485  18.102  10.977  1.00 20.00     0.008 A 
HETATM    7  C2  UNL     1     -25.137  18.219  12.330  1.00 20.00     0.011 A 
HETATM    8  C3  UNL     1     -25.272  16.945  11.538  1.00 20.00    -0.013 A 
HETATM    9  C5  UNL     1     -24.569  15.710  11.982  1.00 20.00     0.010 C 
ENDBRANCH   5   6
ENDBRANCH   3   5
BRANCH   1  10
HETATM   10  C8  UNL     1     -26.002  19.131   7.151  1.00 20.00     0.098 C 
HETATM   11  C6  UNL     1     -26.432  18.768   5.739  1.00 20.00     0.014 C 
ENDBRANCH   1  10
TORSDOF 3
ENDMDL
MODEL 2
REMARK VINA RESULT:      -4.3     15.426     17.555
REMARK  3 active torsions:
REMARK  status: ('A' for Active; 'I' for Inactive)
REMARK    1  A    between atoms: C1_1  and  C8_8 
REMARK       I    between atoms: C1_1  and  N10_10 
REMARK    2  A    between atoms: C4_4  and  C9_9 
REMARK    3  A    between atoms: C9_9  and  N10_10 
ROOT
HETATM    1  C1  UNL     1     -35.713  14.318  -5.971  1.00 20.00     0.219 C 
HETATM    2  C7  UNL     1     -33.663  15.391  -6.927  1.00 20.00     0.152 C 
HETATM    3  N10 UNL     1     -34.422  14.833  -5.814  1.00 20.00    -0.356 N 
HETATM    4  O11 UNL     1     -36.308  14.294  -7.051  1.00 20.00    -0.273 OA
ENDROOT
BRANCH   3   5
HETATM    5  C9  UNL     1     -33.737  14.851  -4.524  1.00 20.00     0.130 C 
BRANCH   5   6
HETATM    6  C4  UNL     1     -34.012  16.118  -3.787  1.00 20.00     0.008 A 
HETATM    7  C2  UNL     1     -34.522  16.073  -2.370  1.00 20.00     0.011 A 
HETATM    8  C3  UNL     1     -33.118  16.541  -2.650  1.00 20.00    -0.013 A 
HETATM    9  C5  UNL     1     -32.760  17.976  -2.477  1.00 20.00     0.010 C 
ENDBRANCH   5   6
ENDBRANCH   3   5
BRANCH   1  10
HETATM   10  C8  UNL     1     -36.375  13.773  -4.713  1.00 20.00     0.098 C 
HETATM   11  C6  UNL     1     -37.577  14.596  -4.280  1.00 20.00     0.014 C 
ENDBRANCH   1  10
TORSDOF 3
ENDMDL
MODEL 3
REMARK VINA RESULT:      -4.2     15.633     17.748
REMARK  3 active torsions:
REMARK  status: ('A' for Active; 'I' for Inactive)
REMARK    1  A    between atoms: C1_1  and  C8_8 
REMARK       I    between atoms: C1_1  and  N10_10 
REMARK    2  A    between atoms: C4_4  and  C9_9 
REMARK    3  A    between atoms: C9_9  and  N10_10 
ROOT
HETATM    1  C1  UNL     1     -35.322  14.728  -6.691  1.00 20.00     0.219 C 
HETATM    2  C7  UNL     1     -36.561  13.965  -4.654  1.00 20.00     0.152 C 
HETATM    3  N10 UNL     1     -35.367  14.476  -5.316  1.00 20.00    -0.356 N 
HETATM    4  O11 UNL     1     -36.278  14.541  -7.448  1.00 20.00    -0.273 OA
ENDROOT
BRANCH   3   5
HETATM    5  C9  UNL     1     -34.221  14.705  -4.439  1.00 20.00     0.130 C 
BRANCH   5   6
HETATM    6  C4  UNL     1     -34.354  15.999  -3.709  1.00 20.00     0.008 A 
HETATM    7  C2  UNL     1     -34.660  16.008  -2.234  1.00 20.00     0.011 A 
HETATM    8  C3  UNL     1     -33.296  16.422  -2.722  1.00 20.00    -0.013 A 
HETATM    9  C5  UNL     1     -32.876  17.848  -2.645  1.00 20.00     0.010 C 
ENDBRANCH   5   6
ENDBRANCH   3   5
BRANCH   1  10
HETATM   10  C8  UNL     1     -34.001  15.258  -7.232  1.00 20.00     0.098 C 
HETATM   11  C6  UNL     1     -34.110  16.682  -7.754  1.00 20.00     0.014 C 
ENDBRANCH   1  10
TORSDOF 3
ENDMDL
MODEL 4
REMARK VINA RESULT:      -4.1     15.210     17.555
REMARK  3 active torsions:
REMARK  status: ('A' for Active; 'I' for Inactive)
REMARK    1  A    between atoms: C1_1  and  C8_8 
REMARK       I    between atoms: C1_1  and  N10_10 
REMARK    2  A    between atoms: C4_4  and  C9_9 
REMARK    3  A    between atoms: C9_9  and  N10_10 
ROOT
HETATM    1  C1  UNL     1     -37.217  14.648  -4.491  1.00 20.00     0.219 C 
HETATM    2  C7  UNL     1     -38.194  16.746  -3.536  1.00 20.00     0.152 C 
HETATM    3  N10 UNL     1     -37.100  15.998  -4.143  1.00 20.00    -0.356 N 
HETATM    4  O11 UNL     1     -38.245  13.988  -4.315  1.00 20.00    -0.273 OA
ENDROOT
BRANCH   3   5
HETATM    5  C9  UNL     1     -35.872  16.759  -4.361  1.00 20.00     0.130 C 
BRANCH   5   6
HETATM    6  C4  UNL     1     -35.222  17.113  -3.066  1.00 20.00     0.008 A 
HETATM    7  C2  UNL     1     -35.024  16.060  -2.006  1.00 20.00     0.011 A 
HETATM    8  C3  UNL     1     -33.837  16.608  -2.753  1.00 20.00    -0.013 A 
HETATM    9  C5  UNL     1     -32.859  17.491  -2.060  1.00 20.00     0.010 C 
ENDBRANCH   5   6
ENDBRANCH   3   5
BRANCH   1  10
HETATM   10  C8  UNL     1     -35.986  14.007  -5.114  1.00 20.00     0.098 C 
HETATM   11  C6  UNL     1     -35.189  13.179  -4.118  1.00 20.00     0.014 C 
ENDBRANCH   1  10
TORSDOF 3
ENDMDL
MODEL 5
REMARK VINA RESULT:      -4.1     15.490     17.381
REMARK  3 active torsions:
REMARK  status: ('A' for Active; 'I' for Inactive)
REMARK    1  A    between atoms: C1_1  and  C8_8 
REMARK       I    between atoms: C1_1  and  N10_10 
REMARK    2  A    between atoms: C4_4  and  C9_9 
REMARK    3  A    between atoms: C9_9  and  N10_10 
ROOT
HETATM    1  C1  UNL     1     -37.332  14.804  -4.442  1.00 20.00     0.219 C 
HETATM    2  C7  UNL     1     -35.475  13.152  -4.144  1.00 20.00     0.152 C 
HETATM    3  N10 UNL     1     -35.974  14.516  -4.267  1.00 20.00    -0.356 N 
HETATM    4  O11 UNL     1     -38.208  13.937  -4.506  1.00 20.00    -0.273 OA
ENDROOT
BRANCH   3   5
HETATM    5  C9  UNL     1     -34.955  15.560  -4.195  1.00 20.00     0.130 C 
BRANCH   5   6
HETATM    6  C4  UNL     1     -34.488  15.759  -2.792  1.00 20.00     0.008 A 
HETATM    7  C2  UNL     1     -33.400  16.757  -2.491  1.00 20.00     0.011 A 
HETATM    8  C3  UNL     1     -34.816  17.034  -2.060  1.00 20.00    -0.013 A 
HETATM    9  C5  UNL     1     -35.180  16.993  -0.616  1.00 20.00     0.010 C 
ENDBRANCH   5   6
ENDBRANCH   3   5
BRANCH   1  10
HETATM   10  C8  UNL     1     -37.696  16.278  -4.557  1.00 20.00     0.098 C 
HETATM   11  C6  UNL     1     -38.380  16.812  -3.308  1.00 20.00     0.014 C 
ENDBRANCH   1  10
TORSDOF 3
ENDMDL
MODEL 6
REMARK VINA RESULT:      -4.0     11.492     14.538
REMARK  3 active torsions:
REMARK  status: ('A' for Active; 'I' for Inactive)
REMARK    1  A    between atoms: C1_1  and  C8_8 
REMARK       I    between atoms: C1_1  and  N10_10 
REMARK    2  A    between atoms: C4_4  and  C9_9 
REMARK    3  A    between atoms: C9_9  and  N10_10 
ROOT
HETATM    1  C1  UNL     1     -33.304  18.189   0.256  1.00 20.00     0.219 C 
HETATM    2  C7  UNL     1     -35.654  17.345   0.082  1.00 20.00     0.152 C 
HETATM    3  N10 UNL     1     -34.378  17.726  -0.511  1.00 20.00    -0.356 N 
HETATM    4  O11 UNL     1     -33.349  18.313   1.483  1.00 20.00    -0.273 OA
ENDROOT
BRANCH   3   5
HETATM    5  C9  UNL     1     -34.303  17.588  -1.963  1.00 20.00     0.130 C 
BRANCH   5   6
HETATM    6  C4  UNL     1     -34.074  16.168  -2.358  1.00 20.00     0.008 A 
HETATM    7  C2  UNL     1     -35.176  15.378  -3.013  1.00 20.00     0.011 A 
HETATM    8  C3  UNL     1     -33.971  15.795  -3.814  1.00 20.00    -0.013 A 
HETATM    9  C5  UNL     1     -32.977  14.778  -4.255  1.00 20.00     0.010 C 
ENDBRANCH   5   6
ENDBRANCH   3   5
BRANCH   1  10
HETATM   10  C8  UNL     1     -32.039  18.549  -0.510  1.00 20.00     0.098 C 
HETATM   11  C6  UNL     1     -30.778  18.352   0.315  1.00 20.00     0.014 C 
ENDBRANCH   1  10
TORSDOF 3
ENDMDL
MODEL 7
REMARK VINA RESULT:      -3.9     15.254     17.089
REMARK  3 active torsions:
REMARK  status: ('A' for Active; 'I' for Inactive)
REMARK    1  A    between atoms: C1_1  and  C8_8 
REMARK       I    between atoms: C1_1  and  N10_10 
REMARK    2  A    between atoms: C4_4  and  C9_9 
REMARK    3  A    between atoms: C9_9  and  N10_10 
ROOT
HETATM    1  C1  UNL     1     -35.557  14.640  -5.272  1.00 20.00     0.219 C 
HETATM    2  C7  UNL     1     -37.759  15.007  -4.139  1.00 20.00     0.152 C 
HETATM    3  N10 UNL     1     -36.377  15.380  -4.413  1.00 20.00    -0.356 N 
HETATM    4  O11 UNL     1     -35.932  13.622  -5.860  1.00 20.00    -0.273 OA
ENDROOT
BRANCH   3   5
HETATM    5  C9  UNL     1     -35.910  16.582  -3.728  1.00 20.00     0.130 C 
BRANCH   5   6
HETATM    6  C4  UNL     1     -35.382  16.257  -2.371  1.00 20.00     0.008 A 
HETATM    7  C2  UNL     1     -33.991  16.680  -1.979  1.00 20.00     0.011 A 
HETATM    8  C3  UNL     1     -35.186  17.350  -1.353  1.00 20.00    -0.013 A 
HETATM    9  C5  UNL     1     -35.516  17.106   0.078  1.00 20.00     0.010 C 
ENDBRANCH   5   6
ENDBRANCH   3   5
BRANCH   1  10
HETATM   10  C8  UNL     1     -34.137  15.157  -5.454  1.00 20.00     0.098 C 
HETATM   11  C6  UNL     1     -33.122  14.388  -4.624  1.00 20.00     0.014 C 
ENDBRANCH   1  10
TORSDOF 3
ENDMDL
MODEL 8
REMARK VINA RESULT:      -3.9     13.641     15.780
REMARK  3 active torsions:
REMARK  status: ('A' for Active; 'I' for Inactive)
REMARK    1  A    between atoms: C1_1  and  C8_8 
REMARK       I    between atoms: C1_1  and  N10_10 
REMARK    2  A    between atoms: C4_4  and  C9_9 
REMARK    3  A    between atoms: C9_9  and  N10_10 
ROOT
HETATM    1  C1  UNL     1     -34.103  14.572  -4.091  1.00 20.00     0.219 C 
HETATM    2  C7  UNL     1     -32.918  16.541  -3.097  1.00 20.00     0.152 C 
HETATM    3  N10 UNL     1     -34.039  15.610  -3.155  1.00 20.00    -0.356 N 
HETATM    4  O11 UNL     1     -33.228  14.363  -4.934  1.00 20.00    -0.273 OA
ENDROOT
BRANCH   3   5
HETATM    5  C9  UNL     1     -35.088  15.839  -2.165  1.00 20.00     0.130 C 
BRANCH   5   6
HETATM    6  C4  UNL     1     -34.788  17.038  -1.331  1.00 20.00     0.008 A 
HETATM    7  C2  UNL     1     -35.837  18.099  -1.126  1.00 20.00     0.011 A 
HETATM    8  C3  UNL     1     -35.440  17.204   0.018  1.00 20.00    -0.013 A 
HETATM    9  C5  UNL     1     -34.659  17.753   1.161  1.00 20.00     0.010 C 
ENDBRANCH   5   6
ENDBRANCH   3   5
BRANCH   1  10
HETATM   10  C8  UNL     1     -35.339  13.686  -4.025  1.00 20.00     0.098 C 
HETATM   11  C6  UNL     1     -36.328  13.975  -5.143  1.00 20.00     0.014 C 
ENDBRANCH   1  10
TORSDOF 3
ENDMDL
MODEL 9
REMARK VINA RESULT:      -3.9     15.059     17.880
REMARK  3 active torsions:
REMARK  status: ('A' for Active; 'I' for Inactive)
REMARK    1  A    between atoms: C1_1  and  C8_8 
REMARK       I    between atoms: C1_1  and  N10_10 
REMARK    2  A    between atoms: C4_4  and  C9_9 
REMARK    3  A    between atoms: C9_9  and  N10_10 
ROOT
HETATM    1  C1  UNL     1     -33.513  15.253  -4.187  1.00 20.00     0.219 C 
HETATM    2  C7  UNL     1     -34.034  15.015  -6.623  1.00 20.00     0.152 C 
HETATM    3  N10 UNL     1     -34.353  15.483  -5.280  1.00 20.00    -0.356 N 
HETATM    4  O11 UNL     1     -32.445  14.640  -4.268  1.00 20.00    -0.273 OA
ENDROOT
BRANCH   3   5
HETATM    5  C9  UNL     1     -35.614  16.211  -5.160  1.00 20.00     0.130 C 
BRANCH   5   6
HETATM    6  C4  UNL     1     -36.780  15.289  -5.276  1.00 20.00     0.008 A 
HETATM    7  C2  UNL     1     -36.806  14.000  -4.498  1.00 20.00     0.011 A 
HETATM    8  C3  UNL     1     -37.732  15.125  -4.120  1.00 20.00    -0.013 A 
HETATM    9  C5  UNL     1     -39.195  15.005  -4.369  1.00 20.00     0.010 C 
ENDBRANCH   5   6
ENDBRANCH   3   5
BRANCH   1  10
HETATM   10  C8  UNL     1     -33.986  15.803  -2.849  1.00 20.00     0.098 C 
HETATM   11  C6  UNL     1     -33.168  16.997  -2.383  1.00 20.00     0.014 C 
ENDBRANCH   1  10
TORSDOF 3
ENDMDL
