MODEL 1
REMARK VINA RESULT:      -4.9      0.000      0.000
REMARK  1 active torsions:
REMARK  status: ('A' for Active; 'I' for Inactive)
REMARK    1  A    between atoms: C9_9  and  C10_10 
ROOT
HETATM    1  C1  UNL     1     -37.064  14.042  -4.560  1.00 20.00     0.064 C 
HETATM    2  C2  UNL     1     -35.362  16.249  -5.991  1.00 20.00     0.002 C 
HETATM    3  C3  UNL     1     -35.364  14.739  -6.226  1.00 20.00     0.019 C 
HETATM    4  C4  UNL     1     -34.414  16.645  -4.864  1.00 20.00     0.005 C 
HETATM    5  C7  UNL     1     -34.725  14.369  -3.803  1.00 20.00     0.024 C 
HETATM    6  C8  UNL     1     -35.645  13.935  -4.951  1.00 20.00     0.093 C 
HETATM    7  C10 UNL     1     -34.726  15.890  -3.565  1.00 20.00    -0.009 C 
HETATM    8  N11 UNL     1     -38.180  14.127  -4.253  1.00 20.00    -0.197 NA
ENDROOT
BRANCH   7   9
HETATM    9  C9  UNL     1     -33.747  16.262  -2.481  1.00 20.00    -0.010 A 
HETATM   10  C5  UNL     1     -33.100  17.619  -2.477  1.00 20.00     0.005 A 
HETATM   11  C6  UNL     1     -34.126  17.273  -1.434  1.00 20.00     0.005 A 
ENDBRANCH   7   9
TORSDOF 1
ENDMDL
MODEL 2
REMARK VINA RESULT:      -4.5      2.343      3.483
REMARK  1 active torsions:
REMARK  status: ('A' for Active; 'I' for Inactive)
REMARK    1  A    between atoms: C9_9  and  C10_10 
ROOT
HETATM    1  C1  UNL     1     -33.452  15.041  -4.321  1.00 20.00     0.064 C 
HETATM    2  C2  UNL     1     -35.201  16.065  -1.932  1.00 20.00     0.002 C 
HETATM    3  C3  UNL     1     -35.445  16.220  -3.432  1.00 20.00     0.019 C 
HETATM    4  C4  UNL     1     -34.307  17.173  -1.386  1.00 20.00     0.005 C 
HETATM    5  C7  UNL     1     -33.226  17.422  -3.660  1.00 20.00     0.024 C 
HETATM    6  C8  UNL     1     -34.147  16.341  -4.240  1.00 20.00     0.093 C 
HETATM    7  C10 UNL     1     -32.978  17.261  -2.150  1.00 20.00    -0.009 C 
HETATM    8  N11 UNL     1     -32.906  14.020  -4.385  1.00 20.00    -0.197 NA
ENDROOT
BRANCH   7   9
HETATM    9  C9  UNL     1     -32.133  18.393  -1.624  1.00 20.00    -0.010 A 
HETATM   10  C5  UNL     1     -32.412  18.981  -0.268  1.00 20.00     0.005 A 
HETATM   11  C6  UNL     1     -31.174  18.158  -0.490  1.00 20.00     0.005 A 
ENDBRANCH   7   9
TORSDOF 1
ENDMDL
MODEL 3
REMARK VINA RESULT:      -4.5      2.386      4.709
REMARK  1 active torsions:
REMARK  status: ('A' for Active; 'I' for Inactive)
REMARK    1  A    between atoms: C9_9  and  C10_10 
ROOT
HETATM    1  C1  UNL     1     -32.960  18.358  -3.621  1.00 20.00     0.064 C 
HETATM    2  C2  UNL     1     -35.067  17.225  -1.597  1.00 20.00     0.002 C 
HETATM    3  C3  UNL     1     -33.559  17.398  -1.414  1.00 20.00     0.019 C 
HETATM    4  C4  UNL     1     -35.407  15.896  -2.264  1.00 20.00     0.005 C 
HETATM    5  C7  UNL     1     -33.152  15.894  -3.411  1.00 20.00     0.024 C 
HETATM    6  C8  UNL     1     -32.772  17.207  -2.716  1.00 20.00     0.093 C 
HETATM    7  C10 UNL     1     -34.670  15.723  -3.599  1.00 20.00    -0.009 C 
HETATM    8  N11 UNL     1     -33.107  19.263  -4.331  1.00 20.00    -0.197 NA
ENDROOT
BRANCH   7   9
HETATM    9  C9  UNL     1     -34.986  14.384  -4.214  1.00 20.00    -0.010 A 
HETATM   10  C5  UNL     1     -36.413  13.930  -4.353  1.00 20.00     0.005 A 
HETATM   11  C6  UNL     1     -35.622  14.307  -5.575  1.00 20.00     0.005 A 
ENDBRANCH   7   9
TORSDOF 1
ENDMDL
MODEL 4
REMARK VINA RESULT:      -4.5      1.679      2.146
REMARK  1 active torsions:
REMARK  status: ('A' for Active; 'I' for Inactive)
REMARK    1  A    between atoms: C9_9  and  C10_10 
ROOT
HETATM    1  C1  UNL     1     -36.458  15.872  -4.312  1.00 20.00     0.064 C 
HETATM    2  C2  UNL     1     -33.426  15.088  -4.423  1.00 20.00     0.002 C 
HETATM    3  C3  UNL     1     -34.619  14.241  -3.981  1.00 20.00     0.019 C 
HETATM    4  C4  UNL     1     -32.877  15.933  -3.279  1.00 20.00     0.005 C 
HETATM    5  C7  UNL     1     -35.164  15.955  -2.197  1.00 20.00     0.024 C 
HETATM    6  C8  UNL     1     -35.726  15.067  -3.315  1.00 20.00     0.093 C 
HETATM    7  C10 UNL     1     -33.965  16.810  -2.645  1.00 20.00    -0.009 C 
HETATM    8  N11 UNL     1     -37.033  16.505  -5.096  1.00 20.00    -0.197 NA
ENDROOT
BRANCH   7   9
HETATM    9  C9  UNL     1     -33.409  17.599  -1.488  1.00 20.00    -0.010 A 
HETATM   10  C5  UNL     1     -32.135  18.382  -1.646  1.00 20.00     0.005 A 
HETATM   11  C6  UNL     1     -33.448  19.103  -1.509  1.00 20.00     0.005 A 
ENDBRANCH   7   9
TORSDOF 1
ENDMDL
MODEL 5
REMARK VINA RESULT:      -4.2      1.610      2.302
REMARK  1 active torsions:
REMARK  status: ('A' for Active; 'I' for Inactive)
REMARK    1  A    between atoms: C9_9  and  C10_10 
ROOT
HETATM    1  C1  UNL     1     -35.612  15.231  -5.401  1.00 20.00     0.064 C 
HETATM    2  C2  UNL     1     -32.870  15.832  -4.009  1.00 20.00     0.002 C 
HETATM    3  C3  UNL     1     -33.474  14.481  -4.391  1.00 20.00     0.019 C 
HETATM    4  C4  UNL     1     -33.349  16.297  -2.638  1.00 20.00     0.005 C 
HETATM    5  C7  UNL     1     -35.487  14.977  -2.936  1.00 20.00     0.024 C 
HETATM    6  C8  UNL     1     -35.004  14.461  -4.298  1.00 20.00     0.093 C 
HETATM    7  C10 UNL     1     -34.881  16.340  -2.554  1.00 20.00    -0.009 C 
HETATM    8  N11 UNL     1     -36.089  15.835  -6.268  1.00 20.00    -0.197 NA
ENDROOT
BRANCH   7   9
HETATM    9  C9  UNL     1     -35.330  16.757  -1.177  1.00 20.00    -0.010 A 
HETATM   10  C5  UNL     1     -34.568  17.807  -0.416  1.00 20.00     0.005 A 
HETATM   11  C6  UNL     1     -35.937  18.115  -0.957  1.00 20.00     0.005 A 
ENDBRANCH   7   9
TORSDOF 1
ENDMDL
MODEL 6
REMARK VINA RESULT:      -4.1      2.501      4.650
REMARK  1 active torsions:
REMARK  status: ('A' for Active; 'I' for Inactive)
REMARK    1  A    between atoms: C9_9  and  C10_10 
ROOT
HETATM    1  C1  UNL     1     -35.380  17.607  -0.051  1.00 20.00     0.064 C 
HETATM    2  C2  UNL     1     -32.609  17.858  -1.492  1.00 20.00     0.002 C 
HETATM    3  C3  UNL     1     -33.703  18.912  -1.331  1.00 20.00     0.019 C 
HETATM    4  C4  UNL     1     -32.848  16.975  -2.712  1.00 20.00     0.005 C 
HETATM    5  C7  UNL     1     -35.338  17.386  -2.521  1.00 20.00     0.024 C 
HETATM    6  C8  UNL     1     -35.115  18.313  -1.320  1.00 20.00     0.093 C 
HETATM    7  C10 UNL     1     -34.237  16.322  -2.680  1.00 20.00    -0.009 C 
HETATM    8  N11 UNL     1     -35.588  17.053   0.947  1.00 20.00    -0.197 NA
ENDROOT
BRANCH   7   9
HETATM    9  C9  UNL     1     -34.467  15.494  -3.918  1.00 20.00    -0.010 A 
HETATM   10  C5  UNL     1     -33.406  14.547  -4.405  1.00 20.00     0.005 A 
HETATM   11  C6  UNL     1     -34.676  14.009  -3.807  1.00 20.00     0.005 A 
ENDBRANCH   7   9
TORSDOF 1
ENDMDL
MODEL 7
REMARK VINA RESULT:      -4.1      1.905      2.705
REMARK  1 active torsions:
REMARK  status: ('A' for Active; 'I' for Inactive)
REMARK    1  A    between atoms: C9_9  and  C10_10 
ROOT
HETATM    1  C1  UNL     1     -34.558  15.270  -6.763  1.00 20.00     0.064 C 
HETATM    2  C2  UNL     1     -34.830  14.002  -3.911  1.00 20.00     0.002 C 
HETATM    3  C3  UNL     1     -35.918  14.257  -4.953  1.00 20.00     0.019 C 
HETATM    4  C4  UNL     1     -34.586  15.228  -3.036  1.00 20.00     0.005 C 
HETATM    5  C7  UNL     1     -35.358  16.727  -4.922  1.00 20.00     0.024 C 
HETATM    6  C8  UNL     1     -35.653  15.506  -5.802  1.00 20.00     0.093 C 
HETATM    7  C10 UNL     1     -34.259  16.471  -3.875  1.00 20.00    -0.009 C 
HETATM    8  N11 UNL     1     -33.698  15.084  -7.518  1.00 20.00    -0.197 NA
ENDROOT
BRANCH   7   9
HETATM    9  C9  UNL     1     -34.070  17.677  -2.992  1.00 20.00    -0.010 A 
HETATM   10  C5  UNL     1     -33.411  17.537  -1.648  1.00 20.00     0.005 A 
HETATM   11  C6  UNL     1     -32.694  18.240  -2.766  1.00 20.00     0.005 A 
ENDBRANCH   7   9
TORSDOF 1
ENDMDL
MODEL 8
REMARK VINA RESULT:      -4.0      2.019      3.277
REMARK  1 active torsions:
REMARK  status: ('A' for Active; 'I' for Inactive)
REMARK    1  A    between atoms: C9_9  and  C10_10 
ROOT
HETATM    1  C1  UNL     1     -35.620  16.550  -4.270  1.00 20.00     0.064 C 
HETATM    2  C2  UNL     1     -32.900  17.438  -2.991  1.00 20.00     0.002 C 
HETATM    3  C3  UNL     1     -33.280  16.084  -3.590  1.00 20.00     0.019 C 
HETATM    4  C4  UNL     1     -33.302  17.540  -1.524  1.00 20.00     0.005 C 
HETATM    5  C7  UNL     1     -35.176  15.887  -1.921  1.00 20.00     0.024 C 
HETATM    6  C8  UNL     1     -34.760  15.735  -3.389  1.00 20.00     0.093 C 
HETATM    7  C10 UNL     1     -34.796  17.253  -1.320  1.00 20.00    -0.009 C 
HETATM    8  N11 UNL     1     -36.295  17.191  -4.962  1.00 20.00    -0.197 NA
ENDROOT
BRANCH   7   9
HETATM    9  C9  UNL     1     -35.158  17.313   0.141  1.00 20.00    -0.010 A 
HETATM   10  C5  UNL     1     -34.499  18.318   1.045  1.00 20.00     0.005 A 
HETATM   11  C6  UNL     1     -35.948  18.475   0.677  1.00 20.00     0.005 A 
ENDBRANCH   7   9
TORSDOF 1
ENDMDL
MODEL 9
REMARK VINA RESULT:      -4.0      2.074      2.448
REMARK  1 active torsions:
REMARK  status: ('A' for Active; 'I' for Inactive)
REMARK    1  A    between atoms: C9_9  and  C10_10 
ROOT
HETATM    1  C1  UNL     1     -35.382  13.690  -4.096  1.00 20.00     0.064 C 
HETATM    2  C2  UNL     1     -34.518  16.368  -5.475  1.00 20.00     0.002 C 
HETATM    3  C3  UNL     1     -33.646  15.324  -4.779  1.00 20.00     0.019 C 
HETATM    4  C4  UNL     1     -35.081  17.384  -4.487  1.00 20.00     0.005 C 
HETATM    5  C7  UNL     1     -34.966  15.656  -2.643  1.00 20.00     0.024 C 
HETATM    6  C8  UNL     1     -34.357  14.633  -3.609  1.00 20.00     0.093 C 
HETATM    7  C10 UNL     1     -35.848  16.705  -3.345  1.00 20.00    -0.009 C 
HETATM    8  N11 UNL     1     -36.188  12.949  -4.480  1.00 20.00    -0.197 NA
ENDROOT
BRANCH   7   9
HETATM    9  C9  UNL     1     -36.353  17.726  -2.358  1.00 20.00    -0.010 A 
HETATM   10  C5  UNL     1     -36.992  18.998  -2.843  1.00 20.00     0.005 A 
HETATM   11  C6  UNL     1     -37.831  17.940  -2.181  1.00 20.00     0.005 A 
ENDBRANCH   7   9
TORSDOF 1
ENDMDL
