MODEL 1
REMARK VINA RESULT:      -5.1      0.000      0.000
REMARK  1 active torsions:
REMARK  status: ('A' for Active; 'I' for Inactive)
REMARK    1  A    between atoms: C8_8  and  C9_9 
ROOT
HETATM    1  C1  UNL     1     -31.781  18.235  -1.178  1.00 20.00     0.085 C 
HETATM    2  C2  UNL     1     -35.480  17.209  -1.295  1.00 20.00     0.003 C 
HETATM    3  C3  UNL     1     -35.293  15.919  -2.088  1.00 20.00     0.005 C 
HETATM    4  C6  UNL     1     -34.156  17.724  -0.734  1.00 20.00     0.041 C 
HETATM    5  C7  UNL     1     -32.917  16.595  -2.635  1.00 20.00     0.046 C 
HETATM    6  C9  UNL     1     -34.252  16.077  -3.203  1.00 20.00    -0.008 C 
HETATM    7  C10 UNL     1     -33.066  17.883  -1.807  1.00 20.00     0.125 C 
HETATM    8  N11 UNL     1     -30.768  18.512  -0.683  1.00 20.00    -0.195 NA
HETATM    9 CL12 UNL     1     -33.473  19.261  -2.890  1.00 20.00    -0.103 Cl
ENDROOT
BRANCH   6  10
HETATM   10  C8  UNL     1     -34.049  14.774  -3.934  1.00 20.00    -0.010 A 
HETATM   11  C4  UNL     1     -33.886  14.761  -5.430  1.00 20.00     0.005 A 
HETATM   12  C5  UNL     1     -32.712  14.448  -4.543  1.00 20.00     0.005 A 
ENDBRANCH   6  10
TORSDOF 1
ENDMDL
MODEL 2
REMARK VINA RESULT:      -4.9      2.969      5.017
REMARK  1 active torsions:
REMARK  status: ('A' for Active; 'I' for Inactive)
REMARK    1  A    between atoms: C8_8  and  C9_9 
ROOT
HETATM    1  C1  UNL     1     -35.486  13.916  -4.201  1.00 20.00     0.085 C 
HETATM    2  C2  UNL     1     -32.902  16.681  -3.547  1.00 20.00     0.003 C 
HETATM    3  C3  UNL     1     -33.296  16.969  -2.102  1.00 20.00     0.005 C 
HETATM    4  C6  UNL     1     -33.489  15.359  -4.039  1.00 20.00     0.041 C 
HETATM    5  C7  UNL     1     -35.407  15.606  -2.401  1.00 20.00     0.046 C 
HETATM    6  C9  UNL     1     -34.817  16.940  -1.905  1.00 20.00    -0.008 C 
HETATM    7  C10 UNL     1     -35.012  15.265  -3.848  1.00 20.00     0.125 C 
HETATM    8  N11 UNL     1     -35.861  12.853  -4.479  1.00 20.00    -0.195 NA
HETATM    9 CL12 UNL     1     -35.839  16.388  -4.986  1.00 20.00    -0.103 Cl
ENDROOT
BRANCH   6  10
HETATM   10  C8  UNL     1     -35.174  17.175  -0.459  1.00 20.00    -0.010 A 
HETATM   11  C4  UNL     1     -35.254  18.576   0.084  1.00 20.00     0.005 A 
HETATM   12  C5  UNL     1     -36.509  17.766  -0.096  1.00 20.00     0.005 A 
ENDBRANCH   6  10
TORSDOF 1
ENDMDL
MODEL 3
REMARK VINA RESULT:      -4.9      3.356      5.216
REMARK  1 active torsions:
REMARK  status: ('A' for Active; 'I' for Inactive)
REMARK    1  A    between atoms: C8_8  and  C9_9 
ROOT
HETATM    1  C1  UNL     1     -37.336  14.597  -4.360  1.00 20.00     0.085 C 
HETATM    2  C2  UNL     1     -33.569  15.130  -4.882  1.00 20.00     0.003 C 
HETATM    3  C3  UNL     1     -33.250  15.613  -3.471  1.00 20.00     0.005 C 
HETATM    4  C6  UNL     1     -34.943  14.466  -4.954  1.00 20.00     0.041 C 
HETATM    5  C7  UNL     1     -35.721  15.876  -2.998  1.00 20.00     0.046 C 
HETATM    6  C9  UNL     1     -34.337  16.548  -2.925  1.00 20.00    -0.008 C 
HETATM    7  C10 UNL     1     -36.072  15.351  -4.400  1.00 20.00     0.125 C 
HETATM    8  N11 UNL     1     -38.334  14.004  -4.329  1.00 20.00    -0.195 NA
HETATM    9 CL12 UNL     1     -36.363  16.735  -5.514  1.00 20.00    -0.103 Cl
ENDROOT
BRANCH   6  10
HETATM   10  C8  UNL     1     -34.021  16.966  -1.511  1.00 20.00    -0.010 A 
HETATM   11  C4  UNL     1     -34.292  18.375  -1.060  1.00 20.00     0.005 A 
HETATM   12  C5  UNL     1     -35.135  17.244  -0.539  1.00 20.00     0.005 A 
ENDBRANCH   6  10
TORSDOF 1
ENDMDL
MODEL 4
REMARK VINA RESULT:      -4.5      3.915      5.306
REMARK  1 active torsions:
REMARK  status: ('A' for Active; 'I' for Inactive)
REMARK    1  A    between atoms: C8_8  and  C9_9 
ROOT
HETATM    1  C1  UNL     1     -37.259  14.373  -4.472  1.00 20.00     0.085 C 
HETATM    2  C2  UNL     1     -33.437  14.374  -4.095  1.00 20.00     0.003 C 
HETATM    3  C3  UNL     1     -33.287  15.840  -3.700  1.00 20.00     0.005 C 
HETATM    4  C6  UNL     1     -34.886  13.903  -3.978  1.00 20.00     0.041 C 
HETATM    5  C7  UNL     1     -35.684  16.274  -4.384  1.00 20.00     0.046 C 
HETATM    6  C9  UNL     1     -34.224  16.750  -4.505  1.00 20.00    -0.008 C 
HETATM    7  C10 UNL     1     -35.875  14.792  -4.750  1.00 20.00     0.125 C 
HETATM    8  N11 UNL     1     -38.351  14.043  -4.253  1.00 20.00    -0.195 NA
HETATM    9 CL12 UNL     1     -35.642  14.567  -6.521  1.00 20.00    -0.103 Cl
ENDROOT
BRANCH   6  10
HETATM   10  C8  UNL     1     -34.092  18.183  -4.056  1.00 20.00    -0.010 A 
HETATM   11  C4  UNL     1     -33.769  19.263  -5.052  1.00 20.00     0.005 A 
HETATM   12  C5  UNL     1     -35.140  19.194  -4.436  1.00 20.00     0.005 A 
ENDBRANCH   6  10
TORSDOF 1
ENDMDL
MODEL 5
REMARK VINA RESULT:      -4.5      3.704      4.592
REMARK  1 active torsions:
REMARK  status: ('A' for Active; 'I' for Inactive)
REMARK    1  A    between atoms: C8_8  and  C9_9 
ROOT
HETATM    1  C1  UNL     1     -35.343  13.859  -4.327  1.00 20.00     0.085 C 
HETATM    2  C2  UNL     1     -33.997  16.851  -2.331  1.00 20.00     0.003 C 
HETATM    3  C3  UNL     1     -34.384  17.935  -3.331  1.00 20.00     0.005 C 
HETATM    4  C6  UNL     1     -34.708  15.531  -2.625  1.00 20.00     0.041 C 
HETATM    5  C7  UNL     1     -34.857  16.163  -5.074  1.00 20.00     0.046 C 
HETATM    6  C9  UNL     1     -34.139  17.493  -4.780  1.00 20.00    -0.008 C 
HETATM    7  C10 UNL     1     -34.513  15.048  -4.072  1.00 20.00     0.125 C 
HETATM    8  N11 UNL     1     -35.997  12.921  -4.530  1.00 20.00    -0.195 NA
HETATM    9 CL12 UNL     1     -32.810  14.516  -4.312  1.00 20.00    -0.103 Cl
ENDROOT
BRANCH   6  10
HETATM   10  C8  UNL     1     -34.580  18.562  -5.747  1.00 20.00    -0.010 A 
HETATM   11  C4  UNL     1     -33.586  19.196  -6.681  1.00 20.00     0.005 A 
HETATM   12  C5  UNL     1     -34.641  18.270  -7.221  1.00 20.00     0.005 A 
ENDBRANCH   6  10
TORSDOF 1
ENDMDL
MODEL 6
REMARK VINA RESULT:      -4.3      3.610      5.428
REMARK  1 active torsions:
REMARK  status: ('A' for Active; 'I' for Inactive)
REMARK    1  A    between atoms: C8_8  and  C9_9 
ROOT
HETATM    1  C1  UNL     1     -37.545  16.233  -6.201  1.00 20.00     0.085 C 
HETATM    2  C2  UNL     1     -33.938  14.924  -6.366  1.00 20.00     0.003 C 
HETATM    3  C3  UNL     1     -33.699  14.842  -4.861  1.00 20.00     0.005 C 
HETATM    4  C6  UNL     1     -35.423  15.070  -6.694  1.00 20.00     0.041 C 
HETATM    5  C7  UNL     1     -35.805  16.182  -4.449  1.00 20.00     0.046 C 
HETATM    6  C9  UNL     1     -34.307  16.037  -4.118  1.00 20.00    -0.008 C 
HETATM    7  C10 UNL     1     -36.092  16.243  -5.959  1.00 20.00     0.125 C 
HETATM    8  N11 UNL     1     -38.690  16.226  -6.392  1.00 20.00    -0.195 NA
HETATM    9 CL12 UNL     1     -35.495  17.803  -6.630  1.00 20.00    -0.103 Cl
ENDROOT
BRANCH   6  10
HETATM   10  C8  UNL     1     -34.102  15.902  -2.630  1.00 20.00    -0.010 A 
HETATM   11  C4  UNL     1     -33.702  17.097  -1.808  1.00 20.00     0.005 A 
HETATM   12  C5  UNL     1     -35.084  16.519  -1.671  1.00 20.00     0.005 A 
ENDBRANCH   6  10
TORSDOF 1
ENDMDL
MODEL 7
REMARK VINA RESULT:      -4.2      3.715      5.126
REMARK  1 active torsions:
REMARK  status: ('A' for Active; 'I' for Inactive)
REMARK    1  A    between atoms: C8_8  and  C9_9 
ROOT
HETATM    1  C1  UNL     1     -38.675  16.495  -3.759  1.00 20.00     0.085 C 
HETATM    2  C2  UNL     1     -36.125  13.799  -4.748  1.00 20.00     0.003 C 
HETATM    3  C3  UNL     1     -35.049  14.176  -3.734  1.00 20.00     0.005 C 
HETATM    4  C6  UNL     1     -37.470  14.441  -4.409  1.00 20.00     0.041 C 
HETATM    5  C7  UNL     1     -36.264  16.341  -3.244  1.00 20.00     0.046 C 
HETATM    6  C9  UNL     1     -34.908  15.697  -3.587  1.00 20.00    -0.008 C 
HETATM    7  C10 UNL     1     -37.384  15.965  -4.229  1.00 20.00     0.125 C 
HETATM    8  N11 UNL     1     -39.692  16.913  -3.388  1.00 20.00    -0.195 NA
HETATM    9 CL12 UNL     1     -37.085  16.751  -5.821  1.00 20.00    -0.103 Cl
ENDROOT
BRANCH   6  10
HETATM   10  C8  UNL     1     -33.876  16.039  -2.541  1.00 20.00    -0.010 A 
HETATM   11  C4  UNL     1     -32.908  17.167  -2.772  1.00 20.00     0.005 A 
HETATM   12  C5  UNL     1     -33.998  17.310  -1.746  1.00 20.00     0.005 A 
ENDBRANCH   6  10
TORSDOF 1
ENDMDL
MODEL 8
REMARK VINA RESULT:      -4.2      2.881      4.484
REMARK  1 active torsions:
REMARK  status: ('A' for Active; 'I' for Inactive)
REMARK    1  A    between atoms: C8_8  and  C9_9 
ROOT
HETATM    1  C1  UNL     1     -34.385  16.425  -6.124  1.00 20.00     0.085 C 
HETATM    2  C2  UNL     1     -35.458  15.139  -2.668  1.00 20.00     0.003 C 
HETATM    3  C3  UNL     1     -34.964  16.335  -1.860  1.00 20.00     0.005 C 
HETATM    4  C6  UNL     1     -35.527  15.455  -4.161  1.00 20.00     0.041 C 
HETATM    5  C7  UNL     1     -33.687  17.175  -3.876  1.00 20.00     0.046 C 
HETATM    6  C9  UNL     1     -33.615  16.855  -2.371  1.00 20.00    -0.008 C 
HETATM    7  C10 UNL     1     -34.204  16.001  -4.725  1.00 20.00     0.125 C 
HETATM    8  N11 UNL     1     -34.526  16.759  -7.227  1.00 20.00    -0.195 NA
HETATM    9 CL12 UNL     1     -32.972  14.689  -4.767  1.00 20.00    -0.103 Cl
ENDROOT
BRANCH   6  10
HETATM   10  C8  UNL     1     -33.179  18.069  -1.589  1.00 20.00    -0.010 A 
HETATM   11  C4  UNL     1     -31.792  18.139  -1.010  1.00 20.00     0.005 A 
HETATM   12  C5  UNL     1     -32.168  19.019  -2.170  1.00 20.00     0.005 A 
ENDBRANCH   6  10
TORSDOF 1
ENDMDL
MODEL 9
REMARK VINA RESULT:      -4.2      3.662      5.271
REMARK  1 active torsions:
REMARK  status: ('A' for Active; 'I' for Inactive)
REMARK    1  A    between atoms: C8_8  and  C9_9 
ROOT
HETATM    1  C1  UNL     1     -36.352  15.727  -6.960  1.00 20.00     0.085 C 
HETATM    2  C2  UNL     1     -34.897  13.931  -3.893  1.00 20.00     0.003 C 
HETATM    3  C3  UNL     1     -34.654  15.175  -3.044  1.00 20.00     0.005 C 
HETATM    4  C6  UNL     1     -35.821  14.225  -5.074  1.00 20.00     0.041 C 
HETATM    5  C7  UNL     1     -35.052  16.640  -5.069  1.00 20.00     0.046 C 
HETATM    6  C9  UNL     1     -34.118  16.344  -3.880  1.00 20.00    -0.008 C 
HETATM    7  C10 UNL     1     -35.343  15.404  -5.937  1.00 20.00     0.125 C 
HETATM    8  N11 UNL     1     -37.147  15.982  -7.767  1.00 20.00    -0.195 NA
HETATM    9 CL12 UNL     1     -33.861  14.933  -6.844  1.00 20.00    -0.103 Cl
ENDROOT
BRANCH   6  10
HETATM   10  C8  UNL     1     -33.938  17.574  -3.026  1.00 20.00    -0.010 A 
HETATM   11  C4  UNL     1     -32.718  17.723  -2.158  1.00 20.00     0.005 A 
HETATM   12  C5  UNL     1     -32.885  18.590  -3.375  1.00 20.00     0.005 A 
ENDBRANCH   6  10
TORSDOF 1
ENDMDL
