MODEL 1
REMARK VINA RESULT:      -4.5      0.000      0.000
REMARK  1 active torsions:
REMARK  status: ('A' for Active; 'I' for Inactive)
REMARK    1  A    between atoms: C8_8  and  C9_9 
ROOT
HETATM    1  C1  UNL     1     -32.825  17.959  -1.153  1.00 20.00     0.004 C 
HETATM    2  C2  UNL     1     -32.985  17.259  -2.504  1.00 20.00     0.005 C 
HETATM    3  C5  UNL     1     -34.133  18.602  -0.695  1.00 20.00     0.040 C 
HETATM    4  C6  UNL     1     -35.434  16.849  -2.013  1.00 20.00     0.045 C 
HETATM    5  C7  UNL     1     -36.415  17.751   0.222  1.00 20.00     0.207 A 
HETATM    6  C9  UNL     1     -34.109  16.210  -2.465  1.00 20.00    -0.008 C 
HETATM    7  C10 UNL     1     -35.253  17.604  -0.730  1.00 20.00     0.083 A 
HETATM    8  O11 UNL     1     -35.365  16.798   0.452  1.00 20.00    -0.375 OA
ENDROOT
BRANCH   6   9
HETATM    9  C8  UNL     1     -34.266  15.541  -3.805  1.00 20.00    -0.010 A 
HETATM   10  C3  UNL     1     -33.359  14.406  -4.194  1.00 20.00     0.005 A 
HETATM   11  C4  UNL     1     -34.809  14.141  -3.892  1.00 20.00     0.005 A 
ENDBRANCH   6   9
TORSDOF 1
ENDMDL
MODEL 2
REMARK VINA RESULT:      -4.4      1.553      2.654
REMARK  1 active torsions:
REMARK  status: ('A' for Active; 'I' for Inactive)
REMARK    1  A    between atoms: C8_8  and  C9_9 
ROOT
HETATM    1  C1  UNL     1     -35.468  17.294  -1.094  1.00 20.00     0.004 C 
HETATM    2  C2  UNL     1     -35.272  15.993  -1.875  1.00 20.00     0.005 C 
HETATM    3  C5  UNL     1     -34.134  17.876  -0.629  1.00 20.00     0.040 C 
HETATM    4  C6  UNL     1     -32.980  16.772  -2.616  1.00 20.00     0.045 C 
HETATM    5  C7  UNL     1     -32.119  19.073  -1.760  1.00 20.00     0.207 A 
HETATM    6  C9  UNL     1     -34.329  16.193  -3.074  1.00 20.00    -0.008 C 
HETATM    7  C10 UNL     1     -33.181  18.001  -1.780  1.00 20.00     0.083 A 
HETATM    8  O11 UNL     1     -33.320  19.213  -2.535  1.00 20.00    -0.375 OA
ENDROOT
BRANCH   6   9
HETATM    9  C8  UNL     1     -34.133  14.902  -3.824  1.00 20.00    -0.010 A 
HETATM   10  C3  UNL     1     -33.969  14.912  -5.319  1.00 20.00     0.005 A 
HETATM   11  C4  UNL     1     -32.799  14.579  -4.437  1.00 20.00     0.005 A 
ENDBRANCH   6   9
TORSDOF 1
ENDMDL
MODEL 3
REMARK VINA RESULT:      -4.4      2.904      5.169
REMARK  1 active torsions:
REMARK  status: ('A' for Active; 'I' for Inactive)
REMARK    1  A    between atoms: C8_8  and  C9_9 
ROOT
HETATM    1  C1  UNL     1     -35.413  13.939  -3.989  1.00 20.00     0.004 C 
HETATM    2  C2  UNL     1     -35.203  15.162  -3.094  1.00 20.00     0.005 C 
HETATM    3  C5  UNL     1     -35.712  14.344  -5.431  1.00 20.00     0.040 C 
HETATM    4  C6  UNL     1     -34.382  16.491  -5.085  1.00 20.00     0.045 C 
HETATM    5  C7  UNL     1     -34.353  15.335  -7.417  1.00 20.00     0.207 A 
HETATM    6  C9  UNL     1     -34.086  16.071  -3.635  1.00 20.00    -0.008 C 
HETATM    7  C10 UNL     1     -34.669  15.293  -5.941  1.00 20.00     0.083 A 
HETATM    8  O11 UNL     1     -33.501  14.658  -6.479  1.00 20.00    -0.375 OA
ENDROOT
BRANCH   6   9
HETATM    9  C8  UNL     1     -33.902  17.278  -2.753  1.00 20.00    -0.010 A 
HETATM   10  C3  UNL     1     -32.645  17.438  -1.943  1.00 20.00     0.005 A 
HETATM   11  C4  UNL     1     -32.899  18.337  -3.122  1.00 20.00     0.005 A 
ENDBRANCH   6   9
TORSDOF 1
ENDMDL
MODEL 4
REMARK VINA RESULT:      -4.3     14.440     16.225
REMARK  1 active torsions:
REMARK  status: ('A' for Active; 'I' for Inactive)
REMARK    1  A    between atoms: C8_8  and  C9_9 
ROOT
HETATM    1  C1  UNL     1     -24.660  18.931   7.951  1.00 20.00     0.004 C 
HETATM    2  C2  UNL     1     -25.269  19.179   9.333  1.00 20.00     0.005 C 
HETATM    3  C5  UNL     1     -23.134  18.927   8.003  1.00 20.00     0.040 C 
HETATM    4  C6  UNL     1     -23.236  18.142  10.427  1.00 20.00     0.045 C 
HETATM    5  C7  UNL     1     -21.296  17.317   8.900  1.00 20.00     0.207 A 
HETATM    6  C9  UNL     1     -24.773  18.148  10.361  1.00 20.00    -0.008 C 
HETATM    7  C10 UNL     1     -22.642  17.981   9.058  1.00 20.00     0.083 A 
HETATM    8  O11 UNL     1     -22.520  16.619   8.623  1.00 20.00    -0.375 OA
ENDROOT
BRANCH   6   9
HETATM    9  C8  UNL     1     -25.367  18.415  11.719  1.00 20.00    -0.010 A 
HETATM   10  C3  UNL     1     -26.824  18.762  11.851  1.00 20.00     0.005 A 
HETATM   11  C4  UNL     1     -26.323  17.429  12.332  1.00 20.00     0.005 A 
ENDBRANCH   6   9
TORSDOF 1
ENDMDL
MODEL 5
REMARK VINA RESULT:      -4.2      2.932      4.868
REMARK  1 active torsions:
REMARK  status: ('A' for Active; 'I' for Inactive)
REMARK    1  A    between atoms: C8_8  and  C9_9 
ROOT
HETATM    1  C1  UNL     1     -34.045  14.920  -6.401  1.00 20.00     0.004 C 
HETATM    2  C2  UNL     1     -33.713  14.854  -4.909  1.00 20.00     0.005 C 
HETATM    3  C5  UNL     1     -35.550  14.826  -6.645  1.00 20.00     0.040 C 
HETATM    4  C6  UNL     1     -35.969  15.857  -4.351  1.00 20.00     0.045 C 
HETATM    5  C7  UNL     1     -37.603  16.389  -6.305  1.00 20.00     0.207 A 
HETATM    6  C9  UNL     1     -34.452  15.948  -4.118  1.00 20.00    -0.008 C 
HETATM    7  C10 UNL     1     -36.285  15.838  -5.817  1.00 20.00     0.083 A 
HETATM    8  O11 UNL     1     -36.382  17.137  -6.418  1.00 20.00    -0.375 OA
ENDROOT
BRANCH   6   9
HETATM    9  C8  UNL     1     -34.127  15.861  -2.650  1.00 20.00    -0.010 A 
HETATM   10  C3  UNL     1     -33.564  17.054  -1.928  1.00 20.00     0.005 A 
HETATM   11  C4  UNL     1     -34.969  16.598  -1.645  1.00 20.00     0.005 A 
ENDBRANCH   6   9
TORSDOF 1
ENDMDL
MODEL 6
REMARK VINA RESULT:      -4.2      2.032      4.193
REMARK  1 active torsions:
REMARK  status: ('A' for Active; 'I' for Inactive)
REMARK    1  A    between atoms: C8_8  and  C9_9 
ROOT
HETATM    1  C1  UNL     1     -33.710  14.747  -4.947  1.00 20.00     0.004 C 
HETATM    2  C2  UNL     1     -33.030  15.409  -3.747  1.00 20.00     0.005 C 
HETATM    3  C5  UNL     1     -35.051  14.125  -4.559  1.00 20.00     0.040 C 
HETATM    4  C6  UNL     1     -35.290  15.847  -2.694  1.00 20.00     0.045 C 
HETATM    5  C7  UNL     1     -37.417  15.014  -3.940  1.00 20.00     0.207 A 
HETATM    6  C9  UNL     1     -33.939  16.465  -3.095  1.00 20.00    -0.008 C 
HETATM    7  C10 UNL     1     -35.914  15.127  -3.852  1.00 20.00     0.083 A 
HETATM    8  O11 UNL     1     -36.683  15.967  -4.725  1.00 20.00    -0.375 OA
ENDROOT
BRANCH   6   9
HETATM    9  C8  UNL     1     -33.263  17.097  -1.907  1.00 20.00    -0.010 A 
HETATM   10  C3  UNL     1     -32.862  18.545  -1.947  1.00 20.00     0.005 A 
HETATM   11  C4  UNL     1     -33.998  18.104  -1.066  1.00 20.00     0.005 A 
ENDBRANCH   6   9
TORSDOF 1
ENDMDL
MODEL 7
REMARK VINA RESULT:      -4.2      1.957      4.219
REMARK  1 active torsions:
REMARK  status: ('A' for Active; 'I' for Inactive)
REMARK    1  A    between atoms: C8_8  and  C9_9 
ROOT
HETATM    1  C1  UNL     1     -33.071  15.564  -4.189  1.00 20.00     0.004 C 
HETATM    2  C2  UNL     1     -33.036  16.259  -2.826  1.00 20.00     0.005 C 
HETATM    3  C5  UNL     1     -34.096  14.432  -4.215  1.00 20.00     0.040 C 
HETATM    4  C6  UNL     1     -35.463  15.654  -2.443  1.00 20.00     0.045 C 
HETATM    5  C7  UNL     1     -36.692  14.260  -4.265  1.00 20.00     0.207 A 
HETATM    6  C9  UNL     1     -34.424  16.788  -2.427  1.00 20.00    -0.008 C 
HETATM    7  C10 UNL     1     -35.436  14.921  -3.752  1.00 20.00     0.083 A 
HETATM    8  O11 UNL     1     -36.236  15.520  -4.781  1.00 20.00    -0.375 OA
ENDROOT
BRANCH   6   9
HETATM    9  C8  UNL     1     -34.378  17.455  -1.078  1.00 20.00    -0.010 A 
HETATM   10  C3  UNL     1     -35.189  18.694  -0.819  1.00 20.00     0.005 A 
HETATM   11  C4  UNL     1     -35.570  17.396  -0.164  1.00 20.00     0.005 A 
ENDBRANCH   6   9
TORSDOF 1
ENDMDL
MODEL 8
REMARK VINA RESULT:      -4.0     10.875     11.993
REMARK  1 active torsions:
REMARK  status: ('A' for Active; 'I' for Inactive)
REMARK    1  A    between atoms: C8_8  and  C9_9 
ROOT
HETATM    1  C1  UNL     1     -33.774   4.069   2.543  1.00 20.00     0.004 C 
HETATM    2  C2  UNL     1     -32.871   5.174   1.991  1.00 20.00     0.005 C 
HETATM    3  C5  UNL     1     -33.859   4.124   4.067  1.00 20.00     0.040 C 
HETATM    4  C6  UNL     1     -33.420   6.635   3.984  1.00 20.00     0.045 C 
HETATM    5  C7  UNL     1     -34.990   5.676   5.824  1.00 20.00     0.207 A 
HETATM    6  C9  UNL     1     -33.338   6.566   2.449  1.00 20.00    -0.008 C 
HETATM    7  C10 UNL     1     -34.238   5.501   4.527  1.00 20.00     0.083 A 
HETATM    8  O11 UNL     1     -35.651   5.749   4.551  1.00 20.00    -0.375 OA
ENDROOT
BRANCH   6   9
HETATM    9  C8  UNL     1     -32.432   7.642   1.911  1.00 20.00    -0.010 A 
HETATM   10  C3  UNL     1     -32.477   8.010   0.454  1.00 20.00     0.005 A 
HETATM   11  C4  UNL     1     -33.000   8.968   1.489  1.00 20.00     0.005 A 
ENDBRANCH   6   9
TORSDOF 1
ENDMDL
MODEL 9
REMARK VINA RESULT:      -3.9      2.165      3.311
REMARK  1 active torsions:
REMARK  status: ('A' for Active; 'I' for Inactive)
REMARK    1  A    between atoms: C8_8  and  C9_9 
ROOT
HETATM    1  C1  UNL     1     -35.069  16.041  -1.978  1.00 20.00     0.004 C 
HETATM    2  C2  UNL     1     -34.996  15.037  -3.129  1.00 20.00     0.005 C 
HETATM    3  C5  UNL     1     -33.806  16.898  -1.901  1.00 20.00     0.040 C 
HETATM    4  C6  UNL     1     -33.471  16.599  -4.411  1.00 20.00     0.045 C 
HETATM    5  C7  UNL     1     -32.777  18.843  -3.291  1.00 20.00     0.207 A 
HETATM    6  C9  UNL     1     -34.745  15.738  -4.475  1.00 20.00    -0.008 C 
HETATM    7  C10 UNL     1     -33.510  17.525  -3.232  1.00 20.00     0.083 A 
HETATM    8  O11 UNL     1     -34.200  18.759  -3.472  1.00 20.00    -0.375 OA
ENDROOT
BRANCH   6   9
HETATM    9  C8  UNL     1     -34.661  14.736  -5.596  1.00 20.00    -0.010 A 
HETATM   10  C3  UNL     1     -35.466  14.935  -6.851  1.00 20.00     0.005 A 
HETATM   11  C4  UNL     1     -33.972  15.098  -6.883  1.00 20.00     0.005 A 
ENDBRANCH   6   9
TORSDOF 1
ENDMDL
