MODEL 1
REMARK VINA RESULT:      -5.3      0.000      0.000
REMARK  1 active torsions:
REMARK  status: ('A' for Active; 'I' for Inactive)
REMARK    1  A    between atoms: C10_10  and  C11_11 
ROOT
HETATM    1  C1  UNL     1     -21.516  17.392   7.884  1.00 20.00     0.088 C 
HETATM    2  C2  UNL     1     -22.461  17.677  10.081  1.00 20.00    -0.070 C 
HETATM    3  C3  UNL     1     -21.415  17.376   9.298  1.00 20.00     0.096 C 
HETATM    4  C4  UNL     1     -22.364  17.662  11.580  1.00 20.00     0.035 C 
HETATM    5  C5  UNL     1     -23.819  18.001   9.506  1.00 20.00     0.039 C 
HETATM    6  C6  UNL     1     -23.383  16.706  12.209  1.00 20.00     0.005 C 
HETATM    7  C7  UNL     1     -24.602  16.411  11.327  1.00 20.00     0.005 C 
HETATM    8  C10 UNL     1     -24.995  17.581  10.415  1.00 20.00    -0.007 C 
HETATM    9  N12 UNL     1     -21.591  17.405   6.726  1.00 20.00    -0.192 NA
ENDROOT
BRANCH   8  10
HETATM   10  C11 UNL     1     -25.543  18.763  11.221  1.00 20.00    -0.010 A 
HETATM   11  C8  UNL     1     -26.927  19.261  10.955  1.00 20.00     0.005 A 
HETATM   12  C9  UNL     1     -26.619  18.532  12.234  1.00 20.00     0.005 A 
ENDBRANCH   8  10
TORSDOF 1
ENDMDL
MODEL 2
REMARK VINA RESULT:      -5.0     16.418     17.627
REMARK  1 active torsions:
REMARK  status: ('A' for Active; 'I' for Inactive)
REMARK    1  A    between atoms: C10_10  and  C11_11 
ROOT
HETATM    1  C1  UNL     1     -35.932  13.881  -4.707  1.00 20.00     0.088 C 
HETATM    2  C2  UNL     1     -35.372  16.140  -4.086  1.00 20.00    -0.070 C 
HETATM    3  C3  UNL     1     -35.725  15.246  -5.022  1.00 20.00     0.096 C 
HETATM    4  C4  UNL     1     -35.151  17.589  -4.411  1.00 20.00     0.035 C 
HETATM    5  C5  UNL     1     -35.126  15.734  -2.653  1.00 20.00     0.039 C 
HETATM    6  C6  UNL     1     -33.742  18.052  -4.026  1.00 20.00     0.005 C 
HETATM    7  C7  UNL     1     -33.073  17.203  -2.940  1.00 20.00     0.005 C 
HETATM    8  C10 UNL     1     -34.065  16.599  -1.937  1.00 20.00    -0.007 C 
HETATM    9  N12 UNL     1     -36.104  12.760  -4.455  1.00 20.00    -0.192 NA
ENDROOT
BRANCH   8  10
HETATM   10  C11 UNL     1     -34.705  17.678  -1.059  1.00 20.00    -0.010 A 
HETATM   11  C8  UNL     1     -35.299  17.301   0.261  1.00 20.00     0.005 A 
HETATM   12  C9  UNL     1     -34.027  18.102   0.204  1.00 20.00     0.005 A 
ENDBRANCH   8  10
TORSDOF 1
ENDMDL
MODEL 3
REMARK VINA RESULT:      -4.8     15.530     16.778
REMARK  1 active torsions:
REMARK  status: ('A' for Active; 'I' for Inactive)
REMARK    1  A    between atoms: C10_10  and  C11_11 
ROOT
HETATM    1  C1  UNL     1     -31.483  18.592  -1.081  1.00 20.00     0.088 C 
HETATM    2  C2  UNL     1     -33.366  18.218  -2.536  1.00 20.00    -0.070 C 
HETATM    3  C3  UNL     1     -32.513  19.060  -1.935  1.00 20.00     0.096 C 
HETATM    4  C4  UNL     1     -34.460  18.705  -3.442  1.00 20.00     0.035 C 
HETATM    5  C5  UNL     1     -33.312  16.728  -2.299  1.00 20.00     0.039 C 
HETATM    6  C6  UNL     1     -35.844  18.254  -2.961  1.00 20.00     0.005 C 
HETATM    7  C7  UNL     1     -35.827  17.010  -2.066  1.00 20.00     0.005 C 
HETATM    8  C10 UNL     1     -34.689  16.034  -2.394  1.00 20.00    -0.007 C 
HETATM    9  N12 UNL     1     -30.638  18.215  -0.381  1.00 20.00    -0.192 NA
ENDROOT
BRANCH   8  10
HETATM   10  C11 UNL     1     -34.898  15.365  -3.756  1.00 20.00    -0.010 A 
HETATM   11  C8  UNL     1     -33.717  14.855  -4.518  1.00 20.00     0.005 A 
HETATM   12  C9  UNL     1     -34.688  13.891  -3.896  1.00 20.00     0.005 A 
ENDBRANCH   8  10
TORSDOF 1
ENDMDL
MODEL 4
REMARK VINA RESULT:      -4.6     16.696     17.822
REMARK  1 active torsions:
REMARK  status: ('A' for Active; 'I' for Inactive)
REMARK    1  A    between atoms: C10_10  and  C11_11 
ROOT
HETATM    1  C1  UNL     1     -35.086  13.599  -4.200  1.00 20.00     0.088 C 
HETATM    2  C2  UNL     1     -34.397  15.774  -3.426  1.00 20.00    -0.070 C 
HETATM    3  C3  UNL     1     -34.086  14.545  -3.865  1.00 20.00     0.096 C 
HETATM    4  C4  UNL     1     -33.344  16.782  -3.069  1.00 20.00     0.035 C 
HETATM    5  C5  UNL     1     -35.829  16.204  -3.216  1.00 20.00     0.039 C 
HETATM    6  C6  UNL     1     -33.483  17.265  -1.621  1.00 20.00     0.005 C 
HETATM    7  C7  UNL     1     -34.889  17.102  -1.033  1.00 20.00     0.005 C 
HETATM    8  C10 UNL     1     -36.008  17.229  -2.075  1.00 20.00    -0.007 C 
HETATM    9  N12 UNL     1     -35.901  12.820  -4.477  1.00 20.00    -0.192 NA
ENDROOT
BRANCH   8  10
HETATM   10  C11 UNL     1     -36.119  18.661  -2.607  1.00 20.00    -0.010 A 
HETATM   11  C8  UNL     1     -36.307  18.893  -4.072  1.00 20.00     0.005 A 
HETATM   12  C9  UNL     1     -37.434  19.161  -3.114  1.00 20.00     0.005 A 
ENDBRANCH   8  10
TORSDOF 1
ENDMDL
MODEL 5
REMARK VINA RESULT:      -4.6     16.651     17.792
REMARK  1 active torsions:
REMARK  status: ('A' for Active; 'I' for Inactive)
REMARK    1  A    between atoms: C10_10  and  C11_11 
ROOT
HETATM    1  C1  UNL     1     -32.436  18.041  -1.292  1.00 20.00     0.088 C 
HETATM    2  C2  UNL     1     -34.194  16.994  -2.564  1.00 20.00    -0.070 C 
HETATM    3  C3  UNL     1     -33.769  17.580  -1.435  1.00 20.00     0.096 C 
HETATM    4  C4  UNL     1     -35.604  16.503  -2.724  1.00 20.00     0.035 C 
HETATM    5  C5  UNL     1     -33.267  16.744  -3.729  1.00 20.00     0.039 C 
HETATM    6  C6  UNL     1     -35.655  15.007  -3.054  1.00 20.00     0.005 C 
HETATM    7  C7  UNL     1     -34.374  14.457  -3.689  1.00 20.00     0.005 C 
HETATM    8  C10 UNL     1     -33.626  15.485  -4.548  1.00 20.00    -0.007 C 
HETATM    9  N12 UNL     1     -31.346  18.420  -1.170  1.00 20.00    -0.192 NA
ENDROOT
BRANCH   8  10
HETATM   10  C11 UNL     1     -34.410  15.835  -5.817  1.00 20.00    -0.010 A 
HETATM   11  C8  UNL     1     -33.977  15.271  -7.133  1.00 20.00     0.005 A 
HETATM   12  C9  UNL     1     -35.244  14.787  -6.483  1.00 20.00     0.005 A 
ENDBRANCH   8  10
TORSDOF 1
ENDMDL
MODEL 6
REMARK VINA RESULT:      -4.5     15.625     16.991
REMARK  1 active torsions:
REMARK  status: ('A' for Active; 'I' for Inactive)
REMARK    1  A    between atoms: C10_10  and  C11_11 
ROOT
HETATM    1  C1  UNL     1     -35.355  17.961   0.900  1.00 20.00     0.088 C 
HETATM    2  C2  UNL     1     -33.985  17.438  -1.011  1.00 20.00    -0.070 C 
HETATM    3  C3  UNL     1     -34.197  18.150   0.105  1.00 20.00     0.096 C 
HETATM    4  C4  UNL     1     -32.761  17.632  -1.859  1.00 20.00     0.035 C 
HETATM    5  C5  UNL     1     -34.989  16.428  -1.513  1.00 20.00     0.039 C 
HETATM    6  C6  UNL     1     -33.119  18.002  -3.302  1.00 20.00     0.005 C 
HETATM    7  C7  UNL     1     -34.523  17.568  -3.736  1.00 20.00     0.005 C 
HETATM    8  C10 UNL     1     -35.006  16.283  -3.051  1.00 20.00    -0.007 C 
HETATM    9  N12 UNL     1     -36.301  17.810   1.556  1.00 20.00    -0.192 NA
ENDROOT
BRANCH   8  10
HETATM   10  C11 UNL     1     -34.207  15.063  -3.517  1.00 20.00    -0.010 A 
HETATM   11  C8  UNL     1     -34.920  13.909  -4.147  1.00 20.00     0.005 A 
HETATM   12  C9  UNL     1     -34.043  14.801  -4.981  1.00 20.00     0.005 A 
ENDBRANCH   8  10
TORSDOF 1
ENDMDL
MODEL 7
REMARK VINA RESULT:      -4.5      2.233      2.895
REMARK  1 active torsions:
REMARK  status: ('A' for Active; 'I' for Inactive)
REMARK    1  A    between atoms: C10_10  and  C11_11 
ROOT
HETATM    1  C1  UNL     1     -25.412  18.905   6.237  1.00 20.00     0.088 C 
HETATM    2  C2  UNL     1     -24.105  18.920   8.259  1.00 20.00    -0.070 C 
HETATM    3  C3  UNL     1     -24.240  19.232   6.962  1.00 20.00     0.096 C 
HETATM    4  C4  UNL     1     -22.866  19.262   9.036  1.00 20.00     0.035 C 
HETATM    5  C5  UNL     1     -25.172  18.159   9.010  1.00 20.00     0.039 C 
HETATM    6  C6  UNL     1     -22.214  18.018   9.649  1.00 20.00     0.005 C 
HETATM    7  C7  UNL     1     -23.169  16.836   9.846  1.00 20.00     0.005 C 
HETATM    8  C10 UNL     1     -24.616  17.259  10.136  1.00 20.00    -0.007 C 
HETATM    9  N12 UNL     1     -26.370  18.641   5.637  1.00 20.00    -0.192 NA
ENDROOT
BRANCH   8  10
HETATM   10  C11 UNL     1     -24.743  17.922  11.510  1.00 20.00    -0.010 A 
HETATM   11  C8  UNL     1     -25.715  19.041  11.705  1.00 20.00     0.005 A 
HETATM   12  C9  UNL     1     -25.975  17.698  12.328  1.00 20.00     0.005 A 
ENDBRANCH   8  10
TORSDOF 1
ENDMDL
MODEL 8
REMARK VINA RESULT:      -4.5      2.564      4.760
REMARK  1 active torsions:
REMARK  status: ('A' for Active; 'I' for Inactive)
REMARK    1  A    between atoms: C10_10  and  C11_11 
ROOT
HETATM    1  C1  UNL     1     -27.451  18.415  11.863  1.00 20.00     0.088 C 
HETATM    2  C2  UNL     1     -25.420  17.161  11.538  1.00 20.00    -0.070 C 
HETATM    3  C3  UNL     1     -26.555  17.376  12.219  1.00 20.00     0.096 C 
HETATM    4  C4  UNL     1     -24.465  16.063  11.908  1.00 20.00     0.035 C 
HETATM    5  C5  UNL     1     -25.005  18.043  10.384  1.00 20.00     0.039 C 
HETATM    6  C6  UNL     1     -23.062  16.603  12.209  1.00 20.00     0.005 C 
HETATM    7  C7  UNL     1     -22.756  17.959  11.564  1.00 20.00     0.005 C 
HETATM    8  C10 UNL     1     -23.475  18.178  10.226  1.00 20.00    -0.007 C 
HETATM    9  N12 UNL     1     -28.190  19.263  11.576  1.00 20.00    -0.192 NA
ENDROOT
BRANCH   8  10
HETATM   10  C11 UNL     1     -22.931  17.249   9.137  1.00 20.00    -0.010 A 
HETATM   11  C8  UNL     1     -22.417  17.830   7.858  1.00 20.00     0.005 A 
HETATM   12  C9  UNL     1     -21.463  17.225   8.851  1.00 20.00     0.005 A 
ENDBRANCH   8  10
TORSDOF 1
ENDMDL
MODEL 9
REMARK VINA RESULT:      -4.3     17.968     19.041
REMARK  1 active torsions:
REMARK  status: ('A' for Active; 'I' for Inactive)
REMARK    1  A    between atoms: C10_10  and  C11_11 
ROOT
HETATM    1  C1  UNL     1     -37.274  13.934  -4.475  1.00 20.00     0.088 C 
HETATM    2  C2  UNL     1     -35.068  14.879  -4.677  1.00 20.00    -0.070 C 
HETATM    3  C3  UNL     1     -35.874  13.807  -4.649  1.00 20.00     0.096 C 
HETATM    4  C4  UNL     1     -33.583  14.754  -4.860  1.00 20.00     0.035 C 
HETATM    5  C5  UNL     1     -35.598  16.279  -4.476  1.00 20.00     0.039 C 
HETATM    6  C6  UNL     1     -32.808  15.389  -3.700  1.00 20.00     0.005 C 
HETATM    7  C7  UNL     1     -33.590  16.459  -2.930  1.00 20.00     0.005 C 
HETATM    8  C10 UNL     1     -34.590  17.233  -3.799  1.00 20.00    -0.007 C 
HETATM    9  N12 UNL     1     -38.422  14.031  -4.334  1.00 20.00    -0.192 NA
ENDROOT
BRANCH   8  10
HETATM   10  C11 UNL     1     -33.876  18.124  -4.820  1.00 20.00    -0.010 A 
HETATM   11  C8  UNL     1     -34.252  18.043  -6.264  1.00 20.00     0.005 A 
HETATM   12  C9  UNL     1     -34.614  19.258  -5.456  1.00 20.00     0.005 A 
ENDBRANCH   8  10
TORSDOF 1
ENDMDL
