MODEL 1
REMARK VINA RESULT:      -4.7      0.000      0.000
REMARK  1 active torsions:
REMARK  status: ('A' for Active; 'I' for Inactive)
REMARK    1  A    between atoms: C8_8  and  C9_9 
ROOT
HETATM    1  C1  UNL     1     -34.836  15.005  -6.217  1.00 20.00     0.004 C 
HETATM    2  C2  UNL     1     -33.901  15.282  -5.038  1.00 20.00     0.005 C 
HETATM    3  C5  UNL     1     -35.977  14.071  -5.820  1.00 20.00     0.040 C 
HETATM    4  C6  UNL     1     -35.811  14.898  -3.422  1.00 20.00     0.045 C 
HETATM    5  C7  UNL     1     -38.030  15.272  -4.746  1.00 20.00     0.207 A 
HETATM    6  C9  UNL     1     -34.665  15.841  -3.822  1.00 20.00    -0.008 C 
HETATM    7  C10 UNL     1     -36.680  14.608  -4.609  1.00 20.00     0.083 A 
HETATM    8  O11 UNL     1     -37.896  13.918  -4.288  1.00 20.00    -0.375 OA
ENDROOT
BRANCH   6   9
HETATM    9  C8  UNL     1     -33.734  16.079  -2.664  1.00 20.00    -0.010 A 
HETATM   10  C3  UNL     1     -33.040  17.404  -2.508  1.00 20.00     0.005 A 
HETATM   11  C4  UNL     1     -34.131  17.009  -1.551  1.00 20.00     0.005 A 
ENDBRANCH   6   9
TORSDOF 1
ENDMDL
MODEL 2
REMARK VINA RESULT:      -4.7      2.899      5.197
REMARK  1 active torsions:
REMARK  status: ('A' for Active; 'I' for Inactive)
REMARK    1  A    between atoms: C8_8  and  C9_9 
ROOT
HETATM    1  C1  UNL     1     -35.113  17.644  -0.889  1.00 20.00     0.004 C 
HETATM    2  C2  UNL     1     -35.169  16.263  -1.546  1.00 20.00     0.005 C 
HETATM    3  C5  UNL     1     -33.673  18.097  -0.660  1.00 20.00     0.040 C 
HETATM    4  C6  UNL     1     -32.919  16.677  -2.629  1.00 20.00     0.045 C 
HETATM    5  C7  UNL     1     -32.568  19.263  -2.717  1.00 20.00     0.207 A 
HETATM    6  C9  UNL     1     -34.369  16.224  -2.862  1.00 20.00    -0.008 C 
HETATM    7  C10 UNL     1     -32.899  18.010  -1.941  1.00 20.00     0.083 A 
HETATM    8  O11 UNL     1     -31.599  18.615  -1.879  1.00 20.00    -0.375 OA
ENDROOT
BRANCH   6   9
HETATM    9  C8  UNL     1     -34.411  14.850  -3.477  1.00 20.00    -0.010 A 
HETATM   10  C3  UNL     1     -34.870  14.669  -4.898  1.00 20.00     0.005 A 
HETATM   11  C4  UNL     1     -33.422  14.466  -4.542  1.00 20.00     0.005 A 
ENDBRANCH   6   9
TORSDOF 1
ENDMDL
MODEL 3
REMARK VINA RESULT:      -4.4      1.244      1.464
REMARK  1 active torsions:
REMARK  status: ('A' for Active; 'I' for Inactive)
REMARK    1  A    between atoms: C8_8  and  C9_9 
ROOT
HETATM    1  C1  UNL     1     -34.681  16.301  -5.790  1.00 20.00     0.004 C 
HETATM    2  C2  UNL     1     -34.052  16.814  -4.492  1.00 20.00     0.005 C 
HETATM    3  C5  UNL     1     -34.816  14.780  -5.783  1.00 20.00     0.040 C 
HETATM    4  C6  UNL     1     -34.968  14.811  -3.246  1.00 20.00     0.045 C 
HETATM    5  C7  UNL     1     -36.984  13.895  -4.630  1.00 20.00     0.207 A 
HETATM    6  C9  UNL     1     -34.836  16.342  -3.252  1.00 20.00    -0.008 C 
HETATM    7  C10 UNL     1     -35.541  14.336  -4.548  1.00 20.00     0.083 A 
HETATM    8  O11 UNL     1     -35.907  12.949  -4.554  1.00 20.00    -0.375 OA
ENDROOT
BRANCH   6   9
HETATM    9  C8  UNL     1     -34.185  16.832  -1.986  1.00 20.00    -0.010 A 
HETATM   10  C3  UNL     1     -34.481  18.212  -1.466  1.00 20.00     0.005 A 
HETATM   11  C4  UNL     1     -34.999  17.004  -0.734  1.00 20.00     0.005 A 
ENDBRANCH   6   9
TORSDOF 1
ENDMDL
MODEL 4
REMARK VINA RESULT:      -4.4      2.319      4.619
REMARK  1 active torsions:
REMARK  status: ('A' for Active; 'I' for Inactive)
REMARK    1  A    between atoms: C8_8  and  C9_9 
ROOT
HETATM    1  C1  UNL     1     -32.670  17.717  -1.595  1.00 20.00     0.004 C 
HETATM    2  C2  UNL     1     -33.056  16.933  -2.852  1.00 20.00     0.005 C 
HETATM    3  C5  UNL     1     -33.854  18.508  -1.044  1.00 20.00     0.040 C 
HETATM    4  C6  UNL     1     -35.452  16.805  -2.049  1.00 20.00     0.045 C 
HETATM    5  C7  UNL     1     -35.418  17.145   0.540  1.00 20.00     0.207 A 
HETATM    6  C9  UNL     1     -34.261  16.006  -2.601  1.00 20.00    -0.008 C 
HETATM    7  C10 UNL     1     -35.030  17.599  -0.848  1.00 20.00     0.083 A 
HETATM    8  O11 UNL     1     -36.119  18.200  -0.134  1.00 20.00    -0.375 OA
ENDROOT
BRANCH   6   9
HETATM    9  C8  UNL     1     -34.643  15.268  -3.855  1.00 20.00    -0.010 A 
HETATM   10  C3  UNL     1     -34.767  13.769  -3.845  1.00 20.00     0.005 A 
HETATM   11  C4  UNL     1     -35.997  14.625  -3.973  1.00 20.00     0.005 A 
ENDBRANCH   6   9
TORSDOF 1
ENDMDL
MODEL 5
REMARK VINA RESULT:      -4.4      1.310      1.351
REMARK  1 active torsions:
REMARK  status: ('A' for Active; 'I' for Inactive)
REMARK    1  A    between atoms: C8_8  and  C9_9 
ROOT
HETATM    1  C1  UNL     1     -34.093  15.071  -6.450  1.00 20.00     0.004 C 
HETATM    2  C2  UNL     1     -33.714  15.006  -4.969  1.00 20.00     0.005 C 
HETATM    3  C5  UNL     1     -35.570  14.748  -6.665  1.00 20.00     0.040 C 
HETATM    4  C6  UNL     1     -36.089  15.596  -4.325  1.00 20.00     0.045 C 
HETATM    5  C7  UNL     1     -37.173  16.789  -6.380  1.00 20.00     0.207 A 
HETATM    6  C9  UNL     1     -34.604  15.925  -4.110  1.00 20.00    -0.008 C 
HETATM    7  C10 UNL     1     -36.417  15.622  -5.789  1.00 20.00     0.083 A 
HETATM    8  O11 UNL     1     -37.822  15.546  -6.074  1.00 20.00    -0.375 OA
ENDROOT
BRANCH   6   9
HETATM    9  C8  UNL     1     -34.235  15.823  -2.654  1.00 20.00    -0.010 A 
HETATM   10  C3  UNL     1     -33.731  17.032  -1.913  1.00 20.00     0.005 A 
HETATM   11  C4  UNL     1     -35.095  16.476  -1.608  1.00 20.00     0.005 A 
ENDBRANCH   6   9
TORSDOF 1
ENDMDL
MODEL 6
REMARK VINA RESULT:      -4.4      1.050      1.277
REMARK  1 active torsions:
REMARK  status: ('A' for Active; 'I' for Inactive)
REMARK    1  A    between atoms: C8_8  and  C9_9 
ROOT
HETATM    1  C1  UNL     1     -33.703  14.790  -4.978  1.00 20.00     0.004 C 
HETATM    2  C2  UNL     1     -33.105  15.478  -3.749  1.00 20.00     0.005 C 
HETATM    3  C5  UNL     1     -34.986  14.038  -4.630  1.00 20.00     0.040 C 
HETATM    4  C6  UNL     1     -35.409  15.656  -2.716  1.00 20.00     0.045 C 
HETATM    5  C7  UNL     1     -37.142  15.508  -4.664  1.00 20.00     0.207 A 
HETATM    6  C9  UNL     1     -34.120  16.416  -3.068  1.00 20.00    -0.008 C 
HETATM    7  C10 UNL     1     -35.943  14.955  -3.930  1.00 20.00     0.083 A 
HETATM    8  O11 UNL     1     -37.256  14.403  -3.754  1.00 20.00    -0.375 OA
ENDROOT
BRANCH   6   9
HETATM    9  C8  UNL     1     -33.523  17.059  -1.846  1.00 20.00    -0.010 A 
HETATM   10  C3  UNL     1     -33.522  18.556  -1.700  1.00 20.00     0.005 A 
HETATM   11  C4  UNL     1     -34.410  17.716  -0.825  1.00 20.00     0.005 A 
ENDBRANCH   6   9
TORSDOF 1
ENDMDL
MODEL 7
REMARK VINA RESULT:      -4.3      1.592      2.310
REMARK  1 active torsions:
REMARK  status: ('A' for Active; 'I' for Inactive)
REMARK    1  A    between atoms: C8_8  and  C9_9 
ROOT
HETATM    1  C1  UNL     1     -33.003  15.301  -4.000  1.00 20.00     0.004 C 
HETATM    2  C2  UNL     1     -33.547  16.150  -2.849  1.00 20.00     0.005 C 
HETATM    3  C5  UNL     1     -33.795  14.006  -4.164  1.00 20.00     0.040 C 
HETATM    4  C6  UNL     1     -35.845  15.143  -3.179  1.00 20.00     0.045 C 
HETATM    5  C7  UNL     1     -35.946  14.234  -5.625  1.00 20.00     0.207 A 
HETATM    6  C9  UNL     1     -35.049  16.448  -3.018  1.00 20.00    -0.008 C 
HETATM    7  C10 UNL     1     -35.258  14.312  -4.282  1.00 20.00     0.083 A 
HETATM    8  O11 UNL     1     -36.062  13.183  -4.653  1.00 20.00    -0.375 OA
ENDROOT
BRANCH   6   9
HETATM    9  C8  UNL     1     -35.571  17.257  -1.861  1.00 20.00    -0.010 A 
HETATM   10  C3  UNL     1     -35.717  18.749  -1.985  1.00 20.00     0.005 A 
HETATM   11  C4  UNL     1     -36.940  17.876  -1.926  1.00 20.00     0.005 A 
ENDBRANCH   6   9
TORSDOF 1
ENDMDL
MODEL 8
REMARK VINA RESULT:      -4.1      1.387      1.643
REMARK  1 active torsions:
REMARK  status: ('A' for Active; 'I' for Inactive)
REMARK    1  A    between atoms: C8_8  and  C9_9 
ROOT
HETATM    1  C1  UNL     1     -36.165  13.820  -4.760  1.00 20.00     0.004 C 
HETATM    2  C2  UNL     1     -35.033  14.178  -3.794  1.00 20.00     0.005 C 
HETATM    3  C5  UNL     1     -37.492  14.436  -4.321  1.00 20.00     0.040 C 
HETATM    4  C6  UNL     1     -36.230  16.319  -3.170  1.00 20.00     0.045 C 
HETATM    5  C7  UNL     1     -37.861  16.891  -5.128  1.00 20.00     0.207 A 
HETATM    6  C9  UNL     1     -34.894  15.702  -3.615  1.00 20.00    -0.008 C 
HETATM    7  C10 UNL     1     -37.326  15.911  -4.109  1.00 20.00     0.083 A 
HETATM    8  O11 UNL     1     -38.561  16.613  -3.906  1.00 20.00    -0.375 OA
ENDROOT
BRANCH   6   9
HETATM    9  C8  UNL     1     -33.797  16.032  -2.639  1.00 20.00    -0.010 A 
HETATM   10  C3  UNL     1     -32.926  17.239  -2.856  1.00 20.00     0.005 A 
HETATM   11  C4  UNL     1     -33.924  17.223  -1.731  1.00 20.00     0.005 A 
ENDBRANCH   6   9
TORSDOF 1
ENDMDL
MODEL 9
REMARK VINA RESULT:      -4.1      1.818      3.319
REMARK  1 active torsions:
REMARK  status: ('A' for Active; 'I' for Inactive)
REMARK    1  A    between atoms: C8_8  and  C9_9 
ROOT
HETATM    1  C1  UNL     1     -32.872  17.212  -3.233  1.00 20.00     0.004 C 
HETATM    2  C2  UNL     1     -33.013  17.560  -1.749  1.00 20.00     0.005 C 
HETATM    3  C5  UNL     1     -33.511  15.863  -3.554  1.00 20.00     0.040 C 
HETATM    4  C6  UNL     1     -35.124  16.171  -1.614  1.00 20.00     0.045 C 
HETATM    5  C7  UNL     1     -36.073  15.970  -4.038  1.00 20.00     0.207 A 
HETATM    6  C9  UNL     1     -34.484  17.531  -1.292  1.00 20.00    -0.008 C 
HETATM    7  C10 UNL     1     -34.927  15.837  -3.063  1.00 20.00     0.083 A 
HETATM    8  O11 UNL     1     -35.677  14.697  -3.507  1.00 20.00    -0.375 OA
ENDROOT
BRANCH   6   9
HETATM    9  C8  UNL     1     -34.598  17.846   0.175  1.00 20.00    -0.010 A 
HETATM   10  C3  UNL     1     -35.519  18.937   0.647  1.00 20.00     0.005 A 
HETATM   11  C4  UNL     1     -35.851  17.498   0.929  1.00 20.00     0.005 A 
ENDBRANCH   6   9
TORSDOF 1
ENDMDL
