MODEL 1
REMARK VINA RESULT:      -4.5      0.000      0.000
REMARK  1 active torsions:
REMARK  status: ('A' for Active; 'I' for Inactive)
REMARK    1  A    between atoms: C1_1  and  C2_2 
ROOT
HETATM    1  C1  UNL     1     -34.739   5.017   4.174  1.00 20.00     0.401 C 
HETATM    2  F3  UNL     1     -34.210   3.769   4.141  1.00 20.00    -0.210 F 
HETATM    3  F4  UNL     1     -33.916   5.808   3.439  1.00 20.00    -0.210 F 
ENDROOT
BRANCH   1   4
HETATM    4  C2  UNL     1     -34.780   5.526   5.594  1.00 20.00     0.330 C 
HETATM    5  F5  UNL     1     -34.286   4.563   6.416  1.00 20.00    -0.227 F 
HETATM    6 CL6  UNL     1     -33.806   6.995   5.774  1.00 20.00    -0.084 Cl
ENDBRANCH   1   4
TORSDOF 1
ENDMDL
MODEL 2
REMARK VINA RESULT:      -4.4      1.664      2.721
REMARK  1 active torsions:
REMARK  status: ('A' for Active; 'I' for Inactive)
REMARK    1  A    between atoms: C1_1  and  C2_2 
ROOT
HETATM    1  C1  UNL     1     -34.789   5.613   5.966  1.00 20.00     0.401 C 
HETATM    2  F3  UNL     1     -34.199   6.802   6.245  1.00 20.00    -0.210 F 
HETATM    3  F4  UNL     1     -34.053   4.657   6.587  1.00 20.00    -0.210 F 
ENDROOT
BRANCH   1   4
HETATM    4  C2  UNL     1     -34.775   5.364   4.478  1.00 20.00     0.330 C 
HETATM    5  F5  UNL     1     -36.029   5.562   3.991  1.00 20.00    -0.227 F 
HETATM    6 CL6  UNL     1     -33.655   6.464   3.657  1.00 20.00    -0.084 Cl
ENDBRANCH   1   4
TORSDOF 1
ENDMDL
MODEL 3
REMARK VINA RESULT:      -4.4      1.831      2.956
REMARK  1 active torsions:
REMARK  status: ('A' for Active; 'I' for Inactive)
REMARK    1  A    between atoms: C1_1  and  C2_2 
ROOT
HETATM    1  C1  UNL     1     -34.830   5.709   5.967  1.00 20.00     0.401 C 
HETATM    2  F3  UNL     1     -34.195   6.843   6.353  1.00 20.00    -0.210 F 
HETATM    3  F4  UNL     1     -34.108   4.671   6.460  1.00 20.00    -0.210 F 
ENDROOT
BRANCH   1   4
HETATM    4  C2  UNL     1     -34.864   5.621   4.461  1.00 20.00     0.330 C 
HETATM    5  F5  UNL     1     -34.103   6.625   3.949  1.00 20.00    -0.227 F 
HETATM    6 CL6  UNL     1     -34.226   4.067   3.898  1.00 20.00    -0.084 Cl
ENDBRANCH   1   4
TORSDOF 1
ENDMDL
MODEL 4
REMARK VINA RESULT:      -4.4      1.686      2.186
REMARK  1 active torsions:
REMARK  status: ('A' for Active; 'I' for Inactive)
REMARK    1  A    between atoms: C1_1  and  C2_2 
ROOT
HETATM    1  C1  UNL     1     -34.877   5.069   4.892  1.00 20.00     0.401 C 
HETATM    2  F3  UNL     1     -34.570   4.885   6.199  1.00 20.00    -0.210 F 
HETATM    3  F4  UNL     1     -34.357   4.013   4.217  1.00 20.00    -0.210 F 
ENDROOT
BRANCH   1   4
HETATM    4  C2  UNL     1     -34.247   6.343   4.386  1.00 20.00     0.330 C 
HETATM    5  F5  UNL     1     -33.513   6.894   5.389  1.00 20.00    -0.227 F 
HETATM    6 CL6  UNL     1     -33.189   6.025   3.001  1.00 20.00    -0.084 Cl
ENDBRANCH   1   4
TORSDOF 1
ENDMDL
MODEL 5
REMARK VINA RESULT:      -4.3      1.988      2.330
REMARK  1 active torsions:
REMARK  status: ('A' for Active; 'I' for Inactive)
REMARK    1  A    between atoms: C1_1  and  C2_2 
ROOT
HETATM    1  C1  UNL     1     -34.797   5.376   4.835  1.00 20.00     0.401 C 
HETATM    2  F3  UNL     1     -35.970   5.387   4.156  1.00 20.00    -0.210 F 
HETATM    3  F4  UNL     1     -35.109   5.242   6.149  1.00 20.00    -0.210 F 
ENDROOT
BRANCH   1   4
HETATM    4  C2  UNL     1     -34.065   6.679   4.628  1.00 20.00     0.330 C 
HETATM    5  F5  UNL     1     -33.315   6.937   5.732  1.00 20.00    -0.227 F 
HETATM    6 CL6  UNL     1     -33.001   6.595   3.213  1.00 20.00    -0.084 Cl
ENDBRANCH   1   4
TORSDOF 1
ENDMDL
MODEL 6
REMARK VINA RESULT:      -4.3      2.022      2.592
REMARK  1 active torsions:
REMARK  status: ('A' for Active; 'I' for Inactive)
REMARK    1  A    between atoms: C1_1  and  C2_2 
ROOT
HETATM    1  C1  UNL     1     -34.341   5.559   5.600  1.00 20.00     0.401 C 
HETATM    2  F3  UNL     1     -35.258   5.436   6.590  1.00 20.00    -0.210 F 
HETATM    3  F4  UNL     1     -34.146   6.889   5.413  1.00 20.00    -0.210 F 
ENDROOT
BRANCH   1   4
HETATM    4  C2  UNL     1     -34.869   4.950   4.325  1.00 20.00     0.330 C 
HETATM    5  F5  UNL     1     -36.051   5.545   4.014  1.00 20.00    -0.227 F 
HETATM    6 CL6  UNL     1     -33.733   5.187   2.986  1.00 20.00    -0.084 Cl
ENDBRANCH   1   4
TORSDOF 1
ENDMDL
MODEL 7
REMARK VINA RESULT:      -4.2      1.498      2.000
REMARK  1 active torsions:
REMARK  status: ('A' for Active; 'I' for Inactive)
REMARK    1  A    between atoms: C1_1  and  C2_2 
ROOT
HETATM    1  C1  UNL     1     -34.006   6.199   3.711  1.00 20.00     0.401 C 
HETATM    2  F3  UNL     1     -33.055   5.673   2.900  1.00 20.00    -0.210 F 
HETATM    3  F4  UNL     1     -33.354   6.889   4.680  1.00 20.00    -0.210 F 
ENDROOT
BRANCH   1   4
HETATM    4  C2  UNL     1     -34.815   5.094   4.346  1.00 20.00     0.330 C 
HETATM    5  F5  UNL     1     -34.277   3.899   3.986  1.00 20.00    -0.227 F 
HETATM    6 CL6  UNL     1     -34.800   5.227   6.113  1.00 20.00    -0.084 Cl
ENDBRANCH   1   4
TORSDOF 1
ENDMDL
MODEL 8
REMARK VINA RESULT:      -4.1      2.107      2.805
REMARK  1 active torsions:
REMARK  status: ('A' for Active; 'I' for Inactive)
REMARK    1  A    between atoms: C1_1  and  C2_2 
ROOT
HETATM    1  C1  UNL     1     -34.170   6.609   5.038  1.00 20.00     0.401 C 
HETATM    2  F3  UNL     1     -33.005   7.004   4.469  1.00 20.00    -0.210 F 
HETATM    3  F4  UNL     1     -33.906   6.384   6.350  1.00 20.00    -0.210 F 
ENDROOT
BRANCH   1   4
HETATM    4  C2  UNL     1     -34.652   5.330   4.401  1.00 20.00     0.330 C 
HETATM    5  F5  UNL     1     -35.969   5.465   4.093  1.00 20.00    -0.227 F 
HETATM    6 CL6  UNL     1     -33.745   4.974   2.920  1.00 20.00    -0.084 Cl
ENDBRANCH   1   4
TORSDOF 1
ENDMDL
MODEL 9
REMARK VINA RESULT:      -4.1      1.457      1.756
REMARK  1 active torsions:
REMARK  status: ('A' for Active; 'I' for Inactive)
REMARK    1  A    between atoms: C1_1  and  C2_2 
ROOT
HETATM    1  C1  UNL     1     -34.289   4.362   3.624  1.00 20.00     0.401 C 
HETATM    2  F3  UNL     1     -33.814   3.449   4.507  1.00 20.00    -0.210 F 
HETATM    3  F4  UNL     1     -33.234   4.757   2.867  1.00 20.00    -0.210 F 
ENDROOT
BRANCH   1   4
HETATM    4  C2  UNL     1     -34.847   5.554   4.361  1.00 20.00     0.330 C 
HETATM    5  F5  UNL     1     -36.171   5.666   4.070  1.00 20.00    -0.227 F 
HETATM    6 CL6  UNL     1     -34.654   5.370   6.112  1.00 20.00    -0.084 Cl
ENDBRANCH   1   4
TORSDOF 1
ENDMDL
