MODEL 1
REMARK VINA RESULT:      -4.5      0.000      0.000
REMARK  2 active torsions:
REMARK  status: ('A' for Active; 'I' for Inactive)
REMARK    1  A    between atoms: C3_3  and  C6_6 
REMARK    2  A    between atoms: C3_3  and  O8_8 
ROOT
HETATM    1  C1  UNL     1     -34.372   6.231   5.683  1.00 20.00     0.013 C 
HETATM    2  C2  UNL     1     -34.045   6.225   4.528  1.00 20.00    -0.103 C 
HETATM    3  C4  UNL     1     -33.312   4.804   2.655  1.00 20.00     0.034 C 
HETATM    4  C6  UNL     1     -33.649   6.221   3.108  1.00 20.00     0.159 C 
ENDROOT
BRANCH   4   5
HETATM    5  C3  UNL     1     -32.461   7.136   2.870  1.00 20.00     0.273 C 
HETATM    6  O7  UNL     1     -31.749   7.608   3.748  1.00 20.00    -0.264 OA
BRANCH   5   7
HETATM    7  O8  UNL     1     -32.309   7.346   1.527  1.00 20.00    -0.326 OA
HETATM    8  C5  UNL     1     -32.808   8.594   1.036  1.00 20.00     0.213 C 
ENDBRANCH   5   7
ENDBRANCH   4   5
TORSDOF 2
ENDMDL
MODEL 2
REMARK VINA RESULT:      -4.4      1.485      1.819
REMARK  2 active torsions:
REMARK  status: ('A' for Active; 'I' for Inactive)
REMARK    1  A    between atoms: C3_3  and  C6_6 
REMARK    2  A    between atoms: C3_3  and  O8_8 
ROOT
HETATM    1  C1  UNL     1     -33.650   7.219   6.187  1.00 20.00     0.013 C 
HETATM    2  C2  UNL     1     -33.961   6.598   5.207  1.00 20.00    -0.103 C 
HETATM    3  C4  UNL     1     -34.793   4.433   4.380  1.00 20.00     0.034 C 
HETATM    4  C6  UNL     1     -34.347   5.842   4.002  1.00 20.00     0.159 C 
ENDROOT
BRANCH   4   5
HETATM    5  C3  UNL     1     -33.199   5.773   3.010  1.00 20.00     0.273 C 
HETATM    6  O7  UNL     1     -32.901   4.788   2.346  1.00 20.00    -0.264 OA
BRANCH   5   7
HETATM    7  O8  UNL     1     -32.556   6.979   2.973  1.00 20.00    -0.326 OA
HETATM    8  C5  UNL     1     -32.546   7.636   1.702  1.00 20.00     0.213 C 
ENDBRANCH   5   7
ENDBRANCH   4   5
TORSDOF 2
ENDMDL
MODEL 3
REMARK VINA RESULT:      -4.2      1.600      3.461
REMARK  2 active torsions:
REMARK  status: ('A' for Active; 'I' for Inactive)
REMARK    1  A    between atoms: C3_3  and  C6_6 
REMARK    2  A    between atoms: C3_3  and  O8_8 
ROOT
HETATM    1  C1  UNL     1     -32.633   8.209   1.275  1.00 20.00     0.013 C 
HETATM    2  C2  UNL     1     -32.681   7.293   2.050  1.00 20.00    -0.103 C 
HETATM    3  C4  UNL     1     -33.411   4.962   2.363  1.00 20.00     0.034 C 
HETATM    4  C6  UNL     1     -32.734   6.170   3.004  1.00 20.00     0.159 C 
ENDROOT
BRANCH   4   5
HETATM    5  C3  UNL     1     -33.470   6.564   4.271  1.00 20.00     0.273 C 
HETATM    6  O7  UNL     1     -33.087   7.402   5.077  1.00 20.00    -0.264 OA
BRANCH   5   7
HETATM    7  O8  UNL     1     -34.627   5.841   4.369  1.00 20.00    -0.326 OA
HETATM    8  C5  UNL     1     -34.884   5.254   5.649  1.00 20.00     0.213 C 
ENDBRANCH   5   7
ENDBRANCH   4   5
TORSDOF 2
ENDMDL
MODEL 4
REMARK VINA RESULT:      -4.2     10.644     11.853
REMARK  2 active torsions:
REMARK  status: ('A' for Active; 'I' for Inactive)
REMARK    1  A    between atoms: C3_3  and  C6_6 
REMARK    2  A    between atoms: C3_3  and  O8_8 
ROOT
HETATM    1  C1  UNL     1     -34.193  15.125  -6.862  1.00 20.00     0.013 C 
HETATM    2  C2  UNL     1     -34.806  15.023  -5.835  1.00 20.00    -0.103 C 
HETATM    3  C4  UNL     1     -34.633  15.067  -3.379  1.00 20.00     0.034 C 
HETATM    4  C6  UNL     1     -35.564  14.903  -4.576  1.00 20.00     0.159 C 
ENDROOT
BRANCH   4   5
HETATM    5  C3  UNL     1     -36.279  13.565  -4.496  1.00 20.00     0.273 C 
HETATM    6  O7  UNL     1     -35.727  12.477  -4.397  1.00 20.00    -0.264 OA
BRANCH   5   7
HETATM    7  O8  UNL     1     -37.631  13.768  -4.546  1.00 20.00    -0.326 OA
HETATM    8  C5  UNL     1     -38.067  15.101  -4.261  1.00 20.00     0.213 C 
ENDBRANCH   5   7
ENDBRANCH   4   5
TORSDOF 2
ENDMDL
MODEL 5
REMARK VINA RESULT:      -4.1     10.560     11.169
REMARK  2 active torsions:
REMARK  status: ('A' for Active; 'I' for Inactive)
REMARK    1  A    between atoms: C3_3  and  C6_6 
REMARK    2  A    between atoms: C3_3  and  O8_8 
ROOT
HETATM    1  C1  UNL     1     -35.027  16.277  -1.929  1.00 20.00     0.013 C 
HETATM    2  C2  UNL     1     -34.780  15.443  -2.758  1.00 20.00    -0.103 C 
HETATM    3  C4  UNL     1     -33.614  15.004  -4.881  1.00 20.00     0.034 C 
HETATM    4  C6  UNL     1     -34.475  14.414  -3.769  1.00 20.00     0.159 C 
ENDROOT
BRANCH   4   5
HETATM    5  C3  UNL     1     -35.748  13.830  -4.354  1.00 20.00     0.273 C 
HETATM    6  O7  UNL     1     -35.973  12.635  -4.499  1.00 20.00    -0.264 OA
BRANCH   5   7
HETATM    7  O8  UNL     1     -36.603  14.844  -4.687  1.00 20.00    -0.326 OA
HETATM    8  C5  UNL     1     -37.969  14.651  -4.307  1.00 20.00     0.213 C 
ENDBRANCH   5   7
ENDBRANCH   4   5
TORSDOF 2
ENDMDL
MODEL 6
REMARK VINA RESULT:      -4.0     10.642     11.334
REMARK  2 active torsions:
REMARK  status: ('A' for Active; 'I' for Inactive)
REMARK    1  A    between atoms: C3_3  and  C6_6 
REMARK    2  A    between atoms: C3_3  and  O8_8 
ROOT
HETATM    1  C1  UNL     1     -35.151  16.291  -2.121  1.00 20.00     0.013 C 
HETATM    2  C2  UNL     1     -34.903  15.367  -2.847  1.00 20.00    -0.103 C 
HETATM    3  C4  UNL     1     -33.318  14.494  -4.517  1.00 20.00     0.034 C 
HETATM    4  C6  UNL     1     -34.600  14.229  -3.733  1.00 20.00     0.159 C 
ENDROOT
BRANCH   4   5
HETATM    5  C3  UNL     1     -35.747  13.962  -4.691  1.00 20.00     0.273 C 
HETATM    6  O7  UNL     1     -36.857  13.560  -4.366  1.00 20.00    -0.264 OA
BRANCH   5   7
HETATM    7  O8  UNL     1     -35.349  14.246  -5.968  1.00 20.00    -0.326 OA
HETATM    8  C5  UNL     1     -36.087  15.276  -6.632  1.00 20.00     0.213 C 
ENDBRANCH   5   7
ENDBRANCH   4   5
TORSDOF 2
ENDMDL
MODEL 7
REMARK VINA RESULT:      -4.0      1.980      3.601
REMARK  2 active torsions:
REMARK  status: ('A' for Active; 'I' for Inactive)
REMARK    1  A    between atoms: C3_3  and  C6_6 
REMARK    2  A    between atoms: C3_3  and  O8_8 
ROOT
HETATM    1  C1  UNL     1     -33.200   4.169   2.205  1.00 20.00     0.013 C 
HETATM    2  C2  UNL     1     -33.273   5.281   2.654  1.00 20.00    -0.103 C 
HETATM    3  C4  UNL     1     -32.037   7.374   3.045  1.00 20.00     0.034 C 
HETATM    4  C6  UNL     1     -33.369   6.646   3.201  1.00 20.00     0.159 C 
ENDROOT
BRANCH   4   5
HETATM    5  C3  UNL     1     -33.777   6.621   4.663  1.00 20.00     0.273 C 
HETATM    6  O7  UNL     1     -33.224   7.247   5.559  1.00 20.00    -0.264 OA
BRANCH   5   7
HETATM    7  O8  UNL     1     -34.856   5.797   4.820  1.00 20.00    -0.326 OA
HETATM    8  C5  UNL     1     -34.863   5.007   6.013  1.00 20.00     0.213 C 
ENDBRANCH   5   7
ENDBRANCH   4   5
TORSDOF 2
ENDMDL
MODEL 8
REMARK VINA RESULT:      -3.6      9.525     10.054
REMARK  2 active torsions:
REMARK  status: ('A' for Active; 'I' for Inactive)
REMARK    1  A    between atoms: C3_3  and  C6_6 
REMARK    2  A    between atoms: C3_3  and  O8_8 
ROOT
HETATM    1  C1  UNL     1     -40.902   5.113  -1.160  1.00 20.00     0.013 C 
HETATM    2  C2  UNL     1     -41.400   6.008  -0.532  1.00 20.00    -0.103 C 
HETATM    3  C4  UNL     1     -43.086   6.571   1.172  1.00 20.00     0.034 C 
HETATM    4  C6  UNL     1     -42.003   7.109   0.241  1.00 20.00     0.159 C 
ENDROOT
BRANCH   4   5
HETATM    5  C3  UNL     1     -42.590   8.164  -0.679  1.00 20.00     0.273 C 
HETATM    6  O7  UNL     1     -43.057   7.948  -1.790  1.00 20.00    -0.264 OA
BRANCH   5   7
HETATM    7  O8  UNL     1     -42.520   9.387  -0.072  1.00 20.00    -0.326 OA
HETATM    8  C5  UNL     1     -41.234   9.749   0.442  1.00 20.00     0.213 C 
ENDBRANCH   5   7
ENDBRANCH   4   5
TORSDOF 2
ENDMDL
MODEL 9
REMARK VINA RESULT:      -3.6      2.111      3.425
REMARK  2 active torsions:
REMARK  status: ('A' for Active; 'I' for Inactive)
REMARK    1  A    between atoms: C3_3  and  C6_6 
REMARK    2  A    between atoms: C3_3  and  O8_8 
ROOT
HETATM    1  C1  UNL     1     -31.877   7.577   3.432  1.00 20.00     0.013 C 
HETATM    2  C2  UNL     1     -32.891   7.131   3.896  1.00 20.00    -0.103 C 
HETATM    3  C4  UNL     1     -34.053   6.532   5.983  1.00 20.00     0.034 C 
HETATM    4  C6  UNL     1     -34.140   6.589   4.461  1.00 20.00     0.159 C 
ENDROOT
BRANCH   4   5
HETATM    5  C3  UNL     1     -34.434   5.206   3.907  1.00 20.00     0.273 C 
HETATM    6  O7  UNL     1     -34.970   4.298   4.530  1.00 20.00    -0.264 OA
BRANCH   5   7
HETATM    7  O8  UNL     1     -34.012   5.136   2.609  1.00 20.00    -0.326 OA
HETATM    8  C5  UNL     1     -33.050   4.115   2.325  1.00 20.00     0.213 C 
ENDBRANCH   5   7
ENDBRANCH   4   5
TORSDOF 2
ENDMDL
