MODEL 1
REMARK VINA RESULT:      -4.5      0.000      0.000
REMARK  1 active torsions:
REMARK  status: ('A' for Active; 'I' for Inactive)
REMARK    1  A    between atoms: C1_1  and  C2_2 
ROOT
HETATM    1  C1  UNL     1     -34.980   4.941   4.595  1.00 20.00     0.385 C 
HETATM    2  F3  UNL     1     -35.023   4.781   5.940  1.00 20.00    -0.212 F 
HETATM    3  F4  UNL     1     -34.247   3.912   4.099  1.00 20.00    -0.212 F 
ENDROOT
BRANCH   1   4
HETATM    4  C2  UNL     1     -34.327   6.260   4.230  1.00 20.00     0.242 C 
HETATM    5 CL5  UNL     1     -33.573   6.996   5.663  1.00 20.00    -0.102 Cl
HETATM    6 CL6  UNL     1     -33.103   6.026   2.959  1.00 20.00    -0.102 Cl
ENDBRANCH   1   4
TORSDOF 1
ENDMDL
MODEL 2
REMARK VINA RESULT:      -4.3      1.707      2.170
REMARK  1 active torsions:
REMARK  status: ('A' for Active; 'I' for Inactive)
REMARK    1  A    between atoms: C1_1  and  C2_2 
ROOT
HETATM    1  C1  UNL     1     -34.423   6.107   5.785  1.00 20.00     0.385 C 
HETATM    2  F3  UNL     1     -33.329   6.840   6.106  1.00 20.00    -0.212 F 
HETATM    3  F4  UNL     1     -34.322   4.934   6.460  1.00 20.00    -0.212 F 
ENDROOT
BRANCH   1   4
HETATM    4  C2  UNL     1     -34.472   5.839   4.294  1.00 20.00     0.242 C 
HETATM    5 CL5  UNL     1     -33.189   6.743   3.459  1.00 20.00    -0.102 Cl
HETATM    6 CL6  UNL     1     -34.297   4.099   3.961  1.00 20.00    -0.102 Cl
ENDBRANCH   1   4
TORSDOF 1
ENDMDL
MODEL 3
REMARK VINA RESULT:      -4.2      2.323      3.121
REMARK  1 active torsions:
REMARK  status: ('A' for Active; 'I' for Inactive)
REMARK    1  A    between atoms: C1_1  and  C2_2 
ROOT
HETATM    1  C1  UNL     1     -33.199   6.562   3.128  1.00 20.00     0.385 C 
HETATM    2  F3  UNL     1     -32.700   5.413   2.611  1.00 20.00    -0.212 F 
HETATM    3  F4  UNL     1     -32.160   7.219   3.703  1.00 20.00    -0.212 F 
ENDROOT
BRANCH   1   4
HETATM    4  C2  UNL     1     -34.260   6.268   4.171  1.00 20.00     0.242 C 
HETATM    5 CL5  UNL     1     -34.583   4.521   4.250  1.00 20.00    -0.102 Cl
HETATM    6 CL6  UNL     1     -33.751   6.859   5.772  1.00 20.00    -0.102 Cl
ENDBRANCH   1   4
TORSDOF 1
ENDMDL
MODEL 4
REMARK VINA RESULT:      -4.1      2.202      3.152
REMARK  1 active torsions:
REMARK  status: ('A' for Active; 'I' for Inactive)
REMARK    1  A    between atoms: C1_1  and  C2_2 
ROOT
HETATM    1  C1  UNL     1     -33.834   6.731   4.138  1.00 20.00     0.385 C 
HETATM    2  F3  UNL     1     -32.883   6.389   3.236  1.00 20.00    -0.212 F 
HETATM    3  F4  UNL     1     -33.186   7.111   5.268  1.00 20.00    -0.212 F 
ENDROOT
BRANCH   1   4
HETATM    4  C2  UNL     1     -34.740   5.553   4.438  1.00 20.00     0.242 C 
HETATM    5 CL5  UNL     1     -34.139   4.087   3.630  1.00 20.00    -0.102 Cl
HETATM    6 CL6  UNL     1     -34.848   5.271   6.193  1.00 20.00    -0.102 Cl
ENDBRANCH   1   4
TORSDOF 1
ENDMDL
MODEL 5
REMARK VINA RESULT:      -4.0      1.144      1.613
REMARK  1 active torsions:
REMARK  status: ('A' for Active; 'I' for Inactive)
REMARK    1  A    between atoms: C1_1  and  C2_2 
ROOT
HETATM    1  C1  UNL     1     -34.432   5.067   4.099  1.00 20.00     0.385 C 
HETATM    2  F3  UNL     1     -33.981   4.563   2.924  1.00 20.00    -0.212 F 
HETATM    3  F4  UNL     1     -35.785   4.965   4.077  1.00 20.00    -0.212 F 
ENDROOT
BRANCH   1   4
HETATM    4  C2  UNL     1     -34.028   6.520   4.252  1.00 20.00     0.242 C 
HETATM    5 CL5  UNL     1     -33.666   6.887   5.953  1.00 20.00    -0.102 Cl
HETATM    6 CL6  UNL     1     -32.609   6.889   3.241  1.00 20.00    -0.102 Cl
ENDBRANCH   1   4
TORSDOF 1
ENDMDL
MODEL 6
REMARK VINA RESULT:      -3.8      2.468      2.874
REMARK  1 active torsions:
REMARK  status: ('A' for Active; 'I' for Inactive)
REMARK    1  A    between atoms: C1_1  and  C2_2 
ROOT
HETATM    1  C1  UNL     1     -33.275   6.586   3.303  1.00 20.00     0.385 C 
HETATM    2  F3  UNL     1     -32.924   5.678   2.361  1.00 20.00    -0.212 F 
HETATM    3  F4  UNL     1     -32.146   7.260   3.642  1.00 20.00    -0.212 F 
ENDROOT
BRANCH   1   4
HETATM    4  C2  UNL     1     -33.849   5.899   4.526  1.00 20.00     0.242 C 
HETATM    5 CL5  UNL     1     -33.823   6.997   5.925  1.00 20.00    -0.102 Cl
HETATM    6 CL6  UNL     1     -35.517   5.355   4.219  1.00 20.00    -0.102 Cl
ENDBRANCH   1   4
TORSDOF 1
ENDMDL
MODEL 7
REMARK VINA RESULT:      -3.7      2.213      2.565
REMARK  1 active torsions:
REMARK  status: ('A' for Active; 'I' for Inactive)
REMARK    1  A    between atoms: C1_1  and  C2_2 
ROOT
HETATM    1  C1  UNL     1     -33.893   6.717   4.115  1.00 20.00     0.385 C 
HETATM    2  F3  UNL     1     -33.355   7.038   5.317  1.00 20.00    -0.212 F 
HETATM    3  F4  UNL     1     -34.728   5.668   4.325  1.00 20.00    -0.212 F 
ENDROOT
BRANCH   1   4
HETATM    4  C2  UNL     1     -32.810   6.322   3.130  1.00 20.00     0.242 C 
HETATM    5 CL5  UNL     1     -33.202   4.763   2.370  1.00 20.00    -0.102 Cl
HETATM    6 CL6  UNL     1     -32.613   7.570   1.875  1.00 20.00    -0.102 Cl
ENDBRANCH   1   4
TORSDOF 1
ENDMDL
MODEL 8
REMARK VINA RESULT:      -3.7      0.585      1.757
REMARK  1 active torsions:
REMARK  status: ('A' for Active; 'I' for Inactive)
REMARK    1  A    between atoms: C1_1  and  C2_2 
ROOT
HETATM    1  C1  UNL     1     -34.811   5.088   4.348  1.00 20.00     0.385 C 
HETATM    2  F3  UNL     1     -35.454   4.909   5.528  1.00 20.00    -0.212 F 
HETATM    3  F4  UNL     1     -34.453   3.856   3.905  1.00 20.00    -0.212 F 
ENDROOT
BRANCH   1   4
HETATM    4  C2  UNL     1     -33.576   5.947   4.534  1.00 20.00     0.242 C 
HETATM    5 CL5  UNL     1     -33.188   6.809   3.028  1.00 20.00    -0.102 Cl
HETATM    6 CL6  UNL     1     -33.815   7.118   5.853  1.00 20.00    -0.102 Cl
ENDBRANCH   1   4
TORSDOF 1
ENDMDL
MODEL 9
REMARK VINA RESULT:      -3.6      1.751      2.545
REMARK  1 active torsions:
REMARK  status: ('A' for Active; 'I' for Inactive)
REMARK    1  A    between atoms: C1_1  and  C2_2 
ROOT
HETATM    1  C1  UNL     1     -33.675   4.977   2.714  1.00 20.00     0.385 C 
HETATM    2  F3  UNL     1     -34.176   4.179   3.689  1.00 20.00    -0.212 F 
HETATM    3  F4  UNL     1     -32.814   4.219   1.989  1.00 20.00    -0.212 F 
ENDROOT
BRANCH   1   4
HETATM    4  C2  UNL     1     -32.940   6.160   3.311  1.00 20.00     0.242 C 
HETATM    5 CL5  UNL     1     -32.658   7.404   2.072  1.00 20.00    -0.102 Cl
HETATM    6 CL6  UNL     1     -33.864   6.858   4.665  1.00 20.00    -0.102 Cl
ENDBRANCH   1   4
TORSDOF 1
ENDMDL
