MODEL 1
REMARK VINA RESULT:      -4.4      0.000      0.000
REMARK  0 active torsions:
REMARK  status: ('A' for Active; 'I' for Inactive)
ROOT
HETATM    1  C1  UNL     1     -22.902  17.226   9.509  1.00 20.00     0.005 C 
HETATM    2  C2  UNL     1     -21.814  17.896  10.346  1.00 20.00     0.026 C 
HETATM    3  C3  UNL     1     -24.290  17.691   9.947  1.00 20.00     0.042 C 
HETATM    4  C4  UNL     1     -25.878  17.814  11.981  1.00 20.00     0.309 C 
HETATM    5  C5  UNL     1     -24.807  16.028  11.910  1.00 20.00     0.309 C 
HETATM    6  C6  UNL     1     -22.070  17.681  11.832  1.00 20.00     0.169 C 
HETATM    7  C7  UNL     1     -24.464  17.469  11.453  1.00 20.00     0.113 C 
HETATM    8  N8  UNL     1     -26.238  16.385  11.914  1.00 20.00     0.089 N 
HETATM    9  O9  UNL     1     -23.385  18.118  12.170  1.00 20.00    -0.377 OA
HETATM   10  H22 UNL     1     -26.728  16.059  12.747  1.00 20.00     0.316 HD
ENDROOT
TORSDOF 0
ENDMDL
MODEL 2
REMARK VINA RESULT:      -4.4      1.853      2.667
REMARK  0 active torsions:
REMARK  status: ('A' for Active; 'I' for Inactive)
ROOT
HETATM    1  C1  UNL     1     -22.623  17.907   8.302  1.00 20.00     0.005 C 
HETATM    2  C2  UNL     1     -23.845  18.732   7.905  1.00 20.00     0.026 C 
HETATM    3  C3  UNL     1     -23.020  16.753   9.221  1.00 20.00     0.042 C 
HETATM    4  C4  UNL     1     -24.166  16.208  11.471  1.00 20.00     0.309 C 
HETATM    5  C5  UNL     1     -22.975  17.914  11.574  1.00 20.00     0.309 C 
HETATM    6  C6  UNL     1     -24.608  19.193   9.140  1.00 20.00     0.169 C 
HETATM    7  C7  UNL     1     -23.804  17.289  10.423  1.00 20.00     0.113 C 
HETATM    8  N8  UNL     1     -23.003  16.619  12.279  1.00 20.00     0.089 N 
HETATM    9  O9  UNL     1     -24.932  18.073   9.961  1.00 20.00    -0.377 OA
HETATM   10  H22 UNL     1     -23.219  16.710  13.271  1.00 20.00     0.316 HD
ENDROOT
TORSDOF 0
ENDMDL
MODEL 3
REMARK VINA RESULT:      -4.2      2.208      3.493
REMARK  0 active torsions:
REMARK  status: ('A' for Active; 'I' for Inactive)
ROOT
HETATM    1  C1  UNL     1     -25.123  18.159  12.252  1.00 20.00     0.005 C 
HETATM    2  C2  UNL     1     -25.418  16.663  12.332  1.00 20.00     0.026 C 
HETATM    3  C3  UNL     1     -24.989  18.611  10.800  1.00 20.00     0.042 C 
HETATM    4  C4  UNL     1     -23.661  18.195   8.623  1.00 20.00     0.309 C 
HETATM    5  C5  UNL     1     -22.459  18.108  10.322  1.00 20.00     0.309 C 
HETATM    6  C6  UNL     1     -24.377  15.866  11.557  1.00 20.00     0.169 C 
HETATM    7  C7  UNL     1     -23.947  17.751  10.079  1.00 20.00     0.113 C 
HETATM    8  N8  UNL     1     -22.468  18.924   9.093  1.00 20.00     0.089 N 
HETATM    9  O9  UNL     1     -24.290  16.349  10.218  1.00 20.00    -0.377 OA
HETATM   10  H22 UNL     1     -21.649  18.767   8.505  1.00 20.00     0.316 HD
ENDROOT
TORSDOF 0
ENDMDL
MODEL 4
REMARK VINA RESULT:      -4.1      2.179      3.600
REMARK  0 active torsions:
REMARK  status: ('A' for Active; 'I' for Inactive)
ROOT
HETATM    1  C1  UNL     1     -24.476  17.658  12.306  1.00 20.00     0.005 C 
HETATM    2  C2  UNL     1     -25.464  18.704  11.796  1.00 20.00     0.026 C 
HETATM    3  C3  UNL     1     -23.072  17.923  11.764  1.00 20.00     0.042 C 
HETATM    4  C4  UNL     1     -21.721  18.187   9.578  1.00 20.00     0.309 C 
HETATM    5  C5  UNL     1     -23.158  16.684   9.453  1.00 20.00     0.309 C 
HETATM    6  C6  UNL     1     -25.422  18.787  10.275  1.00 20.00     0.169 C 
HETATM    7  C7  UNL     1     -23.113  18.021  10.236  1.00 20.00     0.113 C 
HETATM    8  N8  UNL     1     -21.692  16.739   9.303  1.00 20.00     0.089 N 
HETATM    9  O9  UNL     1     -24.085  19.018   9.835  1.00 20.00    -0.377 OA
HETATM   10  H22 UNL     1     -21.380  16.520   8.357  1.00 20.00     0.316 HD
ENDROOT
TORSDOF 0
ENDMDL
MODEL 5
REMARK VINA RESULT:      -3.9      2.309      3.450
REMARK  0 active torsions:
REMARK  status: ('A' for Active; 'I' for Inactive)
ROOT
HETATM    1  C1  UNL     1     -25.205  18.597  10.963  1.00 20.00     0.005 C 
HETATM    2  C2  UNL     1     -24.680  18.171  12.332  1.00 20.00     0.026 C 
HETATM    3  C3  UNL     1     -24.644  17.700   9.861  1.00 20.00     0.042 C 
HETATM    4  C4  UNL     1     -22.441  16.867   8.799  1.00 20.00     0.309 C 
HETATM    5  C5  UNL     1     -22.362  18.880   9.330  1.00 20.00     0.309 C 
HETATM    6  C6  UNL     1     -23.158  18.113  12.331  1.00 20.00     0.169 C 
HETATM    7  C7  UNL     1     -23.115  17.670   9.939  1.00 20.00     0.113 C 
HETATM    8  N8  UNL     1     -22.198  18.128   8.072  1.00 20.00     0.089 N 
HETATM    9  O9  UNL     1     -22.701  17.276  11.271  1.00 20.00    -0.377 OA
HETATM   10  H22 UNL     1     -21.254  18.191   7.691  1.00 20.00     0.316 HD
ENDROOT
TORSDOF 0
ENDMDL
MODEL 6
REMARK VINA RESULT:      -3.8     17.360     18.315
REMARK  0 active torsions:
REMARK  status: ('A' for Active; 'I' for Inactive)
ROOT
HETATM    1  C1  UNL     1     -32.995  17.171  -2.376  1.00 20.00     0.005 C 
HETATM    2  C2  UNL     1     -34.315  17.093  -1.612  1.00 20.00     0.026 C 
HETATM    3  C3  UNL     1     -33.238  17.184  -3.884  1.00 20.00     0.042 C 
HETATM    4  C4  UNL     1     -34.318  15.845  -5.812  1.00 20.00     0.309 C 
HETATM    5  C5  UNL     1     -33.372  14.619  -4.419  1.00 20.00     0.309 C 
HETATM    6  C6  UNL     1     -35.144  15.908  -2.089  1.00 20.00     0.169 C 
HETATM    7  C7  UNL     1     -34.098  15.981  -4.285  1.00 20.00     0.113 C 
HETATM    8  N8  UNL     1     -33.228  14.853  -5.868  1.00 20.00     0.089 N 
HETATM    9  O9  UNL     1     -35.319  15.971  -3.503  1.00 20.00    -0.377 OA
HETATM   10  H22 UNL     1     -33.464  14.035  -6.429  1.00 20.00     0.316 HD
ENDROOT
TORSDOF 0
ENDMDL
MODEL 7
REMARK VINA RESULT:      -3.8     23.636     24.415
REMARK  0 active torsions:
REMARK  status: ('A' for Active; 'I' for Inactive)
ROOT
HETATM    1  C1  UNL     1     -41.168   7.898   0.659  1.00 20.00     0.005 C 
HETATM    2  C2  UNL     1     -41.908   9.055  -0.009  1.00 20.00     0.026 C 
HETATM    3  C3  UNL     1     -41.133   6.674  -0.254  1.00 20.00     0.042 C 
HETATM    4  C4  UNL     1     -42.639   5.017  -1.542  1.00 20.00     0.309 C 
HETATM    5  C5  UNL     1     -43.417   5.520   0.324  1.00 20.00     0.309 C 
HETATM    6  C6  UNL     1     -43.293   8.616  -0.466  1.00 20.00     0.169 C 
HETATM    7  C7  UNL     1     -42.554   6.309  -0.693  1.00 20.00     0.113 C 
HETATM    8  N8  UNL     1     -43.015   4.262  -0.332  1.00 20.00     0.089 N 
HETATM    9  O9  UNL     1     -43.190   7.462  -1.298  1.00 20.00    -0.377 OA
HETATM   10  H22 UNL     1     -43.797   3.625  -0.487  1.00 20.00     0.316 HD
ENDROOT
TORSDOF 0
ENDMDL
MODEL 8
REMARK VINA RESULT:      -3.7     18.681     19.549
REMARK  0 active torsions:
REMARK  status: ('A' for Active; 'I' for Inactive)
ROOT
HETATM    1  C1  UNL     1     -33.828  15.820  -3.197  1.00 20.00     0.005 C 
HETATM    2  C2  UNL     1     -32.997  14.968  -4.153  1.00 20.00     0.026 C 
HETATM    3  C3  UNL     1     -35.224  15.227  -3.011  1.00 20.00     0.042 C 
HETATM    4  C4  UNL     1     -37.353  14.520  -4.292  1.00 20.00     0.309 C 
HETATM    5  C5  UNL     1     -36.517  16.277  -5.038  1.00 20.00     0.309 C 
HETATM    6  C6  UNL     1     -33.734  14.761  -5.470  1.00 20.00     0.169 C 
HETATM    7  C7  UNL     1     -35.891  15.024  -4.375  1.00 20.00     0.113 C 
HETATM    8  N8  UNL     1     -37.827  15.906  -4.470  1.00 20.00     0.089 N 
HETATM    9  O9  UNL     1     -35.032  14.223  -5.225  1.00 20.00    -0.377 OA
HETATM   10  H22 UNL     1     -38.589  15.982  -5.143  1.00 20.00     0.316 HD
ENDROOT
TORSDOF 0
ENDMDL
MODEL 9
REMARK VINA RESULT:      -3.7     16.920     17.899
REMARK  0 active torsions:
REMARK  status: ('A' for Active; 'I' for Inactive)
ROOT
HETATM    1  C1  UNL     1     -35.330  16.724  -1.851  1.00 20.00     0.005 C 
HETATM    2  C2  UNL     1     -34.124  17.418  -1.223  1.00 20.00     0.026 C 
HETATM    3  C3  UNL     1     -34.904  15.463  -2.601  1.00 20.00     0.042 C 
HETATM    4  C4  UNL     1     -33.376  14.609  -4.502  1.00 20.00     0.309 C 
HETATM    5  C5  UNL     1     -34.268  16.438  -4.952  1.00 20.00     0.309 C 
HETATM    6  C6  UNL     1     -33.051  17.685  -2.271  1.00 20.00     0.169 C 
HETATM    7  C7  UNL     1     -33.808  15.804  -3.615  1.00 20.00     0.113 C 
HETATM    8  N8  UNL     1     -34.265  15.099  -5.572  1.00 20.00     0.089 N 
HETATM    9  O9  UNL     1     -32.712  16.474  -2.943  1.00 20.00    -0.377 OA
HETATM   10  H22 UNL     1     -33.824  15.087  -6.491  1.00 20.00     0.316 HD
ENDROOT
TORSDOF 0
ENDMDL
