MODEL 1
REMARK VINA RESULT:      -5.0      0.000      0.000
REMARK  0 active torsions:
REMARK  status: ('A' for Active; 'I' for Inactive)
ROOT
HETATM    1  C1  UNL     1     -35.343  13.993  -4.317  1.00 20.00     0.127 C 
HETATM    2  C2  UNL     1     -36.096  15.028  -3.511  1.00 20.00     0.079 C 
HETATM    3  C3  UNL     1     -34.056  14.451  -4.966  1.00 20.00     0.079 C 
HETATM    4  C4  UNL     1     -35.165  15.706  -2.514  1.00 20.00     0.017 C 
HETATM    5  C5  UNL     1     -33.162  15.156  -3.953  1.00 20.00     0.017 C 
HETATM    6  C6  UNL     1     -32.876  18.140  -3.465  1.00 20.00     0.002 C 
HETATM    7  C7  UNL     1     -33.033  17.143  -2.302  1.00 20.00     0.009 C 
HETATM    8  C8  UNL     1     -34.181  17.576  -4.056  1.00 20.00     0.009 C 
HETATM    9  C9  UNL     1     -33.933  16.272  -3.232  1.00 20.00    -0.040 C 
HETATM   10  O10 UNL     1     -35.805  12.871  -4.520  1.00 20.00    -0.298 OA
ENDROOT
TORSDOF 0
ENDMDL
MODEL 2
REMARK VINA RESULT:      -4.7      1.235      1.980
REMARK  0 active torsions:
REMARK  status: ('A' for Active; 'I' for Inactive)
ROOT
HETATM    1  C1  UNL     1     -35.728  14.519  -5.337  1.00 20.00     0.127 C 
HETATM    2  C2  UNL     1     -35.017  13.777  -4.226  1.00 20.00     0.079 C 
HETATM    3  C3  UNL     1     -36.087  15.962  -5.061  1.00 20.00     0.079 C 
HETATM    4  C4  UNL     1     -33.819  14.579  -3.734  1.00 20.00     0.017 C 
HETATM    5  C5  UNL     1     -34.877  16.728  -4.538  1.00 20.00     0.017 C 
HETATM    6  C6  UNL     1     -34.153  17.339  -1.652  1.00 20.00     0.002 C 
HETATM    7  C7  UNL     1     -33.108  16.810  -2.652  1.00 20.00     0.009 C 
HETATM    8  C8  UNL     1     -35.019  16.111  -1.988  1.00 20.00     0.009 C 
HETATM    9  C9  UNL     1     -34.248  15.998  -3.341  1.00 20.00    -0.040 C 
HETATM   10  O10 UNL     1     -36.087  13.949  -6.366  1.00 20.00    -0.298 OA
ENDROOT
TORSDOF 0
ENDMDL
MODEL 3
REMARK VINA RESULT:      -4.5      1.458      1.763
REMARK  0 active torsions:
REMARK  status: ('A' for Active; 'I' for Inactive)
ROOT
HETATM    1  C1  UNL     1     -37.336  14.572  -4.329  1.00 20.00     0.127 C 
HETATM    2  C2  UNL     1     -37.394  16.063  -4.081  1.00 20.00     0.079 C 
HETATM    3  C3  UNL     1     -35.961  13.977  -4.537  1.00 20.00     0.079 C 
HETATM    4  C4  UNL     1     -36.430  16.455  -2.969  1.00 20.00     0.017 C 
HETATM    5  C5  UNL     1     -35.011  14.415  -3.429  1.00 20.00     0.017 C 
HETATM    6  C6  UNL     1     -33.001  16.693  -3.478  1.00 20.00     0.002 C 
HETATM    7  C7  UNL     1     -33.944  16.473  -2.280  1.00 20.00     0.009 C 
HETATM    8  C8  UNL     1     -34.247  16.742  -4.381  1.00 20.00     0.009 C 
HETATM    9  C9  UNL     1     -35.018  15.945  -3.281  1.00 20.00    -0.040 C 
HETATM   10  O10 UNL     1     -38.358  13.899  -4.459  1.00 20.00    -0.298 OA
ENDROOT
TORSDOF 0
ENDMDL
MODEL 4
REMARK VINA RESULT:      -4.5     10.811     12.740
REMARK  0 active torsions:
REMARK  status: ('A' for Active; 'I' for Inactive)
ROOT
HETATM    1  C1  UNL     1     -41.611   8.725  -0.045  1.00 20.00     0.127 C 
HETATM    2  C2  UNL     1     -41.235   7.581   0.871  1.00 20.00     0.079 C 
HETATM    3  C3  UNL     1     -41.950   8.361  -1.473  1.00 20.00     0.079 C 
HETATM    4  C4  UNL     1     -42.281   6.476   0.798  1.00 20.00     0.017 C 
HETATM    5  C5  UNL     1     -42.971   7.230  -1.513  1.00 20.00     0.017 C 
HETATM    6  C6  UNL     1     -42.458   4.257  -1.869  1.00 20.00     0.002 C 
HETATM    7  C7  UNL     1     -43.417   4.787  -0.787  1.00 20.00     0.009 C 
HETATM    8  C8  UNL     1     -41.367   5.163  -1.272  1.00 20.00     0.009 C 
HETATM    9  C9  UNL     1     -42.501   6.043  -0.657  1.00 20.00    -0.040 C 
HETATM   10  O10 UNL     1     -41.544   9.896   0.325  1.00 20.00    -0.298 OA
ENDROOT
TORSDOF 0
ENDMDL
MODEL 5
REMARK VINA RESULT:      -4.2      1.831      2.646
REMARK  0 active torsions:
REMARK  status: ('A' for Active; 'I' for Inactive)
ROOT
HETATM    1  C1  UNL     1     -37.570  15.587  -4.959  1.00 20.00     0.127 C 
HETATM    2  C2  UNL     1     -37.082  14.410  -4.143  1.00 20.00     0.079 C 
HETATM    3  C3  UNL     1     -36.863  16.903  -4.733  1.00 20.00     0.079 C 
HETATM    4  C4  UNL     1     -35.570  14.272  -4.263  1.00 20.00     0.017 C 
HETATM    5  C5  UNL     1     -35.352  16.726  -4.825  1.00 20.00     0.017 C 
HETATM    6  C6  UNL     1     -33.370  16.347  -2.553  1.00 20.00     0.002 C 
HETATM    7  C7  UNL     1     -33.328  15.468  -3.817  1.00 20.00     0.009 C 
HETATM    8  C8  UNL     1     -34.841  15.927  -2.374  1.00 20.00     0.009 C 
HETATM    9  C9  UNL     1     -34.881  15.593  -3.899  1.00 20.00    -0.040 C 
HETATM   10  O10 UNL     1     -38.557  15.500  -5.689  1.00 20.00    -0.298 OA
ENDROOT
TORSDOF 0
ENDMDL
MODEL 6
REMARK VINA RESULT:      -4.2      1.229      1.307
REMARK  0 active torsions:
REMARK  status: ('A' for Active; 'I' for Inactive)
ROOT
HETATM    1  C1  UNL     1     -35.391  14.801  -5.687  1.00 20.00     0.127 C 
HETATM    2  C2  UNL     1     -36.160  15.994  -5.163  1.00 20.00     0.079 C 
HETATM    3  C3  UNL     1     -33.916  14.754  -5.360  1.00 20.00     0.079 C 
HETATM    4  C4  UNL     1     -35.900  16.180  -3.673  1.00 20.00     0.017 C 
HETATM    5  C5  UNL     1     -33.686  14.978  -3.870  1.00 20.00     0.017 C 
HETATM    6  C6  UNL     1     -32.956  17.566  -2.457  1.00 20.00     0.002 C 
HETATM    7  C7  UNL     1     -34.062  16.638  -1.922  1.00 20.00     0.009 C 
HETATM    8  C8  UNL     1     -33.710  17.604  -3.799  1.00 20.00     0.009 C 
HETATM    9  C9  UNL     1     -34.393  16.258  -3.398  1.00 20.00    -0.040 C 
HETATM   10  O10 UNL     1     -35.916  13.970  -6.427  1.00 20.00    -0.298 OA
ENDROOT
TORSDOF 0
ENDMDL
MODEL 7
REMARK VINA RESULT:      -4.2      2.526      4.121
REMARK  0 active torsions:
REMARK  status: ('A' for Active; 'I' for Inactive)
ROOT
HETATM    1  C1  UNL     1     -33.488  17.743  -1.750  1.00 20.00     0.127 C 
HETATM    2  C2  UNL     1     -32.853  17.410  -3.083  1.00 20.00     0.079 C 
HETATM    3  C3  UNL     1     -34.931  17.329  -1.570  1.00 20.00     0.079 C 
HETATM    4  C4  UNL     1     -33.072  15.942  -3.424  1.00 20.00     0.017 C 
HETATM    5  C5  UNL     1     -35.124  15.866  -1.953  1.00 20.00     0.017 C 
HETATM    6  C6  UNL     1     -36.113  14.737  -4.594  1.00 20.00     0.002 C 
HETATM    7  C7  UNL     1     -34.878  14.157  -3.879  1.00 20.00     0.009 C 
HETATM    8  C8  UNL     1     -35.426  16.114  -4.551  1.00 20.00     0.009 C 
HETATM    9  C9  UNL     1     -34.563  15.593  -3.357  1.00 20.00    -0.040 C 
HETATM   10  O10 UNL     1     -32.894  18.405  -0.900  1.00 20.00    -0.298 OA
ENDROOT
TORSDOF 0
ENDMDL
MODEL 8
REMARK VINA RESULT:      -4.2     16.780     17.940
REMARK  0 active torsions:
REMARK  status: ('A' for Active; 'I' for Inactive)
ROOT
HETATM    1  C1  UNL     1     -25.397  18.517  11.239  1.00 20.00     0.127 C 
HETATM    2  C2  UNL     1     -25.354  18.835   9.760  1.00 20.00     0.079 C 
HETATM    3  C3  UNL     1     -24.342  17.565  11.755  1.00 20.00     0.079 C 
HETATM    4  C4  UNL     1     -23.951  19.263   9.350  1.00 20.00     0.017 C 
HETATM    5  C5  UNL     1     -22.954  18.000  11.298  1.00 20.00     0.017 C 
HETATM    6  C6  UNL     1     -21.363  16.986   8.917  1.00 20.00     0.002 C 
HETATM    7  C7  UNL     1     -21.493  18.491   9.221  1.00 20.00     0.009 C 
HETATM    8  C8  UNL     1     -22.901  16.909   8.909  1.00 20.00     0.009 C 
HETATM    9  C9  UNL     1     -22.923  18.208   9.776  1.00 20.00    -0.040 C 
HETATM   10  O10 UNL     1     -26.305  18.929  11.961  1.00 20.00    -0.298 OA
ENDROOT
TORSDOF 0
ENDMDL
MODEL 9
REMARK VINA RESULT:      -4.2      2.409      3.790
REMARK  0 active torsions:
REMARK  status: ('A' for Active; 'I' for Inactive)
ROOT
HETATM    1  C1  UNL     1     -34.332  17.415  -1.285  1.00 20.00     0.127 C 
HETATM    2  C2  UNL     1     -33.208  17.783  -2.229  1.00 20.00     0.079 C 
HETATM    3  C3  UNL     1     -35.472  16.614  -1.873  1.00 20.00     0.079 C 
HETATM    4  C4  UNL     1     -32.714  16.548  -2.972  1.00 20.00     0.017 C 
HETATM    5  C5  UNL     1     -34.943  15.407  -2.639  1.00 20.00     0.017 C 
HETATM    6  C6  UNL     1     -34.463  15.150  -5.628  1.00 20.00     0.002 C 
HETATM    7  C7  UNL     1     -33.421  14.674  -4.599  1.00 20.00     0.009 C 
HETATM    8  C8  UNL     1     -34.420  16.534  -4.955  1.00 20.00     0.009 C 
HETATM    9  C9  UNL     1     -33.882  15.836  -3.665  1.00 20.00    -0.040 C 
HETATM   10  O10 UNL     1     -34.366  17.833  -0.128  1.00 20.00    -0.298 OA
ENDROOT
TORSDOF 0
ENDMDL
