MODEL 1
REMARK VINA RESULT:      -4.5      0.000      0.000
REMARK  1 active torsions:
REMARK  status: ('A' for Active; 'I' for Inactive)
REMARK    1  A    between atoms: C6_6  and  O8_8 
ROOT
HETATM    1  C1  UNL     1     -22.001  17.535   7.990  1.00 20.00     0.064 C 
HETATM    2  C2  UNL     1     -24.047  18.260   9.189  1.00 20.00     0.022 C 
HETATM    3  C3  UNL     1     -24.303  17.230  10.278  1.00 20.00     0.033 C 
HETATM    4  C4  UNL     1     -21.988  17.849  10.450  1.00 20.00     0.051 C 
HETATM    5  C5  UNL     1     -22.518  18.356   9.098  1.00 20.00     0.095 C 
HETATM    6  C6  UNL     1     -23.223  17.548  11.298  1.00 20.00     0.119 C 
HETATM    7  N7  UNL     1     -21.593  16.889   7.117  1.00 20.00    -0.197 NA
ENDROOT
BRANCH   6   8
HETATM    8  O8  UNL     1     -22.987  16.459  12.169  1.00 20.00    -0.396 OA
HETATM    9  H17 UNL     1     -22.823  16.835  13.048  1.00 20.00     0.210 HD
ENDBRANCH   6   8
TORSDOF 1
ENDMDL
MODEL 2
REMARK VINA RESULT:      -4.4      1.833      2.475
REMARK  1 active torsions:
REMARK  status: ('A' for Active; 'I' for Inactive)
REMARK    1  A    between atoms: C6_6  and  O8_8 
ROOT
HETATM    1  C1  UNL     1     -22.709  18.376   9.461  1.00 20.00     0.064 C 
HETATM    2  C2  UNL     1     -22.671  17.748  11.860  1.00 20.00     0.022 C 
HETATM    3  C3  UNL     1     -24.116  17.740  12.332  1.00 20.00     0.033 C 
HETATM    4  C4  UNL     1     -24.051  16.466  10.297  1.00 20.00     0.051 C 
HETATM    5  C5  UNL     1     -22.733  17.251  10.410  1.00 20.00     0.095 C 
HETATM    6  C6  UNL     1     -24.667  16.476  11.695  1.00 20.00     0.119 C 
HETATM    7  N7  UNL     1     -22.689  19.263   8.713  1.00 20.00    -0.197 NA
ENDROOT
BRANCH   6   8
HETATM    8  O8  UNL     1     -26.079  16.495  11.628  1.00 20.00    -0.396 OA
HETATM    9  H17 UNL     1     -26.316  17.083  10.893  1.00 20.00     0.210 HD
ENDBRANCH   6   8
TORSDOF 1
ENDMDL
MODEL 3
REMARK VINA RESULT:      -4.3     23.050     23.847
REMARK  1 active torsions:
REMARK  status: ('A' for Active; 'I' for Inactive)
REMARK    1  A    between atoms: C6_6  and  O8_8 
ROOT
HETATM    1  C1  UNL     1     -41.826   9.144   0.061  1.00 20.00     0.064 C 
HETATM    2  C2  UNL     1     -41.596   7.156  -1.403  1.00 20.00     0.022 C 
HETATM    3  C3  UNL     1     -41.052   6.034  -0.532  1.00 20.00     0.033 C 
HETATM    4  C4  UNL     1     -42.904   6.993   0.660  1.00 20.00     0.051 C 
HETATM    5  C5  UNL     1     -42.515   7.957  -0.473  1.00 20.00     0.095 C 
HETATM    6  C6  UNL     1     -42.258   5.653   0.310  1.00 20.00     0.119 C 
HETATM    7  N7  UNL     1     -41.283  10.079   0.481  1.00 20.00    -0.197 NA
ENDROOT
BRANCH   6   8
HETATM    8  O8  UNL     1     -41.880   4.951   1.479  1.00 20.00    -0.396 OA
HETATM    9  H17 UNL     1     -42.007   4.008   1.291  1.00 20.00     0.210 HD
ENDBRANCH   6   8
TORSDOF 1
ENDMDL
MODEL 4
REMARK VINA RESULT:      -4.3     18.675     19.471
REMARK  1 active torsions:
REMARK  status: ('A' for Active; 'I' for Inactive)
REMARK    1  A    between atoms: C6_6  and  O8_8 
ROOT
HETATM    1  C1  UNL     1     -37.131  14.645  -4.286  1.00 20.00     0.064 C 
HETATM    2  C2  UNL     1     -34.948  15.095  -3.200  1.00 20.00     0.022 C 
HETATM    3  C3  UNL     1     -33.891  14.391  -4.036  1.00 20.00     0.033 C 
HETATM    4  C4  UNL     1     -35.256  15.641  -5.566  1.00 20.00     0.051 C 
HETATM    5  C5  UNL     1     -35.991  15.574  -4.217  1.00 20.00     0.095 C 
HETATM    6  C6  UNL     1     -33.804  15.270  -5.271  1.00 20.00     0.119 C 
HETATM    7  N7  UNL     1     -38.029  13.912  -4.340  1.00 20.00    -0.197 NA
ENDROOT
BRANCH   6   8
HETATM    8  O8  UNL     1     -33.223  14.584  -6.363  1.00 20.00    -0.396 OA
HETATM    9  H17 UNL     1     -33.670  13.725  -6.423  1.00 20.00     0.210 HD
ENDBRANCH   6   8
TORSDOF 1
ENDMDL
MODEL 5
REMARK VINA RESULT:      -4.1     16.041     16.736
REMARK  1 active torsions:
REMARK  status: ('A' for Active; 'I' for Inactive)
REMARK    1  A    between atoms: C6_6  and  O8_8 
ROOT
HETATM    1  C1  UNL     1     -32.727   7.569   1.797  1.00 20.00     0.064 C 
HETATM    2  C2  UNL     1     -32.598   7.157   4.238  1.00 20.00     0.022 C 
HETATM    3  C3  UNL     1     -34.017   6.887   4.711  1.00 20.00     0.033 C 
HETATM    4  C4  UNL     1     -33.658   5.495   2.787  1.00 20.00     0.051 C 
HETATM    5  C5  UNL     1     -32.533   6.543   2.834  1.00 20.00     0.095 C 
HETATM    6  C6  UNL     1     -34.284   5.489   4.180  1.00 20.00     0.119 C 
HETATM    7  N7  UNL     1     -32.880   8.378   0.979  1.00 20.00    -0.197 NA
ENDROOT
BRANCH   6   8
HETATM    8  O8  UNL     1     -35.669   5.209   4.113  1.00 20.00    -0.396 OA
HETATM    9  H17 UNL     1     -35.956   5.432   3.214  1.00 20.00     0.210 HD
ENDBRANCH   6   8
TORSDOF 1
ENDMDL
MODEL 6
REMARK VINA RESULT:      -4.0     16.359     17.124
REMARK  1 active torsions:
REMARK  status: ('A' for Active; 'I' for Inactive)
REMARK    1  A    between atoms: C6_6  and  O8_8 
ROOT
HETATM    1  C1  UNL     1     -33.649   4.842   2.817  1.00 20.00     0.064 C 
HETATM    2  C2  UNL     1     -35.256   4.937   4.703  1.00 20.00     0.022 C 
HETATM    3  C3  UNL     1     -34.449   5.272   5.948  1.00 20.00     0.033 C 
HETATM    4  C4  UNL     1     -33.798   6.853   4.261  1.00 20.00     0.051 C 
HETATM    5  C5  UNL     1     -34.566   5.711   3.574  1.00 20.00     0.095 C 
HETATM    6  C6  UNL     1     -34.127   6.743   5.749  1.00 20.00     0.119 C 
HETATM    7  N7  UNL     1     -32.926   4.157   2.221  1.00 20.00    -0.197 NA
ENDROOT
BRANCH   6   8
HETATM    8  O8  UNL     1     -33.030   7.151   6.543  1.00 20.00    -0.396 OA
HETATM    9  H17 UNL     1     -32.616   6.343   6.883  1.00 20.00     0.210 HD
ENDBRANCH   6   8
TORSDOF 1
ENDMDL
MODEL 7
REMARK VINA RESULT:      -4.0     23.205     23.936
REMARK  1 active torsions:
REMARK  status: ('A' for Active; 'I' for Inactive)
REMARK    1  A    between atoms: C6_6  and  O8_8 
ROOT
HETATM    1  C1  UNL     1     -42.387   5.442   0.741  1.00 20.00     0.064 C 
HETATM    2  C2  UNL     1     -41.304   6.492  -1.227  1.00 20.00     0.022 C 
HETATM    3  C3  UNL     1     -41.932   7.867  -1.389  1.00 20.00     0.033 C 
HETATM    4  C4  UNL     1     -41.305   7.666   0.921  1.00 20.00     0.051 C 
HETATM    5  C5  UNL     1     -41.253   6.265   0.289  1.00 20.00     0.095 C 
HETATM    6  C6  UNL     1     -41.312   8.652  -0.245  1.00 20.00     0.119 C 
HETATM    7  N7  UNL     1     -43.280   4.794   1.098  1.00 20.00    -0.197 NA
ENDROOT
BRANCH   6   8
HETATM    8  O8  UNL     1     -42.068   9.805   0.069  1.00 20.00    -0.396 OA
HETATM    9  H17 UNL     1     -42.484   9.640   0.930  1.00 20.00     0.210 HD
ENDBRANCH   6   8
TORSDOF 1
ENDMDL
MODEL 8
REMARK VINA RESULT:      -4.0     17.957     18.770
REMARK  1 active torsions:
REMARK  status: ('A' for Active; 'I' for Inactive)
REMARK    1  A    between atoms: C6_6  and  O8_8 
ROOT
HETATM    1  C1  UNL     1     -35.851  13.912  -4.200  1.00 20.00     0.064 C 
HETATM    2  C2  UNL     1     -34.725  15.510  -2.675  1.00 20.00     0.022 C 
HETATM    3  C3  UNL     1     -33.611  16.167  -3.475  1.00 20.00     0.033 C 
HETATM    4  C4  UNL     1     -35.595  16.299  -4.823  1.00 20.00     0.051 C 
HETATM    5  C5  UNL     1     -35.855  15.293  -3.689  1.00 20.00     0.095 C 
HETATM    6  C6  UNL     1     -34.372  17.107  -4.394  1.00 20.00     0.119 C 
HETATM    7  N7  UNL     1     -35.848  12.824  -4.602  1.00 20.00    -0.197 NA
ENDROOT
BRANCH   6   8
HETATM    8  O8  UNL     1     -33.597  17.488  -5.514  1.00 20.00    -0.396 OA
HETATM    9  H17 UNL     1     -33.785  16.845  -6.216  1.00 20.00     0.210 HD
ENDBRANCH   6   8
TORSDOF 1
ENDMDL
MODEL 9
REMARK VINA RESULT:      -4.0      2.324      2.782
REMARK  1 active torsions:
REMARK  status: ('A' for Active; 'I' for Inactive)
REMARK    1  A    between atoms: C6_6  and  O8_8 
ROOT
HETATM    1  C1  UNL     1     -25.296  18.990   7.933  1.00 20.00     0.064 C 
HETATM    2  C2  UNL     1     -24.733  18.301  10.248  1.00 20.00     0.022 C 
HETATM    3  C3  UNL     1     -24.043  16.949  10.145  1.00 20.00     0.033 C 
HETATM    4  C4  UNL     1     -22.970  18.390   8.550  1.00 20.00     0.051 C 
HETATM    5  C5  UNL     1     -24.280  19.063   8.996  1.00 20.00     0.095 C 
HETATM    6  C6  UNL     1     -22.676  17.315   9.594  1.00 20.00     0.119 C 
HETATM    7  N7  UNL     1     -26.097  18.933   7.096  1.00 20.00    -0.197 NA
ENDROOT
BRANCH   6   8
HETATM    8  O8  UNL     1     -22.032  16.200   9.008  1.00 20.00    -0.396 OA
HETATM    9  H17 UNL     1     -21.646  16.509   8.173  1.00 20.00     0.210 HD
ENDBRANCH   6   8
TORSDOF 1
ENDMDL
