MODEL 1
REMARK VINA RESULT:      -4.8      0.000      0.000
REMARK  1 active torsions:
REMARK  status: ('A' for Active; 'I' for Inactive)
REMARK    1  A    between atoms: C7_7  and  C10_10 
ROOT
HETATM    1  C1  UNL     1     -35.899  14.778  -5.867  1.00 20.00     0.127 C 
HETATM    2  C2  UNL     1     -35.981  14.016  -4.562  1.00 20.00     0.078 C 
HETATM    3  C3  UNL     1     -35.437  16.226  -5.846  1.00 20.00     0.079 C 
HETATM    4  C4  UNL     1     -34.617  13.688  -3.968  1.00 20.00     0.008 C 
HETATM    5  C5  UNL     1     -35.069  16.757  -4.463  1.00 20.00     0.012 C 
HETATM    6  C6  UNL     1     -33.497  14.694  -4.238  1.00 20.00     0.005 C 
HETATM    7  C7  UNL     1     -33.781  16.158  -3.866  1.00 20.00    -0.011 C 
HETATM    8  O11 UNL     1     -36.205  14.238  -6.932  1.00 20.00    -0.298 OA
ENDROOT
BRANCH   7   9
HETATM    9  C10 UNL     1     -33.768  16.359  -2.348  1.00 20.00    -0.019 C 
HETATM   10  C8  UNL     1     -32.893  17.551  -1.979  1.00 20.00     0.010 C 
HETATM   11  C9  UNL     1     -35.189  16.546  -1.825  1.00 20.00     0.010 C 
ENDBRANCH   7   9
TORSDOF 1
ENDMDL
MODEL 2
REMARK VINA RESULT:      -4.8      1.364      2.357
REMARK  1 active torsions:
REMARK  status: ('A' for Active; 'I' for Inactive)
REMARK    1  A    between atoms: C7_7  and  C10_10 
ROOT
HETATM    1  C1  UNL     1     -35.358  14.041  -4.387  1.00 20.00     0.127 C 
HETATM    2  C2  UNL     1     -36.116  15.345  -4.509  1.00 20.00     0.078 C 
HETATM    3  C3  UNL     1     -33.871  14.081  -4.070  1.00 20.00     0.079 C 
HETATM    4  C4  UNL     1     -36.307  16.059  -3.177  1.00 20.00     0.008 C 
HETATM    5  C5  UNL     1     -33.299  15.482  -3.877  1.00 20.00     0.012 C 
HETATM    6  C6  UNL     1     -35.198  15.872  -2.140  1.00 20.00     0.005 C 
HETATM    7  C7  UNL     1     -33.767  16.197  -2.594  1.00 20.00    -0.011 C 
HETATM    8  O11 UNL     1     -35.931  12.961  -4.546  1.00 20.00    -0.298 OA
ENDROOT
BRANCH   7   9
HETATM    9  C10 UNL     1     -33.557  17.707  -2.733  1.00 20.00    -0.019 C 
HETATM   10  C8  UNL     1     -32.420  18.169  -1.829  1.00 20.00     0.010 C 
HETATM   11  C9  UNL     1     -33.276  18.073  -4.187  1.00 20.00     0.010 C 
ENDBRANCH   7   9
TORSDOF 1
ENDMDL
MODEL 3
REMARK VINA RESULT:      -4.7      1.314      2.450
REMARK  1 active torsions:
REMARK  status: ('A' for Active; 'I' for Inactive)
REMARK    1  A    between atoms: C7_7  and  C10_10 
ROOT
HETATM    1  C1  UNL     1     -34.319  15.273  -5.508  1.00 20.00     0.127 C 
HETATM    2  C2  UNL     1     -35.057  16.589  -5.397  1.00 20.00     0.078 C 
HETATM    3  C3  UNL     1     -33.322  14.896  -4.423  1.00 20.00     0.079 C 
HETATM    4  C4  UNL     1     -36.095  16.607  -4.282  1.00 20.00     0.008 C 
HETATM    5  C5  UNL     1     -33.197  15.912  -3.292  1.00 20.00     0.012 C 
HETATM    6  C6  UNL     1     -35.784  15.759  -3.049  1.00 20.00     0.005 C 
HETATM    7  C7  UNL     1     -34.427  16.002  -2.369  1.00 20.00    -0.011 C 
HETATM    8  O11 UNL     1     -34.515  14.518  -6.462  1.00 20.00    -0.298 OA
ENDROOT
BRANCH   7   9
HETATM    9  C10 UNL     1     -34.414  17.334  -1.613  1.00 20.00    -0.019 C 
HETATM   10  C8  UNL     1     -35.171  17.202  -0.296  1.00 20.00     0.010 C 
HETATM   11  C9  UNL     1     -32.980  17.794  -1.372  1.00 20.00     0.010 C 
ENDBRANCH   7   9
TORSDOF 1
ENDMDL
MODEL 4
REMARK VINA RESULT:      -4.6      1.488      2.486
REMARK  1 active torsions:
REMARK  status: ('A' for Active; 'I' for Inactive)
REMARK    1  A    between atoms: C7_7  and  C10_10 
ROOT
HETATM    1  C1  UNL     1     -36.807  14.515  -4.310  1.00 20.00     0.127 C 
HETATM    2  C2  UNL     1     -36.821  16.026  -4.388  1.00 20.00     0.078 C 
HETATM    3  C3  UNL     1     -35.471  13.794  -4.230  1.00 20.00     0.079 C 
HETATM    4  C4  UNL     1     -36.409  16.701  -3.085  1.00 20.00     0.008 C 
HETATM    5  C5  UNL     1     -34.253  14.713  -4.209  1.00 20.00     0.012 C 
HETATM    6  C6  UNL     1     -35.390  15.954  -2.224  1.00 20.00     0.005 C 
HETATM    7  C7  UNL     1     -34.084  15.529  -2.913  1.00 20.00    -0.011 C 
HETATM    8  O11 UNL     1     -37.860  13.874  -4.315  1.00 20.00    -0.298 OA
ENDROOT
BRANCH   7   9
HETATM    9  C10 UNL     1     -33.174  16.733  -3.170  1.00 20.00    -0.019 C 
HETATM   10  C8  UNL     1     -33.677  17.532  -4.368  1.00 20.00     0.010 C 
HETATM   11  C9  UNL     1     -33.093  17.613  -1.927  1.00 20.00     0.010 C 
ENDBRANCH   7   9
TORSDOF 1
ENDMDL
MODEL 5
REMARK VINA RESULT:      -4.4      1.424      2.336
REMARK  1 active torsions:
REMARK  status: ('A' for Active; 'I' for Inactive)
REMARK    1  A    between atoms: C7_7  and  C10_10 
ROOT
HETATM    1  C1  UNL     1     -35.379  13.976  -4.385  1.00 20.00     0.127 C 
HETATM    2  C2  UNL     1     -36.084  15.305  -4.548  1.00 20.00     0.078 C 
HETATM    3  C3  UNL     1     -33.887  13.966  -4.093  1.00 20.00     0.079 C 
HETATM    4  C4  UNL     1     -36.221  16.080  -3.243  1.00 20.00     0.008 C 
HETATM    5  C5  UNL     1     -33.254  15.348  -3.965  1.00 20.00     0.012 C 
HETATM    6  C6  UNL     1     -35.104  15.887  -2.217  1.00 20.00     0.005 C 
HETATM    7  C7  UNL     1     -33.668  16.133  -2.706  1.00 20.00    -0.011 C 
HETATM    8  O11 UNL     1     -36.000  12.916  -4.491  1.00 20.00    -0.298 OA
ENDROOT
BRANCH   7   9
HETATM    9  C10 UNL     1     -33.397  17.626  -2.910  1.00 20.00    -0.019 C 
HETATM   10  C8  UNL     1     -33.694  18.026  -4.351  1.00 20.00     0.010 C 
HETATM   11  C9  UNL     1     -34.228  18.454  -1.934  1.00 20.00     0.010 C 
ENDBRANCH   7   9
TORSDOF 1
ENDMDL
MODEL 6
REMARK VINA RESULT:      -4.4      1.193      1.641
REMARK  1 active torsions:
REMARK  status: ('A' for Active; 'I' for Inactive)
REMARK    1  A    between atoms: C7_7  and  C10_10 
ROOT
HETATM    1  C1  UNL     1     -35.817  13.983  -4.418  1.00 20.00     0.127 C 
HETATM    2  C2  UNL     1     -34.434  13.650  -3.902  1.00 20.00     0.078 C 
HETATM    3  C3  UNL     1     -36.563  15.163  -3.813  1.00 20.00     0.079 C 
HETATM    4  C4  UNL     1     -33.376  14.669  -4.307  1.00 20.00     0.008 C 
HETATM    5  C5  UNL     1     -35.791  15.919  -2.735  1.00 20.00     0.012 C 
HETATM    6  C6  UNL     1     -33.847  16.117  -4.454  1.00 20.00     0.005 C 
HETATM    7  C7  UNL     1     -34.586  16.727  -3.253  1.00 20.00    -0.011 C 
HETATM    8  O11 UNL     1     -36.336  13.310  -5.311  1.00 20.00    -0.298 OA
ENDROOT
BRANCH   7   9
HETATM    9  C10 UNL     1     -33.624  17.024  -2.100  1.00 20.00    -0.019 C 
HETATM   10  C8  UNL     1     -32.639  18.117  -2.501  1.00 20.00     0.010 C 
HETATM   11  C9  UNL     1     -34.400  17.424  -0.850  1.00 20.00     0.010 C 
ENDBRANCH   7   9
TORSDOF 1
ENDMDL
MODEL 7
REMARK VINA RESULT:      -4.2      1.560      2.248
REMARK  1 active torsions:
REMARK  status: ('A' for Active; 'I' for Inactive)
REMARK    1  A    between atoms: C7_7  and  C10_10 
ROOT
HETATM    1  C1  UNL     1     -35.790  14.023  -4.649  1.00 20.00     0.127 C 
HETATM    2  C2  UNL     1     -36.189  14.922  -3.499  1.00 20.00     0.078 C 
HETATM    3  C3  UNL     1     -35.128  14.642  -5.870  1.00 20.00     0.079 C 
HETATM    4  C4  UNL     1     -35.000  15.465  -2.716  1.00 20.00     0.008 C 
HETATM    5  C5  UNL     1     -34.908  16.149  -5.781  1.00 20.00     0.012 C 
HETATM    6  C6  UNL     1     -33.715  15.705  -3.510  1.00 20.00     0.005 C 
HETATM    7  C7  UNL     1     -33.834  16.584  -4.765  1.00 20.00    -0.011 C 
HETATM    8  O11 UNL     1     -36.000  12.809  -4.603  1.00 20.00    -0.298 OA
ENDROOT
BRANCH   7   9
HETATM    9  C10 UNL     1     -34.032  18.057  -4.396  1.00 20.00    -0.019 C 
HETATM   10  C8  UNL     1     -32.918  18.524  -3.467  1.00 20.00     0.010 C 
HETATM   11  C9  UNL     1     -34.086  18.917  -5.655  1.00 20.00     0.010 C 
ENDBRANCH   7   9
TORSDOF 1
ENDMDL
MODEL 8
REMARK VINA RESULT:      -4.1      2.899      4.687
REMARK  1 active torsions:
REMARK  status: ('A' for Active; 'I' for Inactive)
REMARK    1  A    between atoms: C7_7  and  C10_10 
ROOT
HETATM    1  C1  UNL     1     -34.501  18.483  -1.021  1.00 20.00     0.127 C 
HETATM    2  C2  UNL     1     -34.302  18.863  -2.472  1.00 20.00     0.078 C 
HETATM    3  C3  UNL     1     -35.092  17.121  -0.692  1.00 20.00     0.079 C 
HETATM    4  C4  UNL     1     -33.179  18.088  -3.151  1.00 20.00     0.008 C 
HETATM    5  C5  UNL     1     -35.403  16.252  -1.907  1.00 20.00     0.012 C 
HETATM    6  C6  UNL     1     -32.945  16.659  -2.660  1.00 20.00     0.005 C 
HETATM    7  C7  UNL     1     -34.164  15.723  -2.654  1.00 20.00    -0.011 C 
HETATM    8  O11 UNL     1     -34.193  19.263  -0.117  1.00 20.00    -0.298 OA
ENDROOT
BRANCH   7   9
HETATM    9  C10 UNL     1     -34.551  15.306  -4.075  1.00 20.00    -0.019 C 
HETATM   10  C8  UNL     1     -33.354  14.693  -4.793  1.00 20.00     0.010 C 
HETATM   11  C9  UNL     1     -35.722  14.329  -4.041  1.00 20.00     0.010 C 
ENDBRANCH   7   9
TORSDOF 1
ENDMDL
MODEL 9
REMARK VINA RESULT:      -4.1      2.379      4.356
REMARK  1 active torsions:
REMARK  status: ('A' for Active; 'I' for Inactive)
REMARK    1  A    between atoms: C7_7  and  C10_10 
ROOT
HETATM    1  C1  UNL     1     -33.797  16.969  -1.876  1.00 20.00     0.127 C 
HETATM    2  C2  UNL     1     -35.224  16.512  -1.665  1.00 20.00     0.078 C 
HETATM    3  C3  UNL     1     -33.011  16.406  -3.051  1.00 20.00     0.079 C 
HETATM    4  C4  UNL     1     -36.191  17.049  -2.713  1.00 20.00     0.008 C 
HETATM    5  C5  UNL     1     -33.789  15.431  -3.929  1.00 20.00     0.012 C 
HETATM    6  C6  UNL     1     -35.622  17.270  -4.115  1.00 20.00     0.005 C 
HETATM    7  C7  UNL     1     -34.911  16.073  -4.767  1.00 20.00    -0.011 C 
HETATM    8  O11 UNL     1     -33.274  17.780  -1.110  1.00 20.00    -0.298 OA
ENDROOT
BRANCH   7   9
HETATM    9  C10 UNL     1     -35.913  15.002  -5.205  1.00 20.00    -0.019 C 
HETATM   10  C8  UNL     1     -35.709  14.656  -6.676  1.00 20.00     0.010 C 
HETATM   11  C9  UNL     1     -35.777  13.759  -4.331  1.00 20.00     0.010 C 
ENDBRANCH   7   9
TORSDOF 1
ENDMDL
