MODEL 1
REMARK VINA RESULT:      -5.1      0.000      0.000
REMARK  1 active torsions:
REMARK  status: ('A' for Active; 'I' for Inactive)
REMARK    1  A    between atoms: C7_7  and  C10_10 
ROOT
HETATM    1  C1  UNL     1     -35.248  14.772  -5.694  1.00 20.00     0.127 C 
HETATM    2  C2  UNL     1     -33.742  14.775  -5.820  1.00 20.00     0.078 C 
HETATM    3  C3  UNL     1     -35.885  15.719  -4.701  1.00 20.00     0.079 C 
HETATM    4  C4  UNL     1     -33.014  14.535  -4.502  1.00 20.00     0.008 C 
HETATM    5  C5  UNL     1     -35.665  15.228  -3.278  1.00 20.00     0.012 C 
HETATM    6  C6  UNL     1     -33.121  15.721  -3.543  1.00 20.00     0.005 C 
HETATM    7  C7  UNL     1     -34.355  15.705  -2.624  1.00 20.00    -0.011 C 
HETATM    8  O11 UNL     1     -35.941  14.048  -6.411  1.00 20.00    -0.298 OA
ENDROOT
BRANCH   7   9
HETATM    9  C10 UNL     1     -34.537  17.088  -1.987  1.00 20.00    -0.019 C 
HETATM   10  C8  UNL     1     -35.334  16.975  -0.692  1.00 20.00     0.010 C 
HETATM   11  C9  UNL     1     -33.181  17.737  -1.735  1.00 20.00     0.010 C 
ENDBRANCH   7   9
TORSDOF 1
ENDMDL
MODEL 2
REMARK VINA RESULT:      -4.9      1.348      1.804
REMARK  1 active torsions:
REMARK  status: ('A' for Active; 'I' for Inactive)
REMARK    1  A    between atoms: C7_7  and  C10_10 
ROOT
HETATM    1  C1  UNL     1     -36.208  14.705  -4.095  1.00 20.00     0.127 C 
HETATM    2  C2  UNL     1     -35.029  14.314  -4.956  1.00 20.00     0.078 C 
HETATM    3  C3  UNL     1     -36.142  16.019  -3.347  1.00 20.00     0.079 C 
HETATM    4  C4  UNL     1     -33.701  14.293  -4.208  1.00 20.00     0.008 C 
HETATM    5  C5  UNL     1     -35.187  15.915  -2.167  1.00 20.00     0.012 C 
HETATM    6  C6  UNL     1     -33.205  15.693  -3.843  1.00 20.00     0.005 C 
HETATM    7  C7  UNL     1     -33.717  16.232  -2.496  1.00 20.00    -0.011 C 
HETATM    8  O11 UNL     1     -37.213  13.994  -4.037  1.00 20.00    -0.298 OA
ENDROOT
BRANCH   7   9
HETATM    9  C10 UNL     1     -33.455  17.741  -2.417  1.00 20.00    -0.019 C 
HETATM   10  C8  UNL     1     -32.320  18.031  -1.440  1.00 20.00     0.010 C 
HETATM   11  C9  UNL     1     -33.136  18.297  -3.800  1.00 20.00     0.010 C 
ENDBRANCH   7   9
TORSDOF 1
ENDMDL
MODEL 3
REMARK VINA RESULT:      -4.6      1.303      2.608
REMARK  1 active torsions:
REMARK  status: ('A' for Active; 'I' for Inactive)
REMARK    1  A    between atoms: C7_7  and  C10_10 
ROOT
HETATM    1  C1  UNL     1     -33.857  14.741  -4.504  1.00 20.00     0.127 C 
HETATM    2  C2  UNL     1     -35.107  14.344  -3.754  1.00 20.00     0.078 C 
HETATM    3  C3  UNL     1     -32.825  15.580  -3.782  1.00 20.00     0.079 C 
HETATM    4  C4  UNL     1     -35.876  15.525  -3.172  1.00 20.00     0.008 C 
HETATM    5  C5  UNL     1     -33.312  17.014  -3.634  1.00 20.00     0.012 C 
HETATM    6  C6  UNL     1     -35.153  16.178  -1.993  1.00 20.00     0.005 C 
HETATM    7  C7  UNL     1     -34.154  17.284  -2.375  1.00 20.00    -0.011 C 
HETATM    8  O11 UNL     1     -33.663  14.355  -5.659  1.00 20.00    -0.298 OA
ENDROOT
BRANCH   7   9
HETATM    9  C10 UNL     1     -33.254  17.597  -1.174  1.00 20.00    -0.019 C 
HETATM   10  C8  UNL     1     -32.153  18.573  -1.575  1.00 20.00     0.010 C 
HETATM   11  C9  UNL     1     -34.081  18.154  -0.022  1.00 20.00     0.010 C 
ENDBRANCH   7   9
TORSDOF 1
ENDMDL
MODEL 4
REMARK VINA RESULT:      -4.6     17.131     18.339
REMARK  1 active torsions:
REMARK  status: ('A' for Active; 'I' for Inactive)
REMARK    1  A    between atoms: C7_7  and  C10_10 
ROOT
HETATM    1  C1  UNL     1     -22.717  17.266   9.391  1.00 20.00     0.127 C 
HETATM    2  C2  UNL     1     -21.824  18.059  10.317  1.00 20.00     0.078 C 
HETATM    3  C3  UNL     1     -24.214  17.364   9.585  1.00 20.00     0.079 C 
HETATM    4  C4  UNL     1     -22.064  17.774  11.796  1.00 20.00     0.008 C 
HETATM    5  C5  UNL     1     -24.644  16.591  10.823  1.00 20.00     0.012 C 
HETATM    6  C6  UNL     1     -23.394  18.336  12.298  1.00 20.00     0.005 C 
HETATM    7  C7  UNL     1     -24.600  17.395  12.135  1.00 20.00    -0.011 C 
HETATM    8  O11 UNL     1     -22.240  16.593   8.475  1.00 20.00    -0.298 OA
ENDROOT
BRANCH   7   9
HETATM    9  C10 UNL     1     -25.897  18.188  12.331  1.00 20.00    -0.019 C 
HETATM   10  C8  UNL     1     -26.039  19.251  11.247  1.00 20.00     0.010 C 
HETATM   11  C9  UNL     1     -27.098  17.249  12.331  1.00 20.00     0.010 C 
ENDBRANCH   7   9
TORSDOF 1
ENDMDL
MODEL 5
REMARK VINA RESULT:      -4.5      2.752      4.651
REMARK  1 active torsions:
REMARK  status: ('A' for Active; 'I' for Inactive)
REMARK    1  A    between atoms: C7_7  and  C10_10 
ROOT
HETATM    1  C1  UNL     1     -32.779  18.567  -2.155  1.00 20.00     0.127 C 
HETATM    2  C2  UNL     1     -33.913  18.738  -1.172  1.00 20.00     0.078 C 
HETATM    3  C3  UNL     1     -33.030  17.745  -3.400  1.00 20.00     0.079 C 
HETATM    4  C4  UNL     1     -34.506  17.422  -0.680  1.00 20.00     0.008 C 
HETATM    5  C5  UNL     1     -33.091  16.263  -3.059  1.00 20.00     0.012 C 
HETATM    6  C6  UNL     1     -35.307  16.694  -1.760  1.00 20.00     0.005 C 
HETATM    7  C7  UNL     1     -34.484  15.750  -2.654  1.00 20.00    -0.011 C 
HETATM    8  O11 UNL     1     -31.691  19.117  -1.969  1.00 20.00    -0.298 OA
ENDROOT
BRANCH   7   9
HETATM    9  C10 UNL     1     -35.307  15.373  -3.892  1.00 20.00    -0.019 C 
HETATM   10  C8  UNL     1     -35.327  13.859  -4.075  1.00 20.00     0.010 C 
HETATM   11  C9  UNL     1     -36.723  15.924  -3.776  1.00 20.00     0.010 C 
ENDBRANCH   7   9
TORSDOF 1
ENDMDL
MODEL 6
REMARK VINA RESULT:      -4.5      1.125      2.243
REMARK  1 active torsions:
REMARK  status: ('A' for Active; 'I' for Inactive)
REMARK    1  A    between atoms: C7_7  and  C10_10 
ROOT
HETATM    1  C1  UNL     1     -35.875  14.503  -5.233  1.00 20.00     0.127 C 
HETATM    2  C2  UNL     1     -36.602  15.814  -5.419  1.00 20.00     0.078 C 
HETATM    3  C3  UNL     1     -35.019  14.329  -3.997  1.00 20.00     0.079 C 
HETATM    4  C4  UNL     1     -35.690  17.035  -5.379  1.00 20.00     0.008 C 
HETATM    5  C5  UNL     1     -33.736  15.138  -4.119  1.00 20.00     0.012 C 
HETATM    6  C6  UNL     1     -35.148  17.323  -3.979  1.00 20.00     0.005 C 
HETATM    7  C7  UNL     1     -33.840  16.592  -3.626  1.00 20.00    -0.011 C 
HETATM    8  O11 UNL     1     -36.009  13.584  -6.044  1.00 20.00    -0.298 OA
ENDROOT
BRANCH   7   9
HETATM    9  C10 UNL     1     -33.602  16.673  -2.113  1.00 20.00    -0.019 C 
HETATM   10  C8  UNL     1     -32.645  17.815  -1.787  1.00 20.00     0.010 C 
HETATM   11  C9  UNL     1     -34.925  16.846  -1.377  1.00 20.00     0.010 C 
ENDBRANCH   7   9
TORSDOF 1
ENDMDL
MODEL 7
REMARK VINA RESULT:      -4.4      2.746      4.589
REMARK  1 active torsions:
REMARK  status: ('A' for Active; 'I' for Inactive)
REMARK    1  A    between atoms: C7_7  and  C10_10 
ROOT
HETATM    1  C1  UNL     1     -34.521  18.024  -0.338  1.00 20.00     0.127 C 
HETATM    2  C2  UNL     1     -33.067  18.184  -0.715  1.00 20.00     0.078 C 
HETATM    3  C3  UNL     1     -35.256  16.795  -0.828  1.00 20.00     0.079 C 
HETATM    4  C4  UNL     1     -32.811  18.127  -2.217  1.00 20.00     0.008 C 
HETATM    5  C5  UNL     1     -35.551  16.908  -2.316  1.00 20.00     0.012 C 
HETATM    6  C6  UNL     1     -32.998  16.724  -2.797  1.00 20.00     0.005 C 
HETATM    7  C7  UNL     1     -34.433  16.390  -3.238  1.00 20.00    -0.011 C 
HETATM    8  O11 UNL     1     -35.082  18.850   0.386  1.00 20.00    -0.298 OA
ENDROOT
BRANCH   7   9
HETATM    9  C10 UNL     1     -34.562  14.877  -3.453  1.00 20.00    -0.019 C 
HETATM   10  C8  UNL     1     -35.912  14.543  -4.081  1.00 20.00     0.010 C 
HETATM   11  C9  UNL     1     -33.418  14.365  -4.320  1.00 20.00     0.010 C 
ENDBRANCH   7   9
TORSDOF 1
ENDMDL
MODEL 8
REMARK VINA RESULT:      -4.4      1.477      2.078
REMARK  1 active torsions:
REMARK  status: ('A' for Active; 'I' for Inactive)
REMARK    1  A    between atoms: C7_7  and  C10_10 
ROOT
HETATM    1  C1  UNL     1     -36.581  15.747  -5.913  1.00 20.00     0.127 C 
HETATM    2  C2  UNL     1     -35.958  14.370  -5.939  1.00 20.00     0.078 C 
HETATM    3  C3  UNL     1     -35.972  16.789  -5.000  1.00 20.00     0.079 C 
HETATM    4  C4  UNL     1     -35.866  13.710  -4.567  1.00 20.00     0.008 C 
HETATM    5  C5  UNL     1     -36.319  16.496  -3.548  1.00 20.00     0.012 C 
HETATM    6  C6  UNL     1     -34.823  14.366  -3.663  1.00 20.00     0.005 C 
HETATM    7  C7  UNL     1     -35.340  15.551  -2.828  1.00 20.00    -0.011 C 
HETATM    8  O11 UNL     1     -37.531  16.025  -6.646  1.00 20.00    -0.298 OA
ENDROOT
BRANCH   7   9
HETATM    9  C10 UNL     1     -34.150  16.331  -2.258  1.00 20.00    -0.019 C 
HETATM   10  C8  UNL     1     -33.008  16.372  -3.268  1.00 20.00     0.010 C 
HETATM   11  C9  UNL     1     -34.578  17.740  -1.866  1.00 20.00     0.010 C 
ENDBRANCH   7   9
TORSDOF 1
ENDMDL
MODEL 9
REMARK VINA RESULT:      -4.2      1.973      3.628
REMARK  1 active torsions:
REMARK  status: ('A' for Active; 'I' for Inactive)
REMARK    1  A    between atoms: C7_7  and  C10_10 
ROOT
HETATM    1  C1  UNL     1     -33.204  15.038  -4.189  1.00 20.00     0.127 C 
HETATM    2  C2  UNL     1     -33.387  16.152  -3.184  1.00 20.00     0.078 C 
HETATM    3  C3  UNL     1     -34.349  14.729  -5.129  1.00 20.00     0.079 C 
HETATM    4  C4  UNL     1     -34.613  15.982  -2.293  1.00 20.00     0.008 C 
HETATM    5  C5  UNL     1     -35.469  14.012  -4.389  1.00 20.00     0.012 C 
HETATM    6  C6  UNL     1     -35.926  16.197  -3.046  1.00 20.00     0.005 C 
HETATM    7  C7  UNL     1     -36.500  14.940  -3.722  1.00 20.00    -0.011 C 
HETATM    8  O11 UNL     1     -32.136  14.428  -4.270  1.00 20.00    -0.298 OA
ENDROOT
BRANCH   7   9
HETATM    9  C10 UNL     1     -37.590  15.349  -4.721  1.00 20.00    -0.019 C 
HETATM   10  C8  UNL     1     -38.967  14.966  -4.190  1.00 20.00     0.010 C 
HETATM   11  C9  UNL     1     -37.514  16.844  -5.005  1.00 20.00     0.010 C 
ENDBRANCH   7   9
TORSDOF 1
ENDMDL
