MODEL 1
REMARK VINA RESULT:      -5.5      0.000      0.000
REMARK  0 active torsions:
REMARK  status: ('A' for Active; 'I' for Inactive)
ROOT
HETATM    1  C1  UNL     1     -33.732   6.787   5.876  1.00 20.00     0.013 C 
HETATM    2  C2  UNL     1     -34.708   5.577   5.896  1.00 20.00     0.080 C 
HETATM    3  C3  UNL     1     -32.316   7.622   3.764  1.00 20.00     0.274 C 
HETATM    4  C4  UNL     1     -33.349   5.946   2.367  1.00 20.00     0.280 C 
HETATM    5  C5  UNL     1     -33.558   7.054   4.397  1.00 20.00     0.025 C 
HETATM    6  C6  UNL     1     -33.548   5.652   3.828  1.00 20.00     0.092 C 
HETATM    7  C7  UNL     1     -34.801   5.090   4.440  1.00 20.00     0.249 C 
HETATM    8  N8  UNL     1     -32.332   7.034   2.397  1.00 20.00     0.084 N 
HETATM    9  F9  UNL     1     -34.866   3.752   4.349  1.00 20.00    -0.206 F 
HETATM   10  F10 UNL     1     -35.903   5.604   3.850  1.00 20.00    -0.206 F 
HETATM   11  H21 UNL     1     -32.595   7.748   1.718  1.00 20.00     0.315 HD
ENDROOT
TORSDOF 0
ENDMDL
MODEL 2
REMARK VINA RESULT:      -5.2      1.680      2.554
REMARK  0 active torsions:
REMARK  status: ('A' for Active; 'I' for Inactive)
ROOT
HETATM    1  C1  UNL     1     -34.940   4.646   4.480  1.00 20.00     0.013 C 
HETATM    2  C2  UNL     1     -35.062   5.434   5.815  1.00 20.00     0.080 C 
HETATM    3  C3  UNL     1     -33.442   5.352   2.377  1.00 20.00     0.274 C 
HETATM    4  C4  UNL     1     -32.578   7.254   3.587  1.00 20.00     0.280 C 
HETATM    5  C5  UNL     1     -33.692   5.234   3.856  1.00 20.00     0.025 C 
HETATM    6  C6  UNL     1     -33.812   6.692   4.239  1.00 20.00     0.092 C 
HETATM    7  C7  UNL     1     -34.037   6.579   5.722  1.00 20.00     0.249 C 
HETATM    8  N8  UNL     1     -32.563   6.549   2.276  1.00 20.00     0.084 N 
HETATM    9  F9  UNL     1     -34.490   7.719   6.265  1.00 20.00    -0.206 F 
HETATM   10  F10 UNL     1     -32.898   6.232   6.361  1.00 20.00    -0.206 F 
HETATM   11  H21 UNL     1     -31.608   6.258   2.069  1.00 20.00     0.315 HD
ENDROOT
TORSDOF 0
ENDMDL
MODEL 3
REMARK VINA RESULT:      -5.0      2.104      3.102
REMARK  0 active torsions:
REMARK  status: ('A' for Active; 'I' for Inactive)
ROOT
HETATM    1  C1  UNL     1     -32.723   7.491   3.942  1.00 20.00     0.013 C 
HETATM    2  C2  UNL     1     -32.590   6.858   2.528  1.00 20.00     0.080 C 
HETATM    3  C3  UNL     1     -34.237   6.554   5.941  1.00 20.00     0.274 C 
HETATM    4  C4  UNL     1     -34.880   4.649   4.605  1.00 20.00     0.280 C 
HETATM    5  C5  UNL     1     -33.326   6.367   4.758  1.00 20.00     0.025 C 
HETATM    6  C6  UNL     1     -34.279   5.740   3.764  1.00 20.00     0.092 C 
HETATM    7  C7  UNL     1     -33.365   5.529   2.589  1.00 20.00     0.249 C 
HETATM    8  N8  UNL     1     -35.084   5.331   5.913  1.00 20.00     0.084 N 
HETATM    9  F9  UNL     1     -34.033   5.272   1.453  1.00 20.00    -0.206 F 
HETATM   10  F10 UNL     1     -32.511   4.506   2.815  1.00 20.00    -0.206 F 
HETATM   11  H21 UNL     1     -34.802   4.699   6.662  1.00 20.00     0.315 HD
ENDROOT
TORSDOF 0
ENDMDL
MODEL 4
REMARK VINA RESULT:      -4.9      2.444      3.573
REMARK  0 active torsions:
REMARK  status: ('A' for Active; 'I' for Inactive)
ROOT
HETATM    1  C1  UNL     1     -33.965   4.565   3.040  1.00 20.00     0.013 C 
HETATM    2  C2  UNL     1     -33.003   5.505   2.260  1.00 20.00     0.080 C 
HETATM    3  C3  UNL     1     -34.927   5.002   5.499  1.00 20.00     0.274 C 
HETATM    4  C4  UNL     1     -33.834   7.152   5.582  1.00 20.00     0.280 C 
HETATM    5  C5  UNL     1     -34.501   5.465   4.132  1.00 20.00     0.025 C 
HETATM    6  C6  UNL     1     -33.281   6.289   4.482  1.00 20.00     0.092 C 
HETATM    7  C7  UNL     1     -32.867   6.774   3.120  1.00 20.00     0.249 C 
HETATM    8  N8  UNL     1     -34.661   6.187   6.358  1.00 20.00     0.084 N 
HETATM    9  F9  UNL     1     -31.622   7.273   3.105  1.00 20.00    -0.206 F 
HETATM   10  F10 UNL     1     -33.709   7.730   2.668  1.00 20.00    -0.206 F 
HETATM   11  H21 UNL     1     -35.541   6.636   6.609  1.00 20.00     0.315 HD
ENDROOT
TORSDOF 0
ENDMDL
MODEL 5
REMARK VINA RESULT:      -4.7     16.468     17.302
REMARK  0 active torsions:
REMARK  status: ('A' for Active; 'I' for Inactive)
ROOT
HETATM    1  C1  UNL     1     -23.537  18.012  12.326  1.00 20.00     0.013 C 
HETATM    2  C2  UNL     1     -22.167  17.715  11.654  1.00 20.00     0.080 C 
HETATM    3  C3  UNL     1     -25.768  18.782  11.062  1.00 20.00     0.274 C 
HETATM    4  C4  UNL     1     -24.663  18.591   8.925  1.00 20.00     0.280 C 
HETATM    5  C5  UNL     1     -24.500  17.977  11.158  1.00 20.00     0.025 C 
HETATM    6  C6  UNL     1     -23.677  18.615  10.060  1.00 20.00     0.092 C 
HETATM    7  C7  UNL     1     -22.418  17.796  10.138  1.00 20.00     0.249 C 
HETATM    8  N8  UNL     1     -25.932  18.982   9.597  1.00 20.00     0.084 N 
HETATM    9  F9  UNL     1     -21.394  18.359   9.477  1.00 20.00    -0.206 F 
HETATM   10  F10 UNL     1     -22.613  16.557   9.634  1.00 20.00    -0.206 F 
HETATM   11  H21 UNL     1     -26.685  18.389   9.250  1.00 20.00     0.315 HD
ENDROOT
TORSDOF 0
ENDMDL
MODEL 6
REMARK VINA RESULT:      -4.6     16.331     16.746
REMARK  0 active torsions:
REMARK  status: ('A' for Active; 'I' for Inactive)
ROOT
HETATM    1  C1  UNL     1     -25.378  18.810  11.117  1.00 20.00     0.013 C 
HETATM    2  C2  UNL     1     -24.904  17.769  12.170  1.00 20.00     0.080 C 
HETATM    3  C3  UNL     1     -24.248  19.247   8.730  1.00 20.00     0.274 C 
HETATM    4  C4  UNL     1     -22.678  17.452   9.106  1.00 20.00     0.280 C 
HETATM    5  C5  UNL     1     -24.688  18.346   9.852  1.00 20.00     0.025 C 
HETATM    6  C6  UNL     1     -23.349  17.882  10.382  1.00 20.00     0.092 C 
HETATM    7  C7  UNL     1     -23.785  16.961  11.488  1.00 20.00     0.249 C 
HETATM    8  N8  UNL     1     -23.074  18.532   8.160  1.00 20.00     0.084 N 
HETATM    9  F9  UNL     1     -22.787  16.655  12.330  1.00 20.00    -0.206 F 
HETATM   10  F10 UNL     1     -24.285  15.808  10.991  1.00 20.00    -0.206 F 
HETATM   11  H21 UNL     1     -23.328  18.110   7.267  1.00 20.00     0.315 HD
ENDROOT
TORSDOF 0
ENDMDL
MODEL 7
REMARK VINA RESULT:      -4.4     16.576     17.169
REMARK  0 active torsions:
REMARK  status: ('A' for Active; 'I' for Inactive)
ROOT
HETATM    1  C1  UNL     1     -24.514  18.879   8.997  1.00 20.00     0.013 C 
HETATM    2  C2  UNL     1     -25.726  19.138   9.937  1.00 20.00     0.080 C 
HETATM    3  C3  UNL     1     -22.163  17.829   9.728  1.00 20.00     0.274 C 
HETATM    4  C4  UNL     1     -22.970  17.502  11.979  1.00 20.00     0.280 C 
HETATM    5  C5  UNL     1     -23.663  17.921   9.803  1.00 20.00     0.025 C 
HETATM    6  C6  UNL     1     -23.843  18.453  11.208  1.00 20.00     0.092 C 
HETATM    7  C7  UNL     1     -25.343  18.523  11.294  1.00 20.00     0.249 C 
HETATM    8  N8  UNL     1     -21.783  17.369  11.091  1.00 20.00     0.084 N 
HETATM    9  F9  UNL     1     -25.767  19.262  12.331  1.00 20.00    -0.206 F 
HETATM   10  F10 UNL     1     -25.881  17.288  11.411  1.00 20.00    -0.206 F 
HETATM   11  H21 UNL     1     -21.504  16.388  11.059  1.00 20.00     0.315 HD
ENDROOT
TORSDOF 0
ENDMDL
MODEL 8
REMARK VINA RESULT:      -4.3     12.148     13.050
REMARK  0 active torsions:
REMARK  status: ('A' for Active; 'I' for Inactive)
ROOT
HETATM    1  C1  UNL     1     -35.513  15.064  -3.012  1.00 20.00     0.013 C 
HETATM    2  C2  UNL     1     -34.270  15.896  -2.587  1.00 20.00     0.080 C 
HETATM    3  C3  UNL     1     -36.087  14.267  -5.503  1.00 20.00     0.274 C 
HETATM    4  C4  UNL     1     -34.020  15.213  -6.317  1.00 20.00     0.280 C 
HETATM    5  C5  UNL     1     -35.123  14.553  -4.383  1.00 20.00     0.025 C 
HETATM    6  C6  UNL     1     -34.372  15.737  -4.952  1.00 20.00     0.092 C 
HETATM    7  C7  UNL     1     -33.391  16.009  -3.845  1.00 20.00     0.249 C 
HETATM    8  N8  UNL     1     -35.273  14.517  -6.723  1.00 20.00     0.084 N 
HETATM    9  F9  UNL     1     -32.807  17.213  -3.956  1.00 20.00    -0.206 F 
HETATM   10  F10 UNL     1     -32.419  15.071  -3.816  1.00 20.00    -0.206 F 
HETATM   11  H21 UNL     1     -35.028  13.630  -7.162  1.00 20.00     0.315 HD
ENDROOT
TORSDOF 0
ENDMDL
MODEL 9
REMARK VINA RESULT:      -4.3     12.098     12.621
REMARK  0 active torsions:
REMARK  status: ('A' for Active; 'I' for Inactive)
ROOT
HETATM    1  C1  UNL     1     -33.424  16.371  -2.741  1.00 20.00     0.013 C 
HETATM    2  C2  UNL     1     -32.969  15.352  -3.824  1.00 20.00     0.080 C 
HETATM    3  C3  UNL     1     -35.953  17.077  -2.219  1.00 20.00     0.274 C 
HETATM    4  C4  UNL     1     -36.767  15.495  -3.851  1.00 20.00     0.280 C 
HETATM    5  C5  UNL     1     -34.900  16.069  -2.594  1.00 20.00     0.025 C 
HETATM    6  C6  UNL     1     -35.297  15.764  -4.022  1.00 20.00     0.092 C 
HETATM    7  C7  UNL     1     -34.262  14.739  -4.392  1.00 20.00     0.249 C 
HETATM    8  N8  UNL     1     -37.175  16.557  -2.890  1.00 20.00     0.084 N 
HETATM    9  F9  UNL     1     -34.191  14.528  -5.716  1.00 20.00    -0.206 F 
HETATM   10  F10 UNL     1     -34.514  13.555  -3.791  1.00 20.00    -0.206 F 
HETATM   11  H21 UNL     1     -37.802  16.150  -2.197  1.00 20.00     0.315 HD
ENDROOT
TORSDOF 0
ENDMDL
