MODEL 1
REMARK VINA RESULT:      -4.1      0.000      0.000
REMARK  3 active torsions:
REMARK  status: ('A' for Active; 'I' for Inactive)
REMARK    1  A    between atoms: C2_2  and  C6_6 
REMARK    2  A    between atoms: C6_6  and  C7_7 
REMARK    3  A    between atoms: C7_7  and  C8_8 
ROOT
HETATM    1  C4  UNL     1     -33.012   4.703   2.481  1.00 20.00     0.011 C 
HETATM    2  C7  UNL     1     -33.608   6.092   2.759  1.00 20.00    -0.001 C 
ENDROOT
BRANCH   2   3
HETATM    3  C6  UNL     1     -32.531   7.203   2.697  1.00 20.00     0.038 C 
BRANCH   3   4
HETATM    4  C2  UNL     1     -32.528   8.007   1.413  1.00 20.00    -0.093 C 
HETATM    5  C1  UNL     1     -31.949   7.540   0.295  1.00 20.00     0.014 C 
HETATM    6  C3  UNL     1     -33.237   9.330   1.431  1.00 20.00     0.042 C 
ENDBRANCH   3   4
ENDBRANCH   2   3
BRANCH   2   7
HETATM    7  C8  UNL     1     -34.435   6.101   4.067  1.00 20.00     0.057 C 
HETATM    8  C5  UNL     1     -34.838   4.714   4.552  1.00 20.00     0.022 C 
HETATM    9 BR9  UNL     1     -33.508   7.015   5.534  1.00 20.00    -0.091 Br
ENDBRANCH   2   7
TORSDOF 3
ENDMDL
MODEL 2
REMARK VINA RESULT:      -3.8      2.146      4.232
REMARK  3 active torsions:
REMARK  status: ('A' for Active; 'I' for Inactive)
REMARK    1  A    between atoms: C2_2  and  C6_6 
REMARK    2  A    between atoms: C6_6  and  C7_7 
REMARK    3  A    between atoms: C7_7  and  C8_8 
ROOT
HETATM    1  C4  UNL     1     -33.262   4.998   1.942  1.00 20.00     0.011 C 
HETATM    2  C7  UNL     1     -33.252   5.890   3.194  1.00 20.00    -0.001 C 
ENDROOT
BRANCH   2   3
HETATM    3  C6  UNL     1     -34.610   5.851   3.937  1.00 20.00     0.038 C 
BRANCH   3   4
HETATM    4  C2  UNL     1     -34.501   5.824   5.448  1.00 20.00    -0.093 C 
HETATM    5  C1  UNL     1     -34.852   4.739   6.156  1.00 20.00     0.014 C 
HETATM    6  C3  UNL     1     -33.945   7.047   6.117  1.00 20.00     0.042 C 
ENDBRANCH   3   4
ENDBRANCH   2   3
BRANCH   2   7
HETATM    7  C8  UNL     1     -32.764   7.320   2.865  1.00 20.00     0.057 C 
HETATM    8  C5  UNL     1     -31.468   7.707   3.568  1.00 20.00     0.022 C 
HETATM    9 BR9  UNL     1     -32.522   7.608   0.940  1.00 20.00    -0.091 Br
ENDBRANCH   2   7
TORSDOF 3
ENDMDL
MODEL 3
REMARK VINA RESULT:      -3.8     11.041     11.720
REMARK  3 active torsions:
REMARK  status: ('A' for Active; 'I' for Inactive)
REMARK    1  A    between atoms: C2_2  and  C6_6 
REMARK    2  A    between atoms: C6_6  and  C7_7 
REMARK    3  A    between atoms: C7_7  and  C8_8 
ROOT
HETATM    1  C4  UNL     1     -33.760  14.989  -6.481  1.00 20.00     0.011 C 
HETATM    2  C7  UNL     1     -34.627  15.362  -5.269  1.00 20.00    -0.001 C 
ENDROOT
BRANCH   2   3
HETATM    3  C6  UNL     1     -33.965  14.934  -3.935  1.00 20.00     0.038 C 
BRANCH   3   4
HETATM    4  C2  UNL     1     -33.942  16.009  -2.868  1.00 20.00    -0.093 C 
HETATM    5  C1  UNL     1     -32.923  16.879  -2.773  1.00 20.00     0.014 C 
HETATM    6  C3  UNL     1     -35.126  16.089  -1.950  1.00 20.00     0.042 C 
ENDBRANCH   3   4
ENDBRANCH   2   3
BRANCH   2   7
HETATM    7  C8  UNL     1     -36.079  14.855  -5.433  1.00 20.00     0.057 C 
HETATM    8  C5  UNL     1     -36.429  13.682  -4.525  1.00 20.00     0.022 C 
HETATM    9 BR9  UNL     1     -37.406  16.269  -5.141  1.00 20.00    -0.091 Br
ENDBRANCH   2   7
TORSDOF 3
ENDMDL
MODEL 4
REMARK VINA RESULT:      -3.8     10.734     11.654
REMARK  3 active torsions:
REMARK  status: ('A' for Active; 'I' for Inactive)
REMARK    1  A    between atoms: C2_2  and  C6_6 
REMARK    2  A    between atoms: C6_6  and  C7_7 
REMARK    3  A    between atoms: C7_7  and  C8_8 
ROOT
HETATM    1  C4  UNL     1     -32.797  14.597  -4.320  1.00 20.00     0.011 C 
HETATM    2  C7  UNL     1     -33.990  15.549  -4.151  1.00 20.00    -0.001 C 
ENDROOT
BRANCH   2   3
HETATM    3  C6  UNL     1     -34.594  15.468  -2.727  1.00 20.00     0.038 C 
BRANCH   3   4
HETATM    4  C2  UNL     1     -34.323  16.678  -1.857  1.00 20.00    -0.093 C 
HETATM    5  C1  UNL     1     -35.157  17.028  -0.865  1.00 20.00     0.014 C 
HETATM    6  C3  UNL     1     -33.061  17.446  -2.125  1.00 20.00     0.042 C 
ENDBRANCH   3   4
ENDBRANCH   2   3
BRANCH   2   7
HETATM    7  C8  UNL     1     -35.032  15.356  -5.279  1.00 20.00     0.057 C 
HETATM    8  C5  UNL     1     -34.420  15.031  -6.636  1.00 20.00     0.022 C 
HETATM    9 BR9  UNL     1     -36.348  13.965  -4.855  1.00 20.00    -0.091 Br
ENDBRANCH   2   7
TORSDOF 3
ENDMDL
MODEL 5
REMARK VINA RESULT:      -3.8     11.078     12.149
REMARK  3 active torsions:
REMARK  status: ('A' for Active; 'I' for Inactive)
REMARK    1  A    between atoms: C2_2  and  C6_6 
REMARK    2  A    between atoms: C6_6  and  C7_7 
REMARK    3  A    between atoms: C7_7  and  C8_8 
ROOT
HETATM    1  C4  UNL     1     -33.000  14.420  -4.428  1.00 20.00     0.011 C 
HETATM    2  C7  UNL     1     -33.887  15.644  -4.155  1.00 20.00    -0.001 C 
ENDROOT
BRANCH   2   3
HETATM    3  C6  UNL     1     -34.640  15.519  -2.807  1.00 20.00     0.038 C 
BRANCH   3   4
HETATM    4  C2  UNL     1     -34.388  16.655  -1.836  1.00 20.00    -0.093 C 
HETATM    5  C1  UNL     1     -35.245  16.927  -0.839  1.00 20.00     0.014 C 
HETATM    6  C3  UNL     1     -33.118  17.436  -2.010  1.00 20.00     0.042 C 
ENDBRANCH   3   4
ENDBRANCH   2   3
BRANCH   2   7
HETATM    7  C8  UNL     1     -34.812  15.952  -5.356  1.00 20.00     0.057 C 
HETATM    8  C5  UNL     1     -35.126  17.434  -5.528  1.00 20.00     0.022 C 
HETATM    9 BR9  UNL     1     -34.089  15.282  -7.052  1.00 20.00    -0.091 Br
ENDBRANCH   2   7
TORSDOF 3
ENDMDL
MODEL 6
REMARK VINA RESULT:      -3.6     10.569     11.841
REMARK  3 active torsions:
REMARK  status: ('A' for Active; 'I' for Inactive)
REMARK    1  A    between atoms: C2_2  and  C6_6 
REMARK    2  A    between atoms: C6_6  and  C7_7 
REMARK    3  A    between atoms: C7_7  and  C8_8 
ROOT
HETATM    1  C4  UNL     1     -33.657  17.950  -4.013  1.00 20.00     0.011 C 
HETATM    2  C7  UNL     1     -33.280  16.961  -2.899  1.00 20.00    -0.001 C 
ENDROOT
BRANCH   2   3
HETATM    3  C6  UNL     1     -34.366  15.876  -2.701  1.00 20.00     0.038 C 
BRANCH   3   4
HETATM    4  C2  UNL     1     -34.344  14.765  -3.732  1.00 20.00    -0.093 C 
HETATM    5  C1  UNL     1     -35.463  14.109  -4.079  1.00 20.00     0.014 C 
HETATM    6  C3  UNL     1     -33.025  14.458  -4.379  1.00 20.00     0.042 C 
ENDBRANCH   3   4
ENDBRANCH   2   3
BRANCH   2   7
HETATM    7  C8  UNL     1     -32.893  17.698  -1.595  1.00 20.00     0.057 C 
HETATM    8  C5  UNL     1     -32.313  19.089  -1.821  1.00 20.00     0.022 C 
HETATM    9 BR9  UNL     1     -34.401  17.861  -0.351  1.00 20.00    -0.091 Br
ENDBRANCH   2   7
TORSDOF 3
ENDMDL
MODEL 7
REMARK VINA RESULT:      -3.6     11.136     11.953
REMARK  3 active torsions:
REMARK  status: ('A' for Active; 'I' for Inactive)
REMARK    1  A    between atoms: C2_2  and  C6_6 
REMARK    2  A    between atoms: C6_6  and  C7_7 
REMARK    3  A    between atoms: C7_7  and  C8_8 
ROOT
HETATM    1  C4  UNL     1     -34.546  17.115  -5.258  1.00 20.00     0.011 C 
HETATM    2  C7  UNL     1     -34.843  15.921  -4.339  1.00 20.00    -0.001 C 
ENDROOT
BRANCH   2   3
HETATM    3  C6  UNL     1     -33.755  15.749  -3.249  1.00 20.00     0.038 C 
BRANCH   3   4
HETATM    4  C2  UNL     1     -33.863  16.722  -2.092  1.00 20.00    -0.093 C 
HETATM    5  C1  UNL     1     -32.888  17.607  -1.829  1.00 20.00     0.014 C 
HETATM    6  C3  UNL     1     -35.124  16.684  -1.280  1.00 20.00     0.042 C 
ENDBRANCH   3   4
ENDBRANCH   2   3
BRANCH   2   7
HETATM    7  C8  UNL     1     -35.114  14.634  -5.153  1.00 20.00     0.057 C 
HETATM    8  C5  UNL     1     -36.163  13.719  -4.532  1.00 20.00     0.022 C 
HETATM    9 BR9  UNL     1     -35.654  15.014  -7.000  1.00 20.00    -0.091 Br
ENDBRANCH   2   7
TORSDOF 3
ENDMDL
MODEL 8
REMARK VINA RESULT:      -3.5     10.630     11.896
REMARK  3 active torsions:
REMARK  status: ('A' for Active; 'I' for Inactive)
REMARK    1  A    between atoms: C2_2  and  C6_6 
REMARK    2  A    between atoms: C6_6  and  C7_7 
REMARK    3  A    between atoms: C7_7  and  C8_8 
ROOT
HETATM    1  C4  UNL     1     -31.883  18.206  -1.198  1.00 20.00     0.011 C 
HETATM    2  C7  UNL     1     -33.256  17.580  -1.488  1.00 20.00    -0.001 C 
ENDROOT
BRANCH   2   3
HETATM    3  C6  UNL     1     -33.426  17.238  -2.989  1.00 20.00     0.038 C 
BRANCH   3   4
HETATM    4  C2  UNL     1     -33.880  15.819  -3.265  1.00 20.00    -0.093 C 
HETATM    5  C1  UNL     1     -35.042  15.349  -2.784  1.00 20.00     0.014 C 
HETATM    6  C3  UNL     1     -32.996  14.974  -4.134  1.00 20.00     0.042 C 
ENDBRANCH   3   4
ENDBRANCH   2   3
BRANCH   2   7
HETATM    7  C8  UNL     1     -34.404  18.443  -0.913  1.00 20.00     0.057 C 
HETATM    8  C5  UNL     1     -35.322  19.036  -1.975  1.00 20.00     0.022 C 
HETATM    9 BR9  UNL     1     -35.513  17.457   0.370  1.00 20.00    -0.091 Br
ENDBRANCH   2   7
TORSDOF 3
ENDMDL
MODEL 9
REMARK VINA RESULT:      -3.5     10.544     11.612
REMARK  3 active torsions:
REMARK  status: ('A' for Active; 'I' for Inactive)
REMARK    1  A    between atoms: C2_2  and  C6_6 
REMARK    2  A    between atoms: C6_6  and  C7_7 
REMARK    3  A    between atoms: C7_7  and  C8_8 
ROOT
HETATM    1  C4  UNL     1     -36.334  18.367  -2.390  1.00 20.00     0.011 C 
HETATM    2  C7  UNL     1     -35.076  17.714  -1.798  1.00 20.00    -0.001 C 
ENDROOT
BRANCH   2   3
HETATM    3  C6  UNL     1     -35.112  16.171  -1.933  1.00 20.00     0.038 C 
BRANCH   3   4
HETATM    4  C2  UNL     1     -34.225  15.612  -3.028  1.00 20.00    -0.093 C 
HETATM    5  C1  UNL     1     -33.032  16.159  -3.309  1.00 20.00     0.014 C 
HETATM    6  C3  UNL     1     -34.719  14.396  -3.755  1.00 20.00     0.042 C 
ENDBRANCH   3   4
ENDBRANCH   2   3
BRANCH   2   7
HETATM    7  C8  UNL     1     -34.807  18.205  -0.356  1.00 20.00     0.057 C 
HETATM    8  C5  UNL     1     -35.345  17.273   0.723  1.00 20.00     0.022 C 
HETATM    9 BR9  UNL     1     -32.900  18.503  -0.009  1.00 20.00    -0.091 Br
ENDBRANCH   2   7
TORSDOF 3
ENDMDL
