MODEL 1
REMARK VINA RESULT:      -4.2      0.000      0.000
REMARK  3 active torsions:
REMARK  status: ('A' for Active; 'I' for Inactive)
REMARK    1  A    between atoms: C1_1  and  C3_3 
REMARK       I    between atoms: C3_3  and  N10_10 
REMARK    2  A    between atoms: C8_8  and  C9_9 
REMARK    3  A    between atoms: C8_8  and  N10_10 
ROOT
HETATM    1  C3  UNL     1     -32.270  18.505  -2.086  1.00 20.00     0.240 C 
HETATM    2  N10 UNL     1     -32.767  17.210  -2.164  1.00 20.00    -0.357 N 
HETATM    3  O11 UNL     1     -32.106  19.260  -3.039  1.00 20.00    -0.269 OA
HETATM    4  H28 UNL     1     -32.841  16.652  -1.315  1.00 20.00     0.162 HD
ENDROOT
BRANCH   2   5
HETATM    5  C8  UNL     1     -33.157  16.593  -3.404  1.00 20.00     0.131 C 
BRANCH   5   6
HETATM    6  C9  UNL     1     -34.566  15.961  -3.383  1.00 20.00    -0.035 C 
HETATM    7  C5  UNL     1     -35.510  16.700  -4.346  1.00 20.00     0.016 C 
HETATM    8  C6  UNL     1     -34.508  14.473  -3.768  1.00 20.00     0.016 C 
HETATM    9  C7  UNL     1     -35.127  16.076  -1.954  1.00 20.00     0.016 C 
ENDBRANCH   5   6
ENDBRANCH   2   5
BRANCH   1  10
HETATM   10  C1  UNL     1     -31.942  18.894  -0.687  1.00 20.00     0.070 C 
HETATM   11  C2  UNL     1     -30.910  18.326  -0.051  1.00 20.00    -0.026 C 
HETATM   12  C4  UNL     1     -30.520  18.667   1.350  1.00 20.00     0.036 C 
ENDBRANCH   1  10
TORSDOF 3
ENDMDL
MODEL 2
REMARK VINA RESULT:      -4.2      1.896      2.391
REMARK  3 active torsions:
REMARK  status: ('A' for Active; 'I' for Inactive)
REMARK    1  A    between atoms: C1_1  and  C3_3 
REMARK       I    between atoms: C3_3  and  N10_10 
REMARK    2  A    between atoms: C8_8  and  C9_9 
REMARK    3  A    between atoms: C8_8  and  N10_10 
ROOT
HETATM    1  C3  UNL     1     -31.812  18.321  -0.317  1.00 20.00     0.240 C 
HETATM    2  N10 UNL     1     -32.893  17.950  -1.105  1.00 20.00    -0.357 N 
HETATM    3  O11 UNL     1     -30.652  18.422  -0.704  1.00 20.00    -0.269 OA
HETATM    4  H28 UNL     1     -33.816  17.869  -0.681  1.00 20.00     0.162 HD
ENDROOT
BRANCH   2   5
HETATM    5  C8  UNL     1     -32.772  17.634  -2.503  1.00 20.00     0.131 C 
BRANCH   5   6
HETATM    6  C9  UNL     1     -33.879  16.701  -3.041  1.00 20.00    -0.035 C 
HETATM    7  C5  UNL     1     -33.268  15.472  -3.735  1.00 20.00     0.016 C 
HETATM    8  C6  UNL     1     -34.808  16.237  -1.906  1.00 20.00     0.016 C 
HETATM    9  C7  UNL     1     -34.715  17.485  -4.069  1.00 20.00     0.016 C 
ENDBRANCH   5   6
ENDBRANCH   2   5
BRANCH   1  10
HETATM   10  C1  UNL     1     -32.213  18.588   1.092  1.00 20.00     0.070 C 
HETATM   11  C2  UNL     1     -33.437  18.256   1.522  1.00 20.00    -0.026 C 
HETATM   12  C4  UNL     1     -33.909  18.492   2.919  1.00 20.00     0.036 C 
ENDBRANCH   1  10
TORSDOF 3
ENDMDL
MODEL 3
REMARK VINA RESULT:      -4.1     15.246     16.207
REMARK  3 active torsions:
REMARK  status: ('A' for Active; 'I' for Inactive)
REMARK    1  A    between atoms: C1_1  and  C3_3 
REMARK       I    between atoms: C3_3  and  N10_10 
REMARK    2  A    between atoms: C8_8  and  C9_9 
REMARK    3  A    between atoms: C8_8  and  N10_10 
ROOT
HETATM    1  C3  UNL     1     -25.469  17.603  12.095  1.00 20.00     0.240 C 
HETATM    2  N10 UNL     1     -24.517  18.501  11.630  1.00 20.00    -0.357 N 
HETATM    3  O11 UNL     1     -25.272  16.415  12.327  1.00 20.00    -0.269 OA
HETATM    4  H28 UNL     1     -24.789  19.465  11.442  1.00 20.00     0.162 HD
ENDROOT
BRANCH   2   5
HETATM    5  C8  UNL     1     -23.154  18.128  11.363  1.00 20.00     0.131 C 
BRANCH   5   6
HETATM    6  C9  UNL     1     -22.812  18.006   9.861  1.00 20.00    -0.035 C 
HETATM    7  C5  UNL     1     -23.203  16.619   9.324  1.00 20.00     0.016 C 
HETATM    8  C6  UNL     1     -23.532  19.091   9.042  1.00 20.00     0.016 C 
HETATM    9  C7  UNL     1     -21.293  18.192   9.694  1.00 20.00     0.016 C 
ENDBRANCH   5   6
ENDBRANCH   2   5
BRANCH   1  10
HETATM   10  C1  UNL     1     -26.798  18.247  12.285  1.00 20.00     0.070 C 
HETATM   11  C2  UNL     1     -27.922  17.530  12.156  1.00 20.00    -0.026 C 
HETATM   12  C4  UNL     1     -29.289  18.107  12.332  1.00 20.00     0.036 C 
ENDBRANCH   1  10
TORSDOF 3
ENDMDL
MODEL 4
REMARK VINA RESULT:      -4.1      3.960      5.620
REMARK  3 active torsions:
REMARK  status: ('A' for Active; 'I' for Inactive)
REMARK    1  A    between atoms: C1_1  and  C3_3 
REMARK       I    between atoms: C3_3  and  N10_10 
REMARK    2  A    between atoms: C8_8  and  C9_9 
REMARK    3  A    between atoms: C8_8  and  N10_10 
ROOT
HETATM    1  C3  UNL     1     -35.994  13.990  -4.104  1.00 20.00     0.240 C 
HETATM    2  N10 UNL     1     -36.991  14.944  -3.950  1.00 20.00    -0.357 N 
HETATM    3  O11 UNL     1     -36.171  12.832  -4.471  1.00 20.00    -0.269 OA
HETATM    4  H28 UNL     1     -36.744  15.874  -3.613  1.00 20.00     0.162 HD
ENDROOT
BRANCH   2   5
HETATM    5  C8  UNL     1     -38.380  14.677  -4.211  1.00 20.00     0.131 C 
BRANCH   5   6
HETATM    6  C9  UNL     1     -39.281  15.932  -4.197  1.00 20.00    -0.035 C 
HETATM    7  C5  UNL     1     -39.798  16.248  -5.610  1.00 20.00     0.016 C 
HETATM    8  C6  UNL     1     -40.476  15.741  -3.247  1.00 20.00     0.016 C 
HETATM    9  C7  UNL     1     -38.444  17.124  -3.699  1.00 20.00     0.016 C 
ENDBRANCH   5   6
ENDBRANCH   2   5
BRANCH   1  10
HETATM   10  C1  UNL     1     -34.648  14.527  -3.764  1.00 20.00     0.070 C 
HETATM   11  C2  UNL     1     -34.524  15.736  -3.203  1.00 20.00    -0.026 C 
HETATM   12  C4  UNL     1     -33.208  16.340  -2.834  1.00 20.00     0.036 C 
ENDBRANCH   1  10
TORSDOF 3
ENDMDL
MODEL 5
REMARK VINA RESULT:      -4.0      3.835      6.644
REMARK  3 active torsions:
REMARK  status: ('A' for Active; 'I' for Inactive)
REMARK    1  A    between atoms: C1_1  and  C3_3 
REMARK       I    between atoms: C3_3  and  N10_10 
REMARK    2  A    between atoms: C8_8  and  C9_9 
REMARK    3  A    between atoms: C8_8  and  N10_10 
ROOT
HETATM    1  C3  UNL     1     -37.520  14.793  -4.148  1.00 20.00     0.240 C 
HETATM    2  N10 UNL     1     -36.476  15.481  -3.543  1.00 20.00    -0.357 N 
HETATM    3  O11 UNL     1     -37.489  13.616  -4.492  1.00 20.00    -0.269 OA
HETATM    4  H28 UNL     1     -36.591  16.468  -3.319  1.00 20.00     0.162 HD
ENDROOT
BRANCH   2   5
HETATM    5  C8  UNL     1     -35.206  14.874  -3.245  1.00 20.00     0.131 C 
BRANCH   5   6
HETATM    6  C9  UNL     1     -33.991  15.614  -3.847  1.00 20.00    -0.035 C 
HETATM    7  C5  UNL     1     -34.424  16.508  -5.020  1.00 20.00     0.016 C 
HETATM    8  C6  UNL     1     -33.288  16.474  -2.783  1.00 20.00     0.016 C 
HETATM    9  C7  UNL     1     -32.994  14.563  -4.366  1.00 20.00     0.016 C 
ENDBRANCH   5   6
ENDBRANCH   2   5
BRANCH   1  10
HETATM   10  C1  UNL     1     -38.717  15.656  -4.346  1.00 20.00     0.070 C 
HETATM   11  C2  UNL     1     -39.942  15.185  -4.079  1.00 20.00    -0.026 C 
HETATM   12  C4  UNL     1     -41.187  15.991  -4.252  1.00 20.00     0.036 C 
ENDBRANCH   1  10
TORSDOF 3
ENDMDL
MODEL 6
REMARK VINA RESULT:      -4.0      3.823      6.677
REMARK  3 active torsions:
REMARK  status: ('A' for Active; 'I' for Inactive)
REMARK    1  A    between atoms: C1_1  and  C3_3 
REMARK       I    between atoms: C3_3  and  N10_10 
REMARK    2  A    between atoms: C8_8  and  C9_9 
REMARK    3  A    between atoms: C8_8  and  N10_10 
ROOT
HETATM    1  C3  UNL     1     -37.505  14.790  -4.204  1.00 20.00     0.240 C 
HETATM    2  N10 UNL     1     -36.584  15.586  -3.535  1.00 20.00    -0.357 N 
HETATM    3  O11 UNL     1     -37.356  13.603  -4.471  1.00 20.00    -0.269 OA
HETATM    4  H28 UNL     1     -36.792  16.572  -3.385  1.00 20.00     0.162 HD
ENDROOT
BRANCH   2   5
HETATM    5  C8  UNL     1     -35.317  15.093  -3.066  1.00 20.00     0.131 C 
BRANCH   5   6
HETATM    6  C9  UNL     1     -34.094  15.679  -3.806  1.00 20.00    -0.035 C 
HETATM    7  C5  UNL     1     -33.226  14.557  -4.399  1.00 20.00     0.016 C 
HETATM    8  C6  UNL     1     -34.536  16.630  -4.931  1.00 20.00     0.016 C 
HETATM    9  C7  UNL     1     -33.251  16.475  -2.793  1.00 20.00     0.016 C 
ENDBRANCH   5   6
ENDBRANCH   2   5
BRANCH   1  10
HETATM   10  C1  UNL     1     -38.729  15.549  -4.581  1.00 20.00     0.070 C 
HETATM   11  C2  UNL     1     -39.931  15.158  -4.137  1.00 20.00    -0.026 C 
HETATM   12  C4  UNL     1     -41.202  15.868  -4.473  1.00 20.00     0.036 C 
ENDBRANCH   1  10
TORSDOF 3
ENDMDL
MODEL 7
REMARK VINA RESULT:      -4.0     11.232     12.502
REMARK  3 active torsions:
REMARK  status: ('A' for Active; 'I' for Inactive)
REMARK    1  A    between atoms: C1_1  and  C3_3 
REMARK       I    between atoms: C3_3  and  N10_10 
REMARK    2  A    between atoms: C8_8  and  C9_9 
REMARK    3  A    between atoms: C8_8  and  N10_10 
ROOT
HETATM    1  C3  UNL     1     -32.253   7.400   2.813  1.00 20.00     0.240 C 
HETATM    2  N10 UNL     1     -33.477   6.900   3.238  1.00 20.00    -0.357 N 
HETATM    3  O11 UNL     1     -31.266   7.562   3.524  1.00 20.00    -0.269 OA
HETATM    4  H28 UNL     1     -34.245   6.829   2.572  1.00 20.00     0.162 HD
ENDROOT
BRANCH   2   5
HETATM    5  C8  UNL     1     -33.732   6.504   4.596  1.00 20.00     0.131 C 
BRANCH   5   6
HETATM    6  C9  UNL     1     -34.638   5.260   4.735  1.00 20.00    -0.035 C 
HETATM    7  C5  UNL     1     -33.990   4.036   4.066  1.00 20.00     0.016 C 
HETATM    8  C6  UNL     1     -34.917   4.945   6.215  1.00 20.00     0.016 C 
HETATM    9  C7  UNL     1     -35.977   5.556   4.036  1.00 20.00     0.016 C 
ENDBRANCH   5   6
ENDBRANCH   2   5
BRANCH   1  10
HETATM   10  C1  UNL     1     -32.259   7.735   1.362  1.00 20.00     0.070 C 
HETATM   11  C2  UNL     1     -33.210   8.530   0.855  1.00 20.00    -0.026 C 
HETATM   12  C4  UNL     1     -33.281   8.910  -0.588  1.00 20.00     0.036 C 
ENDBRANCH   1  10
TORSDOF 3
ENDMDL
MODEL 8
REMARK VINA RESULT:      -4.0     11.256     12.460
REMARK  3 active torsions:
REMARK  status: ('A' for Active; 'I' for Inactive)
REMARK    1  A    between atoms: C1_1  and  C3_3 
REMARK       I    between atoms: C3_3  and  N10_10 
REMARK    2  A    between atoms: C8_8  and  C9_9 
REMARK    3  A    between atoms: C8_8  and  N10_10 
ROOT
HETATM    1  C3  UNL     1     -32.217   7.413   2.870  1.00 20.00     0.240 C 
HETATM    2  N10 UNL     1     -33.442   6.892   3.266  1.00 20.00    -0.357 N 
HETATM    3  O11 UNL     1     -31.248   7.583   3.602  1.00 20.00    -0.269 OA
HETATM    4  H28 UNL     1     -34.196   6.816   2.585  1.00 20.00     0.162 HD
ENDROOT
BRANCH   2   5
HETATM    5  C8  UNL     1     -33.719   6.479   4.616  1.00 20.00     0.131 C 
BRANCH   5   6
HETATM    6  C9  UNL     1     -34.649   5.251   4.726  1.00 20.00    -0.035 C 
HETATM    7  C5  UNL     1     -36.000   5.527   4.045  1.00 20.00     0.016 C 
HETATM    8  C6  UNL     1     -34.001   4.010   4.088  1.00 20.00     0.016 C 
HETATM    9  C7  UNL     1     -34.897   4.964   6.218  1.00 20.00     0.016 C 
ENDBRANCH   5   6
ENDBRANCH   2   5
BRANCH   1  10
HETATM   10  C1  UNL     1     -32.199   7.762   1.423  1.00 20.00     0.070 C 
HETATM   11  C2  UNL     1     -33.188   8.492   0.890  1.00 20.00    -0.026 C 
HETATM   12  C4  UNL     1     -33.237   8.880  -0.551  1.00 20.00     0.036 C 
ENDBRANCH   1  10
TORSDOF 3
ENDMDL
MODEL 9
REMARK VINA RESULT:      -3.9      2.567      3.507
REMARK  3 active torsions:
REMARK  status: ('A' for Active; 'I' for Inactive)
REMARK    1  A    between atoms: C1_1  and  C3_3 
REMARK       I    between atoms: C3_3  and  N10_10 
REMARK    2  A    between atoms: C8_8  and  C9_9 
REMARK    3  A    between atoms: C8_8  and  N10_10 
ROOT
HETATM    1  C3  UNL     1     -34.124  15.922  -2.922  1.00 20.00     0.240 C 
HETATM    2  N10 UNL     1     -33.325  15.887  -4.058  1.00 20.00    -0.357 N 
HETATM    3  O11 UNL     1     -35.059  15.164  -2.688  1.00 20.00    -0.269 OA
HETATM    4  H28 UNL     1     -32.588  16.581  -4.171  1.00 20.00     0.162 HD
ENDROOT
BRANCH   2   5
HETATM    5  C8  UNL     1     -33.509  14.930  -5.116  1.00 20.00     0.131 C 
BRANCH   5   6
HETATM    6  C9  UNL     1     -34.410  15.423  -6.269  1.00 20.00    -0.035 C 
HETATM    7  C5  UNL     1     -35.781  14.729  -6.225  1.00 20.00     0.016 C 
HETATM    8  C6  UNL     1     -34.607  16.947  -6.200  1.00 20.00     0.016 C 
HETATM    9  C7  UNL     1     -33.722  15.077  -7.602  1.00 20.00     0.016 C 
ENDBRANCH   5   6
ENDBRANCH   2   5
BRANCH   1  10
HETATM   10  C1  UNL     1     -33.722  17.011  -1.990  1.00 20.00     0.070 C 
HETATM   11  C2  UNL     1     -32.504  17.560  -2.076  1.00 20.00    -0.026 C 
HETATM   12  C4  UNL     1     -32.030  18.655  -1.177  1.00 20.00     0.036 C 
ENDBRANCH   1  10
TORSDOF 3
ENDMDL
