MODEL 1
REMARK VINA RESULT:      -4.7      0.000      0.000
REMARK  2 active torsions:
REMARK  status: ('A' for Active; 'I' for Inactive)
REMARK    1  A    between atoms: C2_2  and  C9_9 
REMARK    2  A    between atoms: C6_6  and  C9_9 
ROOT
HETATM    1  C3  UNL     1     -34.212   4.244   3.834  1.00 20.00     0.002 C 
HETATM    2  C4  UNL     1     -33.123   4.902   2.981  1.00 20.00     0.006 C 
HETATM    3  C5  UNL     1     -35.159   5.368   4.258  1.00 20.00     0.020 C 
HETATM    4  C6  UNL     1     -33.525   6.375   2.864  1.00 20.00     0.008 C 
HETATM    5  C7  UNL     1     -34.331   6.645   4.140  1.00 20.00     0.086 C 
HETATM    6 CL10 UNL     1     -33.313   6.842   5.598  1.00 20.00    -0.125 Cl
ENDROOT
BRANCH   4   7
HETATM    7  C9  UNL     1     -32.373   7.297   2.612  1.00 20.00     0.039 C 
BRANCH   7   8
HETATM    8  C2  UNL     1     -32.501   8.049   1.308  1.00 20.00    -0.093 C 
HETATM    9  C1  UNL     1     -31.937   7.596   0.179  1.00 20.00     0.014 C 
HETATM   10  C8  UNL     1     -33.257   9.346   1.340  1.00 20.00     0.042 C 
ENDBRANCH   7   8
ENDBRANCH   4   7
TORSDOF 2
ENDMDL
MODEL 2
REMARK VINA RESULT:      -4.2     11.196     12.107
REMARK  2 active torsions:
REMARK  status: ('A' for Active; 'I' for Inactive)
REMARK    1  A    between atoms: C2_2  and  C9_9 
REMARK    2  A    between atoms: C6_6  and  C9_9 
ROOT
HETATM    1  C3  UNL     1     -34.889  15.226  -3.136  1.00 20.00     0.002 C 
HETATM    2  C4  UNL     1     -34.930  16.211  -1.963  1.00 20.00     0.006 C 
HETATM    3  C5  UNL     1     -33.540  15.439  -3.826  1.00 20.00     0.020 C 
HETATM    4  C6  UNL     1     -33.563  16.901  -1.958  1.00 20.00     0.008 C 
HETATM    5  C7  UNL     1     -33.110  16.847  -3.422  1.00 20.00     0.086 C 
HETATM    6 CL10 UNL     1     -33.926  18.051  -4.465  1.00 20.00    -0.125 Cl
ENDROOT
BRANCH   4   7
HETATM    7  C9  UNL     1     -33.575  18.260  -1.328  1.00 20.00     0.039 C 
BRANCH   7   8
HETATM    8  C2  UNL     1     -32.583  18.388  -0.196  1.00 20.00    -0.093 C 
HETATM    9  C1  UNL     1     -31.260  18.356  -0.416  1.00 20.00     0.014 C 
HETATM   10  C8  UNL     1     -33.143  18.514   1.192  1.00 20.00     0.042 C 
ENDBRANCH   7   8
ENDBRANCH   4   7
TORSDOF 2
ENDMDL
MODEL 3
REMARK VINA RESULT:      -4.2     11.196     12.161
REMARK  2 active torsions:
REMARK  status: ('A' for Active; 'I' for Inactive)
REMARK    1  A    between atoms: C2_2  and  C9_9 
REMARK    2  A    between atoms: C6_6  and  C9_9 
ROOT
HETATM    1  C3  UNL     1     -34.792  15.232  -3.149  1.00 20.00     0.002 C 
HETATM    2  C4  UNL     1     -34.888  16.182  -1.950  1.00 20.00     0.006 C 
HETATM    3  C5  UNL     1     -33.446  15.522  -3.816  1.00 20.00     0.020 C 
HETATM    4  C6  UNL     1     -33.553  16.930  -1.910  1.00 20.00     0.008 C 
HETATM    5  C7  UNL     1     -33.083  16.935  -3.369  1.00 20.00     0.086 C 
HETATM    6 CL10 UNL     1     -33.938  18.131  -4.389  1.00 20.00    -0.125 Cl
ENDROOT
BRANCH   4   7
HETATM    7  C9  UNL     1     -33.631  18.269  -1.244  1.00 20.00     0.039 C 
BRANCH   7   8
HETATM    8  C2  UNL     1     -32.671  18.402  -0.086  1.00 20.00    -0.093 C 
HETATM    9  C1  UNL     1     -33.106  18.558   1.173  1.00 20.00     0.014 C 
HETATM   10  C8  UNL     1     -31.204  18.389  -0.411  1.00 20.00     0.042 C 
ENDBRANCH   7   8
ENDBRANCH   4   7
TORSDOF 2
ENDMDL
MODEL 4
REMARK VINA RESULT:      -4.2      1.607      2.357
REMARK  2 active torsions:
REMARK  status: ('A' for Active; 'I' for Inactive)
REMARK    1  A    between atoms: C2_2  and  C9_9 
REMARK    2  A    between atoms: C6_6  and  C9_9 
ROOT
HETATM    1  C3  UNL     1     -34.344   6.498   6.191  1.00 20.00     0.002 C 
HETATM    2  C4  UNL     1     -33.600   6.972   4.938  1.00 20.00     0.006 C 
HETATM    3  C5  UNL     1     -34.768   5.054   5.915  1.00 20.00     0.020 C 
HETATM    4  C6  UNL     1     -33.540   5.755   4.010  1.00 20.00     0.008 C 
HETATM    5  C7  UNL     1     -34.775   4.931   4.393  1.00 20.00     0.086 C 
HETATM    6 CL10 UNL     1     -36.304   5.591   3.739  1.00 20.00    -0.125 Cl
ENDROOT
BRANCH   4   7
HETATM    7  C9  UNL     1     -33.414   6.107   2.560  1.00 20.00     0.039 C 
BRANCH   7   8
HETATM    8  C2  UNL     1     -32.493   7.280   2.322  1.00 20.00    -0.093 C 
HETATM    9  C1  UNL     1     -31.455   7.534   3.134  1.00 20.00     0.014 C 
HETATM   10  C8  UNL     1     -32.811   8.173   1.158  1.00 20.00     0.042 C 
ENDBRANCH   7   8
ENDBRANCH   4   7
TORSDOF 2
ENDMDL
MODEL 5
REMARK VINA RESULT:      -4.1     10.965     12.118
REMARK  2 active torsions:
REMARK  status: ('A' for Active; 'I' for Inactive)
REMARK    1  A    between atoms: C2_2  and  C9_9 
REMARK    2  A    between atoms: C6_6  and  C9_9 
ROOT
HETATM    1  C3  UNL     1     -35.085  15.116  -7.087  1.00 20.00     0.002 C 
HETATM    2  C4  UNL     1     -34.003  15.088  -6.003  1.00 20.00     0.006 C 
HETATM    3  C5  UNL     1     -36.348  15.658  -6.415  1.00 20.00     0.020 C 
HETATM    4  C6  UNL     1     -34.651  15.700  -4.759  1.00 20.00     0.008 C 
HETATM    5  C7  UNL     1     -36.144  15.395  -4.926  1.00 20.00     0.086 C 
HETATM    6 CL10 UNL     1     -36.573  13.700  -4.547  1.00 20.00    -0.125 Cl
ENDROOT
BRANCH   4   7
HETATM    7  C9  UNL     1     -34.032  15.249  -3.472  1.00 20.00     0.039 C 
BRANCH   7   8
HETATM    8  C2  UNL     1     -34.073  16.311  -2.399  1.00 20.00    -0.093 C 
HETATM    9  C1  UNL     1     -35.102  16.405  -1.544  1.00 20.00     0.014 C 
HETATM   10  C8  UNL     1     -32.928  17.282  -2.356  1.00 20.00     0.042 C 
ENDBRANCH   7   8
ENDBRANCH   4   7
TORSDOF 2
ENDMDL
MODEL 6
REMARK VINA RESULT:      -4.1     10.958     12.059
REMARK  2 active torsions:
REMARK  status: ('A' for Active; 'I' for Inactive)
REMARK    1  A    between atoms: C2_2  and  C9_9 
REMARK    2  A    between atoms: C6_6  and  C9_9 
ROOT
HETATM    1  C3  UNL     1     -34.899  15.010  -7.076  1.00 20.00     0.002 C 
HETATM    2  C4  UNL     1     -33.852  15.039  -5.958  1.00 20.00     0.006 C 
HETATM    3  C5  UNL     1     -36.197  15.535  -6.459  1.00 20.00     0.020 C 
HETATM    4  C6  UNL     1     -34.556  15.666  -4.751  1.00 20.00     0.008 C 
HETATM    5  C7  UNL     1     -36.035  15.317  -4.957  1.00 20.00     0.086 C 
HETATM    6 CL10 UNL     1     -36.430  13.620  -4.547  1.00 20.00    -0.125 Cl
ENDROOT
BRANCH   4   7
HETATM    7  C9  UNL     1     -33.967  15.265  -3.434  1.00 20.00     0.039 C 
BRANCH   7   8
HETATM    8  C2  UNL     1     -33.961  16.393  -2.429  1.00 20.00    -0.093 C 
HETATM    9  C1  UNL     1     -32.935  17.253  -2.346  1.00 20.00     0.014 C 
HETATM   10  C8  UNL     1     -35.139  16.487  -1.502  1.00 20.00     0.042 C 
ENDBRANCH   7   8
ENDBRANCH   4   7
TORSDOF 2
ENDMDL
MODEL 7
REMARK VINA RESULT:      -3.9     10.754     12.187
REMARK  2 active torsions:
REMARK  status: ('A' for Active; 'I' for Inactive)
REMARK    1  A    between atoms: C2_2  and  C9_9 
REMARK    2  A    between atoms: C6_6  and  C9_9 
ROOT
HETATM    1  C3  UNL     1     -32.738  19.122  -3.297  1.00 20.00     0.002 C 
HETATM    2  C4  UNL     1     -33.518  17.902  -3.798  1.00 20.00     0.006 C 
HETATM    3  C5  UNL     1     -32.165  18.733  -1.933  1.00 20.00     0.020 C 
HETATM    4  C6  UNL     1     -33.296  16.812  -2.746  1.00 20.00     0.008 C 
HETATM    5  C7  UNL     1     -33.052  17.589  -1.447  1.00 20.00     0.086 C 
HETATM    6 CL10 UNL     1     -34.547  18.251  -0.721  1.00 20.00    -0.125 Cl
ENDROOT
BRANCH   4   7
HETATM    7  C9  UNL     1     -34.387  15.788  -2.699  1.00 20.00     0.039 C 
BRANCH   7   8
HETATM    8  C2  UNL     1     -34.252  14.741  -3.779  1.00 20.00    -0.093 C 
HETATM    9  C1  UNL     1     -33.074  14.489  -4.369  1.00 20.00     0.014 C 
HETATM   10  C8  UNL     1     -35.503  14.019  -4.191  1.00 20.00     0.042 C 
ENDBRANCH   7   8
ENDBRANCH   4   7
TORSDOF 2
ENDMDL
MODEL 8
REMARK VINA RESULT:      -3.9      9.115      9.795
REMARK  2 active torsions:
REMARK  status: ('A' for Active; 'I' for Inactive)
REMARK    1  A    between atoms: C2_2  and  C9_9 
REMARK    2  A    between atoms: C6_6  and  C9_9 
ROOT
HETATM    1  C3  UNL     1     -41.709   4.246  -1.781  1.00 20.00     0.002 C 
HETATM    2  C4  UNL     1     -40.993   5.432  -1.127  1.00 20.00     0.006 C 
HETATM    3  C5  UNL     1     -43.207   4.507  -1.613  1.00 20.00     0.020 C 
HETATM    4  C6  UNL     1     -42.103   6.387  -0.679  1.00 20.00     0.008 C 
HETATM    5  C7  UNL     1     -43.308   5.472  -0.434  1.00 20.00     0.086 C 
HETATM    6 CL10 UNL     1     -43.211   4.561   1.103  1.00 20.00    -0.125 Cl
ENDROOT
BRANCH   4   7
HETATM    7  C9  UNL     1     -41.712   7.273   0.463  1.00 20.00     0.039 C 
BRANCH   7   8
HETATM    8  C2  UNL     1     -42.042   8.726   0.215  1.00 20.00    -0.093 C 
HETATM    9  C1  UNL     1     -41.164   9.701   0.494  1.00 20.00     0.014 C 
HETATM   10  C8  UNL     1     -43.410   9.033  -0.322  1.00 20.00     0.042 C 
ENDBRANCH   7   8
ENDBRANCH   4   7
TORSDOF 2
ENDMDL
MODEL 9
REMARK VINA RESULT:      -3.9     10.497     11.509
REMARK  2 active torsions:
REMARK  status: ('A' for Active; 'I' for Inactive)
REMARK    1  A    between atoms: C2_2  and  C9_9 
REMARK    2  A    between atoms: C6_6  and  C9_9 
ROOT
HETATM    1  C3  UNL     1     -36.568  14.479  -4.154  1.00 20.00     0.002 C 
HETATM    2  C4  UNL     1     -36.022  15.793  -3.588  1.00 20.00     0.006 C 
HETATM    3  C5  UNL     1     -35.411  13.479  -4.105  1.00 20.00     0.020 C 
HETATM    4  C6  UNL     1     -34.588  15.486  -3.145  1.00 20.00     0.008 C 
HETATM    5  C7  UNL     1     -34.151  14.339  -4.063  1.00 20.00     0.086 C 
HETATM    6 CL10 UNL     1     -33.727  14.872  -5.718  1.00 20.00    -0.125 Cl
ENDROOT
BRANCH   4   7
HETATM    7  C9  UNL     1     -33.693  16.686  -3.126  1.00 20.00     0.039 C 
BRANCH   7   8
HETATM    8  C2  UNL     1     -33.586  17.314  -1.757  1.00 20.00    -0.093 C 
HETATM    9  C1  UNL     1     -34.598  17.258  -0.878  1.00 20.00     0.014 C 
HETATM   10  C8  UNL     1     -32.309  18.036  -1.435  1.00 20.00     0.042 C 
ENDBRANCH   7   8
ENDBRANCH   4   7
TORSDOF 2
ENDMDL
