MODEL 1
REMARK VINA RESULT:      -4.2      0.000      0.000
REMARK  2 active torsions:
REMARK  status: ('A' for Active; 'I' for Inactive)
REMARK    1  A    between atoms: C2_2  and  C7_7 
REMARK    2  A    between atoms: C7_7  and  C8_8 
ROOT
HETATM    1  C7  UNL     1     -33.727   6.702   3.863  1.00 20.00     0.035 C 
ENDROOT
BRANCH   1   2
HETATM    2  C2  UNL     1     -32.712   6.341   2.812  1.00 20.00    -0.030 C 
HETATM    3  C1  UNL     1     -32.374   7.147   1.794  1.00 20.00    -0.035 C 
HETATM    4  C3  UNL     1     -32.962   8.501   1.577  1.00 20.00     0.035 C 
ENDBRANCH   1   2
BRANCH   1   5
HETATM    5  C8  UNL     1     -34.575   5.519   4.405  1.00 20.00    -0.048 C 
HETATM    6  C4  UNL     1     -34.610   5.515   5.944  1.00 20.00     0.014 C 
HETATM    7  C5  UNL     1     -34.022   4.171   3.909  1.00 20.00     0.014 C 
HETATM    8  C6  UNL     1     -36.017   5.679   3.885  1.00 20.00     0.014 C 
ENDBRANCH   1   5
TORSDOF 2
ENDMDL
MODEL 2
REMARK VINA RESULT:      -4.1      0.040      1.528
REMARK  2 active torsions:
REMARK  status: ('A' for Active; 'I' for Inactive)
REMARK    1  A    between atoms: C2_2  and  C7_7 
REMARK    2  A    between atoms: C7_7  and  C8_8 
ROOT
HETATM    1  C7  UNL     1     -33.696   6.711   3.879  1.00 20.00     0.035 C 
ENDROOT
BRANCH   1   2
HETATM    2  C2  UNL     1     -32.710   6.345   2.803  1.00 20.00    -0.030 C 
HETATM    3  C1  UNL     1     -32.384   7.153   1.784  1.00 20.00    -0.035 C 
HETATM    4  C3  UNL     1     -32.957   8.517   1.590  1.00 20.00     0.035 C 
ENDBRANCH   1   2
BRANCH   1   5
HETATM    5  C8  UNL     1     -34.577   5.544   4.402  1.00 20.00    -0.048 C 
HETATM    6  C4  UNL     1     -34.018   4.180   3.961  1.00 20.00     0.014 C 
HETATM    7  C5  UNL     1     -36.027   5.682   3.903  1.00 20.00     0.014 C 
HETATM    8  C6  UNL     1     -34.582   5.594   5.942  1.00 20.00     0.014 C 
ENDBRANCH   1   5
TORSDOF 2
ENDMDL
MODEL 3
REMARK VINA RESULT:      -4.0      1.265      3.959
REMARK  2 active torsions:
REMARK  status: ('A' for Active; 'I' for Inactive)
REMARK    1  A    between atoms: C2_2  and  C7_7 
REMARK    2  A    between atoms: C7_7  and  C8_8 
ROOT
HETATM    1  C7  UNL     1     -34.021   7.217   3.805  1.00 20.00     0.035 C 
ENDROOT
BRANCH   1   2
HETATM    2  C2  UNL     1     -33.722   7.090   5.275  1.00 20.00    -0.030 C 
HETATM    3  C1  UNL     1     -34.165   6.083   6.042  1.00 20.00    -0.035 C 
HETATM    4  C3  UNL     1     -35.010   4.962   5.534  1.00 20.00     0.035 C 
ENDBRANCH   1   2
BRANCH   1   5
HETATM    5  C8  UNL     1     -32.828   6.928   2.854  1.00 20.00    -0.048 C 
HETATM    6  C4  UNL     1     -32.932   7.754   1.560  1.00 20.00     0.014 C 
HETATM    7  C5  UNL     1     -32.759   5.432   2.496  1.00 20.00     0.014 C 
HETATM    8  C6  UNL     1     -31.526   7.319   3.579  1.00 20.00     0.014 C 
ENDBRANCH   1   5
TORSDOF 2
ENDMDL
MODEL 4
REMARK VINA RESULT:      -4.0      1.269      3.896
REMARK  2 active torsions:
REMARK  status: ('A' for Active; 'I' for Inactive)
REMARK    1  A    between atoms: C2_2  and  C7_7 
REMARK    2  A    between atoms: C7_7  and  C8_8 
ROOT
HETATM    1  C7  UNL     1     -34.022   7.191   3.793  1.00 20.00     0.035 C 
ENDROOT
BRANCH   1   2
HETATM    2  C2  UNL     1     -33.735   7.084   5.267  1.00 20.00    -0.030 C 
HETATM    3  C1  UNL     1     -34.177   6.083   6.042  1.00 20.00    -0.035 C 
HETATM    4  C3  UNL     1     -35.009   4.950   5.541  1.00 20.00     0.035 C 
ENDBRANCH   1   2
BRANCH   1   5
HETATM    5  C8  UNL     1     -32.807   6.952   2.858  1.00 20.00    -0.048 C 
HETATM    6  C4  UNL     1     -31.484   7.327   3.551  1.00 20.00     0.014 C 
HETATM    7  C5  UNL     1     -32.944   7.763   1.557  1.00 20.00     0.014 C 
HETATM    8  C6  UNL     1     -32.760   5.454   2.498  1.00 20.00     0.014 C 
ENDBRANCH   1   5
TORSDOF 2
ENDMDL
MODEL 5
REMARK VINA RESULT:      -4.0      1.260      3.887
REMARK  2 active torsions:
REMARK  status: ('A' for Active; 'I' for Inactive)
REMARK    1  A    between atoms: C2_2  and  C7_7 
REMARK    2  A    between atoms: C7_7  and  C8_8 
ROOT
HETATM    1  C7  UNL     1     -34.027   7.205   3.816  1.00 20.00     0.035 C 
ENDROOT
BRANCH   1   2
HETATM    2  C2  UNL     1     -33.752   7.077   5.291  1.00 20.00    -0.030 C 
HETATM    3  C1  UNL     1     -34.195   6.061   6.046  1.00 20.00    -0.035 C 
HETATM    4  C3  UNL     1     -35.017   4.932   5.520  1.00 20.00     0.035 C 
ENDBRANCH   1   2
BRANCH   1   5
HETATM    5  C8  UNL     1     -32.819   6.912   2.885  1.00 20.00    -0.048 C 
HETATM    6  C4  UNL     1     -32.760   5.424   2.497  1.00 20.00     0.014 C 
HETATM    7  C5  UNL     1     -31.494   7.313   3.557  1.00 20.00     0.014 C 
HETATM    8  C6  UNL     1     -32.988   7.744   1.598  1.00 20.00     0.014 C 
ENDBRANCH   1   5
TORSDOF 2
ENDMDL
MODEL 6
REMARK VINA RESULT:      -3.8     15.751     16.695
REMARK  2 active torsions:
REMARK  status: ('A' for Active; 'I' for Inactive)
REMARK    1  A    between atoms: C2_2  and  C7_7 
REMARK    2  A    between atoms: C7_7  and  C8_8 
ROOT
HETATM    1  C7  UNL     1     -23.846  17.198   9.904  1.00 20.00     0.035 C 
ENDROOT
BRANCH   1   2
HETATM    2  C2  UNL     1     -23.290  18.494   9.379  1.00 20.00    -0.030 C 
HETATM    3  C1  UNL     1     -23.915  19.262   8.475  1.00 20.00    -0.035 C 
HETATM    4  C3  UNL     1     -25.240  18.929   7.876  1.00 20.00     0.035 C 
ENDBRANCH   1   2
BRANCH   1   5
HETATM    5  C8  UNL     1     -24.151  17.170  11.426  1.00 20.00    -0.048 C 
HETATM    6  C4  UNL     1     -22.922  17.596  12.250  1.00 20.00     0.014 C 
HETATM    7  C5  UNL     1     -24.598  15.767  11.874  1.00 20.00     0.014 C 
HETATM    8  C6  UNL     1     -25.295  18.163  11.709  1.00 20.00     0.014 C 
ENDBRANCH   1   5
TORSDOF 2
ENDMDL
MODEL 7
REMARK VINA RESULT:      -3.7     11.230     12.098
REMARK  2 active torsions:
REMARK  status: ('A' for Active; 'I' for Inactive)
REMARK    1  A    between atoms: C2_2  and  C7_7 
REMARK    2  A    between atoms: C7_7  and  C8_8 
ROOT
HETATM    1  C7  UNL     1     -33.891  15.976  -2.675  1.00 20.00     0.035 C 
ENDROOT
BRANCH   1   2
HETATM    2  C2  UNL     1     -35.130  16.164  -1.840  1.00 20.00    -0.030 C 
HETATM    3  C1  UNL     1     -35.221  17.038  -0.827  1.00 20.00    -0.035 C 
HETATM    4  C3  UNL     1     -34.106  17.933  -0.399  1.00 20.00     0.035 C 
ENDBRANCH   1   2
BRANCH   1   5
HETATM    5  C8  UNL     1     -34.099  15.222  -4.016  1.00 20.00    -0.048 C 
HETATM    6  C4  UNL     1     -35.259  14.216  -3.919  1.00 20.00     0.014 C 
HETATM    7  C5  UNL     1     -32.818  14.477  -4.434  1.00 20.00     0.014 C 
HETATM    8  C6  UNL     1     -34.441  16.257  -5.105  1.00 20.00     0.014 C 
ENDBRANCH   1   5
TORSDOF 2
ENDMDL
MODEL 8
REMARK VINA RESULT:      -3.7     11.231     12.171
REMARK  2 active torsions:
REMARK  status: ('A' for Active; 'I' for Inactive)
REMARK    1  A    between atoms: C2_2  and  C7_7 
REMARK    2  A    between atoms: C7_7  and  C8_8 
ROOT
HETATM    1  C7  UNL     1     -33.890  15.959  -2.710  1.00 20.00     0.035 C 
ENDROOT
BRANCH   1   2
HETATM    2  C2  UNL     1     -35.117  16.155  -1.861  1.00 20.00    -0.030 C 
HETATM    3  C1  UNL     1     -35.195  17.041  -0.858  1.00 20.00    -0.035 C 
HETATM    4  C3  UNL     1     -34.076  17.943  -0.456  1.00 20.00     0.035 C 
ENDBRANCH   1   2
BRANCH   1   5
HETATM    5  C8  UNL     1     -34.122  15.223  -4.058  1.00 20.00    -0.048 C 
HETATM    6  C4  UNL     1     -34.450  16.216  -5.188  1.00 20.00     0.014 C 
HETATM    7  C5  UNL     1     -35.263  14.198  -3.937  1.00 20.00     0.014 C 
HETATM    8  C6  UNL     1     -32.827  14.474  -4.429  1.00 20.00     0.014 C 
ENDBRANCH   1   5
TORSDOF 2
ENDMDL
MODEL 9
REMARK VINA RESULT:      -3.7     11.253     12.155
REMARK  2 active torsions:
REMARK  status: ('A' for Active; 'I' for Inactive)
REMARK    1  A    between atoms: C2_2  and  C7_7 
REMARK    2  A    between atoms: C7_7  and  C8_8 
ROOT
HETATM    1  C7  UNL     1     -33.856  16.015  -2.712  1.00 20.00     0.035 C 
ENDROOT
BRANCH   1   2
HETATM    2  C2  UNL     1     -35.085  16.159  -1.854  1.00 20.00    -0.030 C 
HETATM    3  C1  UNL     1     -35.183  17.021  -0.831  1.00 20.00    -0.035 C 
HETATM    4  C3  UNL     1     -34.087  17.945  -0.416  1.00 20.00     0.035 C 
ENDBRANCH   1   2
BRANCH   1   5
HETATM    5  C8  UNL     1     -34.065  15.263  -4.055  1.00 20.00    -0.048 C 
HETATM    6  C4  UNL     1     -32.814  14.456  -4.445  1.00 20.00     0.014 C 
HETATM    7  C5  UNL     1     -34.407  16.245  -5.189  1.00 20.00     0.014 C 
HETATM    8  C6  UNL     1     -35.243  14.284  -3.882  1.00 20.00     0.014 C 
ENDBRANCH   1   5
TORSDOF 2
ENDMDL
