MODEL 1
REMARK VINA RESULT:      -5.4      0.000      0.000
REMARK  2 active torsions:
REMARK  status: ('A' for Active; 'I' for Inactive)
REMARK    1  A    between atoms: C5_5  and  C6_6 
REMARK    2  A    between atoms: C6_6  and  C7_7 
ROOT
HETATM    1  C1  UNL     1     -32.607   8.494   0.621  1.00 20.00     0.012 C 
HETATM    2  C2  UNL     1     -32.569   7.844   1.630  1.00 20.00    -0.117 C 
HETATM    3  C5  UNL     1     -32.515   7.049   2.868  1.00 20.00     0.098 C 
ENDROOT
BRANCH   3   4
HETATM    4  C6  UNL     1     -33.665   6.020   2.951  1.00 20.00     0.011 C 
HETATM    5  C3  UNL     1     -33.158   4.604   2.631  1.00 20.00     0.012 C 
BRANCH   4   6
HETATM    6  C7  UNL     1     -34.392   6.123   4.318  1.00 20.00     0.082 C 
HETATM    7  C4  UNL     1     -34.752   4.766   4.915  1.00 20.00     0.027 C 
HETATM    8 CL8  UNL     1     -33.446   7.054   5.521  1.00 20.00    -0.125 Cl
ENDBRANCH   4   6
ENDBRANCH   3   4
TORSDOF 2
ENDMDL
MODEL 2
REMARK VINA RESULT:      -4.3      1.036      1.531
REMARK  2 active torsions:
REMARK  status: ('A' for Active; 'I' for Inactive)
REMARK    1  A    between atoms: C5_5  and  C6_6 
REMARK    2  A    between atoms: C6_6  and  C7_7 
ROOT
HETATM    1  C1  UNL     1     -32.879   9.075   0.818  1.00 20.00     0.012 C 
HETATM    2  C2  UNL     1     -32.870   7.966   1.279  1.00 20.00    -0.117 C 
HETATM    3  C5  UNL     1     -32.862   6.604   1.837  1.00 20.00     0.098 C 
ENDROOT
BRANCH   3   4
HETATM    4  C6  UNL     1     -32.650   6.602   3.367  1.00 20.00     0.011 C 
HETATM    5  C3  UNL     1     -31.821   7.819   3.808  1.00 20.00     0.012 C 
BRANCH   4   6
HETATM    6  C7  UNL     1     -34.010   6.479   4.105  1.00 20.00     0.082 C 
HETATM    7  C4  UNL     1     -34.647   5.099   3.972  1.00 20.00     0.027 C 
HETATM    8 CL8  UNL     1     -33.878   6.891   5.844  1.00 20.00    -0.125 Cl
ENDBRANCH   4   6
ENDBRANCH   3   4
TORSDOF 2
ENDMDL
MODEL 3
REMARK VINA RESULT:      -4.1      1.993      3.907
REMARK  2 active torsions:
REMARK  status: ('A' for Active; 'I' for Inactive)
REMARK    1  A    between atoms: C5_5  and  C6_6 
REMARK    2  A    between atoms: C6_6  and  C7_7 
ROOT
HETATM    1  C1  UNL     1     -34.814   5.366   6.335  1.00 20.00     0.012 C 
HETATM    2  C2  UNL     1     -34.773   5.423   5.136  1.00 20.00    -0.117 C 
HETATM    3  C5  UNL     1     -34.730   5.490   3.666  1.00 20.00     0.098 C 
ENDROOT
BRANCH   3   4
HETATM    4  C6  UNL     1     -33.287   5.618   3.130  1.00 20.00     0.011 C 
HETATM    5  C3  UNL     1     -33.082   4.737   1.888  1.00 20.00     0.012 C 
BRANCH   4   6
HETATM    6  C7  UNL     1     -32.921   7.109   2.899  1.00 20.00     0.082 C 
HETATM    7  C4  UNL     1     -31.800   7.604   3.808  1.00 20.00     0.027 C 
HETATM    8 CL8  UNL     1     -32.478   7.443   1.196  1.00 20.00    -0.125 Cl
ENDBRANCH   4   6
ENDBRANCH   3   4
TORSDOF 2
ENDMDL
MODEL 4
REMARK VINA RESULT:      -3.9      2.034      4.126
REMARK  2 active torsions:
REMARK  status: ('A' for Active; 'I' for Inactive)
REMARK    1  A    between atoms: C5_5  and  C6_6 
REMARK    2  A    between atoms: C6_6  and  C7_7 
ROOT
HETATM    1  C1  UNL     1     -34.876   4.707   6.452  1.00 20.00     0.012 C 
HETATM    2  C2  UNL     1     -34.894   5.211   5.362  1.00 20.00    -0.117 C 
HETATM    3  C5  UNL     1     -34.922   5.823   4.024  1.00 20.00     0.098 C 
ENDROOT
BRANCH   3   4
HETATM    4  C6  UNL     1     -33.806   6.876   3.841  1.00 20.00     0.011 C 
HETATM    5  C3  UNL     1     -33.217   7.293   5.199  1.00 20.00     0.012 C 
BRANCH   4   6
HETATM    6  C7  UNL     1     -32.739   6.371   2.833  1.00 20.00     0.082 C 
HETATM    7  C4  UNL     1     -33.077   5.011   2.227  1.00 20.00     0.027 C 
HETATM    8 CL8  UNL     1     -32.451   7.541   1.507  1.00 20.00    -0.125 Cl
ENDBRANCH   4   6
ENDBRANCH   3   4
TORSDOF 2
ENDMDL
MODEL 5
REMARK VINA RESULT:      -3.8     11.127     11.867
REMARK  2 active torsions:
REMARK  status: ('A' for Active; 'I' for Inactive)
REMARK    1  A    between atoms: C5_5  and  C6_6 
REMARK    2  A    between atoms: C6_6  and  C7_7 
ROOT
HETATM    1  C1  UNL     1     -31.854  18.325  -0.749  1.00 20.00     0.012 C 
HETATM    2  C2  UNL     1     -32.415  17.901  -1.722  1.00 20.00    -0.117 C 
HETATM    3  C5  UNL     1     -33.103  17.388  -2.918  1.00 20.00     0.098 C 
ENDROOT
BRANCH   3   4
HETATM    4  C6  UNL     1     -33.847  16.063  -2.640  1.00 20.00     0.011 C 
HETATM    5  C3  UNL     1     -35.119  16.312  -1.813  1.00 20.00     0.012 C 
BRANCH   4   6
HETATM    6  C7  UNL     1     -34.109  15.296  -3.964  1.00 20.00     0.082 C 
HETATM    7  C4  UNL     1     -32.906  14.489  -4.442  1.00 20.00     0.027 C 
HETATM    8 CL8  UNL     1     -35.528  14.209  -3.848  1.00 20.00    -0.125 Cl
ENDBRANCH   4   6
ENDBRANCH   3   4
TORSDOF 2
ENDMDL
MODEL 6
REMARK VINA RESULT:      -3.8     15.947     16.334
REMARK  2 active torsions:
REMARK  status: ('A' for Active; 'I' for Inactive)
REMARK    1  A    between atoms: C5_5  and  C6_6 
REMARK    2  A    between atoms: C6_6  and  C7_7 
ROOT
HETATM    1  C1  UNL     1     -21.666  17.388   7.832  1.00 20.00     0.012 C 
HETATM    2  C2  UNL     1     -22.421  17.152   8.736  1.00 20.00    -0.117 C 
HETATM    3  C5  UNL     1     -23.346  16.856   9.842  1.00 20.00     0.098 C 
ENDROOT
BRANCH   3   4
HETATM    4  C6  UNL     1     -23.948  18.138  10.458  1.00 20.00     0.011 C 
HETATM    5  C3  UNL     1     -24.819  18.883   9.434  1.00 20.00     0.012 C 
BRANCH   4   6
HETATM    6  C7  UNL     1     -24.690  17.811  11.781  1.00 20.00     0.082 C 
HETATM    7  C4  UNL     1     -25.987  18.595  11.957  1.00 20.00     0.027 C 
HETATM    8 CL8  UNL     1     -25.042  16.062  11.946  1.00 20.00    -0.125 Cl
ENDBRANCH   4   6
ENDBRANCH   3   4
TORSDOF 2
ENDMDL
MODEL 7
REMARK VINA RESULT:      -3.7     10.979     12.244
REMARK  2 active torsions:
REMARK  status: ('A' for Active; 'I' for Inactive)
REMARK    1  A    between atoms: C5_5  and  C6_6 
REMARK    2  A    between atoms: C6_6  and  C7_7 
ROOT
HETATM    1  C1  UNL     1     -35.090  16.488  -1.604  1.00 20.00     0.012 C 
HETATM    2  C2  UNL     1     -34.254  16.182  -2.409  1.00 20.00    -0.117 C 
HETATM    3  C5  UNL     1     -33.223  15.813  -3.393  1.00 20.00     0.098 C 
ENDROOT
BRANCH   3   4
HETATM    4  C6  UNL     1     -33.782  14.901  -4.508  1.00 20.00     0.011 C 
HETATM    5  C3  UNL     1     -34.771  13.875  -3.932  1.00 20.00     0.012 C 
BRANCH   4   6
HETATM    6  C7  UNL     1     -34.374  15.751  -5.663  1.00 20.00     0.082 C 
HETATM    7  C4  UNL     1     -34.053  15.196  -7.048  1.00 20.00     0.027 C 
HETATM    8 CL8  UNL     1     -36.148  15.954  -5.516  1.00 20.00    -0.125 Cl
ENDBRANCH   4   6
ENDBRANCH   3   4
TORSDOF 2
ENDMDL
MODEL 8
REMARK VINA RESULT:      -3.7     11.240     11.784
REMARK  2 active torsions:
REMARK  status: ('A' for Active; 'I' for Inactive)
REMARK    1  A    between atoms: C5_5  and  C6_6 
REMARK    2  A    between atoms: C6_6  and  C7_7 
ROOT
HETATM    1  C1  UNL     1     -32.847  17.956  -1.353  1.00 20.00     0.012 C 
HETATM    2  C2  UNL     1     -33.003  17.144  -2.225  1.00 20.00    -0.117 C 
HETATM    3  C5  UNL     1     -33.189  16.153  -3.297  1.00 20.00     0.098 C 
ENDROOT
BRANCH   3   4
HETATM    4  C6  UNL     1     -34.458  15.297  -3.086  1.00 20.00     0.011 C 
HETATM    5  C3  UNL     1     -35.693  16.188  -2.878  1.00 20.00     0.012 C 
BRANCH   4   6
HETATM    6  C7  UNL     1     -34.621  14.271  -4.239  1.00 20.00     0.082 C 
HETATM    7  C4  UNL     1     -36.060  13.803  -4.433  1.00 20.00     0.027 C 
HETATM    8 CL8  UNL     1     -34.000  14.898  -5.799  1.00 20.00    -0.125 Cl
ENDBRANCH   4   6
ENDBRANCH   3   4
TORSDOF 2
ENDMDL
MODEL 9
REMARK VINA RESULT:      -3.7     15.373     16.174
REMARK  2 active torsions:
REMARK  status: ('A' for Active; 'I' for Inactive)
REMARK    1  A    between atoms: C5_5  and  C6_6 
REMARK    2  A    between atoms: C6_6  and  C7_7 
ROOT
HETATM    1  C1  UNL     1     -25.659  19.226   6.669  1.00 20.00     0.012 C 
HETATM    2  C2  UNL     1     -25.413  19.239   7.845  1.00 20.00    -0.117 C 
HETATM    3  C5  UNL     1     -25.114  19.263   9.286  1.00 20.00     0.098 C 
ENDROOT
BRANCH   3   4
HETATM    4  C6  UNL     1     -24.145  18.133   9.699  1.00 20.00     0.011 C 
HETATM    5  C3  UNL     1     -22.691  18.513   9.377  1.00 20.00     0.012 C 
BRANCH   4   6
HETATM    6  C7  UNL     1     -24.368  17.739  11.183  1.00 20.00     0.082 C 
HETATM    7  C4  UNL     1     -25.499  18.515  11.851  1.00 20.00     0.027 C 
HETATM    8 CL8  UNL     1     -24.672  15.984  11.380  1.00 20.00    -0.125 Cl
ENDBRANCH   4   6
ENDBRANCH   3   4
TORSDOF 2
ENDMDL
