MODEL 1
REMARK VINA RESULT:      -5.1      0.000      0.000
REMARK  2 active torsions:
REMARK  status: ('A' for Active; 'I' for Inactive)
REMARK    1  A    between atoms: C5_5  and  C6_6 
REMARK    2  A    between atoms: C6_6  and  C7_7 
ROOT
HETATM    1  C1  UNL     1     -32.513   8.250   1.185  1.00 20.00     0.012 C 
HETATM    2  C2  UNL     1     -32.678   7.360   1.974  1.00 20.00    -0.117 C 
HETATM    3  C5  UNL     1     -32.879   6.266   2.938  1.00 20.00     0.098 C 
ENDROOT
BRANCH   3   4
HETATM    4  C6  UNL     1     -33.908   6.630   4.031  1.00 20.00     0.011 C 
HETATM    5  C3  UNL     1     -33.220   7.312   5.224  1.00 20.00     0.012 C 
BRANCH   4   6
HETATM    6  C7  UNL     1     -34.754   5.393   4.434  1.00 20.00     0.082 C 
HETATM    7  C4  UNL     1     -34.845   5.192   5.943  1.00 20.00     0.027 C 
HETATM    8 CL8  UNL     1     -34.155   3.880   3.683  1.00 20.00    -0.125 Cl
ENDBRANCH   4   6
ENDBRANCH   3   4
TORSDOF 2
ENDMDL
MODEL 2
REMARK VINA RESULT:      -4.8      1.161      1.836
REMARK  2 active torsions:
REMARK  status: ('A' for Active; 'I' for Inactive)
REMARK    1  A    between atoms: C5_5  and  C6_6 
REMARK    2  A    between atoms: C6_6  and  C7_7 
ROOT
HETATM    1  C1  UNL     1     -32.904   8.347   0.690  1.00 20.00     0.012 C 
HETATM    2  C2  UNL     1     -32.546   7.863   1.730  1.00 20.00    -0.117 C 
HETATM    3  C5  UNL     1     -32.102   7.273   3.003  1.00 20.00     0.098 C 
ENDROOT
BRANCH   3   4
HETATM    4  C6  UNL     1     -32.928   6.027   3.390  1.00 20.00     0.011 C 
HETATM    5  C3  UNL     1     -33.303   5.211   2.143  1.00 20.00     0.012 C 
BRANCH   4   6
HETATM    6  C7  UNL     1     -34.152   6.418   4.259  1.00 20.00     0.082 C 
HETATM    7  C4  UNL     1     -33.769   6.893   5.658  1.00 20.00     0.027 C 
HETATM    8 CL8  UNL     1     -35.342   5.086   4.406  1.00 20.00    -0.125 Cl
ENDBRANCH   4   6
ENDBRANCH   3   4
TORSDOF 2
ENDMDL
MODEL 3
REMARK VINA RESULT:      -4.4      1.274      1.651
REMARK  2 active torsions:
REMARK  status: ('A' for Active; 'I' for Inactive)
REMARK    1  A    between atoms: C5_5  and  C6_6 
REMARK    2  A    between atoms: C6_6  and  C7_7 
ROOT
HETATM    1  C1  UNL     1     -32.802   8.525   0.675  1.00 20.00     0.012 C 
HETATM    2  C2  UNL     1     -32.527   7.886   1.654  1.00 20.00    -0.117 C 
HETATM    3  C5  UNL     1     -32.185   7.102   2.851  1.00 20.00     0.098 C 
ENDROOT
BRANCH   3   4
HETATM    4  C6  UNL     1     -33.428   6.766   3.706  1.00 20.00     0.011 C 
HETATM    5  C3  UNL     1     -33.297   7.361   5.117  1.00 20.00     0.012 C 
BRANCH   4   6
HETATM    6  C7  UNL     1     -33.709   5.241   3.706  1.00 20.00     0.082 C 
HETATM    7  C4  UNL     1     -33.600   4.609   2.322  1.00 20.00     0.027 C 
HETATM    8 CL8  UNL     1     -35.312   4.839   4.401  1.00 20.00    -0.125 Cl
ENDBRANCH   4   6
ENDBRANCH   3   4
TORSDOF 2
ENDMDL
MODEL 4
REMARK VINA RESULT:      -4.3      2.104      4.129
REMARK  2 active torsions:
REMARK  status: ('A' for Active; 'I' for Inactive)
REMARK    1  A    between atoms: C5_5  and  C6_6 
REMARK    2  A    between atoms: C6_6  and  C7_7 
ROOT
HETATM    1  C1  UNL     1     -34.941   4.969   6.039  1.00 20.00     0.012 C 
HETATM    2  C2  UNL     1     -34.468   5.811   5.325  1.00 20.00    -0.117 C 
HETATM    3  C5  UNL     1     -33.891   6.848   4.455  1.00 20.00     0.098 C 
ENDROOT
BRANCH   3   4
HETATM    4  C6  UNL     1     -33.656   6.339   3.015  1.00 20.00     0.011 C 
HETATM    5  C3  UNL     1     -33.621   4.803   2.978  1.00 20.00     0.012 C 
BRANCH   4   6
HETATM    6  C7  UNL     1     -32.398   6.997   2.390  1.00 20.00     0.082 C 
HETATM    7  C4  UNL     1     -31.499   7.674   3.420  1.00 20.00     0.027 C 
HETATM    8 CL8  UNL     1     -32.809   8.184   1.111  1.00 20.00    -0.125 Cl
ENDBRANCH   4   6
ENDBRANCH   3   4
TORSDOF 2
ENDMDL
MODEL 5
REMARK VINA RESULT:      -3.9     15.973     16.728
REMARK  2 active torsions:
REMARK  status: ('A' for Active; 'I' for Inactive)
REMARK    1  A    between atoms: C5_5  and  C6_6 
REMARK    2  A    between atoms: C6_6  and  C7_7 
ROOT
HETATM    1  C1  UNL     1     -22.024  17.330   8.294  1.00 20.00     0.012 C 
HETATM    2  C2  UNL     1     -22.804  17.130   9.185  1.00 20.00    -0.117 C 
HETATM    3  C5  UNL     1     -23.763  16.882  10.274  1.00 20.00     0.098 C 
ENDROOT
BRANCH   3   4
HETATM    4  C6  UNL     1     -23.646  17.926  11.406  1.00 20.00     0.011 C 
HETATM    5  C3  UNL     1     -22.318  17.764  12.163  1.00 20.00     0.012 C 
BRANCH   4   6
HETATM    6  C7  UNL     1     -24.890  17.885  12.332  1.00 20.00     0.082 C 
HETATM    7  C4  UNL     1     -25.596  16.533  12.332  1.00 20.00     0.027 C 
HETATM    8 CL8  UNL     1     -26.083  19.162  11.933  1.00 20.00    -0.125 Cl
ENDBRANCH   4   6
ENDBRANCH   3   4
TORSDOF 2
ENDMDL
MODEL 6
REMARK VINA RESULT:      -3.7     11.387     11.964
REMARK  2 active torsions:
REMARK  status: ('A' for Active; 'I' for Inactive)
REMARK    1  A    between atoms: C5_5  and  C6_6 
REMARK    2  A    between atoms: C6_6  and  C7_7 
ROOT
HETATM    1  C1  UNL     1     -35.297  17.392   0.442  1.00 20.00     0.012 C 
HETATM    2  C2  UNL     1     -35.352  16.953  -0.675  1.00 20.00    -0.117 C 
HETATM    3  C5  UNL     1     -35.425  16.415  -2.042  1.00 20.00     0.098 C 
ENDROOT
BRANCH   3   4
HETATM    4  C6  UNL     1     -34.048  15.943  -2.560  1.00 20.00     0.011 C 
HETATM    5  C3  UNL     1     -33.043  17.106  -2.576  1.00 20.00     0.012 C 
BRANCH   4   6
HETATM    6  C7  UNL     1     -34.183  15.229  -3.930  1.00 20.00     0.082 C 
HETATM    7  C4  UNL     1     -35.339  14.235  -3.980  1.00 20.00     0.027 C 
HETATM    8 CL8  UNL     1     -32.676  14.388  -4.416  1.00 20.00    -0.125 Cl
ENDBRANCH   4   6
ENDBRANCH   3   4
TORSDOF 2
ENDMDL
MODEL 7
REMARK VINA RESULT:      -3.7     11.334     12.072
REMARK  2 active torsions:
REMARK  status: ('A' for Active; 'I' for Inactive)
REMARK    1  A    between atoms: C5_5  and  C6_6 
REMARK    2  A    between atoms: C6_6  and  C7_7 
ROOT
HETATM    1  C1  UNL     1     -33.039  17.058  -2.349  1.00 20.00     0.012 C 
HETATM    2  C2  UNL     1     -33.979  16.349  -2.585  1.00 20.00    -0.117 C 
HETATM    3  C5  UNL     1     -35.134  15.482  -2.869  1.00 20.00     0.098 C 
ENDROOT
BRANCH   3   4
HETATM    4  C6  UNL     1     -34.761  14.290  -3.779  1.00 20.00     0.011 C 
HETATM    5  C3  UNL     1     -33.396  14.519  -4.446  1.00 20.00     0.012 C 
BRANCH   4   6
HETATM    6  C7  UNL     1     -35.896  13.987  -4.792  1.00 20.00     0.082 C 
HETATM    7  C4  UNL     1     -35.655  14.598  -6.169  1.00 20.00     0.027 C 
HETATM    8 CL8  UNL     1     -37.503  14.516  -4.198  1.00 20.00    -0.125 Cl
ENDBRANCH   4   6
ENDBRANCH   3   4
TORSDOF 2
ENDMDL
MODEL 8
REMARK VINA RESULT:      -3.7     16.071     16.537
REMARK  2 active torsions:
REMARK  status: ('A' for Active; 'I' for Inactive)
REMARK    1  A    between atoms: C5_5  and  C6_6 
REMARK    2  A    between atoms: C6_6  and  C7_7 
ROOT
HETATM    1  C1  UNL     1     -24.633  19.263   6.793  1.00 20.00     0.012 C 
HETATM    2  C2  UNL     1     -24.713  19.040   7.971  1.00 20.00    -0.117 C 
HETATM    3  C5  UNL     1     -24.815  18.770   9.414  1.00 20.00     0.098 C 
ENDROOT
BRANCH   3   4
HETATM    4  C6  UNL     1     -23.493  18.228  10.003  1.00 20.00     0.011 C 
HETATM    5  C3  UNL     1     -22.847  17.211   9.050  1.00 20.00     0.012 C 
BRANCH   4   6
HETATM    6  C7  UNL     1     -23.707  17.677  11.437  1.00 20.00     0.082 C 
HETATM    7  C4  UNL     1     -22.436  17.681  12.280  1.00 20.00     0.027 C 
HETATM    8 CL8  UNL     1     -24.398  16.022  11.439  1.00 20.00    -0.125 Cl
ENDBRANCH   4   6
ENDBRANCH   3   4
TORSDOF 2
ENDMDL
MODEL 9
REMARK VINA RESULT:      -3.7     11.745     12.145
REMARK  2 active torsions:
REMARK  status: ('A' for Active; 'I' for Inactive)
REMARK    1  A    between atoms: C5_5  and  C6_6 
REMARK    2  A    between atoms: C6_6  and  C7_7 
ROOT
HETATM    1  C1  UNL     1     -35.229  17.043  -0.668  1.00 20.00     0.012 C 
HETATM    2  C2  UNL     1     -34.583  16.734  -1.632  1.00 20.00    -0.117 C 
HETATM    3  C5  UNL     1     -33.791  16.363  -2.816  1.00 20.00     0.098 C 
ENDROOT
BRANCH   3   4
HETATM    4  C6  UNL     1     -34.211  14.993  -3.394  1.00 20.00     0.011 C 
HETATM    5  C3  UNL     1     -33.241  14.547  -4.500  1.00 20.00     0.012 C 
BRANCH   4   6
HETATM    6  C7  UNL     1     -35.694  15.011  -3.848  1.00 20.00     0.082 C 
HETATM    7  C4  UNL     1     -36.141  13.704  -4.496  1.00 20.00     0.027 C 
HETATM    8 CL8  UNL     1     -36.052  16.365  -4.967  1.00 20.00    -0.125 Cl
ENDBRANCH   4   6
ENDBRANCH   3   4
TORSDOF 2
ENDMDL
