MODEL 1
REMARK VINA RESULT:      -6.6      0.000      0.000
REMARK  2 active torsions:
REMARK  status: ('A' for Active; 'I' for Inactive)
REMARK    1  A    between atoms: C7_7  and  C9_9 
REMARK    2  A    between atoms: C8_8  and  C9_9 
ROOT
HETATM    1  C1  UNL     1     -32.918   8.734   0.462  1.00 20.00     0.012 C 
HETATM    2  C2  UNL     1     -32.575   8.059   1.394  1.00 20.00    -0.117 C 
HETATM    3  C8  UNL     1     -32.150   7.238   2.535  1.00 20.00     0.093 C 
ENDROOT
BRANCH   3   4
HETATM    4  C9  UNL     1     -33.080   6.048   2.714  1.00 20.00     0.024 C 
BRANCH   4   5
HETATM    5  C7  UNL     1     -34.067   6.288   3.839  1.00 20.00     0.056 C 
HETATM    6  C3  UNL     1     -34.487   5.014   4.542  1.00 20.00     0.131 C 
HETATM    7  C4  UNL     1     -34.484   5.169   6.042  1.00 20.00     0.079 C 
HETATM    8  O10 UNL     1     -34.792   3.976   3.969  1.00 20.00    -0.298 OA
HETATM    9  C5  UNL     1     -34.302   6.674   6.204  1.00 20.00     0.008 C 
HETATM   10  C6  UNL     1     -33.468   7.087   4.999  1.00 20.00     0.013 C 
ENDBRANCH   4   5
ENDBRANCH   3   4
TORSDOF 2
ENDMDL
MODEL 2
REMARK VINA RESULT:      -5.4      1.505      2.070
REMARK  2 active torsions:
REMARK  status: ('A' for Active; 'I' for Inactive)
REMARK    1  A    between atoms: C7_7  and  C9_9 
REMARK    2  A    between atoms: C8_8  and  C9_9 
ROOT
HETATM    1  C1  UNL     1     -33.321   9.129  -0.005  1.00 20.00     0.012 C 
HETATM    2  C2  UNL     1     -32.837   8.339   0.759  1.00 20.00    -0.117 C 
HETATM    3  C8  UNL     1     -32.242   7.371   1.689  1.00 20.00     0.093 C 
ENDROOT
BRANCH   3   4
HETATM    4  C9  UNL     1     -32.806   7.557   3.089  1.00 20.00     0.024 C 
BRANCH   4   5
HETATM    5  C7  UNL     1     -33.024   6.223   3.774  1.00 20.00     0.056 C 
HETATM    6  C3  UNL     1     -34.013   6.298   4.919  1.00 20.00     0.131 C 
HETATM    7  C4  UNL     1     -34.996   5.155   4.893  1.00 20.00     0.079 C 
HETATM    8  O10 UNL     1     -34.023   7.180   5.768  1.00 20.00    -0.298 OA
HETATM    9  C5  UNL     1     -34.389   4.240   3.835  1.00 20.00     0.008 C 
HETATM   10  C6  UNL     1     -33.694   5.188   2.867  1.00 20.00     0.013 C 
ENDBRANCH   4   5
ENDBRANCH   3   4
TORSDOF 2
ENDMDL
MODEL 3
REMARK VINA RESULT:      -4.5     11.333     12.129
REMARK  2 active torsions:
REMARK  status: ('A' for Active; 'I' for Inactive)
REMARK    1  A    between atoms: C7_7  and  C9_9 
REMARK    2  A    between atoms: C8_8  and  C9_9 
ROOT
HETATM    1  C1  UNL     1     -32.692  17.746  -1.947  1.00 20.00     0.012 C 
HETATM    2  C2  UNL     1     -33.544  16.917  -2.116  1.00 20.00    -0.117 C 
HETATM    3  C8  UNL     1     -34.588  15.904  -2.319  1.00 20.00     0.093 C 
ENDROOT
BRANCH   3   4
HETATM    4  C9  UNL     1     -34.316  15.101  -3.582  1.00 20.00     0.024 C 
BRANCH   4   5
HETATM    5  C7  UNL     1     -35.490  15.170  -4.539  1.00 20.00     0.056 C 
HETATM    6  C3  UNL     1     -36.376  13.944  -4.480  1.00 20.00     0.131 C 
HETATM    7  C4  UNL     1     -37.840  14.304  -4.458  1.00 20.00     0.079 C 
HETATM    8  O10 UNL     1     -35.962  12.792  -4.452  1.00 20.00    -0.298 OA
HETATM    9  C5  UNL     1     -37.803  15.795  -4.776  1.00 20.00     0.008 C 
HETATM   10  C6  UNL     1     -36.486  16.276  -4.183  1.00 20.00     0.013 C 
ENDBRANCH   4   5
ENDBRANCH   3   4
TORSDOF 2
ENDMDL
MODEL 4
REMARK VINA RESULT:      -4.4     11.248     12.361
REMARK  2 active torsions:
REMARK  status: ('A' for Active; 'I' for Inactive)
REMARK    1  A    between atoms: C7_7  and  C9_9 
REMARK    2  A    between atoms: C8_8  and  C9_9 
ROOT
HETATM    1  C1  UNL     1     -35.156  17.568  -0.287  1.00 20.00     0.012 C 
HETATM    2  C2  UNL     1     -34.755  16.977  -1.252  1.00 20.00    -0.117 C 
HETATM    3  C8  UNL     1     -34.261  16.257  -2.433  1.00 20.00     0.093 C 
ENDROOT
BRANCH   3   4
HETATM    4  C9  UNL     1     -35.227  15.150  -2.827  1.00 20.00     0.024 C 
BRANCH   4   5
HETATM    5  C7  UNL     1     -34.826  14.517  -4.145  1.00 20.00     0.056 C 
HETATM    6  C3  UNL     1     -36.013  14.122  -4.999  1.00 20.00     0.131 C 
HETATM    7  C4  UNL     1     -35.831  14.522  -6.441  1.00 20.00     0.079 C 
HETATM    8  O10 UNL     1     -37.008  13.548  -4.576  1.00 20.00    -0.298 OA
HETATM    9  C5  UNL     1     -34.364  14.937  -6.471  1.00 20.00     0.008 C 
HETATM   10  C6  UNL     1     -34.098  15.489  -5.077  1.00 20.00     0.013 C 
ENDBRANCH   4   5
ENDBRANCH   3   4
TORSDOF 2
ENDMDL
MODEL 5
REMARK VINA RESULT:      -4.4     11.188     12.269
REMARK  2 active torsions:
REMARK  status: ('A' for Active; 'I' for Inactive)
REMARK    1  A    between atoms: C7_7  and  C9_9 
REMARK    2  A    between atoms: C8_8  and  C9_9 
ROOT
HETATM    1  C1  UNL     1     -35.543  15.169  -7.789  1.00 20.00     0.012 C 
HETATM    2  C2  UNL     1     -35.992  15.206  -6.676  1.00 20.00    -0.117 C 
HETATM    3  C8  UNL     1     -36.544  15.256  -5.316  1.00 20.00     0.093 C 
ENDROOT
BRANCH   3   4
HETATM    4  C9  UNL     1     -36.072  14.060  -4.503  1.00 20.00     0.024 C 
BRANCH   4   5
HETATM    5  C7  UNL     1     -35.065  14.476  -3.450  1.00 20.00     0.056 C 
HETATM    6  C3  UNL     1     -33.699  14.787  -4.025  1.00 20.00     0.131 C 
HETATM    7  C4  UNL     1     -33.116  16.052  -3.448  1.00 20.00     0.079 C 
HETATM    8  O10 UNL     1     -33.128  14.099  -4.862  1.00 20.00    -0.298 OA
HETATM    9  C5  UNL     1     -34.076  16.347  -2.301  1.00 20.00     0.008 C 
HETATM   10  C6  UNL     1     -35.417  15.806  -2.779  1.00 20.00     0.013 C 
ENDBRANCH   4   5
ENDBRANCH   3   4
TORSDOF 2
ENDMDL
MODEL 6
REMARK VINA RESULT:      -4.4     11.229     12.274
REMARK  2 active torsions:
REMARK  status: ('A' for Active; 'I' for Inactive)
REMARK    1  A    between atoms: C7_7  and  C9_9 
REMARK    2  A    between atoms: C8_8  and  C9_9 
ROOT
HETATM    1  C1  UNL     1     -35.074  16.262  -1.560  1.00 20.00     0.012 C 
HETATM    2  C2  UNL     1     -34.275  16.087  -2.439  1.00 20.00    -0.117 C 
HETATM    3  C8  UNL     1     -33.294  15.878  -3.512  1.00 20.00     0.093 C 
ENDROOT
BRANCH   3   4
HETATM    4  C9  UNL     1     -33.558  14.564  -4.230  1.00 20.00     0.024 C 
BRANCH   4   5
HETATM    5  C7  UNL     1     -34.675  14.708  -5.245  1.00 20.00     0.056 C 
HETATM    6  C3  UNL     1     -35.927  13.947  -4.861  1.00 20.00     0.131 C 
HETATM    7  C4  UNL     1     -37.174  14.769  -5.068  1.00 20.00     0.079 C 
HETATM    8  O10 UNL     1     -35.935  12.801  -4.431  1.00 20.00    -0.298 OA
HETATM    9  C5  UNL     1     -36.639  15.965  -5.846  1.00 20.00     0.008 C 
HETATM   10  C6  UNL     1     -35.212  16.138  -5.342  1.00 20.00     0.013 C 
ENDBRANCH   4   5
ENDBRANCH   3   4
TORSDOF 2
ENDMDL
MODEL 7
REMARK VINA RESULT:      -4.3      9.549     10.186
REMARK  2 active torsions:
REMARK  status: ('A' for Active; 'I' for Inactive)
REMARK    1  A    between atoms: C7_7  and  C9_9 
REMARK    2  A    between atoms: C8_8  and  C9_9 
ROOT
HETATM    1  C1  UNL     1     -41.918   2.376  -3.940  1.00 20.00     0.012 C 
HETATM    2  C2  UNL     1     -42.308   3.131  -3.091  1.00 20.00    -0.117 C 
HETATM    3  C8  UNL     1     -42.790   4.052  -2.054  1.00 20.00     0.093 C 
ENDROOT
BRANCH   3   4
HETATM    4  C9  UNL     1     -41.648   4.906  -1.525  1.00 20.00     0.024 C 
BRANCH   4   5
HETATM    5  C7  UNL     1     -42.149   6.255  -1.047  1.00 20.00     0.056 C 
HETATM    6  C3  UNL     1     -42.181   6.374   0.463  1.00 20.00     0.131 C 
HETATM    7  C4  UNL     1     -41.621   7.691   0.938  1.00 20.00     0.079 C 
HETATM    8  O10 UNL     1     -42.609   5.509   1.216  1.00 20.00    -0.298 OA
HETATM    9  C5  UNL     1     -41.495   8.470  -0.366  1.00 20.00     0.008 C 
HETATM   10  C6  UNL     1     -41.210   7.406  -1.418  1.00 20.00     0.013 C 
ENDBRANCH   4   5
ENDBRANCH   3   4
TORSDOF 2
ENDMDL
MODEL 8
REMARK VINA RESULT:      -4.3     11.419     12.542
REMARK  2 active torsions:
REMARK  status: ('A' for Active; 'I' for Inactive)
REMARK    1  A    between atoms: C7_7  and  C9_9 
REMARK    2  A    between atoms: C8_8  and  C9_9 
ROOT
HETATM    1  C1  UNL     1     -35.191  16.899  -0.839  1.00 20.00     0.012 C 
HETATM    2  C2  UNL     1     -34.295  16.902  -1.639  1.00 20.00    -0.117 C 
HETATM    3  C8  UNL     1     -33.198  16.910  -2.615  1.00 20.00     0.093 C 
ENDROOT
BRANCH   3   4
HETATM    4  C9  UNL     1     -33.255  15.671  -3.495  1.00 20.00     0.024 C 
BRANCH   4   5
HETATM    5  C7  UNL     1     -34.673  15.382  -3.944  1.00 20.00     0.056 C 
HETATM    6  C3  UNL     1     -34.897  15.660  -5.416  1.00 20.00     0.131 C 
HETATM    7  C4  UNL     1     -35.674  14.555  -6.088  1.00 20.00     0.079 C 
HETATM    8  O10 UNL     1     -34.497  16.658  -6.001  1.00 20.00    -0.298 OA
HETATM    9  C5  UNL     1     -36.139  13.726  -4.896  1.00 20.00     0.008 C 
HETATM   10  C6  UNL     1     -35.036  13.897  -3.860  1.00 20.00     0.013 C 
ENDBRANCH   4   5
ENDBRANCH   3   4
TORSDOF 2
ENDMDL
MODEL 9
REMARK VINA RESULT:      -4.2     11.496     12.354
REMARK  2 active torsions:
REMARK  status: ('A' for Active; 'I' for Inactive)
REMARK    1  A    between atoms: C7_7  and  C9_9 
REMARK    2  A    between atoms: C8_8  and  C9_9 
ROOT
HETATM    1  C1  UNL     1     -33.065  18.550   1.174  1.00 20.00     0.012 C 
HETATM    2  C2  UNL     1     -32.561  18.436   0.090  1.00 20.00    -0.117 C 
HETATM    3  C8  UNL     1     -31.939  18.297  -1.234  1.00 20.00     0.093 C 
ENDROOT
BRANCH   3   4
HETATM    4  C9  UNL     1     -32.995  18.036  -2.297  1.00 20.00     0.024 C 
BRANCH   4   5
HETATM    5  C7  UNL     1     -33.353  16.565  -2.363  1.00 20.00     0.056 C 
HETATM    6  C3  UNL     1     -34.811  16.295  -2.057  1.00 20.00     0.131 C 
HETATM    7  C4  UNL     1     -35.422  15.317  -3.029  1.00 20.00     0.079 C 
HETATM    8  O10 UNL     1     -35.431  16.807  -1.134  1.00 20.00    -0.298 OA
HETATM    9  C5  UNL     1     -34.194  14.804  -3.774  1.00 20.00     0.008 C 
HETATM   10  C6  UNL     1     -33.230  15.983  -3.773  1.00 20.00     0.013 C 
ENDBRANCH   4   5
ENDBRANCH   3   4
TORSDOF 2
ENDMDL
