MODEL 1
REMARK VINA RESULT:      -5.2      0.000      0.000
REMARK  4 active torsions:
REMARK  status: ('A' for Active; 'I' for Inactive)
REMARK    1  A    between atoms: C3_3  and  C7_7 
REMARK    2  A    between atoms: C3_3  and  C9_9 
REMARK    3  A    between atoms: C6_6  and  C8_8 
REMARK    4  A    between atoms: C7_7  and  C8_8 
ROOT
HETATM    1  C1  UNL     1     -32.965   8.815   0.327  1.00 20.00     0.012 C 
HETATM    2  C2  UNL     1     -32.639   8.153   1.274  1.00 20.00    -0.117 C 
HETATM    3  C6  UNL     1     -32.237   7.344   2.433  1.00 20.00     0.093 C 
ENDROOT
BRANCH   3   4
HETATM    4  C8  UNL     1     -32.750   5.911   2.311  1.00 20.00     0.019 C 
BRANCH   4   5
HETATM    5  C7  UNL     1     -34.212   5.804   2.741  1.00 20.00     0.079 C 
BRANCH   5   6
HETATM    6  C3  UNL     1     -34.387   5.007   4.025  1.00 20.00     0.130 C 
HETATM    7  O10 UNL     1     -34.246   3.784   4.061  1.00 20.00    -0.298 OA
BRANCH   6   8
HETATM    8  C9  UNL     1     -34.777   5.806   5.267  1.00 20.00     0.047 C 
HETATM    9  C4  UNL     1     -33.734   6.877   5.576  1.00 20.00     0.017 C 
HETATM   10  C5  UNL     1     -34.958   4.864   6.451  1.00 20.00     0.017 C 
ENDBRANCH   6   8
ENDBRANCH   5   6
ENDBRANCH   4   5
ENDBRANCH   3   4
TORSDOF 4
ENDMDL
MODEL 2
REMARK VINA RESULT:      -4.9      1.070      4.176
REMARK  4 active torsions:
REMARK  status: ('A' for Active; 'I' for Inactive)
REMARK    1  A    between atoms: C3_3  and  C7_7 
REMARK    2  A    between atoms: C3_3  and  C9_9 
REMARK    3  A    between atoms: C6_6  and  C8_8 
REMARK    4  A    between atoms: C7_7  and  C8_8 
ROOT
HETATM    1  C1  UNL     1     -33.696   7.347   6.358  1.00 20.00     0.012 C 
HETATM    2  C2  UNL     1     -34.205   6.302   6.062  1.00 20.00    -0.117 C 
HETATM    3  C6  UNL     1     -34.828   5.020   5.702  1.00 20.00     0.093 C 
ENDROOT
BRANCH   3   4
HETATM    4  C8  UNL     1     -34.978   4.886   4.187  1.00 20.00     0.019 C 
BRANCH   4   5
HETATM    5  C7  UNL     1     -34.390   6.093   3.460  1.00 20.00     0.079 C 
BRANCH   5   6
HETATM    6  C3  UNL     1     -33.158   5.738   2.641  1.00 20.00     0.130 C 
HETATM    7  O10 UNL     1     -32.925   4.586   2.275  1.00 20.00    -0.298 OA
BRANCH   6   8
HETATM    8  C9  UNL     1     -32.206   6.889   2.322  1.00 20.00     0.047 C 
HETATM    9  C4  UNL     1     -31.770   7.606   3.597  1.00 20.00     0.017 C 
HETATM   10  C5  UNL     1     -32.875   7.858   1.354  1.00 20.00     0.017 C 
ENDBRANCH   6   8
ENDBRANCH   5   6
ENDBRANCH   4   5
ENDBRANCH   3   4
TORSDOF 4
ENDMDL
MODEL 3
REMARK VINA RESULT:      -4.8      1.444      1.929
REMARK  4 active torsions:
REMARK  status: ('A' for Active; 'I' for Inactive)
REMARK    1  A    between atoms: C3_3  and  C7_7 
REMARK    2  A    between atoms: C3_3  and  C9_9 
REMARK    3  A    between atoms: C6_6  and  C8_8 
REMARK    4  A    between atoms: C7_7  and  C8_8 
ROOT
HETATM    1  C1  UNL     1     -33.619   9.222  -0.057  1.00 20.00     0.012 C 
HETATM    2  C2  UNL     1     -32.810   8.534   0.504  1.00 20.00    -0.117 C 
HETATM    3  C6  UNL     1     -31.819   7.691   1.188  1.00 20.00     0.093 C 
ENDROOT
BRANCH   3   4
HETATM    4  C8  UNL     1     -32.146   7.550   2.673  1.00 20.00     0.019 C 
BRANCH   4   5
HETATM    5  C7  UNL     1     -33.174   6.447   2.916  1.00 20.00     0.079 C 
BRANCH   5   6
HETATM    6  C3  UNL     1     -33.737   6.473   4.329  1.00 20.00     0.130 C 
HETATM    7  O10 UNL     1     -33.375   7.303   5.163  1.00 20.00    -0.298 OA
BRANCH   6   8
HETATM    8  C9  UNL     1     -34.760   5.390   4.667  1.00 20.00     0.047 C 
HETATM    9  C4  UNL     1     -34.858   5.186   6.177  1.00 20.00     0.017 C 
HETATM   10  C5  UNL     1     -34.386   4.090   3.965  1.00 20.00     0.017 C 
ENDBRANCH   6   8
ENDBRANCH   5   6
ENDBRANCH   4   5
ENDBRANCH   3   4
TORSDOF 4
ENDMDL
MODEL 4
REMARK VINA RESULT:      -4.5     11.322     12.181
REMARK  4 active torsions:
REMARK  status: ('A' for Active; 'I' for Inactive)
REMARK    1  A    between atoms: C3_3  and  C7_7 
REMARK    2  A    between atoms: C3_3  and  C9_9 
REMARK    3  A    between atoms: C6_6  and  C8_8 
REMARK    4  A    between atoms: C7_7  and  C8_8 
ROOT
HETATM    1  C1  UNL     1     -35.090  16.322  -1.628  1.00 20.00     0.012 C 
HETATM    2  C2  UNL     1     -34.257  16.089  -2.461  1.00 20.00    -0.117 C 
HETATM    3  C6  UNL     1     -33.237  15.809  -3.480  1.00 20.00     0.093 C 
ENDROOT
BRANCH   3   4
HETATM    4  C8  UNL     1     -33.528  14.496  -4.206  1.00 20.00     0.019 C 
BRANCH   4   5
HETATM    5  C7  UNL     1     -34.519  14.700  -5.350  1.00 20.00     0.079 C 
BRANCH   5   6
HETATM    6  C3  UNL     1     -35.885  14.098  -5.055  1.00 20.00     0.130 C 
HETATM    7  O10 UNL     1     -36.021  12.927  -4.701  1.00 20.00    -0.298 OA
BRANCH   6   8
HETATM    8  C9  UNL     1     -37.085  15.021  -5.251  1.00 20.00     0.047 C 
HETATM    9  C4  UNL     1     -36.653  16.485  -5.251  1.00 20.00     0.017 C 
HETATM   10  C5  UNL     1     -38.120  14.759  -4.163  1.00 20.00     0.017 C 
ENDBRANCH   6   8
ENDBRANCH   5   6
ENDBRANCH   4   5
ENDBRANCH   3   4
TORSDOF 4
ENDMDL
MODEL 5
REMARK VINA RESULT:      -4.4     11.032     12.115
REMARK  4 active torsions:
REMARK  status: ('A' for Active; 'I' for Inactive)
REMARK    1  A    between atoms: C3_3  and  C7_7 
REMARK    2  A    between atoms: C3_3  and  C9_9 
REMARK    3  A    between atoms: C6_6  and  C8_8 
REMARK    4  A    between atoms: C7_7  and  C8_8 
ROOT
HETATM    1  C1  UNL     1     -35.264  16.683  -1.264  1.00 20.00     0.012 C 
HETATM    2  C2  UNL     1     -34.347  16.521  -2.021  1.00 20.00    -0.117 C 
HETATM    3  C6  UNL     1     -33.222  16.326  -2.947  1.00 20.00     0.093 C 
ENDROOT
BRANCH   3   4
HETATM    4  C8  UNL     1     -33.663  15.566  -4.197  1.00 20.00     0.019 C 
BRANCH   4   5
HETATM    5  C7  UNL     1     -34.173  14.169  -3.849  1.00 20.00     0.079 C 
BRANCH   5   6
HETATM    6  C3  UNL     1     -35.557  13.895  -4.419  1.00 20.00     0.130 C 
HETATM    7  O10 UNL     1     -35.977  12.752  -4.597  1.00 20.00    -0.298 OA
BRANCH   6   8
HETATM    8  C9  UNL     1     -36.390  15.121  -4.788  1.00 20.00     0.047 C 
HETATM    9  C4  UNL     1     -37.821  14.982  -4.276  1.00 20.00     0.017 C 
HETATM   10  C5  UNL     1     -36.369  15.324  -6.298  1.00 20.00     0.017 C 
ENDBRANCH   6   8
ENDBRANCH   5   6
ENDBRANCH   4   5
ENDBRANCH   3   4
TORSDOF 4
ENDMDL
MODEL 6
REMARK VINA RESULT:      -4.4      1.660      4.750
REMARK  4 active torsions:
REMARK  status: ('A' for Active; 'I' for Inactive)
REMARK    1  A    between atoms: C3_3  and  C7_7 
REMARK    2  A    between atoms: C3_3  and  C9_9 
REMARK    3  A    between atoms: C6_6  and  C8_8 
REMARK    4  A    between atoms: C7_7  and  C8_8 
ROOT
HETATM    1  C1  UNL     1     -34.382   6.345   5.936  1.00 20.00     0.012 C 
HETATM    2  C2  UNL     1     -34.426   5.627   4.974  1.00 20.00    -0.117 C 
HETATM    3  C6  UNL     1     -34.482   4.747   3.799  1.00 20.00     0.093 C 
ENDROOT
BRANCH   3   4
HETATM    4  C8  UNL     1     -33.355   5.066   2.817  1.00 20.00     0.019 C 
BRANCH   4   5
HETATM    5  C7  UNL     1     -33.652   6.335   2.021  1.00 20.00     0.079 C 
BRANCH   5   6
HETATM    6  C3  UNL     1     -32.545   7.372   2.142  1.00 20.00     0.130 C 
HETATM    7  O10 UNL     1     -31.795   7.420   3.117  1.00 20.00    -0.298 OA
BRANCH   6   8
HETATM    8  C9  UNL     1     -32.433   8.375   0.995  1.00 20.00     0.047 C 
HETATM    9  C4  UNL     1     -33.148   9.679   1.339  1.00 20.00     0.017 C 
HETATM   10  C5  UNL     1     -32.998   7.764  -0.282  1.00 20.00     0.017 C 
ENDBRANCH   6   8
ENDBRANCH   5   6
ENDBRANCH   4   5
ENDBRANCH   3   4
TORSDOF 4
ENDMDL
MODEL 7
REMARK VINA RESULT:      -4.3     11.171     12.700
REMARK  4 active torsions:
REMARK  status: ('A' for Active; 'I' for Inactive)
REMARK    1  A    between atoms: C3_3  and  C7_7 
REMARK    2  A    between atoms: C3_3  and  C9_9 
REMARK    3  A    between atoms: C6_6  and  C8_8 
REMARK    4  A    between atoms: C7_7  and  C8_8 
ROOT
HETATM    1  C1  UNL     1     -33.611  18.229  -4.313  1.00 20.00     0.012 C 
HETATM    2  C2  UNL     1     -33.653  17.270  -3.593  1.00 20.00    -0.117 C 
HETATM    3  C6  UNL     1     -33.700  16.095  -2.711  1.00 20.00     0.093 C 
ENDROOT
BRANCH   3   4
HETATM    4  C8  UNL     1     -35.019  15.340  -2.868  1.00 20.00     0.019 C 
BRANCH   4   5
HETATM    5  C7  UNL     1     -34.881  14.175  -3.846  1.00 20.00     0.079 C 
BRANCH   5   6
HETATM    6  C3  UNL     1     -36.034  14.102  -4.835  1.00 20.00     0.130 C 
HETATM    7  O10 UNL     1     -37.093  13.535  -4.566  1.00 20.00    -0.298 OA
BRANCH   6   8
HETATM    8  C9  UNL     1     -35.795  14.748  -6.199  1.00 20.00     0.047 C 
HETATM    9  C4  UNL     1     -34.304  14.957  -6.449  1.00 20.00     0.017 C 
HETATM   10  C5  UNL     1     -36.552  16.068  -6.283  1.00 20.00     0.017 C 
ENDBRANCH   6   8
ENDBRANCH   5   6
ENDBRANCH   4   5
ENDBRANCH   3   4
TORSDOF 4
ENDMDL
MODEL 8
REMARK VINA RESULT:      -4.2     11.271     12.350
REMARK  4 active torsions:
REMARK  status: ('A' for Active; 'I' for Inactive)
REMARK    1  A    between atoms: C3_3  and  C7_7 
REMARK    2  A    between atoms: C3_3  and  C9_9 
REMARK    3  A    between atoms: C6_6  and  C8_8 
REMARK    4  A    between atoms: C7_7  and  C8_8 
ROOT
HETATM    1  C1  UNL     1     -35.202  16.983  -0.776  1.00 20.00     0.012 C 
HETATM    2  C2  UNL     1     -34.493  16.743  -1.714  1.00 20.00    -0.117 C 
HETATM    3  C6  UNL     1     -33.624  16.452  -2.863  1.00 20.00     0.093 C 
ENDROOT
BRANCH   3   4
HETATM    4  C8  UNL     1     -33.931  15.077  -3.453  1.00 20.00     0.019 C 
BRANCH   4   5
HETATM    5  C7  UNL     1     -35.430  14.782  -3.428  1.00 20.00     0.079 C 
BRANCH   5   6
HETATM    6  C3  UNL     1     -35.885  13.968  -4.630  1.00 20.00     0.130 C 
HETATM    7  O10 UNL     1     -35.903  12.737  -4.619  1.00 20.00    -0.298 OA
BRANCH   6   8
HETATM    8  C9  UNL     1     -36.292  14.764  -5.868  1.00 20.00     0.047 C 
HETATM    9  C4  UNL     1     -35.109  14.938  -6.818  1.00 20.00     0.017 C 
HETATM   10  C5  UNL     1     -36.858  16.116  -5.449  1.00 20.00     0.017 C 
ENDBRANCH   6   8
ENDBRANCH   5   6
ENDBRANCH   4   5
ENDBRANCH   3   4
TORSDOF 4
ENDMDL
MODEL 9
REMARK VINA RESULT:      -4.2     11.505     13.103
REMARK  4 active torsions:
REMARK  status: ('A' for Active; 'I' for Inactive)
REMARK    1  A    between atoms: C3_3  and  C7_7 
REMARK    2  A    between atoms: C3_3  and  C9_9 
REMARK    3  A    between atoms: C6_6  and  C8_8 
REMARK    4  A    between atoms: C7_7  and  C8_8 
ROOT
HETATM    1  C1  UNL     1     -32.933  17.182  -2.513  1.00 20.00     0.012 C 
HETATM    2  C2  UNL     1     -33.841  16.404  -2.620  1.00 20.00    -0.117 C 
HETATM    3  C6  UNL     1     -34.955  15.454  -2.748  1.00 20.00     0.093 C 
ENDROOT
BRANCH   3   4
HETATM    4  C8  UNL     1     -34.640  14.371  -3.778  1.00 20.00     0.019 C 
BRANCH   4   5
HETATM    5  C7  UNL     1     -35.828  14.120  -4.704  1.00 20.00     0.079 C 
BRANCH   5   6
HETATM    6  C3  UNL     1     -35.589  14.642  -6.114  1.00 20.00     0.130 C 
HETATM    7  O10 UNL     1     -36.333  14.357  -7.052  1.00 20.00    -0.298 OA
BRANCH   6   8
HETATM    8  C9  UNL     1     -34.354  15.519  -6.308  1.00 20.00     0.047 C 
HETATM    9  C4  UNL     1     -34.718  16.999  -6.230  1.00 20.00     0.017 C 
HETATM   10  C5  UNL     1     -33.693  15.190  -7.642  1.00 20.00     0.017 C 
ENDBRANCH   6   8
ENDBRANCH   5   6
ENDBRANCH   4   5
ENDBRANCH   3   4
TORSDOF 4
ENDMDL
