MODEL 1
REMARK VINA RESULT:      -6.3      0.000      0.000
REMARK  3 active torsions:
REMARK  status: ('A' for Active; 'I' for Inactive)
REMARK    1  A    between atoms: C6_6  and  C9_9 
REMARK    2  A    between atoms: C7_7  and  O10_10 
REMARK    3  A    between atoms: C8_8  and  C9_9 
ROOT
HETATM    1  C1  UNL     1     -32.999   8.922   0.307  1.00 20.00     0.012 C 
HETATM    2  C2  UNL     1     -32.658   8.205   1.208  1.00 20.00    -0.117 C 
HETATM    3  C8  UNL     1     -32.236   7.333   2.313  1.00 20.00     0.093 C 
ENDROOT
BRANCH   3   4
HETATM    4  C9  UNL     1     -33.246   6.217   2.520  1.00 20.00     0.019 C 
BRANCH   4   5
HETATM    5  C6  UNL     1     -33.399   5.888   3.997  1.00 20.00     0.015 C 
HETATM    6  C4  UNL     1     -33.623   7.122   4.868  1.00 20.00     0.007 C 
HETATM    7  C3  UNL     1     -34.272   6.587   6.145  1.00 20.00     0.003 C 
HETATM    8  C5  UNL     1     -34.781   5.184   5.814  1.00 20.00     0.032 C 
HETATM    9  C7  UNL     1     -34.634   5.045   4.303  1.00 20.00     0.122 C 
BRANCH   9  10
HETATM   10  O10 UNL     1     -34.441   3.697   3.923  1.00 20.00    -0.395 OA
HETATM   11  H24 UNL     1     -35.321   3.313   3.767  1.00 20.00     0.210 HD
ENDBRANCH   9  10
ENDBRANCH   4   5
ENDBRANCH   3   4
TORSDOF 3
ENDMDL
MODEL 2
REMARK VINA RESULT:      -5.9      1.583      2.034
REMARK  3 active torsions:
REMARK  status: ('A' for Active; 'I' for Inactive)
REMARK    1  A    between atoms: C6_6  and  C9_9 
REMARK    2  A    between atoms: C7_7  and  O10_10 
REMARK    3  A    between atoms: C8_8  and  C9_9 
ROOT
HETATM    1  C1  UNL     1     -32.930   9.127   0.509  1.00 20.00     0.012 C 
HETATM    2  C2  UNL     1     -32.665   8.182   1.201  1.00 20.00    -0.117 C 
HETATM    3  C8  UNL     1     -32.337   7.022   2.041  1.00 20.00     0.093 C 
ENDROOT
BRANCH   3   4
HETATM    4  C9  UNL     1     -32.572   7.349   3.507  1.00 20.00     0.019 C 
BRANCH   4   5
HETATM    5  C6  UNL     1     -33.804   6.629   4.033  1.00 20.00     0.015 C 
HETATM    6  C4  UNL     1     -33.995   5.241   3.428  1.00 20.00     0.007 C 
HETATM    7  C3  UNL     1     -34.893   4.501   4.421  1.00 20.00     0.003 C 
HETATM    8  C5  UNL     1     -34.841   5.298   5.724  1.00 20.00     0.032 C 
HETATM    9  C7  UNL     1     -33.733   6.325   5.528  1.00 20.00     0.122 C 
BRANCH   9  10
HETATM   10  O10 UNL     1     -33.963   7.489   6.298  1.00 20.00    -0.395 OA
HETATM   11  H24 UNL     1     -33.308   8.153   6.019  1.00 20.00     0.210 HD
ENDBRANCH   9  10
ENDBRANCH   4   5
ENDBRANCH   3   4
TORSDOF 3
ENDMDL
MODEL 3
REMARK VINA RESULT:      -4.8     11.671     12.381
REMARK  3 active torsions:
REMARK  status: ('A' for Active; 'I' for Inactive)
REMARK    1  A    between atoms: C6_6  and  C9_9 
REMARK    2  A    between atoms: C7_7  and  O10_10 
REMARK    3  A    between atoms: C8_8  and  C9_9 
ROOT
HETATM    1  C1  UNL     1     -32.045  18.414  -1.374  1.00 20.00     0.012 C 
HETATM    2  C2  UNL     1     -32.821  17.605  -1.805  1.00 20.00    -0.117 C 
HETATM    3  C8  UNL     1     -33.776  16.619  -2.329  1.00 20.00     0.093 C 
ENDROOT
BRANCH   3   4
HETATM    4  C9  UNL     1     -33.144  15.817  -3.453  1.00 20.00     0.019 C 
BRANCH   4   5
HETATM    5  C6  UNL     1     -34.147  14.850  -4.062  1.00 20.00     0.015 C 
HETATM    6  C4  UNL     1     -35.552  14.997  -3.485  1.00 20.00     0.007 C 
HETATM    7  C3  UNL     1     -36.475  14.383  -4.538  1.00 20.00     0.003 C 
HETATM    8  C5  UNL     1     -35.659  14.297  -5.828  1.00 20.00     0.032 C 
HETATM    9  C7  UNL     1     -34.382  15.082  -5.553  1.00 20.00     0.122 C 
BRANCH   9  10
HETATM   10  O10 UNL     1     -33.299  14.598  -6.323  1.00 20.00    -0.395 OA
HETATM   11  H24 UNL     1     -32.712  14.111  -5.720  1.00 20.00     0.210 HD
ENDBRANCH   9  10
ENDBRANCH   4   5
ENDBRANCH   3   4
TORSDOF 3
ENDMDL
MODEL 4
REMARK VINA RESULT:      -4.6     15.162     15.819
REMARK  3 active torsions:
REMARK  status: ('A' for Active; 'I' for Inactive)
REMARK    1  A    between atoms: C6_6  and  C9_9 
REMARK    2  A    between atoms: C7_7  and  O10_10 
REMARK    3  A    between atoms: C8_8  and  C9_9 
ROOT
HETATM    1  C1  UNL     1     -26.140  18.967   5.896  1.00 20.00     0.012 C 
HETATM    2  C2  UNL     1     -25.901  19.100   7.065  1.00 20.00    -0.117 C 
HETATM    3  C8  UNL     1     -25.615  19.263   8.497  1.00 20.00     0.093 C 
ENDROOT
BRANCH   3   4
HETATM    4  C9  UNL     1     -24.158  18.943   8.785  1.00 20.00     0.019 C 
BRANCH   4   5
HETATM    5  C6  UNL     1     -24.013  18.212  10.111  1.00 20.00     0.015 C 
HETATM    6  C4  UNL     1     -25.200  18.421  11.047  1.00 20.00     0.007 C 
HETATM    7  C3  UNL     1     -25.143  17.244  12.022  1.00 20.00     0.003 C 
HETATM    8  C5  UNL     1     -24.225  16.201  11.383  1.00 20.00     0.032 C 
HETATM    9  C7  UNL     1     -23.979  16.693   9.962  1.00 20.00     0.122 C 
BRANCH   9  10
HETATM   10  O10 UNL     1     -22.727  16.255   9.471  1.00 20.00    -0.395 OA
HETATM   11  H24 UNL     1     -22.385  16.956   8.890  1.00 20.00     0.210 HD
ENDBRANCH   9  10
ENDBRANCH   4   5
ENDBRANCH   3   4
TORSDOF 3
ENDMDL
MODEL 5
REMARK VINA RESULT:      -4.6      9.261     10.013
REMARK  3 active torsions:
REMARK  status: ('A' for Active; 'I' for Inactive)
REMARK    1  A    between atoms: C6_6  and  C9_9 
REMARK    2  A    between atoms: C7_7  and  O10_10 
REMARK    3  A    between atoms: C8_8  and  C9_9 
ROOT
HETATM    1  C1  UNL     1     -42.612   2.230  -3.465  1.00 20.00     0.012 C 
HETATM    2  C2  UNL     1     -42.583   3.215  -2.778  1.00 20.00    -0.117 C 
HETATM    3  C8  UNL     1     -42.555   4.420  -1.938  1.00 20.00     0.093 C 
ENDROOT
BRANCH   3   4
HETATM    4  C9  UNL     1     -41.127   4.760  -1.548  1.00 20.00     0.019 C 
BRANCH   4   5
HETATM    5  C6  UNL     1     -41.090   5.940  -0.589  1.00 20.00     0.015 C 
HETATM    6  C4  UNL     1     -41.253   7.287  -1.287  1.00 20.00     0.007 C 
HETATM    7  C3  UNL     1     -41.725   8.242  -0.189  1.00 20.00     0.003 C 
HETATM    8  C5  UNL     1     -42.218   7.364   0.961  1.00 20.00     0.032 C 
HETATM    9  C7  UNL     1     -42.248   5.946   0.405  1.00 20.00     0.122 C 
BRANCH   9  10
HETATM   10  O10 UNL     1     -42.052   4.985   1.425  1.00 20.00    -0.395 OA
HETATM   11  H24 UNL     1     -41.198   4.552   1.252  1.00 20.00     0.210 HD
ENDBRANCH   9  10
ENDBRANCH   4   5
ENDBRANCH   3   4
TORSDOF 3
ENDMDL
MODEL 6
REMARK VINA RESULT:      -4.5     11.537     12.345
REMARK  3 active torsions:
REMARK  status: ('A' for Active; 'I' for Inactive)
REMARK    1  A    between atoms: C6_6  and  C9_9 
REMARK    2  A    between atoms: C7_7  and  O10_10 
REMARK    3  A    between atoms: C8_8  and  C9_9 
ROOT
HETATM    1  C1  UNL     1     -30.669  18.295   0.975  1.00 20.00     0.012 C 
HETATM    2  C2  UNL     1     -31.245  18.273  -0.079  1.00 20.00    -0.117 C 
HETATM    3  C8  UNL     1     -31.944  18.247  -1.371  1.00 20.00     0.093 C 
ENDROOT
BRANCH   3   4
HETATM    4  C9  UNL     1     -33.419  17.944  -1.168  1.00 20.00     0.019 C 
BRANCH   4   5
HETATM    5  C6  UNL     1     -33.983  17.172  -2.351  1.00 20.00     0.015 C 
HETATM    6  C4  UNL     1     -32.944  16.303  -3.053  1.00 20.00     0.007 C 
HETATM    7  C3  UNL     1     -33.759  15.248  -3.804  1.00 20.00     0.003 C 
HETATM    8  C5  UNL     1     -35.159  15.271  -3.192  1.00 20.00     0.032 C 
HETATM    9  C7  UNL     1     -35.047  16.152  -1.954  1.00 20.00     0.122 C 
BRANCH   9  10
HETATM   10  O10 UNL     1     -36.276  16.785  -1.655  1.00 20.00    -0.395 OA
HETATM   11  H24 UNL     1     -36.421  16.693  -0.697  1.00 20.00     0.210 HD
ENDBRANCH   9  10
ENDBRANCH   4   5
ENDBRANCH   3   4
TORSDOF 3
ENDMDL
MODEL 7
REMARK VINA RESULT:      -4.5     11.393     12.996
REMARK  3 active torsions:
REMARK  status: ('A' for Active; 'I' for Inactive)
REMARK    1  A    between atoms: C6_6  and  C9_9 
REMARK    2  A    between atoms: C7_7  and  O10_10 
REMARK    3  A    between atoms: C8_8  and  C9_9 
ROOT
HETATM    1  C1  UNL     1     -35.148  16.618  -1.325  1.00 20.00     0.012 C 
HETATM    2  C2  UNL     1     -34.582  16.115  -2.257  1.00 20.00    -0.117 C 
HETATM    3  C8  UNL     1     -33.884  15.504  -3.396  1.00 20.00     0.093 C 
ENDROOT
BRANCH   3   4
HETATM    4  C9  UNL     1     -34.650  14.291  -3.896  1.00 20.00     0.019 C 
BRANCH   4   5
HETATM    5  C6  UNL     1     -35.202  14.534  -5.292  1.00 20.00     0.015 C 
HETATM    6  C4  UNL     1     -36.447  15.417  -5.302  1.00 20.00     0.007 C 
HETATM    7  C3  UNL     1     -36.520  15.974  -6.725  1.00 20.00     0.003 C 
HETATM    8  C5  UNL     1     -35.139  15.757  -7.344  1.00 20.00     0.032 C 
HETATM    9  C7  UNL     1     -34.245  15.310  -6.193  1.00 20.00     0.122 C 
BRANCH   9  10
HETATM   10  O10 UNL     1     -33.188  14.487  -6.648  1.00 20.00    -0.395 OA
HETATM   11  H24 UNL     1     -33.517  13.998  -7.422  1.00 20.00     0.210 HD
ENDBRANCH   9  10
ENDBRANCH   4   5
ENDBRANCH   3   4
TORSDOF 3
ENDMDL
MODEL 8
REMARK VINA RESULT:      -4.3     15.949     16.612
REMARK  3 active torsions:
REMARK  status: ('A' for Active; 'I' for Inactive)
REMARK    1  A    between atoms: C6_6  and  C9_9 
REMARK    2  A    between atoms: C7_7  and  O10_10 
REMARK    3  A    between atoms: C8_8  and  C9_9 
ROOT
HETATM    1  C1  UNL     1     -25.786  19.136   6.573  1.00 20.00     0.012 C 
HETATM    2  C2  UNL     1     -24.934  19.166   7.420  1.00 20.00    -0.117 C 
HETATM    3  C8  UNL     1     -23.894  19.209   8.457  1.00 20.00     0.093 C 
ENDROOT
BRANCH   3   4
HETATM    4  C9  UNL     1     -23.231  17.849   8.596  1.00 20.00     0.019 C 
BRANCH   4   5
HETATM    5  C6  UNL     1     -23.201  17.405  10.050  1.00 20.00     0.015 C 
HETATM    6  C4  UNL     1     -21.910  17.784  10.769  1.00 20.00     0.007 C 
HETATM    7  C3  UNL     1     -22.268  17.761  12.256  1.00 20.00     0.003 C 
HETATM    8  C5  UNL     1     -23.795  17.795  12.331  1.00 20.00     0.032 C 
HETATM    9  C7  UNL     1     -24.264  18.083  10.910  1.00 20.00     0.122 C 
BRANCH   9  10
HETATM   10  O10 UNL     1     -25.546  17.535  10.667  1.00 20.00    -0.395 OA
HETATM   11  H24 UNL     1     -26.102  17.752  11.435  1.00 20.00     0.210 HD
ENDBRANCH   9  10
ENDBRANCH   4   5
ENDBRANCH   3   4
TORSDOF 3
ENDMDL
MODEL 9
REMARK VINA RESULT:      -4.3     11.525     12.319
REMARK  3 active torsions:
REMARK  status: ('A' for Active; 'I' for Inactive)
REMARK    1  A    between atoms: C6_6  and  C9_9 
REMARK    2  A    between atoms: C7_7  and  O10_10 
REMARK    3  A    between atoms: C8_8  and  C9_9 
ROOT
HETATM    1  C1  UNL     1     -38.013  16.516  -5.930  1.00 20.00     0.012 C 
HETATM    2  C2  UNL     1     -37.795  15.591  -5.195  1.00 20.00    -0.117 C 
HETATM    3  C8  UNL     1     -37.534  14.460  -4.295  1.00 20.00     0.093 C 
ENDROOT
BRANCH   3   4
HETATM    4  C9  UNL     1     -36.103  13.977  -4.454  1.00 20.00     0.019 C 
BRANCH   4   5
HETATM    5  C6  UNL     1     -35.116  15.095  -4.156  1.00 20.00     0.015 C 
HETATM    6  C4  UNL     1     -35.203  15.609  -2.722  1.00 20.00     0.007 C 
HETATM    7  C3  UNL     1     -33.854  16.284  -2.465  1.00 20.00     0.003 C 
HETATM    8  C5  UNL     1     -32.908  15.783  -3.556  1.00 20.00     0.032 C 
HETATM    9  C7  UNL     1     -33.657  14.656  -4.257  1.00 20.00     0.122 C 
BRANCH   9  10
HETATM   10  O10 UNL     1     -33.254  14.527  -5.607  1.00 20.00    -0.395 OA
HETATM   11  H24 UNL     1     -33.875  13.912  -6.034  1.00 20.00     0.210 HD
ENDBRANCH   9  10
ENDBRANCH   4   5
ENDBRANCH   3   4
TORSDOF 3
ENDMDL
