MODEL 1
REMARK VINA RESULT:      -6.2      0.000      0.000
REMARK  2 active torsions:
REMARK  status: ('A' for Active; 'I' for Inactive)
REMARK    1  A    between atoms: C7_7  and  C9_9 
REMARK    2  A    between atoms: C8_8  and  C9_9 
ROOT
HETATM    1  C1  UNL     1     -32.966   9.112   0.618  1.00 20.00     0.012 C 
HETATM    2  C2  UNL     1     -32.653   8.153   1.270  1.00 20.00    -0.117 C 
HETATM    3  C8  UNL     1     -32.270   6.980   2.066  1.00 20.00     0.093 C 
ENDROOT
BRANCH   3   4
HETATM    4  C9  UNL     1     -32.551   7.218   3.541  1.00 20.00     0.024 C 
BRANCH   4   5
HETATM    5  C7  UNL     1     -33.901   6.658   3.940  1.00 20.00     0.056 C 
HETATM    6  C3  UNL     1     -34.073   6.539   5.441  1.00 20.00     0.131 C 
HETATM    7  C4  UNL     1     -34.685   5.219   5.837  1.00 20.00     0.079 C 
HETATM    8  O10 UNL     1     -33.755   7.406   6.245  1.00 20.00    -0.298 OA
HETATM    9  C5  UNL     1     -35.119   4.655   4.489  1.00 20.00     0.008 C 
HETATM   10  C6  UNL     1     -34.099   5.206   3.501  1.00 20.00     0.013 C 
ENDBRANCH   4   5
ENDBRANCH   3   4
TORSDOF 2
ENDMDL
MODEL 2
REMARK VINA RESULT:      -5.8      1.567      1.982
REMARK  2 active torsions:
REMARK  status: ('A' for Active; 'I' for Inactive)
REMARK    1  A    between atoms: C7_7  and  C9_9 
REMARK    2  A    between atoms: C8_8  and  C9_9 
ROOT
HETATM    1  C1  UNL     1     -32.953   8.915   0.303  1.00 20.00     0.012 C 
HETATM    2  C2  UNL     1     -32.610   8.191   1.198  1.00 20.00    -0.117 C 
HETATM    3  C8  UNL     1     -32.189   7.308   2.293  1.00 20.00     0.093 C 
ENDROOT
BRANCH   3   4
HETATM    4  C9  UNL     1     -33.277   6.296   2.614  1.00 20.00     0.024 C 
BRANCH   4   5
HETATM    5  C7  UNL     1     -33.282   5.945   4.088  1.00 20.00     0.056 C 
HETATM    6  C3  UNL     1     -34.311   4.890   4.443  1.00 20.00     0.131 C 
HETATM    7  C4  UNL     1     -35.075   5.244   5.694  1.00 20.00     0.079 C 
HETATM    8  O10 UNL     1     -34.507   3.869   3.796  1.00 20.00    -0.298 OA
HETATM    9  C5  UNL     1     -34.279   6.429   6.226  1.00 20.00     0.008 C 
HETATM   10  C6  UNL     1     -33.727   7.107   4.978  1.00 20.00     0.013 C 
ENDBRANCH   4   5
ENDBRANCH   3   4
TORSDOF 2
ENDMDL
MODEL 3
REMARK VINA RESULT:      -4.6     11.327     12.189
REMARK  2 active torsions:
REMARK  status: ('A' for Active; 'I' for Inactive)
REMARK    1  A    between atoms: C7_7  and  C9_9 
REMARK    2  A    between atoms: C8_8  and  C9_9 
ROOT
HETATM    1  C1  UNL     1     -34.425  14.719  -3.750  1.00 20.00     0.012 C 
HETATM    2  C2  UNL     1     -34.396  15.585  -2.919  1.00 20.00    -0.117 C 
HETATM    3  C8  UNL     1     -34.363  16.643  -1.901  1.00 20.00     0.093 C 
ENDROOT
BRANCH   3   4
HETATM    4  C9  UNL     1     -33.046  17.401  -1.958  1.00 20.00     0.024 C 
BRANCH   4   5
HETATM    5  C7  UNL     1     -32.953  18.423  -0.843  1.00 20.00     0.056 C 
HETATM    6  C3  UNL     1     -31.627  18.381  -0.110  1.00 20.00     0.131 C 
HETATM    7  C4  UNL     1     -31.805  18.452   1.386  1.00 20.00     0.079 C 
HETATM    8  O10 UNL     1     -30.535  18.298  -0.658  1.00 20.00    -0.298 OA
HETATM    9  C5  UNL     1     -33.282  18.807   1.511  1.00 20.00     0.008 C 
HETATM   10  C6  UNL     1     -33.934  18.153   0.299  1.00 20.00     0.013 C 
ENDBRANCH   4   5
ENDBRANCH   3   4
TORSDOF 2
ENDMDL
MODEL 4
REMARK VINA RESULT:      -4.5     11.482     12.183
REMARK  2 active torsions:
REMARK  status: ('A' for Active; 'I' for Inactive)
REMARK    1  A    between atoms: C7_7  and  C9_9 
REMARK    2  A    between atoms: C8_8  and  C9_9 
ROOT
HETATM    1  C1  UNL     1     -32.129  18.203  -1.461  1.00 20.00     0.012 C 
HETATM    2  C2  UNL     1     -32.943  17.444  -1.914  1.00 20.00    -0.117 C 
HETATM    3  C8  UNL     1     -33.940  16.518  -2.467  1.00 20.00     0.093 C 
ENDROOT
BRANCH   3   4
HETATM    4  C9  UNL     1     -33.320  15.643  -3.544  1.00 20.00     0.024 C 
BRANCH   4   5
HETATM    5  C7  UNL     1     -34.292  14.579  -4.012  1.00 20.00     0.056 C 
HETATM    6  C3  UNL     1     -34.497  14.583  -5.514  1.00 20.00     0.131 C 
HETATM    7  C4  UNL     1     -35.952  14.457  -5.886  1.00 20.00     0.079 C 
HETATM    8  O10 UNL     1     -33.594  14.679  -6.336  1.00 20.00    -0.298 OA
HETATM    9  C5  UNL     1     -36.592  14.108  -4.548  1.00 20.00     0.008 C 
HETATM   10  C6  UNL     1     -35.720  14.813  -3.516  1.00 20.00     0.013 C 
ENDBRANCH   4   5
ENDBRANCH   3   4
TORSDOF 2
ENDMDL
MODEL 5
REMARK VINA RESULT:      -4.5     11.109     12.342
REMARK  2 active torsions:
REMARK  status: ('A' for Active; 'I' for Inactive)
REMARK    1  A    between atoms: C7_7  and  C9_9 
REMARK    2  A    between atoms: C8_8  and  C9_9 
ROOT
HETATM    1  C1  UNL     1     -33.027  17.736  -1.532  1.00 20.00     0.012 C 
HETATM    2  C2  UNL     1     -33.334  16.883  -2.320  1.00 20.00    -0.117 C 
HETATM    3  C8  UNL     1     -33.708  15.840  -3.284  1.00 20.00     0.093 C 
ENDROOT
BRANCH   3   4
HETATM    4  C9  UNL     1     -35.024  15.190  -2.887  1.00 20.00     0.024 C 
BRANCH   4   5
HETATM    5  C7  UNL     1     -36.018  15.224  -4.030  1.00 20.00     0.056 C 
HETATM    6  C3  UNL     1     -35.947  13.995  -4.914  1.00 20.00     0.131 C 
HETATM    7  C4  UNL     1     -35.984  14.349  -6.379  1.00 20.00     0.079 C 
HETATM    8  O10 UNL     1     -35.868  12.846  -4.497  1.00 20.00    -0.298 OA
HETATM    9  C5  UNL     1     -36.349  15.828  -6.337  1.00 20.00     0.008 C 
HETATM   10  C6  UNL     1     -35.729  16.335  -5.040  1.00 20.00     0.013 C 
ENDBRANCH   4   5
ENDBRANCH   3   4
TORSDOF 2
ENDMDL
MODEL 6
REMARK VINA RESULT:      -4.4      9.269     10.101
REMARK  2 active torsions:
REMARK  status: ('A' for Active; 'I' for Inactive)
REMARK    1  A    between atoms: C7_7  and  C9_9 
REMARK    2  A    between atoms: C8_8  and  C9_9 
ROOT
HETATM    1  C1  UNL     1     -42.080   2.767  -3.379  1.00 20.00     0.012 C 
HETATM    2  C2  UNL     1     -42.201   3.702  -2.636  1.00 20.00    -0.117 C 
HETATM    3  C8  UNL     1     -42.352   4.847  -1.727  1.00 20.00     0.093 C 
ENDROOT
BRANCH   3   4
HETATM    4  C9  UNL     1     -41.022   5.195  -1.079  1.00 20.00     0.024 C 
BRANCH   4   5
HETATM    5  C7  UNL     1     -41.138   6.441  -0.224  1.00 20.00     0.056 C 
HETATM    6  C3  UNL     1     -42.340   6.415   0.700  1.00 20.00     0.131 C 
HETATM    7  C4  UNL     1     -43.080   7.728   0.701  1.00 20.00     0.079 C 
HETATM    8  O10 UNL     1     -42.678   5.447   1.369  1.00 20.00    -0.298 OA
HETATM    9  C5  UNL     1     -42.119   8.633  -0.060  1.00 20.00     0.008 C 
HETATM   10  C6  UNL     1     -41.418   7.703  -1.042  1.00 20.00     0.013 C 
ENDBRANCH   4   5
ENDBRANCH   3   4
TORSDOF 2
ENDMDL
MODEL 7
REMARK VINA RESULT:      -4.3     10.977     11.777
REMARK  2 active torsions:
REMARK  status: ('A' for Active; 'I' for Inactive)
REMARK    1  A    between atoms: C7_7  and  C9_9 
REMARK    2  A    between atoms: C8_8  and  C9_9 
ROOT
HETATM    1  C1  UNL     1     -32.095  18.540  -1.302  1.00 20.00     0.012 C 
HETATM    2  C2  UNL     1     -33.046  17.824  -1.461  1.00 20.00    -0.117 C 
HETATM    3  C8  UNL     1     -34.210  16.950  -1.654  1.00 20.00     0.093 C 
ENDROOT
BRANCH   3   4
HETATM    4  C9  UNL     1     -33.972  15.986  -2.806  1.00 20.00     0.024 C 
BRANCH   4   5
HETATM    5  C7  UNL     1     -35.161  15.069  -3.008  1.00 20.00     0.056 C 
HETATM    6  C3  UNL     1     -34.927  14.023  -4.080  1.00 20.00     0.131 C 
HETATM    7  C4  UNL     1     -36.112  13.884  -5.002  1.00 20.00     0.079 C 
HETATM    8  O10 UNL     1     -33.900  13.366  -4.194  1.00 20.00    -0.298 OA
HETATM    9  C5  UNL     1     -37.173  14.703  -4.278  1.00 20.00     0.008 C 
HETATM   10  C6  UNL     1     -36.388  15.795  -3.562  1.00 20.00     0.013 C 
ENDBRANCH   4   5
ENDBRANCH   3   4
TORSDOF 2
ENDMDL
MODEL 8
REMARK VINA RESULT:      -4.2     11.371     12.035
REMARK  2 active torsions:
REMARK  status: ('A' for Active; 'I' for Inactive)
REMARK    1  A    between atoms: C7_7  and  C9_9 
REMARK    2  A    between atoms: C8_8  and  C9_9 
ROOT
HETATM    1  C1  UNL     1     -34.273  15.189  -6.779  1.00 20.00     0.012 C 
HETATM    2  C2  UNL     1     -34.019  14.908  -5.640  1.00 20.00    -0.117 C 
HETATM    3  C8  UNL     1     -33.708  14.562  -4.246  1.00 20.00     0.093 C 
ENDROOT
BRANCH   3   4
HETATM    4  C9  UNL     1     -32.973  15.703  -3.561  1.00 20.00     0.024 C 
BRANCH   4   5
HETATM    5  C7  UNL     1     -33.944  16.669  -2.913  1.00 20.00     0.056 C 
HETATM    6  C3  UNL     1     -33.287  17.567  -1.883  1.00 20.00     0.131 C 
HETATM    7  C4  UNL     1     -34.109  17.679  -0.624  1.00 20.00     0.079 C 
HETATM    8  O10 UNL     1     -32.215  18.136  -2.044  1.00 20.00    -0.298 OA
HETATM    9  C5  UNL     1     -35.419  17.022  -1.043  1.00 20.00     0.008 C 
HETATM   10  C6  UNL     1     -35.006  15.969  -2.064  1.00 20.00     0.013 C 
ENDBRANCH   4   5
ENDBRANCH   3   4
TORSDOF 2
ENDMDL
MODEL 9
REMARK VINA RESULT:      -4.1     11.258     12.849
REMARK  2 active torsions:
REMARK  status: ('A' for Active; 'I' for Inactive)
REMARK    1  A    between atoms: C7_7  and  C9_9 
REMARK    2  A    between atoms: C8_8  and  C9_9 
ROOT
HETATM    1  C1  UNL     1     -32.937  16.950  -2.685  1.00 20.00     0.012 C 
HETATM    2  C2  UNL     1     -33.898  16.233  -2.752  1.00 20.00    -0.117 C 
HETATM    3  C8  UNL     1     -35.075  15.359  -2.833  1.00 20.00     0.093 C 
ENDROOT
BRANCH   3   4
HETATM    4  C9  UNL     1     -34.832  14.223  -3.814  1.00 20.00     0.024 C 
BRANCH   4   5
HETATM    5  C7  UNL     1     -35.612  14.431  -5.097  1.00 20.00     0.056 C 
HETATM    6  C3  UNL     1     -34.774  15.031  -6.209  1.00 20.00     0.131 C 
HETATM    7  C4  UNL     1     -35.502  16.137  -6.930  1.00 20.00     0.079 C 
HETATM    8  O10 UNL     1     -33.640  14.669  -6.494  1.00 20.00    -0.298 OA
HETATM    9  C5  UNL     1     -36.915  15.997  -6.379  1.00 20.00     0.008 C 
HETATM   10  C6  UNL     1     -36.720  15.476  -4.960  1.00 20.00     0.013 C 
ENDBRANCH   4   5
ENDBRANCH   3   4
TORSDOF 2
ENDMDL
