MODEL 1
REMARK VINA RESULT:      -4.5      0.000      0.000
REMARK  0 active torsions:
REMARK  status: ('A' for Active; 'I' for Inactive)
ROOT
HETATM    1  C1  UNL     1     -22.549  17.541  11.593  1.00 20.00     0.101 C 
HETATM    2  C2  UNL     1     -25.552  18.346  11.870  1.00 20.00     0.005 C 
HETATM    3  C3  UNL     1     -26.112  16.970  12.207  1.00 20.00     0.030 C 
HETATM    4  C4  UNL     1     -24.705  18.281  10.597  1.00 20.00     0.057 C 
HETATM    5  C5  UNL     1     -25.002  15.924  12.261  1.00 20.00     0.272 C 
HETATM    6  C6  UNL     1     -23.629  17.174  10.651  1.00 20.00     0.240 C 
HETATM    7  C7  UNL     1     -23.002  17.017   9.254  1.00 20.00     0.066 C 
HETATM    8  N8  UNL     1     -21.701  17.830  12.331  1.00 20.00    -0.195 NA
HETATM    9  N9  UNL     1     -24.226  15.875  11.019  1.00 20.00     0.106 N 
HETATM   10  H21 UNL     1     -23.502  15.161  11.089  1.00 20.00     0.318 HD
ENDROOT
TORSDOF 0
ENDMDL
MODEL 2
REMARK VINA RESULT:      -4.4      1.508      3.033
REMARK  0 active torsions:
REMARK  status: ('A' for Active; 'I' for Inactive)
ROOT
HETATM    1  C1  UNL     1     -23.052  17.661  11.569  1.00 20.00     0.101 C 
HETATM    2  C2  UNL     1     -22.752  17.753   8.464  1.00 20.00     0.005 C 
HETATM    3  C3  UNL     1     -23.949  18.645   8.160  1.00 20.00     0.030 C 
HETATM    4  C4  UNL     1     -23.175  16.570   9.336  1.00 20.00     0.057 C 
HETATM    5  C5  UNL     1     -24.669  19.054   9.442  1.00 20.00     0.272 C 
HETATM    6  C6  UNL     1     -23.955  17.006  10.597  1.00 20.00     0.240 C 
HETATM    7  C7  UNL     1     -24.549  15.757  11.273  1.00 20.00     0.066 C 
HETATM    8  N8  UNL     1     -22.343  18.173  12.332  1.00 20.00    -0.195 NA
HETATM    9  N9  UNL     1     -25.077  17.895  10.241  1.00 20.00     0.106 N 
HETATM   10  H21 UNL     1     -25.561  18.208  11.083  1.00 20.00     0.318 HD
ENDROOT
TORSDOF 0
ENDMDL
MODEL 3
REMARK VINA RESULT:      -4.3     18.295     19.286
REMARK  0 active torsions:
REMARK  status: ('A' for Active; 'I' for Inactive)
ROOT
HETATM    1  C1  UNL     1     -35.780  13.925  -4.558  1.00 20.00     0.101 C 
HETATM    2  C2  UNL     1     -33.213  15.546  -3.836  1.00 20.00     0.005 C 
HETATM    3  C3  UNL     1     -33.744  16.243  -2.589  1.00 20.00     0.030 C 
HETATM    4  C4  UNL     1     -34.164  15.760  -5.014  1.00 20.00     0.057 C 
HETATM    5  C5  UNL     1     -35.183  15.828  -2.299  1.00 20.00     0.272 C 
HETATM    6  C6  UNL     1     -35.626  15.391  -4.676  1.00 20.00     0.240 C 
HETATM    7  C7  UNL     1     -36.539  15.870  -5.819  1.00 20.00     0.066 C 
HETATM    8  N8  UNL     1     -35.901  12.774  -4.466  1.00 20.00    -0.195 NA
HETATM    9  N9  UNL     1     -36.069  16.067  -3.441  1.00 20.00     0.106 N 
HETATM   10  H21 UNL     1     -37.021  15.786  -3.207  1.00 20.00     0.318 HD
ENDROOT
TORSDOF 0
ENDMDL
MODEL 4
REMARK VINA RESULT:      -4.3      1.130      3.342
REMARK  0 active torsions:
REMARK  status: ('A' for Active; 'I' for Inactive)
ROOT
HETATM    1  C1  UNL     1     -25.042  16.642  11.990  1.00 20.00     0.101 C 
HETATM    2  C2  UNL     1     -23.106  17.337   9.643  1.00 20.00     0.005 C 
HETATM    3  C3  UNL     1     -21.945  17.870  10.474  1.00 20.00     0.030 C 
HETATM    4  C4  UNL     1     -24.407  18.039  10.032  1.00 20.00     0.057 C 
HETATM    5  C5  UNL     1     -22.259  17.799  11.965  1.00 20.00     0.272 C 
HETATM    6  C6  UNL     1     -24.673  18.007  11.554  1.00 20.00     0.240 C 
HETATM    7  C7  UNL     1     -25.854  18.940  11.875  1.00 20.00     0.066 C 
HETATM    8  N8  UNL     1     -25.332  15.572  12.332  1.00 20.00    -0.195 NA
HETATM    9  N9  UNL     1     -23.501  18.499  12.304  1.00 20.00     0.106 N 
HETATM   10  H21 UNL     1     -23.673  18.437  13.307  1.00 20.00     0.318 HD
ENDROOT
TORSDOF 0
ENDMDL
MODEL 5
REMARK VINA RESULT:      -4.2     18.429     19.363
REMARK  0 active torsions:
REMARK  status: ('A' for Active; 'I' for Inactive)
ROOT
HETATM    1  C1  UNL     1     -35.613  13.881  -4.576  1.00 20.00     0.101 C 
HETATM    2  C2  UNL     1     -34.775  15.838  -2.295  1.00 20.00     0.005 C 
HETATM    3  C3  UNL     1     -35.792  16.938  -2.573  1.00 20.00     0.030 C 
HETATM    4  C4  UNL     1     -34.005  15.489  -3.568  1.00 20.00     0.057 C 
HETATM    5  C5  UNL     1     -36.689  16.572  -3.751  1.00 20.00     0.272 C 
HETATM    6  C6  UNL     1     -34.934  15.182  -4.764  1.00 20.00     0.240 C 
HETATM    7  C7  UNL     1     -34.086  15.090  -6.045  1.00 20.00     0.066 C 
HETATM    8  N8  UNL     1     -36.145  12.860  -4.429  1.00 20.00    -0.195 NA
HETATM    9  N9  UNL     1     -35.918  16.264  -4.959  1.00 20.00     0.106 N 
HETATM   10  H21 UNL     1     -36.550  16.033  -5.725  1.00 20.00     0.318 HD
ENDROOT
TORSDOF 0
ENDMDL
MODEL 6
REMARK VINA RESULT:      -4.1     19.087     20.145
REMARK  0 active torsions:
REMARK  status: ('A' for Active; 'I' for Inactive)
ROOT
HETATM    1  C1  UNL     1     -35.530  13.887  -4.419  1.00 20.00     0.101 C 
HETATM    2  C2  UNL     1     -36.121  16.232  -6.392  1.00 20.00     0.005 C 
HETATM    3  C3  UNL     1     -34.827  16.166  -7.195  1.00 20.00     0.030 C 
HETATM    4  C4  UNL     1     -35.816  16.312  -4.895  1.00 20.00     0.057 C 
HETATM    5  C5  UNL     1     -33.925  15.044  -6.691  1.00 20.00     0.272 C 
HETATM    6  C6  UNL     1     -34.852  15.202  -4.421  1.00 20.00     0.240 C 
HETATM    7  C7  UNL     1     -34.410  15.506  -2.978  1.00 20.00     0.066 C 
HETATM    8  N8  UNL     1     -36.063  12.856  -4.416  1.00 20.00    -0.195 NA
HETATM    9  N9  UNL     1     -33.638  15.164  -5.259  1.00 20.00     0.106 N 
HETATM   10  H21 UNL     1     -33.026  14.404  -4.962  1.00 20.00     0.318 HD
ENDROOT
TORSDOF 0
ENDMDL
MODEL 7
REMARK VINA RESULT:      -4.1      1.539      3.280
REMARK  0 active torsions:
REMARK  status: ('A' for Active; 'I' for Inactive)
ROOT
HETATM    1  C1  UNL     1     -24.036  16.404  11.203  1.00 20.00     0.101 C 
HETATM    2  C2  UNL     1     -24.360  18.419   8.842  1.00 20.00     0.005 C 
HETATM    3  C3  UNL     1     -23.104  18.042   8.065  1.00 20.00     0.030 C 
HETATM    4  C4  UNL     1     -24.014  18.722  10.300  1.00 20.00     0.057 C 
HETATM    5  C5  UNL     1     -22.345  16.917   8.762  1.00 20.00     0.272 C 
HETATM    6  C6  UNL     1     -23.192  17.596  10.966  1.00 20.00     0.240 C 
HETATM    7  C7  UNL     1     -22.683  18.091  12.332  1.00 20.00     0.066 C 
HETATM    8  N8  UNL     1     -24.698  15.470  11.389  1.00 20.00    -0.195 NA
HETATM    9  N9  UNL     1     -22.013  17.251  10.150  1.00 20.00     0.106 N 
HETATM   10  H21 UNL     1     -21.499  16.481  10.579  1.00 20.00     0.318 HD
ENDROOT
TORSDOF 0
ENDMDL
MODEL 8
REMARK VINA RESULT:      -4.0     18.874     19.853
REMARK  0 active torsions:
REMARK  status: ('A' for Active; 'I' for Inactive)
ROOT
HETATM    1  C1  UNL     1     -37.139  14.711  -4.603  1.00 20.00     0.101 C 
HETATM    2  C2  UNL     1     -34.113  14.659  -3.840  1.00 20.00     0.005 C 
HETATM    3  C3  UNL     1     -34.136  15.769  -2.797  1.00 20.00     0.030 C 
HETATM    4  C4  UNL     1     -34.749  15.139  -5.145  1.00 20.00     0.057 C 
HETATM    5  C5  UNL     1     -35.544  16.330  -2.623  1.00 20.00     0.272 C 
HETATM    6  C6  UNL     1     -36.149  15.759  -4.936  1.00 20.00     0.240 C 
HETATM    7  C7  UNL     1     -36.598  16.432  -6.245  1.00 20.00     0.066 C 
HETATM    8  N8  UNL     1     -37.915  13.888  -4.343  1.00 20.00    -0.195 NA
HETATM    9  N9  UNL     1     -36.114  16.799  -3.890  1.00 20.00     0.106 N 
HETATM   10  H21 UNL     1     -37.049  17.173  -3.732  1.00 20.00     0.318 HD
ENDROOT
TORSDOF 0
ENDMDL
MODEL 9
REMARK VINA RESULT:      -3.8     22.928     24.108
REMARK  0 active torsions:
REMARK  status: ('A' for Active; 'I' for Inactive)
ROOT
HETATM    1  C1  UNL     1     -41.488   5.326  -0.873  1.00 20.00     0.101 C 
HETATM    2  C2  UNL     1     -42.693   8.173  -1.298  1.00 20.00     0.005 C 
HETATM    3  C3  UNL     1     -42.059   8.856  -0.092  1.00 20.00     0.030 C 
HETATM    4  C4  UNL     1     -43.417   6.896  -0.869  1.00 20.00     0.057 C 
HETATM    5  C5  UNL     1     -41.179   7.885   0.689  1.00 20.00     0.272 C 
HETATM    6  C6  UNL     1     -42.525   5.957  -0.027  1.00 20.00     0.240 C 
HETATM    7  C7  UNL     1     -43.398   4.835   0.564  1.00 20.00     0.066 C 
HETATM    8  N8  UNL     1     -40.675   4.830  -1.536  1.00 20.00    -0.195 NA
HETATM    9  N9  UNL     1     -41.911   6.684   1.101  1.00 20.00     0.106 N 
HETATM   10  H21 UNL     1     -41.294   6.065   1.627  1.00 20.00     0.318 HD
ENDROOT
TORSDOF 0
ENDMDL
