MODEL 1
REMARK VINA RESULT:      -5.1      0.000      0.000
REMARK  4 active torsions:
REMARK  status: ('A' for Active; 'I' for Inactive)
REMARK    1  A    between atoms: C3_3  and  C9_9 
REMARK    2  A    between atoms: C6_6  and  C8_8 
REMARK    3  A    between atoms: C7_7  and  C9_9 
REMARK    4  A    between atoms: C8_8  and  C9_9 
ROOT
HETATM    1  C1  UNL     1     -33.180   8.765   0.052  1.00 20.00     0.012 C 
HETATM    2  C2  UNL     1     -32.698   8.251   1.024  1.00 20.00    -0.117 C 
HETATM    3  C6  UNL     1     -32.104   7.623   2.214  1.00 20.00     0.093 C 
ENDROOT
BRANCH   3   4
HETATM    4  C8  UNL     1     -32.833   6.324   2.571  1.00 20.00     0.024 C 
BRANCH   4   5
HETATM    5  C9  UNL     1     -33.894   6.532   3.667  1.00 20.00     0.055 C 
BRANCH   5   6
HETATM    6  C3  UNL     1     -34.706   5.262   3.930  1.00 20.00     0.127 C 
HETATM    7  C4  UNL     1     -33.975   3.949   3.812  1.00 20.00     0.091 C 
HETATM    8  O10 UNL     1     -35.894   5.294   4.252  1.00 20.00    -0.298 OA
ENDBRANCH   5   6
BRANCH   5   9
HETATM    9  C7  UNL     1     -33.280   7.053   4.979  1.00 20.00     0.007 C 
HETATM   10  C5  UNL     1     -34.076   6.723   6.235  1.00 20.00     0.006 C 
ENDBRANCH   5   9
ENDBRANCH   4   5
ENDBRANCH   3   4
TORSDOF 4
ENDMDL
MODEL 2
REMARK VINA RESULT:      -4.9     10.782     11.664
REMARK  4 active torsions:
REMARK  status: ('A' for Active; 'I' for Inactive)
REMARK    1  A    between atoms: C3_3  and  C9_9 
REMARK    2  A    between atoms: C6_6  and  C8_8 
REMARK    3  A    between atoms: C7_7  and  C9_9 
REMARK    4  A    between atoms: C8_8  and  C9_9 
ROOT
HETATM    1  C1  UNL     1     -32.593  17.807  -1.805  1.00 20.00     0.012 C 
HETATM    2  C2  UNL     1     -33.593  17.145  -1.819  1.00 20.00    -0.117 C 
HETATM    3  C6  UNL     1     -34.818  16.331  -1.834  1.00 20.00     0.093 C 
ENDROOT
BRANCH   3   4
HETATM    4  C8  UNL     1     -35.239  15.997  -3.269  1.00 20.00     0.024 C 
BRANCH   4   5
HETATM    5  C9  UNL     1     -34.762  14.601  -3.708  1.00 20.00     0.055 C 
BRANCH   5   6
HETATM    6  C3  UNL     1     -35.913  13.735  -4.224  1.00 20.00     0.127 C 
HETATM    7  C4  UNL     1     -37.240  14.420  -4.433  1.00 20.00     0.091 C 
HETATM    8  O10 UNL     1     -35.774  12.541  -4.487  1.00 20.00    -0.298 OA
ENDBRANCH   5   6
BRANCH   5   9
HETATM    9  C7  UNL     1     -33.639  14.673  -4.758  1.00 20.00     0.007 C 
HETATM   10  C5  UNL     1     -34.087  15.103  -6.149  1.00 20.00     0.006 C 
ENDBRANCH   5   9
ENDBRANCH   4   5
ENDBRANCH   3   4
TORSDOF 4
ENDMDL
MODEL 3
REMARK VINA RESULT:      -4.7     10.758     12.160
REMARK  4 active torsions:
REMARK  status: ('A' for Active; 'I' for Inactive)
REMARK    1  A    between atoms: C3_3  and  C9_9 
REMARK    2  A    between atoms: C6_6  and  C8_8 
REMARK    3  A    between atoms: C7_7  and  C9_9 
REMARK    4  A    between atoms: C8_8  and  C9_9 
ROOT
HETATM    1  C1  UNL     1     -35.100  16.661  -1.351  1.00 20.00     0.012 C 
HETATM    2  C2  UNL     1     -34.539  16.130  -2.269  1.00 20.00    -0.117 C 
HETATM    3  C6  UNL     1     -33.850  15.482  -3.395  1.00 20.00     0.093 C 
ENDROOT
BRANCH   3   4
HETATM    4  C8  UNL     1     -34.579  14.203  -3.823  1.00 20.00     0.024 C 
BRANCH   4   5
HETATM    5  C9  UNL     1     -35.469  14.425  -5.059  1.00 20.00     0.055 C 
BRANCH   5   6
HETATM    6  C3  UNL     1     -36.936  14.643  -4.679  1.00 20.00     0.127 C 
HETATM    7  C4  UNL     1     -37.429  16.068  -4.656  1.00 20.00     0.091 C 
HETATM    8  O10 UNL     1     -37.698  13.710  -4.429  1.00 20.00    -0.298 OA
ENDBRANCH   5   6
BRANCH   5   9
HETATM    9  C7  UNL     1     -34.969  15.587  -5.936  1.00 20.00     0.007 C 
HETATM   10  C5  UNL     1     -34.075  15.175  -7.098  1.00 20.00     0.006 C 
ENDBRANCH   5   9
ENDBRANCH   4   5
ENDBRANCH   3   4
TORSDOF 4
ENDMDL
MODEL 4
REMARK VINA RESULT:      -4.7      0.991      2.281
REMARK  4 active torsions:
REMARK  status: ('A' for Active; 'I' for Inactive)
REMARK    1  A    between atoms: C3_3  and  C9_9 
REMARK    2  A    between atoms: C6_6  and  C8_8 
REMARK    3  A    between atoms: C7_7  and  C9_9 
REMARK    4  A    between atoms: C8_8  and  C9_9 
ROOT
HETATM    1  C1  UNL     1     -33.260   9.149   0.212  1.00 20.00     0.012 C 
HETATM    2  C2  UNL     1     -32.750   8.387   0.986  1.00 20.00    -0.117 C 
HETATM    3  C6  UNL     1     -32.124   7.452   1.933  1.00 20.00     0.093 C 
ENDROOT
BRANCH   3   4
HETATM    4  C8  UNL     1     -32.908   7.394   3.249  1.00 20.00     0.024 C 
BRANCH   4   5
HETATM    5  C9  UNL     1     -33.331   5.960   3.614  1.00 20.00     0.055 C 
BRANCH   5   6
HETATM    6  C3  UNL     1     -34.462   5.939   4.644  1.00 20.00     0.127 C 
HETATM    7  C4  UNL     1     -34.178   6.576   5.981  1.00 20.00     0.091 C 
HETATM    8  O10 UNL     1     -35.566   5.453   4.401  1.00 20.00    -0.298 OA
ENDBRANCH   5   6
BRANCH   5   9
HETATM    9  C7  UNL     1     -33.724   5.136   2.375  1.00 20.00     0.007 C 
HETATM   10  C5  UNL     1     -32.938   3.845   2.187  1.00 20.00     0.006 C 
ENDBRANCH   5   9
ENDBRANCH   4   5
ENDBRANCH   3   4
TORSDOF 4
ENDMDL
MODEL 5
REMARK VINA RESULT:      -4.4     15.183     16.157
REMARK  4 active torsions:
REMARK  status: ('A' for Active; 'I' for Inactive)
REMARK    1  A    between atoms: C3_3  and  C9_9 
REMARK    2  A    between atoms: C6_6  and  C8_8 
REMARK    3  A    between atoms: C7_7  and  C9_9 
REMARK    4  A    between atoms: C8_8  and  C9_9 
ROOT
HETATM    1  C1  UNL     1     -26.908  18.737   6.361  1.00 20.00     0.012 C 
HETATM    2  C2  UNL     1     -25.786  18.967   6.722  1.00 20.00    -0.117 C 
HETATM    3  C6  UNL     1     -24.411  19.248   7.161  1.00 20.00     0.093 C 
ENDROOT
BRANCH   3   4
HETATM    4  C8  UNL     1     -24.293  19.160   8.687  1.00 20.00     0.024 C 
BRANCH   4   5
HETATM    5  C9  UNL     1     -23.836  17.768   9.158  1.00 20.00     0.055 C 
BRANCH   5   6
HETATM    6  C3  UNL     1     -22.407  17.450   8.714  1.00 20.00     0.127 C 
HETATM    7  C4  UNL     1     -21.293  18.138   9.462  1.00 20.00     0.091 C 
HETATM    8  O10 UNL     1     -22.159  16.653   7.810  1.00 20.00    -0.298 OA
ENDBRANCH   5   6
BRANCH   5   9
HETATM    9  C7  UNL     1     -23.971  17.596  10.682  1.00 20.00     0.007 C 
HETATM   10  C5  UNL     1     -24.366  16.197  11.138  1.00 20.00     0.006 C 
ENDBRANCH   5   9
ENDBRANCH   4   5
ENDBRANCH   3   4
TORSDOF 4
ENDMDL
MODEL 6
REMARK VINA RESULT:      -4.3     11.149     12.337
REMARK  4 active torsions:
REMARK  status: ('A' for Active; 'I' for Inactive)
REMARK    1  A    between atoms: C3_3  and  C9_9 
REMARK    2  A    between atoms: C6_6  and  C8_8 
REMARK    3  A    between atoms: C7_7  and  C9_9 
REMARK    4  A    between atoms: C8_8  and  C9_9 
ROOT
HETATM    1  C1  UNL     1     -35.079  16.932  -1.079  1.00 20.00     0.012 C 
HETATM    2  C2  UNL     1     -34.198  16.866  -1.891  1.00 20.00    -0.117 C 
HETATM    3  C6  UNL     1     -33.117  16.789  -2.886  1.00 20.00     0.093 C 
ENDROOT
BRANCH   3   4
HETATM    4  C8  UNL     1     -33.177  15.467  -3.660  1.00 20.00     0.024 C 
BRANCH   4   5
HETATM    5  C9  UNL     1     -34.483  15.316  -4.459  1.00 20.00     0.055 C 
BRANCH   5   6
HETATM    6  C3  UNL     1     -34.245  15.384  -5.969  1.00 20.00     0.127 C 
HETATM    7  C4  UNL     1     -34.883  16.533  -6.708  1.00 20.00     0.091 C 
HETATM    8  O10 UNL     1     -33.546  14.564  -6.564  1.00 20.00    -0.298 OA
ENDBRANCH   5   6
BRANCH   5   9
HETATM    9  C7  UNL     1     -35.241  14.026  -4.097  1.00 20.00     0.007 C 
HETATM   10  C5  UNL     1     -36.726  14.037  -4.438  1.00 20.00     0.006 C 
ENDBRANCH   5   9
ENDBRANCH   4   5
ENDBRANCH   3   4
TORSDOF 4
ENDMDL
MODEL 7
REMARK VINA RESULT:      -4.3     10.874     11.966
REMARK  4 active torsions:
REMARK  status: ('A' for Active; 'I' for Inactive)
REMARK    1  A    between atoms: C3_3  and  C9_9 
REMARK    2  A    between atoms: C6_6  and  C8_8 
REMARK    3  A    between atoms: C7_7  and  C9_9 
REMARK    4  A    between atoms: C8_8  and  C9_9 
ROOT
HETATM    1  C1  UNL     1     -34.849  17.504  -6.954  1.00 20.00     0.012 C 
HETATM    2  C2  UNL     1     -34.452  16.380  -6.812  1.00 20.00    -0.117 C 
HETATM    3  C6  UNL     1     -33.968  15.002  -6.642  1.00 20.00     0.093 C 
ENDROOT
BRANCH   3   4
HETATM    4  C8  UNL     1     -33.766  14.669  -5.159  1.00 20.00     0.024 C 
BRANCH   4   5
HETATM    5  C9  UNL     1     -34.999  15.021  -4.308  1.00 20.00     0.055 C 
BRANCH   5   6
HETATM    6  C3  UNL     1     -36.081  13.942  -4.389  1.00 20.00     0.127 C 
HETATM    7  C4  UNL     1     -37.514  14.410  -4.356  1.00 20.00     0.091 C 
HETATM    8  O10 UNL     1     -35.812  12.746  -4.504  1.00 20.00    -0.298 OA
ENDBRANCH   5   6
BRANCH   5   9
HETATM    9  C7  UNL     1     -34.632  15.299  -2.839  1.00 20.00     0.007 C 
HETATM   10  C5  UNL     1     -35.184  16.601  -2.275  1.00 20.00     0.006 C 
ENDBRANCH   5   9
ENDBRANCH   4   5
ENDBRANCH   3   4
TORSDOF 4
ENDMDL
MODEL 8
REMARK VINA RESULT:      -4.2     11.071     12.208
REMARK  4 active torsions:
REMARK  status: ('A' for Active; 'I' for Inactive)
REMARK    1  A    between atoms: C3_3  and  C9_9 
REMARK    2  A    between atoms: C6_6  and  C8_8 
REMARK    3  A    between atoms: C7_7  and  C9_9 
REMARK    4  A    between atoms: C8_8  and  C9_9 
ROOT
HETATM    1  C1  UNL     1     -38.566  14.872  -4.280  1.00 20.00     0.012 C 
HETATM    2  C2  UNL     1     -37.468  14.394  -4.356  1.00 20.00    -0.117 C 
HETATM    3  C6  UNL     1     -36.124  13.805  -4.450  1.00 20.00     0.093 C 
ENDROOT
BRANCH   3   4
HETATM    4  C8  UNL     1     -35.159  14.478  -3.467  1.00 20.00     0.024 C 
BRANCH   4   5
HETATM    5  C9  UNL     1     -33.854  14.929  -4.147  1.00 20.00     0.055 C 
BRANCH   5   6
HETATM    6  C3  UNL     1     -34.077  15.344  -5.603  1.00 20.00     0.127 C 
HETATM    7  C4  UNL     1     -34.706  16.695  -5.837  1.00 20.00     0.091 C 
HETATM    8  O10 UNL     1     -33.741  14.634  -6.550  1.00 20.00    -0.298 OA
ENDBRANCH   5   6
BRANCH   5   9
HETATM    9  C7  UNL     1     -33.156  16.061  -3.372  1.00 20.00     0.007 C 
HETATM   10  C5  UNL     1     -33.940  16.606  -2.185  1.00 20.00     0.006 C 
ENDBRANCH   5   9
ENDBRANCH   4   5
ENDBRANCH   3   4
TORSDOF 4
ENDMDL
MODEL 9
REMARK VINA RESULT:      -4.1     11.370     12.557
REMARK  4 active torsions:
REMARK  status: ('A' for Active; 'I' for Inactive)
REMARK    1  A    between atoms: C3_3  and  C9_9 
REMARK    2  A    between atoms: C6_6  and  C8_8 
REMARK    3  A    between atoms: C7_7  and  C9_9 
REMARK    4  A    between atoms: C8_8  and  C9_9 
ROOT
HETATM    1  C1  UNL     1     -35.060  16.558  -1.560  1.00 20.00     0.012 C 
HETATM    2  C2  UNL     1     -34.583  15.878  -2.426  1.00 20.00    -0.117 C 
HETATM    3  C6  UNL     1     -33.995  15.046  -3.487  1.00 20.00     0.093 C 
ENDROOT
BRANCH   3   4
HETATM    4  C8  UNL     1     -35.087  14.408  -4.354  1.00 20.00     0.024 C 
BRANCH   4   5
HETATM    5  C9  UNL     1     -35.680  15.402  -5.368  1.00 20.00     0.055 C 
BRANCH   5   6
HETATM    6  C3  UNL     1     -35.392  14.990  -6.813  1.00 20.00     0.127 C 
HETATM    7  C4  UNL     1     -34.001  15.252  -7.332  1.00 20.00     0.091 C 
HETATM    8  O10 UNL     1     -36.236  14.444  -7.524  1.00 20.00    -0.298 OA
ENDBRANCH   5   6
BRANCH   5   9
HETATM    9  C7  UNL     1     -37.193  15.607  -5.165  1.00 20.00     0.007 C 
HETATM   10  C5  UNL     1     -37.874  14.550  -4.306  1.00 20.00     0.006 C 
ENDBRANCH   5   9
ENDBRANCH   4   5
ENDBRANCH   3   4
TORSDOF 4
ENDMDL
