MODEL 1
REMARK VINA RESULT:      -5.6      0.000      0.000
REMARK  4 active torsions:
REMARK  status: ('A' for Active; 'I' for Inactive)
REMARK    1  A    between atoms: C3_3  and  C6_6 
REMARK    2  A    between atoms: C3_3  and  C7_7 
REMARK    3  A    between atoms: C5_5  and  C8_8 
REMARK    4  A    between atoms: C7_7  and  C8_8 
ROOT
HETATM    1  C1  UNL     1     -32.944   8.707   0.474  1.00 20.00     0.012 C 
HETATM    2  C2  UNL     1     -32.627   8.034   1.417  1.00 20.00    -0.117 C 
HETATM    3  C5  UNL     1     -32.237   7.213   2.572  1.00 20.00     0.093 C 
ENDROOT
BRANCH   3   4
HETATM    4  C8  UNL     1     -32.978   5.874   2.569  1.00 20.00     0.019 C 
BRANCH   4   5
HETATM    5  C7  UNL     1     -34.306   5.941   3.323  1.00 20.00     0.079 C 
BRANCH   5   6
HETATM    6  C3  UNL     1     -34.477   4.848   4.370  1.00 20.00     0.126 C 
HETATM    7  O9  UNL     1     -34.383   3.654   4.094  1.00 20.00    -0.298 OA
BRANCH   6   8
HETATM    8  C6  UNL     1     -34.804   5.333   5.773  1.00 20.00     0.074 C 
HETATM    9  C4  UNL     1     -34.153   6.665   6.100  1.00 20.00     0.013 C 
ENDBRANCH   6   8
ENDBRANCH   5   6
ENDBRANCH   4   5
ENDBRANCH   3   4
TORSDOF 4
ENDMDL
MODEL 2
REMARK VINA RESULT:      -4.9      1.051      4.042
REMARK  4 active torsions:
REMARK  status: ('A' for Active; 'I' for Inactive)
REMARK    1  A    between atoms: C3_3  and  C6_6 
REMARK    2  A    between atoms: C3_3  and  C7_7 
REMARK    3  A    between atoms: C5_5  and  C8_8 
REMARK    4  A    between atoms: C7_7  and  C8_8 
ROOT
HETATM    1  C1  UNL     1     -33.634   7.387   6.190  1.00 20.00     0.012 C 
HETATM    2  C2  UNL     1     -34.191   6.331   6.055  1.00 20.00    -0.117 C 
HETATM    3  C5  UNL     1     -34.872   5.039   5.893  1.00 20.00     0.093 C 
ENDROOT
BRANCH   3   4
HETATM    4  C8  UNL     1     -34.799   4.558   4.441  1.00 20.00     0.019 C 
BRANCH   4   5
HETATM    5  C7  UNL     1     -34.573   5.704   3.457  1.00 20.00     0.079 C 
BRANCH   5   6
HETATM    6  C3  UNL     1     -33.232   5.645   2.739  1.00 20.00     0.126 C 
HETATM    7  O9  UNL     1     -32.818   4.619   2.204  1.00 20.00    -0.298 OA
BRANCH   6   8
HETATM    8  C6  UNL     1     -32.423   6.932   2.756  1.00 20.00     0.074 C 
HETATM    9  C4  UNL     1     -32.612   7.761   1.497  1.00 20.00     0.013 C 
ENDBRANCH   6   8
ENDBRANCH   5   6
ENDBRANCH   4   5
ENDBRANCH   3   4
TORSDOF 4
ENDMDL
MODEL 3
REMARK VINA RESULT:      -4.9      1.637      4.525
REMARK  4 active torsions:
REMARK  status: ('A' for Active; 'I' for Inactive)
REMARK    1  A    between atoms: C3_3  and  C6_6 
REMARK    2  A    between atoms: C3_3  and  C7_7 
REMARK    3  A    between atoms: C5_5  and  C8_8 
REMARK    4  A    between atoms: C7_7  and  C8_8 
ROOT
HETATM    1  C1  UNL     1     -34.377   6.368   6.069  1.00 20.00     0.012 C 
HETATM    2  C2  UNL     1     -34.438   5.553   5.188  1.00 20.00    -0.117 C 
HETATM    3  C5  UNL     1     -34.515   4.554   4.114  1.00 20.00     0.093 C 
ENDROOT
BRANCH   3   4
HETATM    4  C8  UNL     1     -33.479   4.838   3.023  1.00 20.00     0.019 C 
BRANCH   4   5
HETATM    5  C7  UNL     1     -33.725   6.172   2.319  1.00 20.00     0.079 C 
BRANCH   5   6
HETATM    6  C3  UNL     1     -32.531   7.115   2.350  1.00 20.00     0.126 C 
HETATM    7  O9  UNL     1     -31.910   7.355   3.384  1.00 20.00    -0.298 OA
BRANCH   6   8
HETATM    8  C6  UNL     1     -32.178   7.769   1.023  1.00 20.00     0.074 C 
HETATM    9  C4  UNL     1     -32.983   9.028   0.758  1.00 20.00     0.013 C 
ENDBRANCH   6   8
ENDBRANCH   5   6
ENDBRANCH   4   5
ENDBRANCH   3   4
TORSDOF 4
ENDMDL
MODEL 4
REMARK VINA RESULT:      -4.7      1.555      1.960
REMARK  4 active torsions:
REMARK  status: ('A' for Active; 'I' for Inactive)
REMARK    1  A    between atoms: C3_3  and  C6_6 
REMARK    2  A    between atoms: C3_3  and  C7_7 
REMARK    3  A    between atoms: C5_5  and  C8_8 
REMARK    4  A    between atoms: C7_7  and  C8_8 
ROOT
HETATM    1  C1  UNL     1     -32.956   9.194   0.647  1.00 20.00     0.012 C 
HETATM    2  C2  UNL     1     -32.661   8.189   1.235  1.00 20.00    -0.117 C 
HETATM    3  C5  UNL     1     -32.300   6.958   1.951  1.00 20.00     0.093 C 
ENDROOT
BRANCH   3   4
HETATM    4  C8  UNL     1     -32.522   7.113   3.457  1.00 20.00     0.019 C 
BRANCH   4   5
HETATM    5  C7  UNL     1     -33.992   6.970   3.848  1.00 20.00     0.079 C 
BRANCH   5   6
HETATM    6  C3  UNL     1     -34.209   6.331   5.212  1.00 20.00     0.126 C 
HETATM    7  O9  UNL     1     -33.897   6.894   6.259  1.00 20.00    -0.298 OA
BRANCH   6   8
HETATM    8  C6  UNL     1     -34.807   4.933   5.192  1.00 20.00     0.074 C 
HETATM    9  C4  UNL     1     -34.324   4.107   4.013  1.00 20.00     0.013 C 
ENDBRANCH   6   8
ENDBRANCH   5   6
ENDBRANCH   4   5
ENDBRANCH   3   4
TORSDOF 4
ENDMDL
MODEL 5
REMARK VINA RESULT:      -4.5     11.221     11.817
REMARK  4 active torsions:
REMARK  status: ('A' for Active; 'I' for Inactive)
REMARK    1  A    between atoms: C3_3  and  C6_6 
REMARK    2  A    between atoms: C3_3  and  C7_7 
REMARK    3  A    between atoms: C5_5  and  C8_8 
REMARK    4  A    between atoms: C7_7  and  C8_8 
ROOT
HETATM    1  C1  UNL     1     -35.095  16.452  -1.501  1.00 20.00     0.012 C 
HETATM    2  C2  UNL     1     -34.282  16.235  -2.358  1.00 20.00    -0.117 C 
HETATM    3  C5  UNL     1     -33.287  15.973  -3.406  1.00 20.00     0.093 C 
ENDROOT
BRANCH   3   4
HETATM    4  C8  UNL     1     -33.584  14.657  -4.130  1.00 20.00     0.019 C 
BRANCH   4   5
HETATM    5  C7  UNL     1     -34.836  14.741  -5.002  1.00 20.00     0.079 C 
BRANCH   5   6
HETATM    6  C3  UNL     1     -35.959  13.812  -4.560  1.00 20.00     0.126 C 
HETATM    7  O9  UNL     1     -35.821  12.592  -4.511  1.00 20.00    -0.298 OA
BRANCH   6   8
HETATM    8  C6  UNL     1     -37.273  14.494  -4.214  1.00 20.00     0.074 C 
HETATM    9  C4  UNL     1     -37.341  15.925  -4.718  1.00 20.00     0.013 C 
ENDBRANCH   6   8
ENDBRANCH   5   6
ENDBRANCH   4   5
ENDBRANCH   3   4
TORSDOF 4
ENDMDL
MODEL 6
REMARK VINA RESULT:      -4.1     11.310     12.182
REMARK  4 active torsions:
REMARK  status: ('A' for Active; 'I' for Inactive)
REMARK    1  A    between atoms: C3_3  and  C6_6 
REMARK    2  A    between atoms: C3_3  and  C7_7 
REMARK    3  A    between atoms: C5_5  and  C8_8 
REMARK    4  A    between atoms: C7_7  and  C8_8 
ROOT
HETATM    1  C1  UNL     1     -35.150  16.621  -1.527  1.00 20.00     0.012 C 
HETATM    2  C2  UNL     1     -34.450  16.128  -2.370  1.00 20.00    -0.117 C 
HETATM    3  C5  UNL     1     -33.591  15.526  -3.399  1.00 20.00     0.093 C 
ENDROOT
BRANCH   3   4
HETATM    4  C8  UNL     1     -34.420  15.039  -4.591  1.00 20.00     0.019 C 
BRANCH   4   5
HETATM    5  C7  UNL     1     -35.480  14.016  -4.185  1.00 20.00     0.079 C 
BRANCH   5   6
HETATM    6  C3  UNL     1     -36.905  14.442  -4.509  1.00 20.00     0.126 C 
HETATM    7  O9  UNL     1     -37.863  13.683  -4.379  1.00 20.00    -0.298 OA
BRANCH   6   8
HETATM    8  C6  UNL     1     -37.060  15.860  -5.036  1.00 20.00     0.074 C 
HETATM    9  C4  UNL     1     -37.910  16.733  -4.130  1.00 20.00     0.013 C 
ENDBRANCH   6   8
ENDBRANCH   5   6
ENDBRANCH   4   5
ENDBRANCH   3   4
TORSDOF 4
ENDMDL
MODEL 7
REMARK VINA RESULT:      -4.0     10.886     12.207
REMARK  4 active torsions:
REMARK  status: ('A' for Active; 'I' for Inactive)
REMARK    1  A    between atoms: C3_3  and  C6_6 
REMARK    2  A    between atoms: C3_3  and  C7_7 
REMARK    3  A    between atoms: C5_5  and  C8_8 
REMARK    4  A    between atoms: C7_7  and  C8_8 
ROOT
HETATM    1  C1  UNL     1     -32.925  17.633  -2.142  1.00 20.00     0.012 C 
HETATM    2  C2  UNL     1     -33.704  16.744  -2.359  1.00 20.00    -0.117 C 
HETATM    3  C5  UNL     1     -34.659  15.658  -2.620  1.00 20.00     0.093 C 
ENDROOT
BRANCH   3   4
HETATM    4  C8  UNL     1     -34.133  14.714  -3.704  1.00 20.00     0.019 C 
BRANCH   4   5
HETATM    5  C7  UNL     1     -35.094  13.560  -3.988  1.00 20.00     0.079 C 
BRANCH   5   6
HETATM    6  C3  UNL     1     -36.301  13.955  -4.828  1.00 20.00     0.126 C 
HETATM    7  O9  UNL     1     -37.447  13.631  -4.524  1.00 20.00    -0.298 OA
BRANCH   6   8
HETATM    8  C6  UNL     1     -35.990  14.749  -6.087  1.00 20.00     0.074 C 
HETATM    9  C4  UNL     1     -36.565  16.154  -6.051  1.00 20.00     0.013 C 
ENDBRANCH   6   8
ENDBRANCH   5   6
ENDBRANCH   4   5
ENDBRANCH   3   4
TORSDOF 4
ENDMDL
MODEL 8
REMARK VINA RESULT:      -4.0      1.304      4.418
REMARK  4 active torsions:
REMARK  status: ('A' for Active; 'I' for Inactive)
REMARK    1  A    between atoms: C3_3  and  C6_6 
REMARK    2  A    between atoms: C3_3  and  C7_7 
REMARK    3  A    between atoms: C5_5  and  C8_8 
REMARK    4  A    between atoms: C7_7  and  C8_8 
ROOT
HETATM    1  C1  UNL     1     -35.075   4.753   5.718  1.00 20.00     0.012 C 
HETATM    2  C2  UNL     1     -34.483   5.782   5.903  1.00 20.00    -0.117 C 
HETATM    3  C5  UNL     1     -33.762   7.041   6.133  1.00 20.00     0.093 C 
ENDROOT
BRANCH   3   4
HETATM    4  C8  UNL     1     -32.970   7.456   4.890  1.00 20.00     0.019 C 
BRANCH   4   5
HETATM    5  C7  UNL     1     -33.733   7.184   3.595  1.00 20.00     0.079 C 
BRANCH   5   6
HETATM    6  C3  UNL     1     -32.917   6.449   2.541  1.00 20.00     0.126 C 
HETATM    7  O9  UNL     1     -32.873   5.222   2.480  1.00 20.00    -0.298 OA
BRANCH   6   8
HETATM    8  C6  UNL     1     -32.130   7.335   1.587  1.00 20.00     0.074 C 
HETATM    9  C4  UNL     1     -32.944   8.510   1.074  1.00 20.00     0.013 C 
ENDBRANCH   6   8
ENDBRANCH   5   6
ENDBRANCH   4   5
ENDBRANCH   3   4
TORSDOF 4
ENDMDL
MODEL 9
REMARK VINA RESULT:      -3.7     15.377     16.258
REMARK  4 active torsions:
REMARK  status: ('A' for Active; 'I' for Inactive)
REMARK    1  A    between atoms: C3_3  and  C6_6 
REMARK    2  A    between atoms: C3_3  and  C7_7 
REMARK    3  A    between atoms: C5_5  and  C8_8 
REMARK    4  A    between atoms: C7_7  and  C8_8 
ROOT
HETATM    1  C1  UNL     1     -26.203  18.688   4.247  1.00 20.00     0.012 C 
HETATM    2  C2  UNL     1     -26.176  18.920   5.425  1.00 20.00    -0.117 C 
HETATM    3  C5  UNL     1     -26.147  19.205   6.866  1.00 20.00     0.093 C 
ENDROOT
BRANCH   3   4
HETATM    4  C8  UNL     1     -24.709  19.263   7.386  1.00 20.00     0.019 C 
BRANCH   4   5
HETATM    5  C7  UNL     1     -24.607  18.890   8.865  1.00 20.00     0.079 C 
BRANCH   5   6
HETATM    6  C3  UNL     1     -23.185  18.621   9.337  1.00 20.00     0.126 C 
HETATM    7  O9  UNL     1     -22.212  19.188   8.845  1.00 20.00    -0.298 OA
BRANCH   6   8
HETATM    8  C6  UNL     1     -23.047  17.580  10.436  1.00 20.00     0.074 C 
HETATM    9  C4  UNL     1     -24.229  16.629  10.495  1.00 20.00     0.013 C 
ENDBRANCH   6   8
ENDBRANCH   5   6
ENDBRANCH   4   5
ENDBRANCH   3   4
TORSDOF 4
ENDMDL
