MODEL 1
REMARK VINA RESULT:      -4.6      0.000      0.000
REMARK  0 active torsions:
REMARK  status: ('A' for Active; 'I' for Inactive)
ROOT
HETATM    1  C1  UNL     1     -32.203  18.912  -0.328  1.00 20.00     0.002 A 
HETATM    2  C2  UNL     1     -32.075  18.261  -1.558  1.00 20.00     0.009 A 
HETATM    3  C3  UNL     1     -33.348  18.727   0.464  1.00 20.00     0.019 A 
HETATM    4  C4  UNL     1     -33.101  17.426  -1.969  1.00 20.00    -0.032 A 
HETATM    5  C5  UNL     1     -34.239  17.237  -1.174  1.00 20.00    -0.033 A 
HETATM    6  C6  UNL     1     -34.379  17.887   0.040  1.00 20.00     0.017 A 
HETATM    7  C7  UNL     1     -35.215  16.322  -1.846  1.00 20.00     0.042 C 
HETATM    8  C8  UNL     1     -34.308  15.637  -2.883  1.00 20.00     0.030 C 
HETATM    9  C9  UNL     1     -33.205  16.648  -3.245  1.00 20.00     0.116 C 
HETATM   10 CL10 UNL     1     -33.714  17.713  -4.572  1.00 20.00    -0.120 Cl
HETATM   11 BR11 UNL     1     -35.915  17.683   1.120  1.00 20.00    -0.051 Br
ENDROOT
TORSDOF 0
ENDMDL
MODEL 2
REMARK VINA RESULT:      -4.3      1.986      2.733
REMARK  0 active torsions:
REMARK  status: ('A' for Active; 'I' for Inactive)
ROOT
HETATM    1  C1  UNL     1     -33.095  17.373  -2.214  1.00 20.00     0.002 A 
HETATM    2  C2  UNL     1     -32.918  16.263  -3.043  1.00 20.00     0.009 A 
HETATM    3  C3  UNL     1     -34.385  17.807  -1.865  1.00 20.00     0.019 A 
HETATM    4  C4  UNL     1     -34.043  15.599  -3.503  1.00 20.00    -0.032 A 
HETATM    5  C5  UNL     1     -35.329  16.028  -3.147  1.00 20.00    -0.033 A 
HETATM    6  C6  UNL     1     -35.514  17.135  -2.336  1.00 20.00     0.017 A 
HETATM    7  C7  UNL     1     -36.376  15.175  -3.794  1.00 20.00     0.042 C 
HETATM    8  C8  UNL     1     -35.551  13.931  -4.165  1.00 20.00     0.030 C 
HETATM    9  C9  UNL     1     -34.110  14.412  -4.414  1.00 20.00     0.116 C 
HETATM   10 CL10 UNL     1     -33.879  14.920  -6.101  1.00 20.00    -0.120 Cl
HETATM   11 BR11 UNL     1     -37.233  17.763  -1.867  1.00 20.00    -0.051 Br
ENDROOT
TORSDOF 0
ENDMDL
MODEL 3
REMARK VINA RESULT:      -4.3      2.788      3.898
REMARK  0 active torsions:
REMARK  status: ('A' for Active; 'I' for Inactive)
ROOT
HETATM    1  C1  UNL     1     -31.869  18.499  -1.373  1.00 20.00     0.002 A 
HETATM    2  C2  UNL     1     -32.130  18.891  -0.058  1.00 20.00     0.009 A 
HETATM    3  C3  UNL     1     -32.766  17.670  -2.065  1.00 20.00     0.019 A 
HETATM    4  C4  UNL     1     -33.299  18.448   0.540  1.00 20.00    -0.032 A 
HETATM    5  C5  UNL     1     -34.198  17.627  -0.154  1.00 20.00    -0.033 A 
HETATM    6  C6  UNL     1     -33.940  17.223  -1.454  1.00 20.00     0.017 A 
HETATM    7  C7  UNL     1     -35.361  17.255   0.711  1.00 20.00     0.042 C 
HETATM    8  C8  UNL     1     -35.270  18.334   1.804  1.00 20.00     0.030 C 
HETATM    9  C9  UNL     1     -33.782  18.709   1.934  1.00 20.00     0.116 C 
HETATM   10 CL10 UNL     1     -32.944  17.646   3.083  1.00 20.00    -0.120 Cl
HETATM   11 BR11 UNL     1     -35.111  16.088  -2.406  1.00 20.00    -0.051 Br
ENDROOT
TORSDOF 0
ENDMDL
MODEL 4
REMARK VINA RESULT:      -4.3      1.826      2.859
REMARK  0 active torsions:
REMARK  status: ('A' for Active; 'I' for Inactive)
ROOT
HETATM    1  C1  UNL     1     -35.543  17.388   0.725  1.00 20.00     0.002 A 
HETATM    2  C2  UNL     1     -35.384  17.261  -0.657  1.00 20.00     0.009 A 
HETATM    3  C3  UNL     1     -34.498  17.880   1.523  1.00 20.00     0.019 A 
HETATM    4  C4  UNL     1     -34.175  17.640  -1.218  1.00 20.00    -0.032 A 
HETATM    5  C5  UNL     1     -33.136  18.138  -0.421  1.00 20.00    -0.033 A 
HETATM    6  C6  UNL     1     -33.281  18.255   0.951  1.00 20.00     0.017 A 
HETATM    7  C7  UNL     1     -31.926  18.443  -1.248  1.00 20.00     0.042 C 
HETATM    8  C8  UNL     1     -32.545  18.517  -2.655  1.00 20.00     0.030 C 
HETATM    9  C9  UNL     1     -33.761  17.573  -2.655  1.00 20.00     0.116 C 
HETATM   10 CL10 UNL     1     -33.291  15.914  -3.082  1.00 20.00    -0.120 Cl
HETATM   11 BR11 UNL     1     -31.888  18.889   2.060  1.00 20.00    -0.051 Br
ENDROOT
TORSDOF 0
ENDMDL
MODEL 5
REMARK VINA RESULT:      -4.2      2.581      3.729
REMARK  0 active torsions:
REMARK  status: ('A' for Active; 'I' for Inactive)
ROOT
HETATM    1  C1  UNL     1     -32.924  15.686  -3.397  1.00 20.00     0.002 A 
HETATM    2  C2  UNL     1     -33.576  14.874  -4.328  1.00 20.00     0.009 A 
HETATM    3  C3  UNL     1     -33.658  16.504  -2.523  1.00 20.00     0.019 A 
HETATM    4  C4  UNL     1     -34.961  14.894  -4.361  1.00 20.00    -0.032 A 
HETATM    5  C5  UNL     1     -35.692  15.706  -3.484  1.00 20.00    -0.033 A 
HETATM    6  C6  UNL     1     -35.053  16.522  -2.566  1.00 20.00     0.017 A 
HETATM    7  C7  UNL     1     -37.163  15.580  -3.736  1.00 20.00     0.042 C 
HETATM    8  C8  UNL     1     -37.212  14.258  -4.522  1.00 20.00     0.030 C 
HETATM    9  C9  UNL     1     -35.876  14.141  -5.278  1.00 20.00     0.116 C 
HETATM   10 CL10 UNL     1     -35.955  14.944  -6.861  1.00 20.00    -0.120 Cl
HETATM   11 BR11 UNL     1     -36.005  17.656  -1.393  1.00 20.00    -0.051 Br
ENDROOT
TORSDOF 0
ENDMDL
MODEL 6
REMARK VINA RESULT:      -4.2      2.581      3.498
REMARK  0 active torsions:
REMARK  status: ('A' for Active; 'I' for Inactive)
ROOT
HETATM    1  C1  UNL     1     -34.667  17.232  -1.677  1.00 20.00     0.002 A 
HETATM    2  C2  UNL     1     -34.144  16.098  -2.303  1.00 20.00     0.009 A 
HETATM    3  C3  UNL     1     -35.968  17.674  -1.967  1.00 20.00     0.019 A 
HETATM    4  C4  UNL     1     -34.943  15.419  -3.208  1.00 20.00    -0.032 A 
HETATM    5  C5  UNL     1     -36.244  15.857  -3.490  1.00 20.00    -0.033 A 
HETATM    6  C6  UNL     1     -36.766  16.987  -2.884  1.00 20.00     0.017 A 
HETATM    7  C7  UNL     1     -36.891  14.984  -4.520  1.00 20.00     0.042 C 
HETATM    8  C8  UNL     1     -36.002  13.730  -4.441  1.00 20.00     0.030 C 
HETATM    9  C9  UNL     1     -34.600  14.206  -4.017  1.00 20.00     0.116 C 
HETATM   10 CL10 UNL     1     -33.619  14.665  -5.425  1.00 20.00    -0.120 Cl
HETATM   11 BR11 UNL     1     -38.501  17.626  -3.268  1.00 20.00    -0.051 Br
ENDROOT
TORSDOF 0
ENDMDL
MODEL 7
REMARK VINA RESULT:      -4.2      3.527      5.474
REMARK  0 active torsions:
REMARK  status: ('A' for Active; 'I' for Inactive)
ROOT
HETATM    1  C1  UNL     1     -35.922  13.917  -5.120  1.00 20.00     0.002 A 
HETATM    2  C2  UNL     1     -35.498  14.237  -3.828  1.00 20.00     0.009 A 
HETATM    3  C3  UNL     1     -35.603  14.749  -6.205  1.00 20.00     0.019 A 
HETATM    4  C4  UNL     1     -34.750  15.390  -3.648  1.00 20.00    -0.032 A 
HETATM    5  C5  UNL     1     -34.426  16.215  -4.733  1.00 20.00    -0.033 A 
HETATM    6  C6  UNL     1     -34.853  15.912  -6.015  1.00 20.00     0.017 A 
HETATM    7  C7  UNL     1     -33.646  17.411  -4.282  1.00 20.00     0.042 C 
HETATM    8  C8  UNL     1     -33.153  16.935  -2.904  1.00 20.00     0.030 C 
HETATM    9  C9  UNL     1     -34.210  15.952  -2.369  1.00 20.00     0.116 C 
HETATM   10 CL10 UNL     1     -35.493  16.801  -1.482  1.00 20.00    -0.120 Cl
HETATM   11 BR11 UNL     1     -34.466  17.021  -7.494  1.00 20.00    -0.051 Br
ENDROOT
TORSDOF 0
ENDMDL
MODEL 8
REMARK VINA RESULT:      -4.0      2.906      4.109
REMARK  0 active torsions:
REMARK  status: ('A' for Active; 'I' for Inactive)
ROOT
HETATM    1  C1  UNL     1     -33.060  15.195  -3.844  1.00 20.00     0.002 A 
HETATM    2  C2  UNL     1     -33.009  16.377  -3.101  1.00 20.00     0.009 A 
HETATM    3  C3  UNL     1     -34.294  14.633  -4.211  1.00 20.00     0.019 A 
HETATM    4  C4  UNL     1     -34.204  16.980  -2.744  1.00 20.00    -0.032 A 
HETATM    5  C5  UNL     1     -35.434  16.422  -3.117  1.00 20.00    -0.033 A 
HETATM    6  C6  UNL     1     -35.493  15.245  -3.843  1.00 20.00     0.017 A 
HETATM    7  C7  UNL     1     -36.574  17.235  -2.586  1.00 20.00     0.042 C 
HETATM    8  C8  UNL     1     -35.867  18.567  -2.281  1.00 20.00     0.030 C 
HETATM    9  C9  UNL     1     -34.406  18.224  -1.934  1.00 20.00     0.116 C 
HETATM   10 CL10 UNL     1     -34.219  17.868  -0.204  1.00 20.00    -0.120 Cl
HETATM   11 BR11 UNL     1     -37.133  14.445  -4.333  1.00 20.00    -0.051 Br
ENDROOT
TORSDOF 0
ENDMDL
MODEL 9
REMARK VINA RESULT:      -4.0      2.602      4.014
REMARK  0 active torsions:
REMARK  status: ('A' for Active; 'I' for Inactive)
ROOT
HETATM    1  C1  UNL     1     -34.048  16.593  -2.331  1.00 20.00     0.002 A 
HETATM    2  C2  UNL     1     -35.213  16.651  -1.563  1.00 20.00     0.009 A 
HETATM    3  C3  UNL     1     -32.890  17.277  -1.929  1.00 20.00     0.019 A 
HETATM    4  C4  UNL     1     -35.192  17.393  -0.393  1.00 20.00    -0.032 A 
HETATM    5  C5  UNL     1     -34.033  18.069   0.011  1.00 20.00    -0.033 A 
HETATM    6  C6  UNL     1     -32.878  18.027  -0.751  1.00 20.00     0.017 A 
HETATM    7  C7  UNL     1     -34.270  18.825   1.282  1.00 20.00     0.042 C 
HETATM    8  C8  UNL     1     -35.534  18.124   1.808  1.00 20.00     0.030 C 
HETATM    9  C9  UNL     1     -36.311  17.626   0.575  1.00 20.00     0.116 C 
HETATM   10 CL10 UNL     1     -37.409  18.877  -0.046  1.00 20.00    -0.120 Cl
HETATM   11 BR11 UNL     1     -31.310  18.956  -0.255  1.00 20.00    -0.051 Br
ENDROOT
TORSDOF 0
ENDMDL
