MODEL 1
REMARK VINA RESULT:      -5.3      0.000      0.000
REMARK  2 active torsions:
REMARK  status: ('A' for Active; 'I' for Inactive)
REMARK    1  A    between atoms: C1_1  and  C6_6 
REMARK    2  A    between atoms: C1_1  and  C8_8 
ROOT
HETATM    1  C2  UNL     1     -34.367   6.452   6.279  1.00 20.00     0.027 C 
HETATM    2  C3  UNL     1     -33.468   6.855   5.119  1.00 20.00     0.016 C 
HETATM    3  C4  UNL     1     -34.717   4.966   6.214  1.00 20.00     0.167 C 
HETATM    4  C5  UNL     1     -35.119   5.351   3.901  1.00 20.00     0.179 C 
HETATM    5  C6  UNL     1     -34.128   6.512   3.780  1.00 20.00     0.079 C 
HETATM    6  O10 UNL     1     -34.678   4.427   4.892  1.00 20.00    -0.390 OA
ENDROOT
BRANCH   5   7
HETATM    7  C1  UNL     1     -33.059   6.165   2.787  1.00 20.00     0.132 C 
HETATM    8  O9  UNL     1     -32.947   5.021   2.350  1.00 20.00    -0.298 OA
BRANCH   7   9
HETATM    9  C8  UNL     1     -32.144   7.300   2.367  1.00 20.00     0.074 C 
HETATM   10  C7  UNL     1     -32.699   8.098   1.202  1.00 20.00     0.013 C 
ENDBRANCH   7   9
ENDBRANCH   5   7
TORSDOF 2
ENDMDL
MODEL 2
REMARK VINA RESULT:      -4.5     11.428     12.619
REMARK  2 active torsions:
REMARK  status: ('A' for Active; 'I' for Inactive)
REMARK    1  A    between atoms: C1_1  and  C6_6 
REMARK    2  A    between atoms: C1_1  and  C8_8 
ROOT
HETATM    1  C2  UNL     1     -33.730  16.565  -2.668  1.00 20.00     0.027 C 
HETATM    2  C3  UNL     1     -34.819  15.503  -2.641  1.00 20.00     0.016 C 
HETATM    3  C4  UNL     1     -33.631  17.218  -4.046  1.00 20.00     0.167 C 
HETATM    4  C5  UNL     1     -33.763  15.001  -4.901  1.00 20.00     0.179 C 
HETATM    5  C6  UNL     1     -34.569  14.448  -3.723  1.00 20.00     0.079 C 
HETATM    6  O10 UNL     1     -34.077  16.376  -5.110  1.00 20.00    -0.390 OA
ENDROOT
BRANCH   5   7
HETATM    7  C1  UNL     1     -35.890  13.932  -4.211  1.00 20.00     0.132 C 
HETATM    8  O9  UNL     1     -35.990  12.810  -4.705  1.00 20.00    -0.298 OA
BRANCH   7   9
HETATM    9  C8  UNL     1     -37.073  14.871  -4.057  1.00 20.00     0.074 C 
HETATM   10  C7  UNL     1     -37.419  15.592  -5.346  1.00 20.00     0.013 C 
ENDBRANCH   7   9
ENDBRANCH   5   7
TORSDOF 2
ENDMDL
MODEL 3
REMARK VINA RESULT:      -4.5      1.239      1.257
REMARK  2 active torsions:
REMARK  status: ('A' for Active; 'I' for Inactive)
REMARK    1  A    between atoms: C1_1  and  C6_6 
REMARK    2  A    between atoms: C1_1  and  C8_8 
ROOT
HETATM    1  C2  UNL     1     -34.635   5.895   6.131  1.00 20.00     0.027 C 
HETATM    2  C3  UNL     1     -33.657   6.857   5.473  1.00 20.00     0.016 C 
HETATM    3  C4  UNL     1     -34.553   4.507   5.498  1.00 20.00     0.167 C 
HETATM    4  C5  UNL     1     -34.558   5.659   3.416  1.00 20.00     0.179 C 
HETATM    5  C6  UNL     1     -33.912   6.934   3.964  1.00 20.00     0.079 C 
HETATM    6  O10 UNL     1     -34.099   4.522   4.143  1.00 20.00    -0.390 OA
ENDROOT
BRANCH   5   7
HETATM    7  C1  UNL     1     -32.608   7.182   3.264  1.00 20.00     0.132 C 
HETATM    8  O9  UNL     1     -31.607   7.524   3.890  1.00 20.00    -0.298 OA
BRANCH   7   9
HETATM    9  C8  UNL     1     -32.610   6.986   1.759  1.00 20.00     0.074 C 
HETATM   10  C7  UNL     1     -32.633   8.298   0.998  1.00 20.00     0.013 C 
ENDBRANCH   7   9
ENDBRANCH   5   7
TORSDOF 2
ENDMDL
MODEL 4
REMARK VINA RESULT:      -4.2     11.685     12.458
REMARK  2 active torsions:
REMARK  status: ('A' for Active; 'I' for Inactive)
REMARK    1  A    between atoms: C1_1  and  C6_6 
REMARK    2  A    between atoms: C1_1  and  C8_8 
ROOT
HETATM    1  C2  UNL     1     -38.021  16.126  -4.506  1.00 20.00     0.027 C 
HETATM    2  C3  UNL     1     -36.572  16.254  -4.062  1.00 20.00     0.016 C 
HETATM    3  C4  UNL     1     -38.534  14.700  -4.312  1.00 20.00     0.167 C 
HETATM    4  C5  UNL     1     -36.470  14.023  -5.282  1.00 20.00     0.179 C 
HETATM    5  C6  UNL     1     -35.688  15.253  -4.814  1.00 20.00     0.079 C 
HETATM    6  O10 UNL     1     -37.504  13.712  -4.351  1.00 20.00    -0.390 OA
ENDROOT
BRANCH   5   7
HETATM    7  C1  UNL     1     -34.565  14.827  -3.916  1.00 20.00     0.132 C 
HETATM    8  O9  UNL     1     -33.877  13.843  -4.183  1.00 20.00    -0.298 OA
BRANCH   7   9
HETATM    9  C8  UNL     1     -34.339  15.677  -2.679  1.00 20.00     0.074 C 
HETATM   10  C7  UNL     1     -33.147  16.605  -2.817  1.00 20.00     0.013 C 
ENDBRANCH   7   9
ENDBRANCH   5   7
TORSDOF 2
ENDMDL
MODEL 5
REMARK VINA RESULT:      -4.1     15.370     16.198
REMARK  2 active torsions:
REMARK  status: ('A' for Active; 'I' for Inactive)
REMARK    1  A    between atoms: C1_1  and  C6_6 
REMARK    2  A    between atoms: C1_1  and  C8_8 
ROOT
HETATM    1  C2  UNL     1     -22.561  17.127   9.946  1.00 20.00     0.027 C 
HETATM    2  C3  UNL     1     -22.757  17.735   8.565  1.00 20.00     0.016 C 
HETATM    3  C4  UNL     1     -23.898  16.722  10.564  1.00 20.00     0.167 C 
HETATM    4  C5  UNL     1     -24.675  18.843   9.817  1.00 20.00     0.179 C 
HETATM    5  C6  UNL     1     -23.707  18.935   8.635  1.00 20.00     0.079 C 
HETATM    6  O10 UNL     1     -25.006  17.482  10.078  1.00 20.00    -0.390 OA
ENDROOT
BRANCH   5   7
HETATM    7  C1  UNL     1     -24.479  19.019   7.352  1.00 20.00     0.132 C 
HETATM    8  O9  UNL     1     -23.919  18.894   6.265  1.00 20.00    -0.298 OA
BRANCH   7   9
HETATM    9  C8  UNL     1     -25.971  19.263   7.486  1.00 20.00     0.074 C 
HETATM   10  C7  UNL     1     -26.736  18.919   6.221  1.00 20.00     0.013 C 
ENDBRANCH   7   9
ENDBRANCH   5   7
TORSDOF 2
ENDMDL
MODEL 6
REMARK VINA RESULT:      -4.1     15.893     16.849
REMARK  2 active torsions:
REMARK  status: ('A' for Active; 'I' for Inactive)
REMARK    1  A    between atoms: C1_1  and  C6_6 
REMARK    2  A    between atoms: C1_1  and  C8_8 
ROOT
HETATM    1  C2  UNL     1     -23.486  18.534   8.095  1.00 20.00     0.027 C 
HETATM    2  C3  UNL     1     -24.574  18.182   9.099  1.00 20.00     0.016 C 
HETATM    3  C4  UNL     1     -22.322  17.548   8.175  1.00 20.00     0.167 C 
HETATM    4  C5  UNL     1     -22.506  17.808  10.533  1.00 20.00     0.179 C 
HETATM    5  C6  UNL     1     -24.001  18.134  10.519  1.00 20.00     0.079 C 
HETATM    6  O10 UNL     1     -22.182  16.932   9.456  1.00 20.00    -0.390 OA
ENDROOT
BRANCH   5   7
HETATM    7  C1  UNL     1     -24.752  17.104  11.310  1.00 20.00     0.132 C 
HETATM    8  O9  UNL     1     -24.557  15.903  11.134  1.00 20.00    -0.298 OA
BRANCH   7   9
HETATM    9  C8  UNL     1     -25.749  17.636  12.323  1.00 20.00     0.074 C 
HETATM   10  C7  UNL     1     -26.084  19.099  12.100  1.00 20.00     0.013 C 
ENDBRANCH   7   9
ENDBRANCH   5   7
TORSDOF 2
ENDMDL
MODEL 7
REMARK VINA RESULT:      -4.0     11.565     13.774
REMARK  2 active torsions:
REMARK  status: ('A' for Active; 'I' for Inactive)
REMARK    1  A    between atoms: C1_1  and  C6_6 
REMARK    2  A    between atoms: C1_1  and  C8_8 
ROOT
HETATM    1  C2  UNL     1     -34.145  16.070  -7.448  1.00 20.00     0.027 C 
HETATM    2  C3  UNL     1     -34.270  14.889  -6.496  1.00 20.00     0.016 C 
HETATM    3  C4  UNL     1     -34.824  17.313  -6.875  1.00 20.00     0.167 C 
HETATM    4  C5  UNL     1     -36.618  15.852  -6.321  1.00 20.00     0.179 C 
HETATM    5  C6  UNL     1     -35.742  14.606  -6.179  1.00 20.00     0.079 C 
HETATM    6  O10 UNL     1     -35.881  17.018  -5.961  1.00 20.00    -0.390 OA
ENDROOT
BRANCH   5   7
HETATM    7  C1  UNL     1     -35.843  14.072  -4.781  1.00 20.00     0.132 C 
HETATM    8  O9  UNL     1     -36.836  13.450  -4.410  1.00 20.00    -0.298 OA
BRANCH   7   9
HETATM    9  C8  UNL     1     -34.658  14.348  -3.873  1.00 20.00     0.074 C 
HETATM   10  C7  UNL     1     -34.924  15.472  -2.889  1.00 20.00     0.013 C 
ENDBRANCH   7   9
ENDBRANCH   5   7
TORSDOF 2
ENDMDL
MODEL 8
REMARK VINA RESULT:      -4.0     11.588     12.710
REMARK  2 active torsions:
REMARK  status: ('A' for Active; 'I' for Inactive)
REMARK    1  A    between atoms: C1_1  and  C6_6 
REMARK    2  A    between atoms: C1_1  and  C8_8 
ROOT
HETATM    1  C2  UNL     1     -35.331  17.344  -1.884  1.00 20.00     0.027 C 
HETATM    2  C3  UNL     1     -35.024  15.883  -2.177  1.00 20.00     0.016 C 
HETATM    3  C4  UNL     1     -35.605  18.118  -3.173  1.00 20.00     0.167 C 
HETATM    4  C5  UNL     1     -33.690  16.999  -4.034  1.00 20.00     0.179 C 
HETATM    5  C6  UNL     1     -33.841  15.764  -3.142  1.00 20.00     0.079 C 
HETATM    6  O10 UNL     1     -34.969  17.558  -4.322  1.00 20.00    -0.390 OA
ENDROOT
BRANCH   5   7
HETATM    7  C1  UNL     1     -34.030  14.544  -3.995  1.00 20.00     0.132 C 
HETATM    8  O9  UNL     1     -33.074  13.997  -4.539  1.00 20.00    -0.298 OA
BRANCH   7   9
HETATM    9  C8  UNL     1     -35.456  14.043  -4.135  1.00 20.00     0.074 C 
HETATM   10  C7  UNL     1     -36.030  14.293  -5.517  1.00 20.00     0.013 C 
ENDBRANCH   7   9
ENDBRANCH   5   7
TORSDOF 2
ENDMDL
MODEL 9
REMARK VINA RESULT:      -3.9     11.974     12.833
REMARK  2 active torsions:
REMARK  status: ('A' for Active; 'I' for Inactive)
REMARK    1  A    between atoms: C1_1  and  C6_6 
REMARK    2  A    between atoms: C1_1  and  C8_8 
ROOT
HETATM    1  C2  UNL     1     -34.932  15.831  -2.233  1.00 20.00     0.027 C 
HETATM    2  C3  UNL     1     -35.709  15.375  -3.460  1.00 20.00     0.016 C 
HETATM    3  C4  UNL     1     -33.643  16.546  -2.633  1.00 20.00     0.167 C 
HETATM    4  C5  UNL     1     -33.346  14.759  -4.174  1.00 20.00     0.179 C 
HETATM    5  C6  UNL     1     -34.840  14.474  -4.343  1.00 20.00     0.079 C 
HETATM    6  O10 UNL     1     -33.135  16.143  -3.905  1.00 20.00    -0.390 OA
ENDROOT
BRANCH   5   7
HETATM    7  C1  UNL     1     -35.235  14.673  -5.776  1.00 20.00     0.132 C 
HETATM    8  O9  UNL     1     -36.398  14.513  -6.142  1.00 20.00    -0.298 OA
BRANCH   7   9
HETATM    9  C8  UNL     1     -34.122  15.077  -6.726  1.00 20.00     0.074 C 
HETATM   10  C7  UNL     1     -34.382  16.413  -7.396  1.00 20.00     0.013 C 
ENDBRANCH   7   9
ENDBRANCH   5   7
TORSDOF 2
ENDMDL
