MODEL 1
REMARK VINA RESULT:      -3.8      0.000      0.000
REMARK  2 active torsions:
REMARK  status: ('A' for Active; 'I' for Inactive)
REMARK    1  A    between atoms: C8_8  and  C9_9 
REMARK    2  A    between atoms: C8_8  and  N10_10 
ROOT
HETATM    1  C1  UNL     1     -36.353  13.888  -4.884  1.00 20.00     0.032 C 
HETATM    2  C2  UNL     1     -35.772  14.278  -6.240  1.00 20.00     0.024 C 
HETATM    3  C3  UNL     1     -36.665  15.125  -4.037  1.00 20.00     0.272 C 
HETATM    4  C4  UNL     1     -34.963  16.424  -5.181  1.00 20.00     0.292 C 
HETATM    5  C5  UNL     1     -34.587  15.225  -6.059  1.00 20.00     0.110 C 
HETATM    6  N10 UNL     1     -35.534  16.048  -3.879  1.00 20.00     0.090 N 
HETATM    7 CL11 UNL     1     -34.020  15.794  -7.656  1.00 20.00    -0.123 Cl
ENDROOT
BRANCH   6   8
HETATM    8  C8  UNL     1     -34.523  15.532  -2.959  1.00 20.00     0.276 C 
BRANCH   8   9
HETATM    9  C9  UNL     1     -34.174  16.550  -1.867  1.00 20.00     0.006 C 
HETATM   10  C6  UNL     1     -32.957  17.400  -2.233  1.00 20.00     0.011 C 
HETATM   11  C7  UNL     1     -35.365  17.441  -1.510  1.00 20.00     0.011 C 
ENDBRANCH   8   9
ENDBRANCH   6   8
TORSDOF 2
ENDMDL
MODEL 2
REMARK VINA RESULT:      -3.8      2.402      4.518
REMARK  2 active torsions:
REMARK  status: ('A' for Active; 'I' for Inactive)
REMARK    1  A    between atoms: C8_8  and  C9_9 
REMARK    2  A    between atoms: C8_8  and  N10_10 
ROOT
HETATM    1  C1  UNL     1     -35.724  15.489  -2.842  1.00 20.00     0.032 C 
HETATM    2  C2  UNL     1     -34.800  16.247  -1.892  1.00 20.00     0.024 C 
HETATM    3  C3  UNL     1     -34.928  14.566  -3.770  1.00 20.00     0.272 C 
HETATM    4  C4  UNL     1     -32.960  15.975  -3.600  1.00 20.00     0.292 C 
HETATM    5  C5  UNL     1     -33.694  16.952  -2.674  1.00 20.00     0.110 C 
HETATM    6  N10 UNL     1     -33.850  15.237  -4.507  1.00 20.00     0.090 N 
HETATM    7 CL11 UNL     1     -32.535  17.702  -1.538  1.00 20.00    -0.123 Cl
ENDROOT
BRANCH   6   8
HETATM    8  C8  UNL     1     -34.358  16.076  -5.590  1.00 20.00     0.276 C 
BRANCH   8   9
HETATM    9  C9  UNL     1     -34.828  15.241  -6.786  1.00 20.00     0.006 C 
HETATM   10  C6  UNL     1     -36.193  15.689  -7.307  1.00 20.00     0.011 C 
HETATM   11  C7  UNL     1     -33.798  15.227  -7.917  1.00 20.00     0.011 C 
ENDBRANCH   8   9
ENDBRANCH   6   8
TORSDOF 2
ENDMDL
MODEL 3
REMARK VINA RESULT:      -3.8      0.653      1.228
REMARK  2 active torsions:
REMARK  status: ('A' for Active; 'I' for Inactive)
REMARK    1  A    between atoms: C8_8  and  C9_9 
REMARK    2  A    between atoms: C8_8  and  N10_10 
ROOT
HETATM    1  C1  UNL     1     -36.676  14.036  -4.511  1.00 20.00     0.032 C 
HETATM    2  C2  UNL     1     -35.859  14.069  -5.799  1.00 20.00     0.024 C 
HETATM    3  C3  UNL     1     -36.981  15.451  -4.011  1.00 20.00     0.272 C 
HETATM    4  C4  UNL     1     -35.000  16.338  -5.098  1.00 20.00     0.292 C 
HETATM    5  C5  UNL     1     -34.623  14.948  -5.624  1.00 20.00     0.110 C 
HETATM    6  N10 UNL     1     -35.797  16.307  -3.862  1.00 20.00     0.090 N 
HETATM    7 CL11 UNL     1     -33.764  15.101  -7.184  1.00 20.00    -0.123 Cl
ENDROOT
BRANCH   6   8
HETATM    8  C8  UNL     1     -34.996  15.945  -2.695  1.00 20.00     0.276 C 
BRANCH   8   9
HETATM    9  C9  UNL     1     -34.690  17.162  -1.815  1.00 20.00     0.006 C 
HETATM   10  C6  UNL     1     -35.262  17.018  -0.405  1.00 20.00     0.011 C 
HETATM   11  C7  UNL     1     -33.192  17.469  -1.759  1.00 20.00     0.011 C 
ENDBRANCH   8   9
ENDBRANCH   6   8
TORSDOF 2
ENDMDL
MODEL 4
REMARK VINA RESULT:      -3.7      1.921      2.441
REMARK  2 active torsions:
REMARK  status: ('A' for Active; 'I' for Inactive)
REMARK    1  A    between atoms: C8_8  and  C9_9 
REMARK    2  A    between atoms: C8_8  and  N10_10 
ROOT
HETATM    1  C1  UNL     1     -34.214  15.053  -6.068  1.00 20.00     0.032 C 
HETATM    2  C2  UNL     1     -35.656  14.578  -5.909  1.00 20.00     0.024 C 
HETATM    3  C3  UNL     1     -33.385  14.735  -4.820  1.00 20.00     0.272 C 
HETATM    4  C4  UNL     1     -35.360  14.786  -3.410  1.00 20.00     0.292 C 
HETATM    5  C5  UNL     1     -36.254  15.116  -4.611  1.00 20.00     0.110 C 
HETATM    6  N10 UNL     1     -33.968  15.232  -3.567  1.00 20.00     0.090 N 
HETATM    7 CL11 UNL     1     -37.884  14.426  -4.365  1.00 20.00    -0.123 Cl
ENDROOT
BRANCH   6   8
HETATM    8  C8  UNL     1     -33.831  16.680  -3.428  1.00 20.00     0.276 C 
BRANCH   8   9
HETATM    9  C9  UNL     1     -33.387  17.078  -2.016  1.00 20.00     0.006 C 
HETATM   10  C6  UNL     1     -32.374  18.224  -2.027  1.00 20.00     0.011 C 
HETATM   11  C7  UNL     1     -34.574  17.417  -1.114  1.00 20.00     0.011 C 
ENDBRANCH   8   9
ENDBRANCH   6   8
TORSDOF 2
ENDMDL
MODEL 5
REMARK VINA RESULT:      -3.7      3.123      5.195
REMARK  2 active torsions:
REMARK  status: ('A' for Active; 'I' for Inactive)
REMARK    1  A    between atoms: C8_8  and  C9_9 
REMARK    2  A    between atoms: C8_8  and  N10_10 
ROOT
HETATM    1  C1  UNL     1     -32.946  17.783  -1.521  1.00 20.00     0.032 C 
HETATM    2  C2  UNL     1     -33.740  18.215  -0.292  1.00 20.00     0.024 C 
HETATM    3  C3  UNL     1     -33.831  17.753  -2.771  1.00 20.00     0.272 C 
HETATM    4  C4  UNL     1     -35.820  17.356  -1.438  1.00 20.00     0.292 C 
HETATM    5  C5  UNL     1     -34.998  17.362  -0.144  1.00 20.00     0.110 C 
HETATM    6  N10 UNL     1     -35.052  16.952  -2.625  1.00 20.00     0.090 N 
HETATM    7 CL11 UNL     1     -35.993  17.981   1.206  1.00 20.00    -0.123 Cl
ENDROOT
BRANCH   6   8
HETATM    8  C8  UNL     1     -34.779  15.517  -2.646  1.00 20.00     0.276 C 
BRANCH   8   9
HETATM    9  C9  UNL     1     -34.682  14.976  -4.077  1.00 20.00     0.006 C 
HETATM   10  C6  UNL     1     -33.274  14.488  -4.419  1.00 20.00     0.011 C 
HETATM   11  C7  UNL     1     -35.712  13.878  -4.347  1.00 20.00     0.011 C 
ENDBRANCH   8   9
ENDBRANCH   6   8
TORSDOF 2
ENDMDL
MODEL 6
REMARK VINA RESULT:      -3.7      2.492      4.442
REMARK  2 active torsions:
REMARK  status: ('A' for Active; 'I' for Inactive)
REMARK    1  A    between atoms: C8_8  and  C9_9 
REMARK    2  A    between atoms: C8_8  and  N10_10 
ROOT
HETATM    1  C1  UNL     1     -35.526  16.514  -1.951  1.00 20.00     0.032 C 
HETATM    2  C2  UNL     1     -34.339  17.114  -1.203  1.00 20.00     0.024 C 
HETATM    3  C3  UNL     1     -35.067  15.470  -2.974  1.00 20.00     0.272 C 
HETATM    4  C4  UNL     1     -32.901  16.541  -3.198  1.00 20.00     0.292 C 
HETATM    5  C5  UNL     1     -33.293  17.627  -2.190  1.00 20.00     0.110 C 
HETATM    6  N10 UNL     1     -34.045  15.954  -3.910  1.00 20.00     0.090 N 
HETATM    7 CL11 UNL     1     -31.845  18.183  -1.300  1.00 20.00    -0.123 Cl
ENDROOT
BRANCH   6   8
HETATM    8  C8  UNL     1     -34.598  16.861  -4.914  1.00 20.00     0.276 C 
BRANCH   8   9
HETATM    9  C9  UNL     1     -34.849  16.149  -6.248  1.00 20.00     0.006 C 
HETATM   10  C6  UNL     1     -33.908  14.962  -6.460  1.00 20.00     0.011 C 
HETATM   11  C7  UNL     1     -36.307  15.715  -6.402  1.00 20.00     0.011 C 
ENDBRANCH   8   9
ENDBRANCH   6   8
TORSDOF 2
ENDMDL
MODEL 7
REMARK VINA RESULT:      -3.6      3.004      5.113
REMARK  2 active torsions:
REMARK  status: ('A' for Active; 'I' for Inactive)
REMARK    1  A    between atoms: C8_8  and  C9_9 
REMARK    2  A    between atoms: C8_8  and  N10_10 
ROOT
HETATM    1  C1  UNL     1     -32.656  18.926  -3.741  1.00 20.00     0.032 C 
HETATM    2  C2  UNL     1     -32.400  19.263  -2.274  1.00 20.00     0.024 C 
HETATM    3  C3  UNL     1     -33.947  18.120  -3.908  1.00 20.00     0.272 C 
HETATM    4  C4  UNL     1     -33.767  17.231  -1.657  1.00 20.00     0.292 C 
HETATM    5  C5  UNL     1     -32.462  17.999  -1.419  1.00 20.00     0.110 C 
HETATM    6  N10 UNL     1     -34.019  16.916  -3.070  1.00 20.00     0.090 N 
HETATM    7 CL11 UNL     1     -32.317  18.432   0.309  1.00 20.00    -0.123 Cl
ENDROOT
BRANCH   6   8
HETATM    8  C8  UNL     1     -33.154  15.846  -3.563  1.00 20.00     0.276 C 
BRANCH   8   9
HETATM    9  C9  UNL     1     -33.955  14.740  -4.259  1.00 20.00     0.006 C 
HETATM   10  C6  UNL     1     -35.377  14.620  -3.710  1.00 20.00     0.011 C 
HETATM   11  C7  UNL     1     -33.977  14.915  -5.778  1.00 20.00     0.011 C 
ENDBRANCH   8   9
ENDBRANCH   6   8
TORSDOF 2
ENDMDL
MODEL 8
REMARK VINA RESULT:      -3.6      3.382      5.631
REMARK  2 active torsions:
REMARK  status: ('A' for Active; 'I' for Inactive)
REMARK    1  A    between atoms: C8_8  and  C9_9 
REMARK    2  A    between atoms: C8_8  and  N10_10 
ROOT
HETATM    1  C1  UNL     1     -31.821  18.208  -1.122  1.00 20.00     0.032 C 
HETATM    2  C2  UNL     1     -32.584  18.803   0.058  1.00 20.00     0.024 C 
HETATM    3  C3  UNL     1     -32.640  18.297  -2.413  1.00 20.00     0.272 C 
HETATM    4  C4  UNL     1     -34.727  18.285  -1.174  1.00 20.00     0.292 C 
HETATM    5  C5  UNL     1     -33.976  18.184   0.159  1.00 20.00     0.110 C 
HETATM    6  N10 UNL     1     -33.988  17.723  -2.313  1.00 20.00     0.090 N 
HETATM    7 CL11 UNL     1     -34.909  19.002   1.446  1.00 20.00    -0.123 Cl
ENDROOT
BRANCH   6   8
HETATM    8  C8  UNL     1     -33.967  16.262  -2.293  1.00 20.00     0.276 C 
BRANCH   8   9
HETATM    9  C9  UNL     1     -34.283  15.668  -3.671  1.00 20.00     0.006 C 
HETATM   10  C6  UNL     1     -33.132  14.825  -4.218  1.00 20.00     0.011 C 
HETATM   11  C7  UNL     1     -35.584  14.864  -3.665  1.00 20.00     0.011 C 
ENDBRANCH   8   9
ENDBRANCH   6   8
TORSDOF 2
ENDMDL
MODEL 9
REMARK VINA RESULT:      -3.6      2.708      4.954
REMARK  2 active torsions:
REMARK  status: ('A' for Active; 'I' for Inactive)
REMARK    1  A    between atoms: C8_8  and  C9_9 
REMARK    2  A    between atoms: C8_8  and  N10_10 
ROOT
HETATM    1  C1  UNL     1     -32.846  17.491  -1.890  1.00 20.00     0.032 C 
HETATM    2  C2  UNL     1     -33.890  17.917  -0.862  1.00 20.00     0.024 C 
HETATM    3  C3  UNL     1     -33.453  17.409  -3.294  1.00 20.00     0.272 C 
HETATM    4  C4  UNL     1     -35.662  16.969  -2.391  1.00 20.00     0.292 C 
HETATM    5  C5  UNL     1     -35.126  17.025  -0.956  1.00 20.00     0.110 C 
HETATM    6  N10 UNL     1     -34.654  16.569  -3.384  1.00 20.00     0.090 N 
HETATM    7 CL11 UNL     1     -36.397  17.635   0.144  1.00 20.00    -0.123 Cl
ENDROOT
BRANCH   6   8
HETATM    8  C8  UNL     1     -34.340  15.144  -3.312  1.00 20.00     0.276 C 
BRANCH   8   9
HETATM    9  C9  UNL     1     -34.787  14.398  -4.575  1.00 20.00     0.006 C 
HETATM   10  C6  UNL     1     -36.194  13.816  -4.439  1.00 20.00     0.011 C 
HETATM   11  C7  UNL     1     -34.685  15.273  -5.825  1.00 20.00     0.011 C 
ENDBRANCH   8   9
ENDBRANCH   6   8
TORSDOF 2
ENDMDL
