MODEL 1
REMARK VINA RESULT:      -4.3      0.000      0.000
REMARK  4 active torsions:
REMARK  status: ('A' for Active; 'I' for Inactive)
REMARK    1  A    between atoms: C4_4  and  C8_8 
REMARK    2  A    between atoms: C8_8  and  C11_11 
REMARK    3  A    between atoms: C9_9  and  C10_10 
REMARK    4  A    between atoms: C10_10  and  C11_11 
ROOT
HETATM    1  C1  UNL     1     -36.389  14.083  -4.304  1.00 20.00     0.002 C 
HETATM    2  C2  UNL     1     -35.237  14.535  -3.402  1.00 20.00     0.006 C 
HETATM    3  C3  UNL     1     -35.878  14.190  -5.741  1.00 20.00     0.020 C 
HETATM    4  C4  UNL     1     -34.029  14.702  -4.329  1.00 20.00     0.004 C 
HETATM    5  C5  UNL     1     -34.681  15.125  -5.645  1.00 20.00     0.086 C 
HETATM    6 CL12 UNL     1     -33.599  14.960  -7.038  1.00 20.00    -0.125 Cl
ENDROOT
BRANCH   4   7
HETATM    7  C8  UNL     1     -33.010  15.696  -3.792  1.00 20.00     0.010 C 
BRANCH   7   8
HETATM    8  C11 UNL     1     -33.641  16.957  -3.175  1.00 20.00    -0.018 C 
HETATM    9  C7  UNL     1     -33.640  18.092  -4.205  1.00 20.00     0.010 C 
BRANCH   8  10
HETATM   10  C10 UNL     1     -33.004  17.408  -1.844  1.00 20.00     0.004 C 
BRANCH  10  11
HETATM   11  C9  UNL     1     -33.995  17.837  -0.758  1.00 20.00    -0.004 C 
HETATM   12  C6  UNL     1     -35.257  16.987  -0.798  1.00 20.00     0.005 C 
ENDBRANCH  10  11
ENDBRANCH   8  10
ENDBRANCH   7   8
ENDBRANCH   4   7
TORSDOF 4
ENDMDL
MODEL 2
REMARK VINA RESULT:      -4.3      3.433      6.289
REMARK  4 active torsions:
REMARK  status: ('A' for Active; 'I' for Inactive)
REMARK    1  A    between atoms: C4_4  and  C8_8 
REMARK    2  A    between atoms: C8_8  and  C11_11 
REMARK    3  A    between atoms: C9_9  and  C10_10 
REMARK    4  A    between atoms: C10_10  and  C11_11 
ROOT
HETATM    1  C1  UNL     1     -30.592  18.501   1.006  1.00 20.00     0.002 C 
HETATM    2  C2  UNL     1     -31.244  18.444  -0.377  1.00 20.00     0.006 C 
HETATM    3  C3  UNL     1     -31.729  18.408   2.023  1.00 20.00     0.020 C 
HETATM    4  C4  UNL     1     -32.720  18.121  -0.124  1.00 20.00     0.004 C 
HETATM    5  C5  UNL     1     -32.974  18.783   1.230  1.00 20.00     0.086 C 
HETATM    6 CL12 UNL     1     -34.456  18.211   2.014  1.00 20.00    -0.125 Cl
ENDROOT
BRANCH   4   7
HETATM    7  C8  UNL     1     -33.629  18.617  -1.239  1.00 20.00     0.010 C 
BRANCH   7   8
HETATM    8  C11 UNL     1     -34.317  17.487  -2.026  1.00 20.00    -0.018 C 
HETATM    9  C7  UNL     1     -35.277  16.726  -1.106  1.00 20.00     0.010 C 
BRANCH   8  10
HETATM   10  C10 UNL     1     -33.347  16.525  -2.745  1.00 20.00     0.004 C 
BRANCH  10  11
HETATM   11  C9  UNL     1     -33.999  15.287  -3.367  1.00 20.00    -0.004 C 
HETATM   12  C6  UNL     1     -33.073  14.626  -4.379  1.00 20.00     0.005 C 
ENDBRANCH  10  11
ENDBRANCH   8  10
ENDBRANCH   7   8
ENDBRANCH   4   7
TORSDOF 4
ENDMDL
MODEL 3
REMARK VINA RESULT:      -4.3      3.335      6.014
REMARK  4 active torsions:
REMARK  status: ('A' for Active; 'I' for Inactive)
REMARK    1  A    between atoms: C4_4  and  C8_8 
REMARK    2  A    between atoms: C8_8  and  C11_11 
REMARK    3  A    between atoms: C9_9  and  C10_10 
REMARK    4  A    between atoms: C10_10  and  C11_11 
ROOT
HETATM    1  C1  UNL     1     -30.872  18.389   0.204  1.00 20.00     0.002 C 
HETATM    2  C2  UNL     1     -31.793  18.451  -1.017  1.00 20.00     0.006 C 
HETATM    3  C3  UNL     1     -31.783  18.247   1.423  1.00 20.00     0.020 C 
HETATM    4  C4  UNL     1     -33.199  18.145  -0.491  1.00 20.00     0.004 C 
HETATM    5  C5  UNL     1     -33.147  18.709   0.929  1.00 20.00     0.086 C 
HETATM    6 CL12 UNL     1     -34.461  18.115   1.958  1.00 20.00    -0.125 Cl
ENDROOT
BRANCH   4   7
HETATM    7  C8  UNL     1     -34.294  18.745  -1.359  1.00 20.00     0.010 C 
BRANCH   7   8
HETATM    8  C11 UNL     1     -35.382  17.735  -1.768  1.00 20.00    -0.018 C 
HETATM    9  C7  UNL     1     -36.675  18.027  -0.998  1.00 20.00     0.010 C 
BRANCH   8  10
HETATM   10  C10 UNL     1     -34.968  16.255  -1.628  1.00 20.00     0.004 C 
BRANCH  10  11
HETATM   11  C9  UNL     1     -34.674  15.533  -2.946  1.00 20.00    -0.004 C 
HETATM   12  C6  UNL     1     -33.253  15.807  -3.420  1.00 20.00     0.005 C 
ENDBRANCH  10  11
ENDBRANCH   8  10
ENDBRANCH   7   8
ENDBRANCH   4   7
TORSDOF 4
ENDMDL
MODEL 4
REMARK VINA RESULT:      -4.3      2.822      5.540
REMARK  4 active torsions:
REMARK  status: ('A' for Active; 'I' for Inactive)
REMARK    1  A    between atoms: C4_4  and  C8_8 
REMARK    2  A    between atoms: C8_8  and  C11_11 
REMARK    3  A    between atoms: C9_9  and  C10_10 
REMARK    4  A    between atoms: C10_10  and  C11_11 
ROOT
HETATM    1  C1  UNL     1     -31.229  18.433   1.177  1.00 20.00     0.002 C 
HETATM    2  C2  UNL     1     -30.996  18.432  -0.336  1.00 20.00     0.006 C 
HETATM    3  C3  UNL     1     -32.740  18.321   1.380  1.00 20.00     0.020 C 
HETATM    4  C4  UNL     1     -32.358  18.121  -0.963  1.00 20.00     0.004 C 
HETATM    5  C5  UNL     1     -33.330  18.740   0.040  1.00 20.00     0.086 C 
HETATM    6 CL12 UNL     1     -34.993  18.162  -0.160  1.00 20.00    -0.125 Cl
ENDROOT
BRANCH   4   7
HETATM    7  C8  UNL     1     -32.492  18.667  -2.377  1.00 20.00     0.010 C 
BRANCH   7   8
HETATM    8  C11 UNL     1     -33.150  17.683  -3.361  1.00 20.00    -0.018 C 
HETATM    9  C7  UNL     1     -34.528  18.211  -3.776  1.00 20.00     0.010 C 
BRANCH   8  10
HETATM   10  C10 UNL     1     -33.236  16.229  -2.853  1.00 20.00     0.004 C 
BRANCH  10  11
HETATM   11  C9  UNL     1     -34.648  15.640  -2.796  1.00 20.00    -0.004 C 
HETATM   12  C6  UNL     1     -34.784  14.442  -3.726  1.00 20.00     0.005 C 
ENDBRANCH  10  11
ENDBRANCH   8  10
ENDBRANCH   7   8
ENDBRANCH   4   7
TORSDOF 4
ENDMDL
MODEL 5
REMARK VINA RESULT:      -4.1      2.605      4.083
REMARK  4 active torsions:
REMARK  status: ('A' for Active; 'I' for Inactive)
REMARK    1  A    between atoms: C4_4  and  C8_8 
REMARK    2  A    between atoms: C8_8  and  C11_11 
REMARK    3  A    between atoms: C9_9  and  C10_10 
REMARK    4  A    between atoms: C10_10  and  C11_11 
ROOT
HETATM    1  C1  UNL     1     -34.227  15.083  -3.715  1.00 20.00     0.002 C 
HETATM    2  C2  UNL     1     -35.262  15.483  -2.661  1.00 20.00     0.006 C 
HETATM    3  C3  UNL     1     -33.018  15.992  -3.500  1.00 20.00     0.020 C 
HETATM    4  C4  UNL     1     -34.547  16.476  -1.738  1.00 20.00     0.004 C 
HETATM    5  C5  UNL     1     -33.565  17.159  -2.690  1.00 20.00     0.086 C 
HETATM    6 CL12 UNL     1     -32.280  18.039  -1.844  1.00 20.00    -0.125 Cl
ENDROOT
BRANCH   4   7
HETATM    7  C8  UNL     1     -35.508  17.431  -1.046  1.00 20.00     0.010 C 
BRANCH   7   8
HETATM    8  C11 UNL     1     -35.380  17.435   0.488  1.00 20.00    -0.018 C 
HETATM    9  C7  UNL     1     -36.659  18.003   1.113  1.00 20.00     0.010 C 
BRANCH   8  10
HETATM   10  C10 UNL     1     -34.125  18.156   1.024  1.00 20.00     0.004 C 
BRANCH  10  11
HETATM   11  C9  UNL     1     -33.984  18.173   2.549  1.00 20.00    -0.004 C 
HETATM   12  C6  UNL     1     -32.606  17.691   2.980  1.00 20.00     0.005 C 
ENDBRANCH  10  11
ENDBRANCH   8  10
ENDBRANCH   7   8
ENDBRANCH   4   7
TORSDOF 4
ENDMDL
MODEL 6
REMARK VINA RESULT:      -4.1      2.042      4.443
REMARK  4 active torsions:
REMARK  status: ('A' for Active; 'I' for Inactive)
REMARK    1  A    between atoms: C4_4  and  C8_8 
REMARK    2  A    between atoms: C8_8  and  C11_11 
REMARK    3  A    between atoms: C9_9  and  C10_10 
REMARK    4  A    between atoms: C10_10  and  C11_11 
ROOT
HETATM    1  C1  UNL     1     -35.274  17.388  -0.240  1.00 20.00     0.002 C 
HETATM    2  C2  UNL     1     -35.168  16.381  -1.387  1.00 20.00     0.006 C 
HETATM    3  C3  UNL     1     -34.172  18.422  -0.470  1.00 20.00     0.020 C 
HETATM    4  C4  UNL     1     -34.137  16.968  -2.357  1.00 20.00     0.004 C 
HETATM    5  C5  UNL     1     -33.202  17.732  -1.420  1.00 20.00     0.086 C 
HETATM    6 CL12 UNL     1     -32.167  18.893  -2.268  1.00 20.00    -0.125 Cl
ENDROOT
BRANCH   4   7
HETATM    7  C8  UNL     1     -33.444  15.903  -3.194  1.00 20.00     0.010 C 
BRANCH   7   8
HETATM    8  C11 UNL     1     -33.793  15.969  -4.692  1.00 20.00    -0.018 C 
HETATM    9  C7  UNL     1     -34.533  17.276  -4.994  1.00 20.00     0.010 C 
BRANCH   8  10
HETATM   10  C10 UNL     1     -34.572  14.748  -5.223  1.00 20.00     0.004 C 
BRANCH  10  11
HETATM   11  C9  UNL     1     -35.368  13.973  -4.170  1.00 20.00    -0.004 C 
HETATM   12  C6  UNL     1     -36.832  14.390  -4.168  1.00 20.00     0.005 C 
ENDBRANCH  10  11
ENDBRANCH   8  10
ENDBRANCH   7   8
ENDBRANCH   4   7
TORSDOF 4
ENDMDL
MODEL 7
REMARK VINA RESULT:      -4.1      2.802      5.680
REMARK  4 active torsions:
REMARK  status: ('A' for Active; 'I' for Inactive)
REMARK    1  A    between atoms: C4_4  and  C8_8 
REMARK    2  A    between atoms: C8_8  and  C11_11 
REMARK    3  A    between atoms: C9_9  and  C10_10 
REMARK    4  A    between atoms: C10_10  and  C11_11 
ROOT
HETATM    1  C1  UNL     1     -31.543  19.022   0.214  1.00 20.00     0.002 C 
HETATM    2  C2  UNL     1     -31.816  18.392  -1.154  1.00 20.00     0.006 C 
HETATM    3  C3  UNL     1     -32.759  18.705   1.085  1.00 20.00     0.020 C 
HETATM    4  C4  UNL     1     -33.090  17.559  -0.977  1.00 20.00     0.004 C 
HETATM    5  C5  UNL     1     -33.852  18.347   0.088  1.00 20.00     0.086 C 
HETATM    6 CL12 UNL     1     -35.155  17.412   0.842  1.00 20.00    -0.125 Cl
ENDROOT
BRANCH   4   7
HETATM    7  C8  UNL     1     -33.855  17.373  -2.279  1.00 20.00     0.010 C 
BRANCH   7   8
HETATM    8  C11 UNL     1     -34.074  15.898  -2.663  1.00 20.00    -0.018 C 
HETATM    9  C7  UNL     1     -33.107  15.508  -3.787  1.00 20.00     0.010 C 
BRANCH   8  10
HETATM   10  C10 UNL     1     -35.530  15.539  -3.025  1.00 20.00     0.004 C 
BRANCH  10  11
HETATM   11  C9  UNL     1     -35.688  14.402  -4.039  1.00 20.00    -0.004 C 
HETATM   12  C6  UNL     1     -37.138  14.253  -4.478  1.00 20.00     0.005 C 
ENDBRANCH  10  11
ENDBRANCH   8  10
ENDBRANCH   7   8
ENDBRANCH   4   7
TORSDOF 4
ENDMDL
MODEL 8
REMARK VINA RESULT:      -4.1      2.588      5.412
REMARK  4 active torsions:
REMARK  status: ('A' for Active; 'I' for Inactive)
REMARK    1  A    between atoms: C4_4  and  C8_8 
REMARK    2  A    between atoms: C8_8  and  C11_11 
REMARK    3  A    between atoms: C9_9  and  C10_10 
REMARK    4  A    between atoms: C10_10  and  C11_11 
ROOT
HETATM    1  C1  UNL     1     -34.548  17.949   1.605  1.00 20.00     0.002 C 
HETATM    2  C2  UNL     1     -35.266  17.775   0.264  1.00 20.00     0.006 C 
HETATM    3  C3  UNL     1     -33.171  18.530   1.283  1.00 20.00     0.020 C 
HETATM    4  C4  UNL     1     -34.362  18.442  -0.778  1.00 20.00     0.004 C 
HETATM    5  C5  UNL     1     -32.968  18.220  -0.193  1.00 20.00     0.086 C 
HETATM    6 CL12 UNL     1     -31.736  19.262  -0.925  1.00 20.00    -0.125 Cl
ENDROOT
BRANCH   4   7
HETATM    7  C8  UNL     1     -34.551  17.867  -2.173  1.00 20.00     0.010 C 
BRANCH   7   8
HETATM    8  C11 UNL     1     -34.079  16.408  -2.311  1.00 20.00    -0.018 C 
HETATM    9  C7  UNL     1     -32.904  16.335  -3.292  1.00 20.00     0.010 C 
BRANCH   8  10
HETATM   10  C10 UNL     1     -35.191  15.408  -2.690  1.00 20.00     0.004 C 
BRANCH  10  11
HETATM   11  C9  UNL     1     -34.821  14.407  -3.788  1.00 20.00    -0.004 C 
HETATM   12  C6  UNL     1     -36.064  13.807  -4.430  1.00 20.00     0.005 C 
ENDBRANCH  10  11
ENDBRANCH   8  10
ENDBRANCH   7   8
ENDBRANCH   4   7
TORSDOF 4
ENDMDL
MODEL 9
REMARK VINA RESULT:      -4.0      1.943      3.076
REMARK  4 active torsions:
REMARK  status: ('A' for Active; 'I' for Inactive)
REMARK    1  A    between atoms: C4_4  and  C8_8 
REMARK    2  A    between atoms: C8_8  and  C11_11 
REMARK    3  A    between atoms: C9_9  and  C10_10 
REMARK    4  A    between atoms: C10_10  and  C11_11 
ROOT
HETATM    1  C1  UNL     1     -33.570  14.480  -4.052  1.00 20.00     0.002 C 
HETATM    2  C2  UNL     1     -33.403  15.897  -3.497  1.00 20.00     0.006 C 
HETATM    3  C3  UNL     1     -35.069  14.277  -4.269  1.00 20.00     0.020 C 
HETATM    4  C4  UNL     1     -34.788  16.544  -3.595  1.00 20.00     0.004 C 
HETATM    5  C5  UNL     1     -35.722  15.349  -3.408  1.00 20.00     0.086 C 
HETATM    6 CL12 UNL     1     -37.386  15.684  -3.918  1.00 20.00    -0.125 Cl
ENDROOT
BRANCH   4   7
HETATM    7  C8  UNL     1     -34.991  17.656  -2.577  1.00 20.00     0.010 C 
BRANCH   7   8
HETATM    8  C11 UNL     1     -34.257  17.417  -1.244  1.00 20.00    -0.018 C 
HETATM    9  C7  UNL     1     -35.278  17.132  -0.137  1.00 20.00     0.010 C 
BRANCH   8  10
HETATM   10  C10 UNL     1     -33.286  18.544  -0.836  1.00 20.00     0.004 C 
BRANCH  10  11
HETATM   11  C9  UNL     1     -31.800  18.227  -1.032  1.00 20.00    -0.004 C 
HETATM   12  C6  UNL     1     -31.031  18.361   0.275  1.00 20.00     0.005 C 
ENDBRANCH  10  11
ENDBRANCH   8  10
ENDBRANCH   7   8
ENDBRANCH   4   7
TORSDOF 4
ENDMDL
