MODEL 1
REMARK VINA RESULT:      -4.1      0.000      0.000
REMARK  2 active torsions:
REMARK  status: ('A' for Active; 'I' for Inactive)
REMARK    1  A    between atoms: C5_5  and  N8_8 
REMARK    2  A    between atoms: C6_6  and  N8_8 
ROOT
HETATM    1  N8  UNL     1     -24.747  17.774   9.804  1.00 20.00     0.097 N 
HETATM    2  H22 UNL     1     -24.819  17.007   9.140  1.00 20.00     0.317 HD
ENDROOT
BRANCH   1   3
HETATM    3  C5  UNL     1     -24.209  17.256  11.065  1.00 20.00     0.225 A 
HETATM    4  C1  UNL     1     -24.663  15.915  11.582  1.00 20.00     0.042 A 
HETATM    5  C4  UNL     1     -25.056  17.171  12.311  1.00 20.00     0.016 A 
HETATM    6  C7  UNL     1     -26.482  17.607  12.332  1.00 20.00     0.012 C 
ENDBRANCH   1   3
BRANCH   1   7
HETATM    7  C6  UNL     1     -23.882  18.810   9.264  1.00 20.00     0.268 C 
HETATM    8  C2  UNL     1     -24.168  18.957   7.771  1.00 20.00     0.205 C 
HETATM    9  O9  UNL     1     -23.021  18.138   7.431  1.00 20.00    -0.387 OA
HETATM   10  C3  UNL     1     -22.573  18.166   8.810  1.00 20.00     0.205 C 
ENDBRANCH   1   7
TORSDOF 2
ENDMDL
MODEL 2
REMARK VINA RESULT:      -3.9     16.916     18.152
REMARK  2 active torsions:
REMARK  status: ('A' for Active; 'I' for Inactive)
REMARK    1  A    between atoms: C5_5  and  N8_8 
REMARK    2  A    between atoms: C6_6  and  N8_8 
ROOT
HETATM    1  N8  UNL     1     -36.649  15.983  -2.999  1.00 20.00     0.097 N 
HETATM    2  H22 UNL     1     -36.555  15.130  -2.454  1.00 20.00     0.317 HD
ENDROOT
BRANCH   1   3
HETATM    3  C5  UNL     1     -35.352  16.665  -3.033  1.00 20.00     0.225 A 
HETATM    4  C1  UNL     1     -34.124  15.974  -2.496  1.00 20.00     0.042 A 
HETATM    5  C4  UNL     1     -34.689  17.166  -1.773  1.00 20.00     0.016 A 
HETATM    6  C7  UNL     1     -35.312  16.998  -0.429  1.00 20.00     0.012 C 
ENDBRANCH   1   3
BRANCH   1   7
HETATM    7  C6  UNL     1     -37.091  15.657  -4.345  1.00 20.00     0.268 C 
HETATM    8  C2  UNL     1     -38.501  15.074  -4.269  1.00 20.00     0.205 C 
HETATM    9  O9  UNL     1     -37.988  13.721  -4.353  1.00 20.00    -0.387 OA
HETATM   10  C3  UNL     1     -36.666  14.226  -4.667  1.00 20.00     0.205 C 
ENDBRANCH   1   7
TORSDOF 2
ENDMDL
MODEL 3
REMARK VINA RESULT:      -3.7     17.106     18.437
REMARK  2 active torsions:
REMARK  status: ('A' for Active; 'I' for Inactive)
REMARK    1  A    between atoms: C5_5  and  N8_8 
REMARK    2  A    between atoms: C6_6  and  N8_8 
ROOT
HETATM    1  N8  UNL     1     -36.093  16.267  -4.101  1.00 20.00     0.097 N 
HETATM    2  H22 UNL     1     -36.866  16.720  -3.620  1.00 20.00     0.317 HD
ENDROOT
BRANCH   1   3
HETATM    3  C5  UNL     1     -35.298  15.525  -3.118  1.00 20.00     0.225 A 
HETATM    4  C1  UNL     1     -34.992  16.143  -1.778  1.00 20.00     0.042 A 
HETATM    5  C4  UNL     1     -33.886  15.932  -2.776  1.00 20.00     0.016 A 
HETATM    6  C7  UNL     1     -33.221  17.105  -3.413  1.00 20.00     0.012 C 
ENDBRANCH   1   3
BRANCH   1   7
HETATM    7  C6  UNL     1     -36.611  15.371  -5.122  1.00 20.00     0.268 C 
HETATM    8  C2  UNL     1     -38.124  15.256  -4.951  1.00 20.00     0.205 C 
HETATM    9  O9  UNL     1     -37.988  14.001  -4.239  1.00 20.00    -0.387 OA
HETATM   10  C3  UNL     1     -36.580  13.943  -4.581  1.00 20.00     0.205 C 
ENDBRANCH   1   7
TORSDOF 2
ENDMDL
MODEL 4
REMARK VINA RESULT:      -3.6     16.638     18.019
REMARK  2 active torsions:
REMARK  status: ('A' for Active; 'I' for Inactive)
REMARK    1  A    between atoms: C5_5  and  N8_8 
REMARK    2  A    between atoms: C6_6  and  N8_8 
ROOT
HETATM    1  N8  UNL     1     -34.408  15.628  -4.535  1.00 20.00     0.097 N 
HETATM    2  H22 UNL     1     -34.169  16.566  -4.848  1.00 20.00     0.317 HD
ENDROOT
BRANCH   1   3
HETATM    3  C5  UNL     1     -34.093  15.514  -3.109  1.00 20.00     0.225 A 
HETATM    4  C1  UNL     1     -34.855  16.338  -2.102  1.00 20.00     0.042 A 
HETATM    5  C4  UNL     1     -33.401  16.628  -2.361  1.00 20.00     0.016 A 
HETATM    6  C7  UNL     1     -33.000  17.900  -3.026  1.00 20.00     0.012 C 
ENDBRANCH   1   3
BRANCH   1   7
HETATM    7  C6  UNL     1     -35.821  15.379  -4.770  1.00 20.00     0.268 C 
HETATM    8  C2  UNL     1     -36.082  13.880  -4.636  1.00 20.00     0.205 C 
HETATM    9  O9  UNL     1     -36.044  13.706  -6.075  1.00 20.00    -0.387 OA
HETATM   10  C3  UNL     1     -36.035  15.143  -6.263  1.00 20.00     0.205 C 
ENDBRANCH   1   7
TORSDOF 2
ENDMDL
MODEL 5
REMARK VINA RESULT:      -3.6      1.673      2.440
REMARK  2 active torsions:
REMARK  status: ('A' for Active; 'I' for Inactive)
REMARK    1  A    between atoms: C5_5  and  N8_8 
REMARK    2  A    between atoms: C6_6  and  N8_8 
ROOT
HETATM    1  N8  UNL     1     -24.958  18.065   8.870  1.00 20.00     0.097 N 
HETATM    2  H22 UNL     1     -24.695  17.308   8.243  1.00 20.00     0.317 HD
ENDROOT
BRANCH   1   3
HETATM    3  C5  UNL     1     -23.857  18.304   9.807  1.00 20.00     0.225 A 
HETATM    4  C1  UNL     1     -22.656  17.392   9.805  1.00 20.00     0.042 A 
HETATM    5  C4  UNL     1     -23.601  17.385  10.977  1.00 20.00     0.016 A 
HETATM    6  C7  UNL     1     -24.449  16.189  11.246  1.00 20.00     0.012 C 
ENDBRANCH   1   3
BRANCH   1   7
HETATM    7  C6  UNL     1     -25.243  19.263   8.097  1.00 20.00     0.268 C 
HETATM    8  C2  UNL     1     -26.574  19.073   7.372  1.00 20.00     0.205 C 
HETATM    9  O9  UNL     1     -25.896  18.713   6.142  1.00 20.00    -0.387 OA
HETATM   10  C3  UNL     1     -24.623  19.109   6.710  1.00 20.00     0.205 C 
ENDBRANCH   1   7
TORSDOF 2
ENDMDL
MODEL 6
REMARK VINA RESULT:      -3.6     16.766     18.165
REMARK  2 active torsions:
REMARK  status: ('A' for Active; 'I' for Inactive)
REMARK    1  A    between atoms: C5_5  and  N8_8 
REMARK    2  A    between atoms: C6_6  and  N8_8 
ROOT
HETATM    1  N8  UNL     1     -33.798  16.021  -5.149  1.00 20.00     0.097 N 
HETATM    2  H22 UNL     1     -34.640  16.590  -5.112  1.00 20.00     0.317 HD
ENDROOT
BRANCH   1   3
HETATM    3  C5  UNL     1     -33.467  15.581  -3.791  1.00 20.00     0.225 A 
HETATM    4  C1  UNL     1     -34.435  15.831  -2.663  1.00 20.00     0.042 A 
HETATM    5  C4  UNL     1     -33.124  16.569  -2.702  1.00 20.00     0.016 A 
HETATM    6  C7  UNL     1     -33.102  18.040  -2.944  1.00 20.00     0.012 C 
ENDBRANCH   1   3
BRANCH   1   7
HETATM    7  C6  UNL     1     -34.020  14.876  -6.018  1.00 20.00     0.268 C 
HETATM    8  C2  UNL     1     -34.065  15.362  -7.466  1.00 20.00     0.205 C 
HETATM    9  O9  UNL     1     -35.515  15.356  -7.463  1.00 20.00    -0.387 OA
HETATM   10  C3  UNL     1     -35.525  14.673  -6.185  1.00 20.00     0.205 C 
ENDBRANCH   1   7
TORSDOF 2
ENDMDL
MODEL 7
REMARK VINA RESULT:      -3.5     16.975     18.316
REMARK  2 active torsions:
REMARK  status: ('A' for Active; 'I' for Inactive)
REMARK    1  A    between atoms: C5_5  and  N8_8 
REMARK    2  A    between atoms: C6_6  and  N8_8 
ROOT
HETATM    1  N8  UNL     1     -35.055  16.336  -4.923  1.00 20.00     0.097 N 
HETATM    2  H22 UNL     1     -35.866  16.250  -4.317  1.00 20.00     0.317 HD
ENDROOT
BRANCH   1   3
HETATM    3  C5  UNL     1     -33.924  16.827  -4.131  1.00 20.00     0.225 A 
HETATM    4  C1  UNL     1     -33.021  15.849  -3.423  1.00 20.00     0.042 A 
HETATM    5  C4  UNL     1     -33.923  16.749  -2.624  1.00 20.00     0.016 A 
HETATM    6  C7  UNL     1     -35.066  16.174  -1.858  1.00 20.00     0.012 C 
ENDBRANCH   1   3
BRANCH   1   7
HETATM    7  C6  UNL     1     -34.745  15.043  -5.512  1.00 20.00     0.268 C 
HETATM    8  C2  UNL     1     -35.052  15.100  -7.007  1.00 20.00     0.205 C 
HETATM    9  O9  UNL     1     -36.333  14.451  -6.809  1.00 20.00    -0.387 OA
HETATM   10  C3  UNL     1     -35.988  14.159  -5.431  1.00 20.00     0.205 C 
ENDBRANCH   1   7
TORSDOF 2
ENDMDL
MODEL 8
REMARK VINA RESULT:      -3.3     22.840     23.412
REMARK  2 active torsions:
REMARK  status: ('A' for Active; 'I' for Inactive)
REMARK    1  A    between atoms: C5_5  and  N8_8 
REMARK    2  A    between atoms: C6_6  and  N8_8 
ROOT
HETATM    1  N8  UNL     1     -42.059   6.800   1.058  1.00 20.00     0.097 N 
HETATM    2  H22 UNL     1     -41.729   6.850   2.018  1.00 20.00     0.317 HD
ENDROOT
BRANCH   1   3
HETATM    3  C5  UNL     1     -41.273   7.728   0.240  1.00 20.00     0.225 A 
HETATM    4  C1  UNL     1     -41.240   9.195   0.589  1.00 20.00     0.042 A 
HETATM    5  C4  UNL     1     -41.935   8.739  -0.665  1.00 20.00     0.016 A 
HETATM    6  C7  UNL     1     -43.417   8.850  -0.781  1.00 20.00     0.012 C 
ENDBRANCH   1   3
BRANCH   1   7
HETATM    7  C6  UNL     1     -41.922   5.440   0.563  1.00 20.00     0.268 C 
HETATM    8  C2  UNL     1     -41.333   5.488  -0.845  1.00 20.00     0.205 C 
HETATM    9  O9  UNL     1     -42.645   5.332  -1.441  1.00 20.00    -0.387 OA
HETATM   10  C3  UNL     1     -43.218   5.042  -0.141  1.00 20.00     0.205 C 
ENDBRANCH   1   7
TORSDOF 2
ENDMDL
MODEL 9
REMARK VINA RESULT:      -3.2     16.850     18.446
REMARK  2 active torsions:
REMARK  status: ('A' for Active; 'I' for Inactive)
REMARK    1  A    between atoms: C5_5  and  N8_8 
REMARK    2  A    between atoms: C6_6  and  N8_8 
ROOT
HETATM    1  N8  UNL     1     -33.707  16.064  -5.043  1.00 20.00     0.097 N 
HETATM    2  H22 UNL     1     -32.916  16.603  -5.384  1.00 20.00     0.317 HD
ENDROOT
BRANCH   1   3
HETATM    3  C5  UNL     1     -33.996  14.993  -6.000  1.00 20.00     0.225 A 
HETATM    4  C1  UNL     1     -34.033  15.295  -7.477  1.00 20.00     0.042 A 
HETATM    5  C4  UNL     1     -35.303  14.937  -6.753  1.00 20.00     0.016 A 
HETATM    6  C7  UNL     1     -36.371  15.961  -6.565  1.00 20.00     0.012 C 
ENDBRANCH   1   3
BRANCH   1   7
HETATM    7  C6  UNL     1     -33.394  15.511  -3.735  1.00 20.00     0.268 C 
HETATM    8  C2  UNL     1     -34.695  15.338  -2.953  1.00 20.00     0.205 C 
HETATM    9  O9  UNL     1     -34.472  16.577  -2.233  1.00 20.00    -0.387 OA
HETATM   10  C3  UNL     1     -33.128  16.663  -2.768  1.00 20.00     0.205 C 
ENDBRANCH   1   7
TORSDOF 2
ENDMDL
