MODEL 1
REMARK VINA RESULT:      -4.5      0.000      0.000
REMARK  3 active torsions:
REMARK  status: ('A' for Active; 'I' for Inactive)
REMARK    1  A    between atoms: C4_4  and  C9_9 
REMARK    2  A    between atoms: C5_5  and  C10_10 
REMARK    3  A    between atoms: C9_9  and  C11_11 
ROOT
HETATM    1  C1  UNL     1     -34.657  18.004  -3.605  1.00 20.00     0.006 C 
HETATM    2  C2  UNL     1     -34.190  17.389  -4.921  1.00 20.00     0.021 C 
HETATM    3  C3  UNL     1     -34.759  15.709  -2.562  1.00 20.00     0.010 C 
HETATM    4  C4  UNL     1     -34.282  17.157  -2.384  1.00 20.00    -0.014 C 
HETATM    5  C5  UNL     1     -34.295  15.064  -3.882  1.00 20.00     0.004 C 
HETATM    6  C6  UNL     1     -34.686  15.950  -5.082  1.00 20.00     0.086 C 
HETATM    7 CL12 UNL     1     -34.039  15.291  -6.617  1.00 20.00    -0.125 Cl
ENDROOT
BRANCH   4   8
HETATM    8  C9  UNL     1     -32.783  17.228  -2.079  1.00 20.00     0.004 C 
BRANCH   8   9
HETATM    9  C11 UNL     1     -32.422  18.540  -1.391  1.00 20.00    -0.004 C 
HETATM   10  C8  UNL     1     -31.233  18.363  -0.462  1.00 20.00     0.005 C 
ENDBRANCH   8   9
ENDBRANCH   4   8
BRANCH   5  11
HETATM   11  C10 UNL     1     -34.882  13.651  -3.985  1.00 20.00     0.001 C 
HETATM   12  C7  UNL     1     -36.291  13.681  -4.473  1.00 20.00     0.005 C 
ENDBRANCH   5  11
TORSDOF 3
ENDMDL
MODEL 2
REMARK VINA RESULT:      -4.4      3.122      5.549
REMARK  3 active torsions:
REMARK  status: ('A' for Active; 'I' for Inactive)
REMARK    1  A    between atoms: C4_4  and  C9_9 
REMARK    2  A    between atoms: C5_5  and  C10_10 
REMARK    3  A    between atoms: C9_9  and  C11_11 
ROOT
HETATM    1  C1  UNL     1     -35.999  17.472  -1.058  1.00 20.00     0.006 C 
HETATM    2  C2  UNL     1     -35.435  17.256   0.344  1.00 20.00     0.021 C 
HETATM    3  C3  UNL     1     -33.754  18.320  -1.836  1.00 20.00     0.010 C 
HETATM    4  C4  UNL     1     -34.929  17.384  -2.152  1.00 20.00    -0.014 C 
HETATM    5  C5  UNL     1     -33.163  18.117  -0.428  1.00 20.00     0.004 C 
HETATM    6  C6  UNL     1     -34.272  18.206   0.640  1.00 20.00     0.086 C 
HETATM    7 CL12 UNL     1     -33.636  17.838   2.274  1.00 20.00    -0.125 Cl
ENDROOT
BRANCH   4   8
HETATM    8  C9  UNL     1     -34.463  15.944  -2.379  1.00 20.00     0.004 C 
BRANCH   8   9
HETATM    9  C11 UNL     1     -33.283  15.892  -3.343  1.00 20.00    -0.004 C 
HETATM   10  C8  UNL     1     -33.385  14.694  -4.272  1.00 20.00     0.005 C 
ENDBRANCH   8   9
ENDBRANCH   4   8
BRANCH   5  11
HETATM   11  C10 UNL     1     -32.048  19.143  -0.197  1.00 20.00     0.001 C 
HETATM   12  C7  UNL     1     -30.770  18.481   0.192  1.00 20.00     0.005 C 
ENDBRANCH   5  11
TORSDOF 3
ENDMDL
MODEL 3
REMARK VINA RESULT:      -4.4      2.433      4.838
REMARK  3 active torsions:
REMARK  status: ('A' for Active; 'I' for Inactive)
REMARK    1  A    between atoms: C4_4  and  C9_9 
REMARK    2  A    between atoms: C5_5  and  C10_10 
REMARK    3  A    between atoms: C9_9  and  C11_11 
ROOT
HETATM    1  C1  UNL     1     -33.638  15.566  -3.447  1.00 20.00     0.006 C 
HETATM    2  C2  UNL     1     -32.919  16.909  -3.348  1.00 20.00     0.021 C 
HETATM    3  C3  UNL     1     -35.153  16.231  -1.542  1.00 20.00     0.010 C 
HETATM    4  C4  UNL     1     -35.087  15.627  -2.952  1.00 20.00    -0.014 C 
HETATM    5  C5  UNL     1     -34.438  17.590  -1.418  1.00 20.00     0.004 C 
HETATM    6  C6  UNL     1     -32.989  17.486  -1.932  1.00 20.00     0.086 C 
HETATM    7 CL12 UNL     1     -32.178  19.084  -1.926  1.00 20.00    -0.125 Cl
ENDROOT
BRANCH   4   8
HETATM    8  C9  UNL     1     -35.993  16.375  -3.933  1.00 20.00     0.004 C 
BRANCH   8   9
HETATM    9  C11 UNL     1     -36.486  15.452  -5.042  1.00 20.00    -0.004 C 
HETATM   10  C8  UNL     1     -36.830  14.075  -4.497  1.00 20.00     0.005 C 
ENDBRANCH   8   9
ENDBRANCH   4   8
BRANCH   5  11
HETATM   11  C10 UNL     1     -34.509  18.064   0.038  1.00 20.00     0.001 C 
HETATM   12  C7  UNL     1     -35.522  17.293   0.814  1.00 20.00     0.005 C 
ENDBRANCH   5  11
TORSDOF 3
ENDMDL
MODEL 4
REMARK VINA RESULT:      -4.3      1.619      2.349
REMARK  3 active torsions:
REMARK  status: ('A' for Active; 'I' for Inactive)
REMARK    1  A    between atoms: C4_4  and  C9_9 
REMARK    2  A    between atoms: C5_5  and  C10_10 
REMARK    3  A    between atoms: C9_9  and  C11_11 
ROOT
HETATM    1  C1  UNL     1     -35.066  15.885  -2.303  1.00 20.00     0.006 C 
HETATM    2  C2  UNL     1     -36.058  16.454  -3.314  1.00 20.00     0.021 C 
HETATM    3  C3  UNL     1     -33.523  15.218  -4.184  1.00 20.00     0.010 C 
HETATM    4  C4  UNL     1     -33.620  15.899  -2.812  1.00 20.00    -0.014 C 
HETATM    5  C5  UNL     1     -34.511  15.779  -5.224  1.00 20.00     0.004 C 
HETATM    6  C6  UNL     1     -35.949  15.752  -4.670  1.00 20.00     0.086 C 
HETATM    7 CL12 UNL     1     -37.100  16.525  -5.805  1.00 20.00    -0.125 Cl
ENDROOT
BRANCH   4   8
HETATM    8  C9  UNL     1     -33.039  17.316  -2.839  1.00 20.00     0.004 C 
BRANCH   8   9
HETATM    9  C11 UNL     1     -33.102  17.963  -1.460  1.00 20.00    -0.004 C 
HETATM   10  C8  UNL     1     -31.711  18.293  -0.944  1.00 20.00     0.005 C 
ENDBRANCH   8   9
ENDBRANCH   4   8
BRANCH   5  11
HETATM   11  C10 UNL     1     -34.374  14.984  -6.528  1.00 20.00     0.001 C 
HETATM   12  C7  UNL     1     -34.037  15.874  -7.676  1.00 20.00     0.005 C 
ENDBRANCH   5  11
TORSDOF 3
ENDMDL
MODEL 5
REMARK VINA RESULT:      -4.3      2.757      5.466
REMARK  3 active torsions:
REMARK  status: ('A' for Active; 'I' for Inactive)
REMARK    1  A    between atoms: C4_4  and  C9_9 
REMARK    2  A    between atoms: C5_5  and  C10_10 
REMARK    3  A    between atoms: C9_9  and  C11_11 
ROOT
HETATM    1  C1  UNL     1     -35.189  17.443  -2.303  1.00 20.00     0.006 C 
HETATM    2  C2  UNL     1     -35.118  17.207  -0.796  1.00 20.00     0.021 C 
HETATM    3  C3  UNL     1     -32.831  18.340  -2.279  1.00 20.00     0.010 C 
HETATM    4  C4  UNL     1     -33.815  17.394  -2.980  1.00 20.00    -0.014 C 
HETATM    5  C5  UNL     1     -32.737  18.118  -0.757  1.00 20.00     0.004 C 
HETATM    6  C6  UNL     1     -34.139  18.169  -0.118  1.00 20.00     0.086 C 
HETATM    7 CL12 UNL     1     -34.074  17.778   1.630  1.00 20.00    -0.125 Cl
ENDROOT
BRANCH   4   8
HETATM    8  C9  UNL     1     -33.270  15.965  -3.059  1.00 20.00     0.004 C 
BRANCH   8   9
HETATM    9  C11 UNL     1     -33.798  15.242  -4.294  1.00 20.00    -0.004 C 
HETATM   10  C8  UNL     1     -34.736  14.110  -3.908  1.00 20.00     0.005 C 
ENDBRANCH   8   9
ENDBRANCH   4   8
BRANCH   5  11
HETATM   11  C10 UNL     1     -31.784  19.156  -0.155  1.00 20.00     0.001 C 
HETATM   12  C7  UNL     1     -30.694  18.506   0.628  1.00 20.00     0.005 C 
ENDBRANCH   5  11
TORSDOF 3
ENDMDL
MODEL 6
REMARK VINA RESULT:      -4.2      1.803      2.127
REMARK  3 active torsions:
REMARK  status: ('A' for Active; 'I' for Inactive)
REMARK    1  A    between atoms: C4_4  and  C9_9 
REMARK    2  A    between atoms: C5_5  and  C10_10 
REMARK    3  A    between atoms: C9_9  and  C11_11 
ROOT
HETATM    1  C1  UNL     1     -34.047  17.780  -2.668  1.00 20.00     0.006 C 
HETATM    2  C2  UNL     1     -33.062  16.677  -3.047  1.00 20.00     0.021 C 
HETATM    3  C3  UNL     1     -35.970  16.174  -2.972  1.00 20.00     0.010 C 
HETATM    4  C4  UNL     1     -35.345  17.237  -2.058  1.00 20.00    -0.014 C 
HETATM    5  C5  UNL     1     -34.996  15.046  -3.364  1.00 20.00     0.004 C 
HETATM    6  C6  UNL     1     -33.705  15.635  -3.967  1.00 20.00     0.086 C 
HETATM    7 CL12 UNL     1     -32.500  14.353  -4.305  1.00 20.00    -0.125 Cl
ENDROOT
BRANCH   4   8
HETATM    8  C9  UNL     1     -35.129  16.709  -0.637  1.00 20.00     0.004 C 
BRANCH   8   9
HETATM    9  C11 UNL     1     -35.367  17.802   0.399  1.00 20.00    -0.004 C 
HETATM   10  C8  UNL     1     -34.071  18.202   1.083  1.00 20.00     0.005 C 
ENDBRANCH   8   9
ENDBRANCH   4   8
BRANCH   5  11
HETATM   11  C10 UNL     1     -35.702  14.085  -4.326  1.00 20.00     0.001 C 
HETATM   12  C7  UNL     1     -37.164  14.368  -4.404  1.00 20.00     0.005 C 
ENDBRANCH   5  11
TORSDOF 3
ENDMDL
MODEL 7
REMARK VINA RESULT:      -4.1      2.312      4.713
REMARK  3 active torsions:
REMARK  status: ('A' for Active; 'I' for Inactive)
REMARK    1  A    between atoms: C4_4  and  C9_9 
REMARK    2  A    between atoms: C5_5  and  C10_10 
REMARK    3  A    between atoms: C9_9  and  C11_11 
ROOT
HETATM    1  C1  UNL     1     -33.948  14.662  -3.869  1.00 20.00     0.006 C 
HETATM    2  C2  UNL     1     -33.029  15.832  -3.528  1.00 20.00     0.021 C 
HETATM    3  C3  UNL     1     -35.925  15.944  -2.966  1.00 20.00     0.010 C 
HETATM    4  C4  UNL     1     -35.394  15.095  -4.130  1.00 20.00    -0.014 C 
HETATM    5  C5  UNL     1     -35.016  17.135  -2.606  1.00 20.00     0.004 C 
HETATM    6  C6  UNL     1     -33.572  16.656  -2.358  1.00 20.00     0.086 C 
HETATM    7 CL12 UNL     1     -32.467  18.038  -2.073  1.00 20.00    -0.125 Cl
ENDROOT
BRANCH   4   8
HETATM    8  C9  UNL     1     -35.540  15.818  -5.472  1.00 20.00     0.004 C 
BRANCH   8   9
HETATM    9  C11 UNL     1     -35.272  14.874  -6.639  1.00 20.00    -0.004 C 
HETATM   10  C8  UNL     1     -34.095  15.351  -7.473  1.00 20.00     0.005 C 
ENDBRANCH   8   9
ENDBRANCH   4   8
BRANCH   5  11
HETATM   11  C10 UNL     1     -35.604  17.867  -1.395  1.00 20.00     0.001 C 
HETATM   12  C7  UNL     1     -35.418  17.082  -0.141  1.00 20.00     0.005 C 
ENDBRANCH   5  11
TORSDOF 3
ENDMDL
MODEL 8
REMARK VINA RESULT:      -3.9      1.716      2.566
REMARK  3 active torsions:
REMARK  status: ('A' for Active; 'I' for Inactive)
REMARK    1  A    between atoms: C4_4  and  C9_9 
REMARK    2  A    between atoms: C5_5  and  C10_10 
REMARK    3  A    between atoms: C9_9  and  C11_11 
ROOT
HETATM    1  C1  UNL     1     -33.048  15.534  -3.743  1.00 20.00     0.006 C 
HETATM    2  C2  UNL     1     -34.205  14.542  -3.820  1.00 20.00     0.021 C 
HETATM    3  C3  UNL     1     -34.648  17.442  -4.150  1.00 20.00     0.010 C 
HETATM    4  C4  UNL     1     -33.487  16.930  -3.287  1.00 20.00    -0.014 C 
HETATM    5  C5  UNL     1     -35.832  16.460  -4.239  1.00 20.00     0.004 C 
HETATM    6  C6  UNL     1     -35.346  15.070  -4.695  1.00 20.00     0.086 C 
HETATM    7 CL12 UNL     1     -36.680  13.874  -4.675  1.00 20.00    -0.125 Cl
ENDROOT
BRANCH   4   8
HETATM    8  C9  UNL     1     -33.832  16.959  -1.795  1.00 20.00     0.004 C 
BRANCH   8   9
HETATM    9  C11 UNL     1     -33.336  18.243  -1.140  1.00 20.00    -0.004 C 
HETATM   10  C8  UNL     1     -31.820  18.256  -1.035  1.00 20.00     0.005 C 
ENDBRANCH   8   9
ENDBRANCH   4   8
BRANCH   5  11
HETATM   11  C10 UNL     1     -36.897  17.041  -5.176  1.00 20.00     0.001 C 
HETATM   12  C7  UNL     1     -36.457  16.991  -6.599  1.00 20.00     0.005 C 
ENDBRANCH   5  11
TORSDOF 3
ENDMDL
MODEL 9
REMARK VINA RESULT:      -3.9      1.930      4.744
REMARK  3 active torsions:
REMARK  status: ('A' for Active; 'I' for Inactive)
REMARK    1  A    between atoms: C4_4  and  C9_9 
REMARK    2  A    between atoms: C5_5  and  C10_10 
REMARK    3  A    between atoms: C9_9  and  C11_11 
ROOT
HETATM    1  C1  UNL     1     -34.453  16.393  -5.142  1.00 20.00     0.006 C 
HETATM    2  C2  UNL     1     -35.403  17.399  -4.496  1.00 20.00     0.021 C 
HETATM    3  C3  UNL     1     -33.236  16.127  -2.948  1.00 20.00     0.010 C 
HETATM    4  C4  UNL     1     -33.871  15.393  -4.137  1.00 20.00    -0.014 C 
HETATM    5  C5  UNL     1     -34.178  17.144  -2.275  1.00 20.00     0.004 C 
HETATM    6  C6  UNL     1     -34.745  18.126  -3.320  1.00 20.00     0.086 C 
HETATM    7 CL12 UNL     1     -35.949  19.233  -2.589  1.00 20.00    -0.125 Cl
ENDROOT
BRANCH   4   8
HETATM    8  C9  UNL     1     -34.915  14.369  -3.682  1.00 20.00     0.004 C 
BRANCH   8   9
HETATM    9  C11 UNL     1     -35.885  14.034  -4.809  1.00 20.00    -0.004 C 
HETATM   10  C8  UNL     1     -37.326  14.251  -4.376  1.00 20.00     0.005 C 
ENDBRANCH   8   9
ENDBRANCH   4   8
BRANCH   5  11
HETATM   11  C10 UNL     1     -33.422  17.862  -1.151  1.00 20.00     0.001 C 
HETATM   12  C7  UNL     1     -32.107  18.380  -1.624  1.00 20.00     0.005 C 
ENDBRANCH   5  11
TORSDOF 3
ENDMDL
