MODEL 1
REMARK VINA RESULT:      -5.5      0.000      0.000
REMARK  6 active torsions:
REMARK  status: ('A' for Active; 'I' for Inactive)
REMARK    1  A    between atoms: C4_4  and  C6_6 
REMARK    2  A    between atoms: C5_5  and  C7_7 
REMARK    3  A    between atoms: C6_6  and  C8_8 
REMARK    4  A    between atoms: C7_7  and  C9_9 
REMARK    5  A    between atoms: C8_8  and  C9_9 
REMARK    6  A    between atoms: C9_9  and  O10_10 
ROOT
HETATM    1  C1  UNL     1     -33.262   8.775  -0.030  1.00 20.00     0.012 C 
HETATM    2  C2  UNL     1     -32.742   8.199   0.887  1.00 20.00    -0.117 C 
HETATM    3  C4  UNL     1     -32.103   7.495   2.008  1.00 20.00     0.093 C 
ENDROOT
BRANCH   3   4
HETATM    4  C6  UNL     1     -33.121   6.800   2.914  1.00 20.00     0.014 C 
BRANCH   4   5
HETATM    5  C8  UNL     1     -33.141   5.275   2.725  1.00 20.00     0.032 C 
BRANCH   5   6
HETATM    6  C9  UNL     1     -34.386   4.632   3.353  1.00 20.00     0.118 C 
BRANCH   6   7
HETATM    7  C7  UNL     1     -35.159   5.578   4.281  1.00 20.00     0.031 C 
BRANCH   7   8
HETATM    8  C5  UNL     1     -34.786   5.432   5.757  1.00 20.00    -0.002 C 
HETATM    9  C3  UNL     1     -34.056   6.666   6.267  1.00 20.00     0.005 C 
ENDBRANCH   7   8
ENDBRANCH   6   7
BRANCH   6  10
HETATM   10  O10 UNL     1     -33.992   3.492   4.120  1.00 20.00    -0.396 OA
HETATM   11  H26 UNL     1     -33.288   3.056   3.616  1.00 20.00     0.210 HD
ENDBRANCH   6  10
ENDBRANCH   5   6
ENDBRANCH   4   5
ENDBRANCH   3   4
TORSDOF 6
ENDMDL
MODEL 2
REMARK VINA RESULT:      -5.0      1.058      1.535
REMARK  6 active torsions:
REMARK  status: ('A' for Active; 'I' for Inactive)
REMARK    1  A    between atoms: C4_4  and  C6_6 
REMARK    2  A    between atoms: C5_5  and  C7_7 
REMARK    3  A    between atoms: C6_6  and  C8_8 
REMARK    4  A    between atoms: C7_7  and  C9_9 
REMARK    5  A    between atoms: C8_8  and  C9_9 
REMARK    6  A    between atoms: C9_9  and  O10_10 
ROOT
HETATM    1  C1  UNL     1     -32.576   8.411   0.725  1.00 20.00     0.012 C 
HETATM    2  C2  UNL     1     -32.631   7.605   1.613  1.00 20.00    -0.117 C 
HETATM    3  C4  UNL     1     -32.697   6.621   2.703  1.00 20.00     0.093 C 
ENDROOT
BRANCH   3   4
HETATM    4  C6  UNL     1     -33.296   5.288   2.247  1.00 20.00     0.014 C 
BRANCH   4   5
HETATM    5  C8  UNL     1     -33.990   4.527   3.387  1.00 20.00     0.032 C 
BRANCH   5   6
HETATM    6  C9  UNL     1     -34.852   5.452   4.257  1.00 20.00     0.118 C 
BRANCH   6   7
HETATM    7  C7  UNL     1     -34.743   5.155   5.758  1.00 20.00     0.031 C 
BRANCH   7   8
HETATM    8  C5  UNL     1     -34.292   6.355   6.592  1.00 20.00    -0.002 C 
HETATM    9  C3  UNL     1     -33.498   7.345   5.751  1.00 20.00     0.005 C 
ENDBRANCH   7   8
ENDBRANCH   6   7
BRANCH   6  10
HETATM   10  O10 UNL     1     -36.223   5.311   3.881  1.00 20.00    -0.396 OA
HETATM   11  H26 UNL     1     -36.617   4.691   4.514  1.00 20.00     0.210 HD
ENDBRANCH   6  10
ENDBRANCH   5   6
ENDBRANCH   4   5
ENDBRANCH   3   4
TORSDOF 6
ENDMDL
MODEL 3
REMARK VINA RESULT:      -5.0      1.577      4.914
REMARK  6 active torsions:
REMARK  status: ('A' for Active; 'I' for Inactive)
REMARK    1  A    between atoms: C4_4  and  C6_6 
REMARK    2  A    between atoms: C5_5  and  C7_7 
REMARK    3  A    between atoms: C6_6  and  C8_8 
REMARK    4  A    between atoms: C7_7  and  C9_9 
REMARK    5  A    between atoms: C8_8  and  C9_9 
REMARK    6  A    between atoms: C9_9  and  O10_10 
ROOT
HETATM    1  C1  UNL     1     -34.340   6.516   6.258  1.00 20.00     0.012 C 
HETATM    2  C2  UNL     1     -34.474   5.676   5.410  1.00 20.00    -0.117 C 
HETATM    3  C4  UNL     1     -34.638   4.646   4.376  1.00 20.00     0.093 C 
ENDROOT
BRANCH   3   4
HETATM    4  C6  UNL     1     -34.361   5.184   2.970  1.00 20.00     0.014 C 
BRANCH   4   5
HETATM    5  C8  UNL     1     -32.892   5.584   2.765  1.00 20.00     0.032 C 
BRANCH   5   6
HETATM    6  C9  UNL     1     -32.708   7.107   2.728  1.00 20.00     0.118 C 
BRANCH   6   7
HETATM    7  C7  UNL     1     -32.225   7.632   1.370  1.00 20.00     0.031 C 
BRANCH   7   8
HETATM    8  C5  UNL     1     -32.921   8.918   0.924  1.00 20.00    -0.002 C 
HETATM    9  C3  UNL     1     -33.464   8.790  -0.492  1.00 20.00     0.005 C 
ENDBRANCH   7   8
ENDBRANCH   6   7
BRANCH   6  10
HETATM   10  O10 UNL     1     -31.746   7.490   3.713  1.00 20.00    -0.396 OA
HETATM   11  H26 UNL     1     -31.284   8.264   3.356  1.00 20.00     0.210 HD
ENDBRANCH   6  10
ENDBRANCH   5   6
ENDBRANCH   4   5
ENDBRANCH   3   4
TORSDOF 6
ENDMDL
MODEL 4
REMARK VINA RESULT:      -4.6      1.193      4.555
REMARK  6 active torsions:
REMARK  status: ('A' for Active; 'I' for Inactive)
REMARK    1  A    between atoms: C4_4  and  C6_6 
REMARK    2  A    between atoms: C5_5  and  C7_7 
REMARK    3  A    between atoms: C6_6  and  C8_8 
REMARK    4  A    between atoms: C7_7  and  C9_9 
REMARK    5  A    between atoms: C8_8  and  C9_9 
REMARK    6  A    between atoms: C9_9  and  O10_10 
ROOT
HETATM    1  C1  UNL     1     -33.686   7.411   6.276  1.00 20.00     0.012 C 
HETATM    2  C2  UNL     1     -34.213   6.351   6.077  1.00 20.00    -0.117 C 
HETATM    3  C4  UNL     1     -34.858   5.053   5.836  1.00 20.00     0.093 C 
ENDROOT
BRANCH   3   4
HETATM    4  C6  UNL     1     -34.803   4.640   4.364  1.00 20.00     0.014 C 
BRANCH   4   5
HETATM    5  C8  UNL     1     -34.501   5.819   3.426  1.00 20.00     0.032 C 
BRANCH   5   6
HETATM    6  C9  UNL     1     -33.036   5.833   2.968  1.00 20.00     0.118 C 
BRANCH   6   7
HETATM    7  C7  UNL     1     -32.525   7.230   2.595  1.00 20.00     0.031 C 
BRANCH   7   8
HETATM    8  C5  UNL     1     -32.486   7.488   1.089  1.00 20.00    -0.002 C 
HETATM    9  C3  UNL     1     -32.898   8.917   0.762  1.00 20.00     0.005 C 
ENDBRANCH   7   8
ENDBRANCH   6   7
BRANCH   6  10
HETATM   10  O10 UNL     1     -32.893   4.993   1.820  1.00 20.00    -0.396 OA
HETATM   11  H26 UNL     1     -33.622   5.222   1.223  1.00 20.00     0.210 HD
ENDBRANCH   6  10
ENDBRANCH   5   6
ENDBRANCH   4   5
ENDBRANCH   3   4
TORSDOF 6
ENDMDL
MODEL 5
REMARK VINA RESULT:      -4.5     11.545     12.237
REMARK  6 active torsions:
REMARK  status: ('A' for Active; 'I' for Inactive)
REMARK    1  A    between atoms: C4_4  and  C6_6 
REMARK    2  A    between atoms: C5_5  and  C7_7 
REMARK    3  A    between atoms: C6_6  and  C8_8 
REMARK    4  A    between atoms: C7_7  and  C9_9 
REMARK    5  A    between atoms: C8_8  and  C9_9 
REMARK    6  A    between atoms: C9_9  and  O10_10 
ROOT
HETATM    1  C1  UNL     1     -35.075  16.346  -1.582  1.00 20.00     0.012 C 
HETATM    2  C2  UNL     1     -34.268  16.086  -2.431  1.00 20.00    -0.117 C 
HETATM    3  C4  UNL     1     -33.278  15.771  -3.471  1.00 20.00     0.093 C 
ENDROOT
BRANCH   3   4
HETATM    4  C6  UNL     1     -33.669  14.541  -4.292  1.00 20.00     0.014 C 
BRANCH   4   5
HETATM    5  C8  UNL     1     -34.121  14.896  -5.717  1.00 20.00     0.032 C 
BRANCH   5   6
HETATM    6  C9  UNL     1     -35.625  14.661  -5.920  1.00 20.00     0.118 C 
BRANCH   6   7
HETATM    7  C7  UNL     1     -36.275  13.854  -4.789  1.00 20.00     0.031 C 
BRANCH   7   8
HETATM    8  C5  UNL     1     -37.554  14.487  -4.240  1.00 20.00    -0.002 C 
HETATM    9  C3  UNL     1     -37.529  16.002  -4.387  1.00 20.00     0.005 C 
ENDBRANCH   7   8
ENDBRANCH   6   7
BRANCH   6  10
HETATM   10  O10 UNL     1     -35.829  13.947  -7.142  1.00 20.00    -0.396 OA
HETATM   11  H26 UNL     1     -35.553  14.542  -7.855  1.00 20.00     0.210 HD
ENDBRANCH   6  10
ENDBRANCH   5   6
ENDBRANCH   4   5
ENDBRANCH   3   4
TORSDOF 6
ENDMDL
MODEL 6
REMARK VINA RESULT:      -4.5      1.730      2.419
REMARK  6 active torsions:
REMARK  status: ('A' for Active; 'I' for Inactive)
REMARK    1  A    between atoms: C4_4  and  C6_6 
REMARK    2  A    between atoms: C5_5  and  C7_7 
REMARK    3  A    between atoms: C6_6  and  C8_8 
REMARK    4  A    between atoms: C7_7  and  C9_9 
REMARK    5  A    between atoms: C8_8  and  C9_9 
REMARK    6  A    between atoms: C9_9  and  O10_10 
ROOT
HETATM    1  C1  UNL     1     -32.892   9.105   0.501  1.00 20.00     0.012 C 
HETATM    2  C2  UNL     1     -32.680   8.134   1.174  1.00 20.00    -0.117 C 
HETATM    3  C4  UNL     1     -32.421   6.943   1.996  1.00 20.00     0.093 C 
ENDROOT
BRANCH   3   4
HETATM    4  C6  UNL     1     -32.341   7.272   3.488  1.00 20.00     0.014 C 
BRANCH   4   5
HETATM    5  C8  UNL     1     -33.719   7.308   4.165  1.00 20.00     0.032 C 
BRANCH   5   6
HETATM    6  C9  UNL     1     -33.714   6.592   5.523  1.00 20.00     0.118 C 
BRANCH   6   7
HETATM    7  C7  UNL     1     -34.740   5.455   5.618  1.00 20.00     0.031 C 
BRANCH   7   8
HETATM    8  C5  UNL     1     -35.140   4.872   4.263  1.00 20.00    -0.002 C 
HETATM    9  C3  UNL     1     -34.057   3.952   3.716  1.00 20.00     0.005 C 
ENDBRANCH   7   8
ENDBRANCH   6   7
BRANCH   6  10
HETATM   10  O10 UNL     1     -34.009   7.536   6.555  1.00 20.00    -0.396 OA
HETATM   11  H26 UNL     1     -34.653   8.156   6.181  1.00 20.00     0.210 HD
ENDBRANCH   6  10
ENDBRANCH   5   6
ENDBRANCH   4   5
ENDBRANCH   3   4
TORSDOF 6
ENDMDL
MODEL 7
REMARK VINA RESULT:      -4.4     11.555     12.307
REMARK  6 active torsions:
REMARK  status: ('A' for Active; 'I' for Inactive)
REMARK    1  A    between atoms: C4_4  and  C6_6 
REMARK    2  A    between atoms: C5_5  and  C7_7 
REMARK    3  A    between atoms: C6_6  and  C8_8 
REMARK    4  A    between atoms: C7_7  and  C9_9 
REMARK    5  A    between atoms: C8_8  and  C9_9 
REMARK    6  A    between atoms: C9_9  and  O10_10 
ROOT
HETATM    1  C1  UNL     1     -35.212  16.796  -0.821  1.00 20.00     0.012 C 
HETATM    2  C2  UNL     1     -34.767  16.798  -1.936  1.00 20.00    -0.117 C 
HETATM    3  C4  UNL     1     -34.225  16.803  -3.302  1.00 20.00     0.093 C 
ENDROOT
BRANCH   3   4
HETATM    4  C6  UNL     1     -33.115  15.767  -3.491  1.00 20.00     0.014 C 
BRANCH   4   5
HETATM    5  C8  UNL     1     -33.556  14.571  -4.349  1.00 20.00     0.032 C 
BRANCH   5   6
HETATM    6  C9  UNL     1     -34.126  15.013  -5.704  1.00 20.00     0.118 C 
BRANCH   6   7
HETATM    7  C7  UNL     1     -35.537  14.476  -5.978  1.00 20.00     0.031 C 
BRANCH   7   8
HETATM    8  C5  UNL     1     -36.184  13.803  -4.768  1.00 20.00    -0.002 C 
HETATM    9  C3  UNL     1     -37.341  14.633  -4.227  1.00 20.00     0.005 C 
ENDBRANCH   7   8
ENDBRANCH   6   7
BRANCH   6  10
HETATM   10  O10 UNL     1     -33.270  14.549  -6.750  1.00 20.00    -0.396 OA
HETATM   11  H26 UNL     1     -33.798  14.566  -7.562  1.00 20.00     0.210 HD
ENDBRANCH   6  10
ENDBRANCH   5   6
ENDBRANCH   4   5
ENDBRANCH   3   4
TORSDOF 6
ENDMDL
MODEL 8
REMARK VINA RESULT:      -4.3     10.928     12.107
REMARK  6 active torsions:
REMARK  status: ('A' for Active; 'I' for Inactive)
REMARK    1  A    between atoms: C4_4  and  C6_6 
REMARK    2  A    between atoms: C5_5  and  C7_7 
REMARK    3  A    between atoms: C6_6  and  C8_8 
REMARK    4  A    between atoms: C7_7  and  C9_9 
REMARK    5  A    between atoms: C8_8  and  C9_9 
REMARK    6  A    between atoms: C9_9  and  O10_10 
ROOT
HETATM    1  C1  UNL     1     -31.693  18.202  -0.986  1.00 20.00     0.012 C 
HETATM    2  C2  UNL     1     -32.784  17.897  -1.384  1.00 20.00    -0.117 C 
HETATM    3  C4  UNL     1     -34.120  17.527  -1.870  1.00 20.00     0.093 C 
ENDROOT
BRANCH   3   4
HETATM    4  C6  UNL     1     -34.174  16.085  -2.380  1.00 20.00     0.014 C 
BRANCH   4   5
HETATM    5  C8  UNL     1     -33.222  15.835  -3.560  1.00 20.00     0.032 C 
BRANCH   5   6
HETATM    6  C9  UNL     1     -33.693  14.673  -4.445  1.00 20.00     0.118 C 
BRANCH   6   7
HETATM    7  C7  UNL     1     -34.930  13.950  -3.898  1.00 20.00     0.031 C 
BRANCH   7   8
HETATM    8  C5  UNL     1     -36.093  13.886  -4.888  1.00 20.00    -0.002 C 
HETATM    9  C3  UNL     1     -35.756  14.609  -6.184  1.00 20.00     0.005 C 
ENDBRANCH   7   8
ENDBRANCH   6   7
BRANCH   6  10
HETATM   10  O10 UNL     1     -32.640  13.713  -4.562  1.00 20.00    -0.396 OA
HETATM   11  H26 UNL     1     -32.099  13.993  -5.315  1.00 20.00     0.210 HD
ENDBRANCH   6  10
ENDBRANCH   5   6
ENDBRANCH   4   5
ENDBRANCH   3   4
TORSDOF 6
ENDMDL
MODEL 9
REMARK VINA RESULT:      -4.3     10.958     12.300
REMARK  6 active torsions:
REMARK  status: ('A' for Active; 'I' for Inactive)
REMARK    1  A    between atoms: C4_4  and  C6_6 
REMARK    2  A    between atoms: C5_5  and  C7_7 
REMARK    3  A    between atoms: C6_6  and  C8_8 
REMARK    4  A    between atoms: C7_7  and  C9_9 
REMARK    5  A    between atoms: C8_8  and  C9_9 
REMARK    6  A    between atoms: C9_9  and  O10_10 
ROOT
HETATM    1  C1  UNL     1     -35.065  16.379  -1.603  1.00 20.00     0.012 C 
HETATM    2  C2  UNL     1     -34.270  16.087  -2.454  1.00 20.00    -0.117 C 
HETATM    3  C4  UNL     1     -33.294  15.733  -3.494  1.00 20.00     0.093 C 
ENDROOT
BRANCH   3   4
HETATM    4  C6  UNL     1     -33.759  14.552  -4.350  1.00 20.00     0.014 C 
BRANCH   4   5
HETATM    5  C8  UNL     1     -35.085  13.949  -3.861  1.00 20.00     0.032 C 
BRANCH   5   6
HETATM    6  C9  UNL     1     -36.103  13.794  -5.000  1.00 20.00     0.118 C 
BRANCH   6   7
HETATM    7  C7  UNL     1     -36.104  14.971  -5.984  1.00 20.00     0.031 C 
BRANCH   7   8
HETATM    8  C5  UNL     1     -37.118  16.061  -5.637  1.00 20.00    -0.002 C 
HETATM    9  C3  UNL     1     -36.425  17.330  -5.160  1.00 20.00     0.005 C 
ENDBRANCH   7   8
ENDBRANCH   6   7
BRANCH   6  10
HETATM   10  O10 UNL     1     -37.416  13.684  -4.447  1.00 20.00    -0.396 OA
HETATM   11  H26 UNL     1     -37.907  13.083  -5.028  1.00 20.00     0.210 HD
ENDBRANCH   6  10
ENDBRANCH   5   6
ENDBRANCH   4   5
ENDBRANCH   3   4
TORSDOF 6
ENDMDL
