MODEL 1
REMARK VINA RESULT:      -4.9      0.000      0.000
REMARK  3 active torsions:
REMARK  status: ('A' for Active; 'I' for Inactive)
REMARK    1  A    between atoms: C1_1  and  C5_5 
REMARK    2  A    between atoms: C1_1  and  C8_8 
REMARK    3  A    between atoms: C8_8  and  C9_9 
ROOT
HETATM    1  C1  UNL     1     -33.079   6.194   2.847  1.00 20.00     0.133 C 
HETATM    2  O10 UNL     1     -32.879   5.117   2.289  1.00 20.00    -0.297 OA
ENDROOT
BRANCH   1   3
HETATM    3  C5  UNL     1     -34.063   6.310   3.959  1.00 20.00     0.081 C 
HETATM    4  C2  UNL     1     -34.537   4.974   4.498  1.00 20.00     0.040 C 
HETATM    5  C3  UNL     1     -35.063   5.359   5.862  1.00 20.00     0.168 C 
HETATM    6  O11 UNL     1     -34.235   6.432   6.329  1.00 20.00    -0.390 OA
HETATM    7  C4  UNL     1     -33.502   6.963   5.213  1.00 20.00     0.179 C 
ENDBRANCH   1   3
BRANCH   1   8
HETATM    8  C8  UNL     1     -32.386   7.482   2.429  1.00 20.00     0.082 C 
BRANCH   8   9
HETATM    9  C9  UNL     1     -32.826   8.006   1.054  1.00 20.00    -0.016 C 
HETATM   10  C6  UNL     1     -31.764   7.733  -0.015  1.00 20.00     0.010 C 
HETATM   11  C7  UNL     1     -33.105   9.508   1.130  1.00 20.00     0.010 C 
ENDBRANCH   8   9
ENDBRANCH   1   8
TORSDOF 3
ENDMDL
MODEL 2
REMARK VINA RESULT:      -4.6     10.867     12.445
REMARK  3 active torsions:
REMARK  status: ('A' for Active; 'I' for Inactive)
REMARK    1  A    between atoms: C1_1  and  C5_5 
REMARK    2  A    between atoms: C1_1  and  C8_8 
REMARK    3  A    between atoms: C8_8  and  C9_9 
ROOT
HETATM    1  C1  UNL     1     -33.879  14.551  -4.395  1.00 20.00     0.133 C 
HETATM    2  O10 UNL     1     -33.890  13.342  -4.172  1.00 20.00    -0.297 OA
ENDROOT
BRANCH   1   3
HETATM    3  C5  UNL     1     -34.680  15.132  -5.508  1.00 20.00     0.081 C 
HETATM    4  C2  UNL     1     -33.974  15.103  -6.850  1.00 20.00     0.040 C 
HETATM    5  C3  UNL     1     -35.130  15.241  -7.813  1.00 20.00     0.168 C 
HETATM    6  O11 UNL     1     -36.243  14.565  -7.212  1.00 20.00    -0.390 OA
HETATM    7  C4  UNL     1     -35.954  14.361  -5.819  1.00 20.00     0.179 C 
ENDBRANCH   1   3
BRANCH   1   8
HETATM    8  C8  UNL     1     -33.031  15.531  -3.598  1.00 20.00     0.082 C 
BRANCH   8   9
HETATM    9  C9  UNL     1     -33.844  16.637  -2.908  1.00 20.00    -0.016 C 
HETATM   10  C6  UNL     1     -32.953  17.527  -2.038  1.00 20.00     0.010 C 
HETATM   11  C7  UNL     1     -34.949  16.017  -2.050  1.00 20.00     0.010 C 
ENDBRANCH   8   9
ENDBRANCH   1   8
TORSDOF 3
ENDMDL
MODEL 3
REMARK VINA RESULT:      -4.6      1.207      1.553
REMARK  3 active torsions:
REMARK  status: ('A' for Active; 'I' for Inactive)
REMARK    1  A    between atoms: C1_1  and  C5_5 
REMARK    2  A    between atoms: C1_1  and  C8_8 
REMARK    3  A    between atoms: C8_8  and  C9_9 
ROOT
HETATM    1  C1  UNL     1     -32.644   7.155   3.159  1.00 20.00     0.133 C 
HETATM    2  O10 UNL     1     -31.617   7.542   3.712  1.00 20.00    -0.297 OA
ENDROOT
BRANCH   1   3
HETATM    3  C5  UNL     1     -33.837   6.750   3.955  1.00 20.00     0.081 C 
HETATM    4  C2  UNL     1     -34.218   5.293   3.786  1.00 20.00     0.040 C 
HETATM    5  C3  UNL     1     -35.054   5.046   5.021  1.00 20.00     0.168 C 
HETATM    6  O11 UNL     1     -34.492   5.856   6.061  1.00 20.00    -0.390 OA
HETATM    7  C4  UNL     1     -33.632   6.839   5.460  1.00 20.00     0.179 C 
ENDBRANCH   1   3
BRANCH   1   8
HETATM    8  C8  UNL     1     -32.769   7.017   1.649  1.00 20.00     0.082 C 
BRANCH   8   9
HETATM    9  C9  UNL     1     -32.554   8.333   0.886  1.00 20.00    -0.016 C 
HETATM   10  C6  UNL     1     -33.212   9.512   1.607  1.00 20.00     0.010 C 
HETATM   11  C7  UNL     1     -33.119   8.215  -0.530  1.00 20.00     0.010 C 
ENDBRANCH   8   9
ENDBRANCH   1   8
TORSDOF 3
ENDMDL
MODEL 4
REMARK VINA RESULT:      -4.4     11.141     11.883
REMARK  3 active torsions:
REMARK  status: ('A' for Active; 'I' for Inactive)
REMARK    1  A    between atoms: C1_1  and  C5_5 
REMARK    2  A    between atoms: C1_1  and  C8_8 
REMARK    3  A    between atoms: C8_8  and  C9_9 
ROOT
HETATM    1  C1  UNL     1     -34.633  15.620  -4.072  1.00 20.00     0.133 C 
HETATM    2  O10 UNL     1     -34.349  15.895  -5.236  1.00 20.00    -0.297 OA
ENDROOT
BRANCH   1   3
HETATM    3  C5  UNL     1     -35.961  15.042  -3.724  1.00 20.00     0.081 C 
HETATM    4  C2  UNL     1     -37.134  15.906  -4.145  1.00 20.00     0.040 C 
HETATM    5  C3  UNL     1     -38.267  14.906  -4.157  1.00 20.00     0.168 C 
HETATM    6  O11 UNL     1     -37.701  13.655  -4.568  1.00 20.00    -0.390 OA
HETATM    7  C4  UNL     1     -36.273  13.737  -4.441  1.00 20.00     0.179 C 
ENDBRANCH   1   3
BRANCH   1   8
HETATM    8  C8  UNL     1     -33.691  15.883  -2.906  1.00 20.00     0.082 C 
BRANCH   8   9
HETATM    9  C9  UNL     1     -33.938  17.224  -2.199  1.00 20.00    -0.016 C 
HETATM   10  C6  UNL     1     -32.629  17.846  -1.707  1.00 20.00     0.010 C 
HETATM   11  C7  UNL     1     -34.890  17.026  -1.019  1.00 20.00     0.010 C 
ENDBRANCH   8   9
ENDBRANCH   1   8
TORSDOF 3
ENDMDL
MODEL 5
REMARK VINA RESULT:      -4.4     10.678     12.170
REMARK  3 active torsions:
REMARK  status: ('A' for Active; 'I' for Inactive)
REMARK    1  A    between atoms: C1_1  and  C5_5 
REMARK    2  A    between atoms: C1_1  and  C8_8 
REMARK    3  A    between atoms: C8_8  and  C9_9 
ROOT
HETATM    1  C1  UNL     1     -35.790  14.048  -4.283  1.00 20.00     0.133 C 
HETATM    2  O10 UNL     1     -36.030  12.890  -4.623  1.00 20.00    -0.297 OA
ENDROOT
BRANCH   1   3
HETATM    3  C5  UNL     1     -36.771  15.140  -4.540  1.00 20.00     0.081 C 
HETATM    4  C2  UNL     1     -36.747  15.661  -5.963  1.00 20.00     0.040 C 
HETATM    5  C3  UNL     1     -38.101  16.323  -6.074  1.00 20.00     0.168 C 
HETATM    6  O11 UNL     1     -38.999  15.549  -5.268  1.00 20.00    -0.390 OA
HETATM    7  C4  UNL     1     -38.223  14.710  -4.397  1.00 20.00     0.179 C 
ENDBRANCH   1   3
BRANCH   1   8
HETATM    8  C8  UNL     1     -34.483  14.463  -3.626  1.00 20.00     0.082 C 
BRANCH   8   9
HETATM    9  C9  UNL     1     -34.439  15.941  -3.210  1.00 20.00    -0.016 C 
HETATM   10  C6  UNL     1     -33.018  16.503  -3.289  1.00 20.00     0.010 C 
HETATM   11  C7  UNL     1     -34.979  16.100  -1.788  1.00 20.00     0.010 C 
ENDBRANCH   8   9
ENDBRANCH   1   8
TORSDOF 3
ENDMDL
MODEL 6
REMARK VINA RESULT:      -4.3     10.809     12.615
REMARK  3 active torsions:
REMARK  status: ('A' for Active; 'I' for Inactive)
REMARK    1  A    between atoms: C1_1  and  C5_5 
REMARK    2  A    between atoms: C1_1  and  C8_8 
REMARK    3  A    between atoms: C8_8  and  C9_9 
ROOT
HETATM    1  C1  UNL     1     -35.125  14.306  -4.351  1.00 20.00     0.133 C 
HETATM    2  O10 UNL     1     -34.621  13.237  -4.013  1.00 20.00    -0.297 OA
ENDROOT
BRANCH   1   3
HETATM    3  C5  UNL     1     -35.243  14.676  -5.790  1.00 20.00     0.081 C 
HETATM    4  C2  UNL     1     -35.954  15.994  -6.026  1.00 20.00     0.040 C 
HETATM    5  C3  UNL     1     -35.486  16.354  -7.417  1.00 20.00     0.168 C 
HETATM    6  O11 UNL     1     -34.143  15.865  -7.534  1.00 20.00    -0.390 OA
HETATM    7  C4  UNL     1     -33.907  14.924  -6.474  1.00 20.00     0.179 C 
ENDBRANCH   1   3
BRANCH   1   8
HETATM    8  C8  UNL     1     -35.622  15.340  -3.352  1.00 20.00     0.082 C 
BRANCH   8   9
HETATM    9  C9  UNL     1     -34.558  15.781  -2.335  1.00 20.00    -0.016 C 
HETATM   10  C6  UNL     1     -35.137  16.755  -1.307  1.00 20.00     0.010 C 
HETATM   11  C7  UNL     1     -33.381  16.436  -3.060  1.00 20.00     0.010 C 
ENDBRANCH   8   9
ENDBRANCH   1   8
TORSDOF 3
ENDMDL
MODEL 7
REMARK VINA RESULT:      -4.3     11.257     12.112
REMARK  3 active torsions:
REMARK  status: ('A' for Active; 'I' for Inactive)
REMARK    1  A    between atoms: C1_1  and  C5_5 
REMARK    2  A    between atoms: C1_1  and  C8_8 
REMARK    3  A    between atoms: C8_8  and  C9_9 
ROOT
HETATM    1  C1  UNL     1     -34.009  17.875  -0.469  1.00 20.00     0.133 C 
HETATM    2  O10 UNL     1     -34.785  17.520   0.416  1.00 20.00    -0.297 OA
ENDROOT
BRANCH   1   3
HETATM    3  C5  UNL     1     -32.764  18.625  -0.141  1.00 20.00     0.081 C 
HETATM    4  C2  UNL     1     -32.215  18.325   1.240  1.00 20.00     0.040 C 
HETATM    5  C3  UNL     1     -30.777  18.769   1.106  1.00 20.00     0.168 C 
HETATM    6  O11 UNL     1     -30.390  18.491  -0.246  1.00 20.00    -0.390 OA
HETATM    7  C4  UNL     1     -31.578  18.268  -1.024  1.00 20.00     0.179 C 
ENDBRANCH   1   3
BRANCH   1   8
HETATM    8  C8  UNL     1     -34.268  17.623  -1.947  1.00 20.00     0.082 C 
BRANCH   8   9
HETATM    9  C9  UNL     1     -34.180  16.143  -2.349  1.00 20.00    -0.016 C 
HETATM   10  C6  UNL     1     -33.123  15.920  -3.433  1.00 20.00     0.010 C 
HETATM   11  C7  UNL     1     -35.541  15.655  -2.848  1.00 20.00     0.010 C 
ENDBRANCH   8   9
ENDBRANCH   1   8
TORSDOF 3
ENDMDL
MODEL 8
REMARK VINA RESULT:      -4.2     11.255     12.337
REMARK  3 active torsions:
REMARK  status: ('A' for Active; 'I' for Inactive)
REMARK    1  A    between atoms: C1_1  and  C5_5 
REMARK    2  A    between atoms: C1_1  and  C8_8 
REMARK    3  A    between atoms: C8_8  and  C9_9 
ROOT
HETATM    1  C1  UNL     1     -33.677  15.288  -3.903  1.00 20.00     0.133 C 
HETATM    2  O10 UNL     1     -32.602  14.744  -4.153  1.00 20.00    -0.297 OA
ENDROOT
BRANCH   1   3
HETATM    3  C5  UNL     1     -34.783  15.290  -4.901  1.00 20.00     0.081 C 
HETATM    4  C2  UNL     1     -34.309  15.283  -6.341  1.00 20.00     0.040 C 
HETATM    5  C3  UNL     1     -35.533  14.777  -7.068  1.00 20.00     0.168 C 
HETATM    6  O11 UNL     1     -36.177  13.850  -6.184  1.00 20.00    -0.390 OA
HETATM    7  C4  UNL     1     -35.652  14.042  -4.860  1.00 20.00     0.179 C 
ENDBRANCH   1   3
BRANCH   1   8
HETATM    8  C8  UNL     1     -33.948  16.025  -2.600  1.00 20.00     0.082 C 
BRANCH   8   9
HETATM    9  C9  UNL     1     -32.978  17.186  -2.332  1.00 20.00    -0.016 C 
HETATM   10  C6  UNL     1     -33.330  17.920  -1.036  1.00 20.00     0.010 C 
HETATM   11  C7  UNL     1     -33.001  18.169  -3.503  1.00 20.00     0.010 C 
ENDBRANCH   8   9
ENDBRANCH   1   8
TORSDOF 3
ENDMDL
MODEL 9
REMARK VINA RESULT:      -4.1     10.653     11.506
REMARK  3 active torsions:
REMARK  status: ('A' for Active; 'I' for Inactive)
REMARK    1  A    between atoms: C1_1  and  C5_5 
REMARK    2  A    between atoms: C1_1  and  C8_8 
REMARK    3  A    between atoms: C8_8  and  C9_9 
ROOT
HETATM    1  C1  UNL     1     -33.997  14.769  -4.014  1.00 20.00     0.133 C 
HETATM    2  O10 UNL     1     -32.959  14.540  -4.632  1.00 20.00    -0.297 OA
ENDROOT
BRANCH   1   3
HETATM    3  C5  UNL     1     -34.209  16.075  -3.329  1.00 20.00     0.081 C 
HETATM    4  C2  UNL     1     -34.995  15.967  -2.037  1.00 20.00     0.040 C 
HETATM    5  C3  UNL     1     -34.619  17.253  -1.337  1.00 20.00     0.168 C 
HETATM    6  O11 UNL     1     -33.263  17.535  -1.705  1.00 20.00    -0.390 OA
HETATM    7  C4  UNL     1     -32.925  16.735  -2.850  1.00 20.00     0.179 C 
ENDBRANCH   1   3
BRANCH   1   8
HETATM    8  C8  UNL     1     -35.112  13.745  -3.862  1.00 20.00     0.082 C 
BRANCH   8   9
HETATM    9  C9  UNL     1     -36.200  13.847  -4.942  1.00 20.00    -0.016 C 
HETATM   10  C6  UNL     1     -35.706  14.625  -6.163  1.00 20.00     0.010 C 
HETATM   11  C7  UNL     1     -37.445  14.525  -4.367  1.00 20.00     0.010 C 
ENDBRANCH   8   9
ENDBRANCH   1   8
TORSDOF 3
ENDMDL
