MODEL 1
REMARK VINA RESULT:      -4.0      0.000      0.000
REMARK  2 active torsions:
REMARK  status: ('A' for Active; 'I' for Inactive)
REMARK    1  A    between atoms: C5_5  and  N8_8 
REMARK    2  A    between atoms: C6_6  and  N8_8 
ROOT
HETATM    1  N8  UNL     1     -25.173  18.202   9.739  1.00 20.00     0.097 N 
HETATM    2  H22 UNL     1     -26.141  18.314   9.449  1.00 20.00     0.317 HD
ENDROOT
BRANCH   1   3
HETATM    3  C5  UNL     1     -25.094  18.379  11.193  1.00 20.00     0.225 A 
HETATM    4  C1  UNL     1     -26.192  17.861  12.085  1.00 20.00     0.042 A 
HETATM    5  C4  UNL     1     -24.827  17.230  12.133  1.00 20.00     0.016 A 
HETATM    6  C7  UNL     1     -24.632  15.832  11.652  1.00 20.00     0.012 C 
ENDBRANCH   1   3
BRANCH   1   7
HETATM    7  C6  UNL     1     -24.341  19.179   9.059  1.00 20.00     0.268 C 
HETATM    8  C2  UNL     1     -24.447  18.949   7.552  1.00 20.00     0.205 C 
HETATM    9  O9  UNL     1     -23.199  18.211   7.538  1.00 20.00    -0.387 OA
HETATM   10  C3  UNL     1     -22.933  18.605   8.908  1.00 20.00     0.205 C 
ENDBRANCH   1   7
TORSDOF 2
ENDMDL
MODEL 2
REMARK VINA RESULT:      -4.0      1.339      2.131
REMARK  2 active torsions:
REMARK  status: ('A' for Active; 'I' for Inactive)
REMARK    1  A    between atoms: C5_5  and  N8_8 
REMARK    2  A    between atoms: C6_6  and  N8_8 
ROOT
HETATM    1  N8  UNL     1     -23.564  16.732  10.032  1.00 20.00     0.097 N 
HETATM    2  H22 UNL     1     -24.469  17.067   9.711  1.00 20.00     0.317 HD
ENDROOT
BRANCH   1   3
HETATM    3  C5  UNL     1     -23.579  16.667  11.497  1.00 20.00     0.225 A 
HETATM    4  C1  UNL     1     -23.033  17.808  12.316  1.00 20.00     0.042 A 
HETATM    5  C4  UNL     1     -24.509  17.513  12.332  1.00 20.00     0.016 A 
HETATM    6  C7  UNL     1     -25.471  18.478  11.728  1.00 20.00     0.012 C 
ENDBRANCH   1   3
BRANCH   1   7
HETATM    7  C6  UNL     1     -22.518  17.627   9.570  1.00 20.00     0.268 C 
HETATM    8  C2  UNL     1     -23.162  18.770   8.785  1.00 20.00     0.205 C 
HETATM    9  O9  UNL     1     -22.856  18.125   7.522  1.00 20.00    -0.387 OA
HETATM   10  C3  UNL     1     -22.029  17.148   8.204  1.00 20.00     0.205 C 
ENDBRANCH   1   7
TORSDOF 2
ENDMDL
MODEL 3
REMARK VINA RESULT:      -4.0      2.223      4.289
REMARK  2 active torsions:
REMARK  status: ('A' for Active; 'I' for Inactive)
REMARK    1  A    between atoms: C5_5  and  N8_8 
REMARK    2  A    between atoms: C6_6  and  N8_8 
ROOT
HETATM    1  N8  UNL     1     -23.122  16.609  10.502  1.00 20.00     0.097 N 
HETATM    2  H22 UNL     1     -22.514  15.824  10.286  1.00 20.00     0.317 HD
ENDROOT
BRANCH   1   3
HETATM    3  C5  UNL     1     -22.379  17.854  10.284  1.00 20.00     0.225 A 
HETATM    4  C1  UNL     1     -21.448  17.991   9.108  1.00 20.00     0.042 A 
HETATM    5  C4  UNL     1     -22.712  18.806   9.161  1.00 20.00     0.016 A 
HETATM    6  C7  UNL     1     -23.813  18.544   8.190  1.00 20.00     0.012 C 
ENDBRANCH   1   3
BRANCH   1   7
HETATM    7  C6  UNL     1     -23.570  16.515  11.881  1.00 20.00     0.268 C 
HETATM    8  C2  UNL     1     -25.049  16.130  11.891  1.00 20.00     0.205 C 
HETATM    9  O9  UNL     1     -25.446  17.510  12.092  1.00 20.00    -0.387 OA
HETATM   10  C3  UNL     1     -24.066  17.889  12.330  1.00 20.00     0.205 C 
ENDBRANCH   1   7
TORSDOF 2
ENDMDL
MODEL 4
REMARK VINA RESULT:      -4.0     16.489     17.987
REMARK  2 active torsions:
REMARK  status: ('A' for Active; 'I' for Inactive)
REMARK    1  A    between atoms: C5_5  and  N8_8 
REMARK    2  A    between atoms: C6_6  and  N8_8 
ROOT
HETATM    1  N8  UNL     1     -36.046  15.536  -3.004  1.00 20.00     0.097 N 
HETATM    2  H22 UNL     1     -36.305  16.462  -2.673  1.00 20.00     0.317 HD
ENDROOT
BRANCH   1   3
HETATM    3  C5  UNL     1     -34.586  15.411  -2.960  1.00 20.00     0.225 A 
HETATM    4  C1  UNL     1     -33.717  16.318  -3.794  1.00 20.00     0.042 A 
HETATM    5  C4  UNL     1     -33.707  16.441  -2.294  1.00 20.00     0.016 A 
HETATM    6  C7  UNL     1     -34.261  17.662  -1.640  1.00 20.00     0.012 C 
ENDBRANCH   1   3
BRANCH   1   7
HETATM    7  C6  UNL     1     -36.536  15.346  -4.358  1.00 20.00     0.268 C 
HETATM    8  C2  UNL     1     -38.048  15.131  -4.307  1.00 20.00     0.205 C 
HETATM    9  O9  UNL     1     -37.885  13.693  -4.405  1.00 20.00    -0.387 OA
HETATM   10  C3  UNL     1     -36.474  13.857  -4.698  1.00 20.00     0.205 C 
ENDBRANCH   1   7
TORSDOF 2
ENDMDL
MODEL 5
REMARK VINA RESULT:      -3.8      1.841      4.083
REMARK  2 active torsions:
REMARK  status: ('A' for Active; 'I' for Inactive)
REMARK    1  A    between atoms: C5_5  and  N8_8 
REMARK    2  A    between atoms: C6_6  and  N8_8 
ROOT
HETATM    1  N8  UNL     1     -25.027  17.604  10.042  1.00 20.00     0.097 N 
HETATM    2  H22 UNL     1     -24.866  16.677   9.657  1.00 20.00     0.317 HD
ENDROOT
BRANCH   1   3
HETATM    3  C5  UNL     1     -24.046  18.529   9.466  1.00 20.00     0.225 A 
HETATM    4  C1  UNL     1     -23.278  18.153   8.226  1.00 20.00     0.042 A 
HETATM    5  C4  UNL     1     -24.292  19.263   8.171  1.00 20.00     0.016 A 
HETATM    6  C7  UNL     1     -25.546  19.093   7.381  1.00 20.00     0.012 C 
ENDBRANCH   1   3
BRANCH   1   7
HETATM    7  C6  UNL     1     -24.902  17.562  11.489  1.00 20.00     0.268 C 
HETATM    8  C2  UNL     1     -23.429  17.729  11.859  1.00 20.00     0.205 C 
HETATM    9  O9  UNL     1     -23.269  16.298  12.029  1.00 20.00    -0.387 OA
HETATM   10  C3  UNL     1     -24.703  16.110  11.922  1.00 20.00     0.205 C 
ENDBRANCH   1   7
TORSDOF 2
ENDMDL
MODEL 6
REMARK VINA RESULT:      -3.7     16.235     17.513
REMARK  2 active torsions:
REMARK  status: ('A' for Active; 'I' for Inactive)
REMARK    1  A    between atoms: C5_5  and  N8_8 
REMARK    2  A    between atoms: C6_6  and  N8_8 
ROOT
HETATM    1  N8  UNL     1     -35.734  15.696  -3.642  1.00 20.00     0.097 N 
HETATM    2  H22 UNL     1     -35.789  16.653  -3.979  1.00 20.00     0.317 HD
ENDROOT
BRANCH   1   3
HETATM    3  C5  UNL     1     -34.917  15.671  -2.425  1.00 20.00     0.225 A 
HETATM    4  C1  UNL     1     -33.847  16.708  -2.203  1.00 20.00     0.042 A 
HETATM    5  C4  UNL     1     -35.071  16.696  -1.329  1.00 20.00     0.016 A 
HETATM    6  C7  UNL     1     -36.058  17.810  -1.409  1.00 20.00     0.012 C 
ENDBRANCH   1   3
BRANCH   1   7
HETATM    7  C6  UNL     1     -35.150  14.849  -4.668  1.00 20.00     0.268 C 
HETATM    8  C2  UNL     1     -36.258  14.004  -5.296  1.00 20.00     0.205 C 
HETATM    9  O9  UNL     1     -35.906  12.863  -4.472  1.00 20.00    -0.387 OA
HETATM   10  C3  UNL     1     -34.703  13.537  -4.025  1.00 20.00     0.205 C 
ENDBRANCH   1   7
TORSDOF 2
ENDMDL
MODEL 7
REMARK VINA RESULT:      -3.7      2.304      4.241
REMARK  2 active torsions:
REMARK  status: ('A' for Active; 'I' for Inactive)
REMARK    1  A    between atoms: C5_5  and  N8_8 
REMARK    2  A    between atoms: C6_6  and  N8_8 
ROOT
HETATM    1  N8  UNL     1     -24.995  17.515  10.615  1.00 20.00     0.097 N 
HETATM    2  H22 UNL     1     -24.942  16.501  10.559  1.00 20.00     0.317 HD
ENDROOT
BRANCH   1   3
HETATM    3  C5  UNL     1     -23.695  18.076  10.231  1.00 20.00     0.225 A 
HETATM    4  C1  UNL     1     -22.915  17.481   9.087  1.00 20.00     0.042 A 
HETATM    5  C4  UNL     1     -23.500  18.862   8.958  1.00 20.00     0.016 A 
HETATM    6  C7  UNL     1     -24.612  19.117   7.997  1.00 20.00     0.012 C 
ENDBRANCH   1   3
BRANCH   1   7
HETATM    7  C6  UNL     1     -25.344  17.913  11.967  1.00 20.00     0.268 C 
HETATM    8  C2  UNL     1     -26.688  17.284  12.332  1.00 20.00     0.205 C 
HETATM    9  O9  UNL     1     -27.390  18.516  12.029  1.00 20.00    -0.387 OA
HETATM   10  C3  UNL     1     -26.129  19.222  11.906  1.00 20.00     0.205 C 
ENDBRANCH   1   7
TORSDOF 2
ENDMDL
MODEL 8
REMARK VINA RESULT:      -3.6     16.789     18.294
REMARK  2 active torsions:
REMARK  status: ('A' for Active; 'I' for Inactive)
REMARK    1  A    between atoms: C5_5  and  N8_8 
REMARK    2  A    between atoms: C6_6  and  N8_8 
ROOT
HETATM    1  N8  UNL     1     -34.082  16.059  -5.249  1.00 20.00     0.097 N 
HETATM    2  H22 UNL     1     -33.411  16.689  -5.681  1.00 20.00     0.317 HD
ENDROOT
BRANCH   1   3
HETATM    3  C5  UNL     1     -33.531  15.589  -3.973  1.00 20.00     0.225 A 
HETATM    4  C1  UNL     1     -33.044  16.575  -2.943  1.00 20.00     0.042 A 
HETATM    5  C4  UNL     1     -34.271  15.748  -2.668  1.00 20.00     0.016 A 
HETATM    6  C7  UNL     1     -35.609  16.400  -2.581  1.00 20.00     0.012 C 
ENDBRANCH   1   3
BRANCH   1   7
HETATM    7  C6  UNL     1     -34.345  14.940  -6.136  1.00 20.00     0.268 C 
HETATM    8  C2  UNL     1     -34.993  15.469  -7.415  1.00 20.00     0.205 C 
HETATM    9  O9  UNL     1     -36.315  15.111  -6.938  1.00 20.00    -0.387 OA
HETATM   10  C3  UNL     1     -35.734  14.384  -5.826  1.00 20.00     0.205 C 
ENDBRANCH   1   7
TORSDOF 2
ENDMDL
MODEL 9
REMARK VINA RESULT:      -3.5      1.795      2.532
REMARK  2 active torsions:
REMARK  status: ('A' for Active; 'I' for Inactive)
REMARK    1  A    between atoms: C5_5  and  N8_8 
REMARK    2  A    between atoms: C6_6  and  N8_8 
ROOT
HETATM    1  N8  UNL     1     -25.012  18.083   8.894  1.00 20.00     0.097 N 
HETATM    2  H22 UNL     1     -25.840  17.588   9.215  1.00 20.00     0.317 HD
ENDROOT
BRANCH   1   3
HETATM    3  C5  UNL     1     -24.210  18.464  10.060  1.00 20.00     0.225 A 
HETATM    4  C1  UNL     1     -23.776  17.425  11.061  1.00 20.00     0.042 A 
HETATM    5  C4  UNL     1     -22.751  18.099  10.191  1.00 20.00     0.016 A 
HETATM    6  C7  UNL     1     -22.026  17.319   9.148  1.00 20.00     0.012 C 
ENDBRANCH   1   3
BRANCH   1   7
HETATM    7  C6  UNL     1     -25.407  19.259   8.138  1.00 20.00     0.268 C 
HETATM    8  C2  UNL     1     -26.628  18.908   7.288  1.00 20.00     0.205 C 
HETATM    9  O9  UNL     1     -25.801  18.709   6.114  1.00 20.00    -0.387 OA
HETATM   10  C3  UNL     1     -24.655  19.263   6.808  1.00 20.00     0.205 C 
ENDBRANCH   1   7
TORSDOF 2
ENDMDL
