MODEL 1
REMARK VINA RESULT:      -4.5      0.000      0.000
REMARK  4 active torsions:
REMARK  status: ('A' for Active; 'I' for Inactive)
REMARK    1  A    between atoms: C5_5  and  C9_9 
REMARK    2  A    between atoms: C7_7  and  C8_8 
REMARK    3  A    between atoms: C8_8  and  C9_9 
REMARK    4  A    between atoms: C9_9  and  O10_10 
ROOT
HETATM    1  C1  UNL     1     -35.142  16.460  -1.522  1.00 20.00     0.012 C 
HETATM    2  C2  UNL     1     -34.300  16.264  -2.355  1.00 20.00    -0.117 C 
HETATM    3  C7  UNL     1     -33.267  16.029  -3.376  1.00 20.00     0.096 C 
ENDROOT
BRANCH   3   4
HETATM    4  C8  UNL     1     -33.603  14.792  -4.220  1.00 20.00     0.050 C 
BRANCH   4   5
HETATM    5  C9  UNL     1     -34.225  15.107  -5.598  1.00 20.00     0.059 C 
HETATM    6  C6  UNL     1     -34.364  16.591  -5.832  1.00 20.00     0.046 C 
BRANCH   5   7
HETATM    7  C5  UNL     1     -35.597  14.427  -5.702  1.00 20.00     0.019 A 
HETATM    8  C3  UNL     1     -36.130  13.616  -4.553  1.00 20.00     0.008 A 
HETATM    9  C4  UNL     1     -36.758  14.938  -4.895  1.00 20.00     0.008 A 
ENDBRANCH   5   7
BRANCH   5  10
HETATM   10  O10 UNL     1     -33.384  14.552  -6.612  1.00 20.00    -0.390 OA
HETATM   11  H24 UNL     1     -33.211  13.635  -6.350  1.00 20.00     0.210 HD
ENDBRANCH   5  10
ENDBRANCH   4   5
ENDBRANCH   3   4
TORSDOF 4
ENDMDL
MODEL 2
REMARK VINA RESULT:      -4.5     11.774     12.763
REMARK  4 active torsions:
REMARK  status: ('A' for Active; 'I' for Inactive)
REMARK    1  A    between atoms: C5_5  and  C9_9 
REMARK    2  A    between atoms: C7_7  and  C8_8 
REMARK    3  A    between atoms: C8_8  and  C9_9 
REMARK    4  A    between atoms: C9_9  and  O10_10 
ROOT
HETATM    1  C1  UNL     1     -32.631   8.385   0.715  1.00 20.00     0.012 C 
HETATM    2  C2  UNL     1     -32.623   7.710   1.709  1.00 20.00    -0.117 C 
HETATM    3  C7  UNL     1     -32.610   6.887   2.928  1.00 20.00     0.096 C 
ENDROOT
BRANCH   3   4
HETATM    4  C8  UNL     1     -33.364   5.569   2.706  1.00 20.00     0.050 C 
BRANCH   4   5
HETATM    5  C9  UNL     1     -34.291   5.158   3.871  1.00 20.00     0.059 C 
HETATM    6  C6  UNL     1     -35.692   5.692   3.697  1.00 20.00     0.046 C 
BRANCH   5   7
HETATM    7  C5  UNL     1     -33.697   5.661   5.194  1.00 20.00     0.019 A 
HETATM    8  C3  UNL     1     -34.165   6.960   5.789  1.00 20.00     0.008 A 
HETATM    9  C4  UNL     1     -34.529   5.658   6.446  1.00 20.00     0.008 A 
ENDBRANCH   5   7
BRANCH   5  10
HETATM   10  O10 UNL     1     -34.341   3.731   3.929  1.00 20.00    -0.390 OA
HETATM   11  H24 UNL     1     -35.276   3.495   4.019  1.00 20.00     0.210 HD
ENDBRANCH   5  10
ENDBRANCH   4   5
ENDBRANCH   3   4
TORSDOF 4
ENDMDL
MODEL 3
REMARK VINA RESULT:      -4.2      1.079      1.311
REMARK  4 active torsions:
REMARK  status: ('A' for Active; 'I' for Inactive)
REMARK    1  A    between atoms: C5_5  and  C9_9 
REMARK    2  A    between atoms: C7_7  and  C8_8 
REMARK    3  A    between atoms: C8_8  and  C9_9 
REMARK    4  A    between atoms: C9_9  and  O10_10 
ROOT
HETATM    1  C1  UNL     1     -35.004  16.959  -1.037  1.00 20.00     0.012 C 
HETATM    2  C2  UNL     1     -34.200  16.696  -1.889  1.00 20.00    -0.117 C 
HETATM    3  C7  UNL     1     -33.212  16.375  -2.930  1.00 20.00     0.096 C 
ENDROOT
BRANCH   3   4
HETATM    4  C8  UNL     1     -33.862  16.374  -4.320  1.00 20.00     0.050 C 
BRANCH   4   5
HETATM    5  C9  UNL     1     -34.006  14.975  -4.959  1.00 20.00     0.059 C 
HETATM    6  C6  UNL     1     -34.417  15.052  -6.409  1.00 20.00     0.046 C 
BRANCH   5   7
HETATM    7  C5  UNL     1     -35.032  14.157  -4.164  1.00 20.00     0.019 A 
HETATM    8  C3  UNL     1     -36.416  14.699  -3.931  1.00 20.00     0.008 A 
HETATM    9  C4  UNL     1     -36.210  13.537  -4.862  1.00 20.00     0.008 A 
ENDBRANCH   5   7
BRANCH   5  10
HETATM   10  O10 UNL     1     -32.747  14.303  -4.867  1.00 20.00    -0.390 OA
HETATM   11  H24 UNL     1     -32.846  13.471  -5.353  1.00 20.00     0.210 HD
ENDBRANCH   5  10
ENDBRANCH   4   5
ENDBRANCH   3   4
TORSDOF 4
ENDMDL
MODEL 4
REMARK VINA RESULT:      -4.1      1.492      2.299
REMARK  4 active torsions:
REMARK  status: ('A' for Active; 'I' for Inactive)
REMARK    1  A    between atoms: C5_5  and  C9_9 
REMARK    2  A    between atoms: C7_7  and  C8_8 
REMARK    3  A    between atoms: C8_8  and  C9_9 
REMARK    4  A    between atoms: C9_9  and  O10_10 
ROOT
HETATM    1  C1  UNL     1     -35.569  17.309  -0.331  1.00 20.00     0.012 C 
HETATM    2  C2  UNL     1     -34.970  16.792  -1.234  1.00 20.00    -0.117 C 
HETATM    3  C7  UNL     1     -34.233  16.162  -2.341  1.00 20.00     0.096 C 
ENDROOT
BRANCH   3   4
HETATM    4  C8  UNL     1     -35.127  15.171  -3.099  1.00 20.00     0.050 C 
BRANCH   4   5
HETATM    5  C9  UNL     1     -34.410  14.395  -4.226  1.00 20.00     0.059 C 
HETATM    6  C6  UNL     1     -32.924  14.656  -4.239  1.00 20.00     0.046 C 
BRANCH   5   7
HETATM    7  C5  UNL     1     -35.023  14.783  -5.579  1.00 20.00     0.019 A 
HETATM    8  C3  UNL     1     -34.888  16.188  -6.097  1.00 20.00     0.008 A 
HETATM    9  C4  UNL     1     -34.136  15.066  -6.758  1.00 20.00     0.008 A 
ENDBRANCH   5   7
BRANCH   5  10
HETATM   10  O10 UNL     1     -34.636  12.998  -4.028  1.00 20.00    -0.390 OA
HETATM   11  H24 UNL     1     -34.402  12.812  -3.107  1.00 20.00     0.210 HD
ENDBRANCH   5  10
ENDBRANCH   4   5
ENDBRANCH   3   4
TORSDOF 4
ENDMDL
MODEL 5
REMARK VINA RESULT:      -4.1      1.708      2.193
REMARK  4 active torsions:
REMARK  status: ('A' for Active; 'I' for Inactive)
REMARK    1  A    between atoms: C5_5  and  C9_9 
REMARK    2  A    between atoms: C7_7  and  C8_8 
REMARK    3  A    between atoms: C8_8  and  C9_9 
REMARK    4  A    between atoms: C9_9  and  O10_10 
ROOT
HETATM    1  C1  UNL     1     -33.014  17.233  -2.229  1.00 20.00     0.012 C 
HETATM    2  C2  UNL     1     -33.261  16.360  -3.017  1.00 20.00    -0.117 C 
HETATM    3  C7  UNL     1     -33.561  15.293  -3.984  1.00 20.00     0.096 C 
ENDROOT
BRANCH   3   4
HETATM    4  C8  UNL     1     -34.756  14.451  -3.517  1.00 20.00     0.050 C 
BRANCH   4   5
HETATM    5  C9  UNL     1     -35.794  14.146  -4.620  1.00 20.00     0.059 C 
HETATM    6  C6  UNL     1     -35.341  14.630  -5.976  1.00 20.00     0.046 C 
BRANCH   5   7
HETATM    7  C5  UNL     1     -37.134  14.797  -4.250  1.00 20.00     0.019 A 
HETATM    8  C3  UNL     1     -37.180  16.230  -3.796  1.00 20.00     0.008 A 
HETATM    9  C4  UNL     1     -37.735  15.848  -5.141  1.00 20.00     0.008 A 
ENDBRANCH   5   7
BRANCH   5  10
HETATM   10  O10 UNL     1     -35.994  12.731  -4.673  1.00 20.00    -0.390 OA
HETATM   11  H24 UNL     1     -36.731  12.539  -4.074  1.00 20.00     0.210 HD
ENDBRANCH   5  10
ENDBRANCH   4   5
ENDBRANCH   3   4
TORSDOF 4
ENDMDL
MODEL 6
REMARK VINA RESULT:      -4.0     10.922     13.012
REMARK  4 active torsions:
REMARK  status: ('A' for Active; 'I' for Inactive)
REMARK    1  A    between atoms: C5_5  and  C9_9 
REMARK    2  A    between atoms: C7_7  and  C8_8 
REMARK    3  A    between atoms: C8_8  and  C9_9 
REMARK    4  A    between atoms: C9_9  and  O10_10 
ROOT
HETATM    1  C1  UNL     1     -41.996   2.860  -3.332  1.00 20.00     0.012 C 
HETATM    2  C2  UNL     1     -42.312   3.701  -2.535  1.00 20.00    -0.117 C 
HETATM    3  C7  UNL     1     -42.702   4.731  -1.559  1.00 20.00     0.096 C 
ENDROOT
BRANCH   3   4
HETATM    4  C8  UNL     1     -41.467   5.430  -0.978  1.00 20.00     0.050 C 
BRANCH   4   5
HETATM    5  C9  UNL     1     -41.777   6.463   0.128  1.00 20.00     0.059 C 
HETATM    6  C6  UNL     1     -42.954   6.050   0.976  1.00 20.00     0.046 C 
BRANCH   5   7
HETATM    7  C5  UNL     1     -42.045   7.830  -0.516  1.00 20.00     0.019 A 
HETATM    8  C3  UNL     1     -43.008   8.792   0.124  1.00 20.00     0.008 A 
HETATM    9  C4  UNL     1     -41.533   9.085   0.134  1.00 20.00     0.008 A 
ENDBRANCH   5   7
BRANCH   5  10
HETATM   10  O10 UNL     1     -40.623   6.592   0.963  1.00 20.00    -0.390 OA
HETATM   11  H24 UNL     1     -39.860   6.367   0.409  1.00 20.00     0.210 HD
ENDBRANCH   5  10
ENDBRANCH   4   5
ENDBRANCH   3   4
TORSDOF 4
ENDMDL
MODEL 7
REMARK VINA RESULT:      -3.9      1.317      3.508
REMARK  4 active torsions:
REMARK  status: ('A' for Active; 'I' for Inactive)
REMARK    1  A    between atoms: C5_5  and  C9_9 
REMARK    2  A    between atoms: C7_7  and  C8_8 
REMARK    3  A    between atoms: C8_8  and  C9_9 
REMARK    4  A    between atoms: C9_9  and  O10_10 
ROOT
HETATM    1  C1  UNL     1     -37.266  16.766  -6.022  1.00 20.00     0.012 C 
HETATM    2  C2  UNL     1     -36.480  15.872  -6.175  1.00 20.00    -0.117 C 
HETATM    3  C7  UNL     1     -35.518  14.773  -6.362  1.00 20.00     0.096 C 
ENDROOT
BRANCH   3   4
HETATM    4  C8  UNL     1     -34.130  15.167  -5.843  1.00 20.00     0.050 C 
BRANCH   4   5
HETATM    5  C9  UNL     1     -33.762  14.558  -4.472  1.00 20.00     0.059 C 
HETATM    6  C6  UNL     1     -34.879  13.715  -3.907  1.00 20.00     0.046 C 
BRANCH   5   7
HETATM    7  C5  UNL     1     -33.409  15.687  -3.494  1.00 20.00     0.019 A 
HETATM    8  C3  UNL     1     -34.150  16.995  -3.547  1.00 20.00     0.008 A 
HETATM    9  C4  UNL     1     -34.361  16.057  -2.391  1.00 20.00     0.008 A 
ENDBRANCH   5   7
BRANCH   5  10
HETATM   10  O10 UNL     1     -32.600  13.743  -4.635  1.00 20.00    -0.390 OA
HETATM   11  H24 UNL     1     -32.798  13.129  -5.359  1.00 20.00     0.210 HD
ENDBRANCH   5  10
ENDBRANCH   4   5
ENDBRANCH   3   4
TORSDOF 4
ENDMDL
MODEL 8
REMARK VINA RESULT:      -3.8      1.669      3.801
REMARK  4 active torsions:
REMARK  status: ('A' for Active; 'I' for Inactive)
REMARK    1  A    between atoms: C5_5  and  C9_9 
REMARK    2  A    between atoms: C7_7  and  C8_8 
REMARK    3  A    between atoms: C8_8  and  C9_9 
REMARK    4  A    between atoms: C9_9  and  O10_10 
ROOT
HETATM    1  C1  UNL     1     -34.588  17.632  -7.632  1.00 20.00     0.012 C 
HETATM    2  C2  UNL     1     -35.311  16.837  -7.096  1.00 20.00    -0.117 C 
HETATM    3  C7  UNL     1     -36.200  15.866  -6.439  1.00 20.00     0.096 C 
ENDROOT
BRANCH   3   4
HETATM    4  C8  UNL     1     -35.421  14.618  -6.003  1.00 20.00     0.050 C 
BRANCH   4   5
HETATM    5  C9  UNL     1     -35.772  14.105  -4.589  1.00 20.00     0.059 C 
HETATM    6  C6  UNL     1     -37.000  14.780  -4.029  1.00 20.00     0.046 C 
BRANCH   5   7
HETATM    7  C5  UNL     1     -34.575  14.331  -3.656  1.00 20.00     0.019 A 
HETATM    8  C3  UNL     1     -33.434  15.212  -4.087  1.00 20.00     0.008 A 
HETATM    9  C4  UNL     1     -34.369  15.669  -3.001  1.00 20.00     0.008 A 
ENDBRANCH   5   7
BRANCH   5  10
HETATM   10  O10 UNL     1     -36.008  12.697  -4.664  1.00 20.00    -0.390 OA
HETATM   11  H24 UNL     1     -36.446  12.540  -5.514  1.00 20.00     0.210 HD
ENDBRANCH   5  10
ENDBRANCH   4   5
ENDBRANCH   3   4
TORSDOF 4
ENDMDL
MODEL 9
REMARK VINA RESULT:      -3.7      1.466      3.365
REMARK  4 active torsions:
REMARK  status: ('A' for Active; 'I' for Inactive)
REMARK    1  A    between atoms: C5_5  and  C9_9 
REMARK    2  A    between atoms: C7_7  and  C8_8 
REMARK    3  A    between atoms: C8_8  and  C9_9 
REMARK    4  A    between atoms: C9_9  and  O10_10 
ROOT
HETATM    1  C1  UNL     1     -37.405  17.887  -4.595  1.00 20.00     0.012 C 
HETATM    2  C2  UNL     1     -36.819  16.940  -5.042  1.00 20.00    -0.117 C 
HETATM    3  C7  UNL     1     -36.104  15.776  -5.590  1.00 20.00     0.096 C 
ENDROOT
BRANCH   3   4
HETATM    4  C8  UNL     1     -34.585  15.986  -5.523  1.00 20.00     0.050 C 
BRANCH   4   5
HETATM    5  C9  UNL     1     -33.846  15.010  -4.581  1.00 20.00     0.059 C 
HETATM    6  C6  UNL     1     -34.774  13.979  -3.989  1.00 20.00     0.046 C 
BRANCH   5   7
HETATM    7  C5  UNL     1     -33.163  15.807  -3.461  1.00 20.00     0.019 A 
HETATM    8  C3  UNL     1     -33.343  17.297  -3.373  1.00 20.00     0.008 A 
HETATM    9  C4  UNL     1     -33.980  16.401  -2.348  1.00 20.00     0.008 A 
ENDBRANCH   5   7
BRANCH   5  10
HETATM   10  O10 UNL     1     -32.825  14.345  -5.329  1.00 20.00    -0.390 OA
HETATM   11  H24 UNL     1     -33.216  14.128  -6.188  1.00 20.00     0.210 HD
ENDBRANCH   5  10
ENDBRANCH   4   5
ENDBRANCH   3   4
TORSDOF 4
ENDMDL
