MODEL 1
REMARK VINA RESULT:      -4.7      0.000      0.000
REMARK  4 active torsions:
REMARK  status: ('A' for Active; 'I' for Inactive)
REMARK    1  A    between atoms: C3_3  and  C9_9 
REMARK    2  A    between atoms: C6_6  and  C8_8 
REMARK    3  A    between atoms: C7_7  and  C9_9 
REMARK    4  A    between atoms: C8_8  and  C9_9 
ROOT
HETATM    1  C1  UNL     1     -35.083  16.422  -1.641  1.00 20.00     0.012 C 
HETATM    2  C2  UNL     1     -34.273  16.131  -2.479  1.00 20.00    -0.117 C 
HETATM    3  C6  UNL     1     -33.280  15.779  -3.503  1.00 20.00     0.093 C 
ENDROOT
BRANCH   3   4
HETATM    4  C8  UNL     1     -33.768  14.607  -4.362  1.00 20.00     0.024 C 
BRANCH   4   5
HETATM    5  C9  UNL     1     -35.149  14.875  -4.987  1.00 20.00     0.055 C 
BRANCH   5   6
HETATM    6  C3  UNL     1     -36.177  13.818  -4.578  1.00 20.00     0.127 C 
HETATM    7  C4  UNL     1     -37.574  14.304  -4.283  1.00 20.00     0.091 C 
HETATM    8  O10 UNL     1     -35.902  12.619  -4.515  1.00 20.00    -0.298 OA
ENDBRANCH   5   6
BRANCH   5   9
HETATM    9  C7  UNL     1     -35.089  14.992  -6.521  1.00 20.00     0.007 C 
HETATM   10  C5  UNL     1     -33.683  15.045  -7.106  1.00 20.00     0.006 C 
ENDBRANCH   5   9
ENDBRANCH   4   5
ENDBRANCH   3   4
TORSDOF 4
ENDMDL
MODEL 2
REMARK VINA RESULT:      -4.5     11.080     11.824
REMARK  4 active torsions:
REMARK  status: ('A' for Active; 'I' for Inactive)
REMARK    1  A    between atoms: C3_3  and  C9_9 
REMARK    2  A    between atoms: C6_6  and  C8_8 
REMARK    3  A    between atoms: C7_7  and  C9_9 
REMARK    4  A    between atoms: C8_8  and  C9_9 
ROOT
HETATM    1  C1  UNL     1     -32.947   9.481   0.706  1.00 20.00     0.012 C 
HETATM    2  C2  UNL     1     -32.753   8.385   1.158  1.00 20.00    -0.117 C 
HETATM    3  C6  UNL     1     -32.515   7.043   1.707  1.00 20.00     0.093 C 
ENDROOT
BRANCH   3   4
HETATM    4  C8  UNL     1     -32.587   7.054   3.238  1.00 20.00     0.024 C 
BRANCH   4   5
HETATM    5  C9  UNL     1     -33.917   6.484   3.764  1.00 20.00     0.055 C 
BRANCH   5   6
HETATM    6  C3  UNL     1     -33.970   6.475   5.294  1.00 20.00     0.127 C 
HETATM    7  C4  UNL     1     -34.772   5.374   5.941  1.00 20.00     0.091 C 
HETATM    8  O10 UNL     1     -33.370   7.303   5.980  1.00 20.00    -0.298 OA
ENDBRANCH   5   6
BRANCH   5   9
HETATM    9  C7  UNL     1     -34.213   5.077   3.215  1.00 20.00     0.007 C 
HETATM   10  C5  UNL     1     -33.019   4.368   2.589  1.00 20.00     0.006 C 
ENDBRANCH   5   9
ENDBRANCH   4   5
ENDBRANCH   3   4
TORSDOF 4
ENDMDL
MODEL 3
REMARK VINA RESULT:      -4.5     11.025     11.896
REMARK  4 active torsions:
REMARK  status: ('A' for Active; 'I' for Inactive)
REMARK    1  A    between atoms: C3_3  and  C9_9 
REMARK    2  A    between atoms: C6_6  and  C8_8 
REMARK    3  A    between atoms: C7_7  and  C9_9 
REMARK    4  A    between atoms: C8_8  and  C9_9 
ROOT
HETATM    1  C1  UNL     1     -33.034   8.853   0.079  1.00 20.00     0.012 C 
HETATM    2  C2  UNL     1     -32.658   8.233   1.037  1.00 20.00    -0.117 C 
HETATM    3  C6  UNL     1     -32.194   7.477   2.209  1.00 20.00     0.093 C 
ENDROOT
BRANCH   3   4
HETATM    4  C8  UNL     1     -32.977   6.169   2.363  1.00 20.00     0.024 C 
BRANCH   4   5
HETATM    5  C9  UNL     1     -33.327   5.867   3.832  1.00 20.00     0.055 C 
BRANCH   5   6
HETATM    6  C3  UNL     1     -34.469   4.857   3.952  1.00 20.00     0.127 C 
HETATM    7  C4  UNL     1     -35.867   5.415   4.041  1.00 20.00     0.091 C 
HETATM    8  O10 UNL     1     -34.277   3.640   3.951  1.00 20.00    -0.298 OA
ENDBRANCH   5   6
BRANCH   5   9
HETATM    9  C7  UNL     1     -33.659   7.140   4.631  1.00 20.00     0.007 C 
HETATM   10  C5  UNL     1     -33.723   6.951   6.142  1.00 20.00     0.006 C 
ENDBRANCH   5   9
ENDBRANCH   4   5
ENDBRANCH   3   4
TORSDOF 4
ENDMDL
MODEL 4
REMARK VINA RESULT:      -4.2      1.133      3.060
REMARK  4 active torsions:
REMARK  status: ('A' for Active; 'I' for Inactive)
REMARK    1  A    between atoms: C3_3  and  C9_9 
REMARK    2  A    between atoms: C6_6  and  C8_8 
REMARK    3  A    between atoms: C7_7  and  C9_9 
REMARK    4  A    between atoms: C8_8  and  C9_9 
ROOT
HETATM    1  C1  UNL     1     -34.620  17.482  -6.856  1.00 20.00     0.012 C 
HETATM    2  C2  UNL     1     -34.494  16.316  -6.594  1.00 20.00    -0.117 C 
HETATM    3  C6  UNL     1     -34.343  14.890  -6.275  1.00 20.00     0.093 C 
ENDROOT
BRANCH   3   4
HETATM    4  C8  UNL     1     -33.537  14.696  -4.986  1.00 20.00     0.024 C 
BRANCH   4   5
HETATM    5  C9  UNL     1     -34.433  14.355  -3.782  1.00 20.00     0.055 C 
BRANCH   5   6
HETATM    6  C3  UNL     1     -35.767  13.745  -4.216  1.00 20.00     0.127 C 
HETATM    7  C4  UNL     1     -36.967  14.659  -4.216  1.00 20.00     0.091 C 
HETATM    8  O10 UNL     1     -35.871  12.572  -4.578  1.00 20.00    -0.298 OA
ENDBRANCH   5   6
BRANCH   5   9
HETATM    9  C7  UNL     1     -34.677  15.568  -2.867  1.00 20.00     0.007 C 
HETATM   10  C5  UNL     1     -33.510  16.542  -2.767  1.00 20.00     0.006 C 
ENDBRANCH   5   9
ENDBRANCH   4   5
ENDBRANCH   3   4
TORSDOF 4
ENDMDL
MODEL 5
REMARK VINA RESULT:      -4.1      1.568      2.478
REMARK  4 active torsions:
REMARK  status: ('A' for Active; 'I' for Inactive)
REMARK    1  A    between atoms: C3_3  and  C9_9 
REMARK    2  A    between atoms: C6_6  and  C8_8 
REMARK    3  A    between atoms: C7_7  and  C9_9 
REMARK    4  A    between atoms: C8_8  and  C9_9 
ROOT
HETATM    1  C1  UNL     1     -32.701  17.653  -1.992  1.00 20.00     0.012 C 
HETATM    2  C2  UNL     1     -33.182  16.759  -2.633  1.00 20.00    -0.117 C 
HETATM    3  C6  UNL     1     -33.767  15.665  -3.421  1.00 20.00     0.093 C 
ENDROOT
BRANCH   3   4
HETATM    4  C8  UNL     1     -35.067  15.162  -2.782  1.00 20.00     0.024 C 
BRANCH   4   5
HETATM    5  C9  UNL     1     -36.222  15.077  -3.797  1.00 20.00     0.055 C 
BRANCH   5   6
HETATM    6  C3  UNL     1     -35.984  13.988  -4.845  1.00 20.00     0.127 C 
HETATM    7  C4  UNL     1     -35.763  14.446  -6.265  1.00 20.00     0.091 C 
HETATM    8  O10 UNL     1     -35.945  12.791  -4.557  1.00 20.00    -0.298 OA
ENDBRANCH   5   6
BRANCH   5   9
HETATM    9  C7  UNL     1     -36.501  16.425  -4.486  1.00 20.00     0.007 C 
HETATM   10  C5  UNL     1     -36.946  17.543  -3.552  1.00 20.00     0.006 C 
ENDBRANCH   5   9
ENDBRANCH   4   5
ENDBRANCH   3   4
TORSDOF 4
ENDMDL
MODEL 6
REMARK VINA RESULT:      -4.1     18.287     19.123
REMARK  4 active torsions:
REMARK  status: ('A' for Active; 'I' for Inactive)
REMARK    1  A    between atoms: C3_3  and  C9_9 
REMARK    2  A    between atoms: C6_6  and  C8_8 
REMARK    3  A    between atoms: C7_7  and  C9_9 
REMARK    4  A    between atoms: C8_8  and  C9_9 
ROOT
HETATM    1  C1  UNL     1     -21.953  17.263   8.058  1.00 20.00     0.012 C 
HETATM    2  C2  UNL     1     -22.732  18.072   8.484  1.00 20.00    -0.117 C 
HETATM    3  C6  UNL     1     -23.682  19.065   9.004  1.00 20.00     0.093 C 
ENDROOT
BRANCH   3   4
HETATM    4  C8  UNL     1     -24.795  18.390   9.814  1.00 20.00     0.024 C 
BRANCH   4   5
HETATM    5  C9  UNL     1     -24.490  18.370  11.323  1.00 20.00     0.055 C 
BRANCH   5   6
HETATM    6  C3  UNL     1     -23.795  17.075  11.749  1.00 20.00     0.127 C 
HETATM    7  C4  UNL     1     -24.589  15.799  11.613  1.00 20.00     0.091 C 
HETATM    8  O10 UNL     1     -22.635  17.052  12.161  1.00 20.00    -0.298 OA
ENDBRANCH   5   6
BRANCH   5   9
HETATM    9  C7  UNL     1     -25.746  18.605  12.180  1.00 20.00     0.007 C 
HETATM   10  C5  UNL     1     -26.910  19.262  11.448  1.00 20.00     0.006 C 
ENDBRANCH   5   9
ENDBRANCH   4   5
ENDBRANCH   3   4
TORSDOF 4
ENDMDL
MODEL 7
REMARK VINA RESULT:      -4.0     10.999     11.901
REMARK  4 active torsions:
REMARK  status: ('A' for Active; 'I' for Inactive)
REMARK    1  A    between atoms: C3_3  and  C9_9 
REMARK    2  A    between atoms: C6_6  and  C8_8 
REMARK    3  A    between atoms: C7_7  and  C9_9 
REMARK    4  A    between atoms: C8_8  and  C9_9 
ROOT
HETATM    1  C1  UNL     1     -33.116   8.909  -0.013  1.00 20.00     0.012 C 
HETATM    2  C2  UNL     1     -32.749   8.342   0.981  1.00 20.00    -0.117 C 
HETATM    3  C6  UNL     1     -32.298   7.651   2.197  1.00 20.00     0.093 C 
ENDROOT
BRANCH   3   4
HETATM    4  C8  UNL     1     -32.998   6.296   2.351  1.00 20.00     0.024 C 
BRANCH   4   5
HETATM    5  C9  UNL     1     -33.335   5.976   3.819  1.00 20.00     0.055 C 
BRANCH   5   6
HETATM    6  C3  UNL     1     -34.461   4.947   3.936  1.00 20.00     0.127 C 
HETATM    7  C4  UNL     1     -34.073   3.495   3.806  1.00 20.00     0.091 C 
HETATM    8  O10 UNL     1     -35.630   5.268   4.153  1.00 20.00    -0.298 OA
ENDBRANCH   5   6
BRANCH   5   9
HETATM    9  C7  UNL     1     -33.682   7.237   4.631  1.00 20.00     0.007 C 
HETATM   10  C5  UNL     1     -33.748   7.030   6.139  1.00 20.00     0.006 C 
ENDBRANCH   5   9
ENDBRANCH   4   5
ENDBRANCH   3   4
TORSDOF 4
ENDMDL
MODEL 8
REMARK VINA RESULT:      -4.0     16.210     18.118
REMARK  4 active torsions:
REMARK  status: ('A' for Active; 'I' for Inactive)
REMARK    1  A    between atoms: C3_3  and  C9_9 
REMARK    2  A    between atoms: C6_6  and  C8_8 
REMARK    3  A    between atoms: C7_7  and  C9_9 
REMARK    4  A    between atoms: C8_8  and  C9_9 
ROOT
HETATM    1  C1  UNL     1     -25.417  19.258   5.944  1.00 20.00     0.012 C 
HETATM    2  C2  UNL     1     -25.323  19.236   7.142  1.00 20.00    -0.117 C 
HETATM    3  C6  UNL     1     -25.212  19.210   8.607  1.00 20.00     0.093 C 
ENDROOT
BRANCH   3   4
HETATM    4  C8  UNL     1     -23.756  19.018   9.045  1.00 20.00     0.024 C 
BRANCH   4   5
HETATM    5  C9  UNL     1     -23.453  17.562   9.444  1.00 20.00     0.055 C 
BRANCH   5   6
HETATM    6  C3  UNL     1     -23.693  17.316  10.935  1.00 20.00     0.127 C 
HETATM    7  C4  UNL     1     -24.558  16.137  11.301  1.00 20.00     0.091 C 
HETATM    8  O10 UNL     1     -23.189  18.022  11.811  1.00 20.00    -0.298 OA
ENDBRANCH   5   6
BRANCH   5   9
HETATM    9  C7  UNL     1     -22.027  17.130   9.058  1.00 20.00     0.007 C 
HETATM   10  C5  UNL     1     -21.658  17.364   7.598  1.00 20.00     0.006 C 
ENDBRANCH   5   9
ENDBRANCH   4   5
ENDBRANCH   3   4
TORSDOF 4
ENDMDL
MODEL 9
REMARK VINA RESULT:      -3.9      1.827      2.858
REMARK  4 active torsions:
REMARK  status: ('A' for Active; 'I' for Inactive)
REMARK    1  A    between atoms: C3_3  and  C9_9 
REMARK    2  A    between atoms: C6_6  and  C8_8 
REMARK    3  A    between atoms: C7_7  and  C9_9 
REMARK    4  A    between atoms: C8_8  and  C9_9 
ROOT
HETATM    1  C1  UNL     1     -32.832  18.296  -0.916  1.00 20.00     0.012 C 
HETATM    2  C2  UNL     1     -33.426  17.446  -1.523  1.00 20.00    -0.117 C 
HETATM    3  C6  UNL     1     -34.155  16.407  -2.263  1.00 20.00     0.093 C 
ENDROOT
BRANCH   3   4
HETATM    4  C8  UNL     1     -33.288  15.815  -3.380  1.00 20.00     0.024 C 
BRANCH   4   5
HETATM    5  C9  UNL     1     -34.081  14.860  -4.291  1.00 20.00     0.055 C 
BRANCH   5   6
HETATM    6  C3  UNL     1     -34.093  15.334  -5.745  1.00 20.00     0.127 C 
HETATM    7  C4  UNL     1     -34.627  16.721  -6.005  1.00 20.00     0.091 C 
HETATM    8  O10 UNL     1     -33.666  14.641  -6.670  1.00 20.00    -0.298 OA
ENDBRANCH   5   6
BRANCH   5   9
HETATM    9  C7  UNL     1     -35.520  14.631  -3.795  1.00 20.00     0.007 C 
HETATM   10  C5  UNL     1     -36.325  13.621  -4.603  1.00 20.00     0.006 C 
ENDBRANCH   5   9
ENDBRANCH   4   5
ENDBRANCH   3   4
TORSDOF 4
ENDMDL
