MODEL 1
REMARK VINA RESULT:      -4.0      0.000      0.000
REMARK  2 active torsions:
REMARK  status: ('A' for Active; 'I' for Inactive)
REMARK    1  A    between atoms: C1_1  and  C7_7 
REMARK    2  A    between atoms: C7_7  and  S10_10 
ROOT
HETATM    1  C1  UNL     1     -24.383  18.347  10.755  1.00 20.00     0.061 A 
HETATM    2  C2  UNL     1     -23.035  18.054  10.737  1.00 20.00     0.006 A 
HETATM    3  C3  UNL     1     -24.002  18.677   8.620  1.00 20.00     0.072 A 
HETATM    4  C4  UNL     1     -22.136  17.645  11.835  1.00 20.00     0.058 C 
HETATM    5  C5  UNL     1     -24.221  19.003   7.194  1.00 20.00     0.078 C 
HETATM    6  N8  UNL     1     -24.939  18.705   9.542  1.00 20.00    -0.249 NA
HETATM    7  S9  UNL     1     -22.430  18.227   9.142  1.00 20.00    -0.078 SA
ENDROOT
BRANCH   1   8
HETATM    8  C7  UNL     1     -25.286  18.315  11.972  1.00 20.00     0.093 C 
HETATM    9  C6  UNL     1     -26.489  19.247  11.836  1.00 20.00     0.028 C 
BRANCH   8  10
HETATM   10  S10 UNL     1     -25.841  16.611  12.332  1.00 20.00    -0.172 SA
HETATM   11  H21 UNL     1     -27.004  16.712  11.675  1.00 20.00     0.102 HD
ENDBRANCH   8  10
ENDBRANCH   1   8
TORSDOF 2
ENDMDL
MODEL 2
REMARK VINA RESULT:      -3.5      1.417      3.701
REMARK  2 active torsions:
REMARK  status: ('A' for Active; 'I' for Inactive)
REMARK    1  A    between atoms: C1_1  and  C7_7 
REMARK    2  A    between atoms: C7_7  and  S10_10 
ROOT
HETATM    1  C1  UNL     1     -24.007  18.540   9.917  1.00 20.00     0.061 A 
HETATM    2  C2  UNL     1     -23.456  18.132  11.114  1.00 20.00     0.006 A 
HETATM    3  C3  UNL     1     -25.805  18.666  11.168  1.00 20.00     0.072 A 
HETATM    4  C4  UNL     1     -22.072  17.733  11.437  1.00 20.00     0.058 C 
HETATM    5  C5  UNL     1     -27.206  18.892  11.586  1.00 20.00     0.078 C 
HETATM    6  N8  UNL     1     -25.354  18.846   9.946  1.00 20.00    -0.249 NA
HETATM    7  S9  UNL     1     -24.663  18.131  12.332  1.00 20.00    -0.078 SA
ENDROOT
BRANCH   1   8
HETATM    8  C7  UNL     1     -23.274  18.674   8.597  1.00 20.00     0.093 C 
HETATM    9  C6  UNL     1     -22.522  17.401   8.211  1.00 20.00     0.028 C 
BRANCH   8  10
HETATM   10  S10 UNL     1     -24.418  19.166   7.259  1.00 20.00    -0.172 SA
HETATM   11  H21 UNL     1     -24.772  20.332   7.814  1.00 20.00     0.102 HD
ENDBRANCH   8  10
ENDBRANCH   1   8
TORSDOF 2
ENDMDL
MODEL 3
REMARK VINA RESULT:      -3.2     16.487     18.093
REMARK  2 active torsions:
REMARK  status: ('A' for Active; 'I' for Inactive)
REMARK    1  A    between atoms: C1_1  and  C7_7 
REMARK    2  A    between atoms: C7_7  and  S10_10 
ROOT
HETATM    1  C1  UNL     1     -35.019  15.586  -3.153  1.00 20.00     0.061 A 
HETATM    2  C2  UNL     1     -34.537  14.703  -4.098  1.00 20.00     0.006 A 
HETATM    3  C3  UNL     1     -36.931  14.967  -4.033  1.00 20.00     0.072 A 
HETATM    4  C4  UNL     1     -33.149  14.308  -4.410  1.00 20.00     0.058 C 
HETATM    5  C5  UNL     1     -38.384  14.864  -4.291  1.00 20.00     0.078 C 
HETATM    6  N8  UNL     1     -36.391  15.738  -3.115  1.00 20.00    -0.249 NA
HETATM    7  S9  UNL     1     -35.847  14.030  -4.977  1.00 20.00    -0.078 SA
ENDROOT
BRANCH   1   8
HETATM    8  C7  UNL     1     -34.184  16.389  -2.177  1.00 20.00     0.093 C 
HETATM    9  C6  UNL     1     -33.369  17.485  -2.862  1.00 20.00     0.028 C 
BRANCH   8  10
HETATM   10  S10 UNL     1     -35.228  17.106  -0.858  1.00 20.00    -0.172 SA
HETATM   11  H21 UNL     1     -36.313  17.268  -1.625  1.00 20.00     0.102 HD
ENDBRANCH   8  10
ENDBRANCH   1   8
TORSDOF 2
ENDMDL
MODEL 4
REMARK VINA RESULT:      -3.1     14.476     15.595
REMARK  2 active torsions:
REMARK  status: ('A' for Active; 'I' for Inactive)
REMARK    1  A    between atoms: C1_1  and  C7_7 
REMARK    2  A    between atoms: C7_7  and  S10_10 
ROOT
HETATM    1  C1  UNL     1     -34.449  17.479  -1.126  1.00 20.00     0.061 A 
HETATM    2  C2  UNL     1     -33.257  17.738  -1.770  1.00 20.00     0.006 A 
HETATM    3  C3  UNL     1     -34.524  15.872  -2.618  1.00 20.00     0.072 A 
HETATM    4  C4  UNL     1     -32.248  18.786  -1.520  1.00 20.00     0.058 C 
HETATM    5  C5  UNL     1     -34.995  14.704  -3.393  1.00 20.00     0.078 C 
HETATM    6  N8  UNL     1     -35.177  16.410  -1.611  1.00 20.00    -0.249 NA
HETATM    7  S9  UNL     1     -33.027  16.602  -3.034  1.00 20.00    -0.078 SA
ENDROOT
BRANCH   1   8
HETATM    8  C7  UNL     1     -35.017  18.257   0.043  1.00 20.00     0.093 C 
HETATM    9  C6  UNL     1     -36.488  17.936   0.304  1.00 20.00     0.028 C 
BRANCH   8  10
HETATM   10  S10 UNL     1     -34.029  17.982   1.557  1.00 20.00    -0.172 SA
HETATM   11  H21 UNL     1     -34.453  16.728   1.761  1.00 20.00     0.102 HD
ENDBRANCH   8  10
ENDBRANCH   1   8
TORSDOF 2
ENDMDL
MODEL 5
REMARK VINA RESULT:      -3.1     13.676     15.462
REMARK  2 active torsions:
REMARK  status: ('A' for Active; 'I' for Inactive)
REMARK    1  A    between atoms: C1_1  and  C7_7 
REMARK    2  A    between atoms: C7_7  and  S10_10 
ROOT
HETATM    1  C1  UNL     1     -33.688  17.438  -1.355  1.00 20.00     0.061 A 
HETATM    2  C2  UNL     1     -32.852  18.142  -0.513  1.00 20.00     0.006 A 
HETATM    3  C3  UNL     1     -35.099  17.798   0.285  1.00 20.00     0.072 A 
HETATM    4  C4  UNL     1     -31.437  18.526  -0.680  1.00 20.00     0.058 C 
HETATM    5  C5  UNL     1     -36.341  17.790   1.090  1.00 20.00     0.078 C 
HETATM    6  N8  UNL     1     -34.976  17.239  -0.898  1.00 20.00    -0.249 NA
HETATM    7  S9  UNL     1     -33.705  18.580   0.909  1.00 20.00    -0.078 SA
ENDROOT
BRANCH   1   8
HETATM    8  C7  UNL     1     -33.315  16.870  -2.710  1.00 20.00     0.093 C 
HETATM    9  C6  UNL     1     -34.095  15.601  -3.050  1.00 20.00     0.028 C 
BRANCH   8  10
HETATM   10  S10 UNL     1     -33.532  18.120  -4.026  1.00 20.00    -0.172 SA
HETATM   11  H21 UNL     1     -33.547  19.175  -3.201  1.00 20.00     0.102 HD
ENDBRANCH   8  10
ENDBRANCH   1   8
TORSDOF 2
ENDMDL
MODEL 6
REMARK VINA RESULT:      -3.1     17.270     18.944
REMARK  2 active torsions:
REMARK  status: ('A' for Active; 'I' for Inactive)
REMARK    1  A    between atoms: C1_1  and  C7_7 
REMARK    2  A    between atoms: C7_7  and  S10_10 
ROOT
HETATM    1  C1  UNL     1     -34.815  15.807  -4.576  1.00 20.00     0.061 A 
HETATM    2  C2  UNL     1     -35.535  14.781  -5.153  1.00 20.00     0.006 A 
HETATM    3  C3  UNL     1     -34.593  16.388  -6.680  1.00 20.00     0.072 A 
HETATM    4  C4  UNL     1     -36.235  13.642  -4.527  1.00 20.00     0.058 C 
HETATM    5  C5  UNL     1     -34.189  17.139  -7.889  1.00 20.00     0.078 C 
HETATM    6  N8  UNL     1     -34.274  16.729  -5.451  1.00 20.00    -0.249 NA
HETATM    7  S9  UNL     1     -35.543  14.971  -6.857  1.00 20.00    -0.078 SA
ENDROOT
BRANCH   1   8
HETATM    8  C7  UNL     1     -34.569  16.000  -3.094  1.00 20.00     0.093 C 
HETATM    9  C6  UNL     1     -33.168  16.532  -2.794  1.00 20.00     0.028 C 
BRANCH   8  10
HETATM   10  S10 UNL     1     -35.835  17.094  -2.356  1.00 20.00    -0.172 SA
HETATM   11  H21 UNL     1     -36.251  17.611  -3.518  1.00 20.00     0.102 HD
ENDBRANCH   8  10
ENDBRANCH   1   8
TORSDOF 2
ENDMDL
MODEL 7
REMARK VINA RESULT:      -3.1     15.140     17.103
REMARK  2 active torsions:
REMARK  status: ('A' for Active; 'I' for Inactive)
REMARK    1  A    between atoms: C1_1  and  C7_7 
REMARK    2  A    between atoms: C7_7  and  S10_10 
ROOT
HETATM    1  C1  UNL     1     -33.604  16.891  -3.792  1.00 20.00     0.061 A 
HETATM    2  C2  UNL     1     -33.638  18.161  -4.328  1.00 20.00     0.006 A 
HETATM    3  C3  UNL     1     -32.588  17.962  -2.169  1.00 20.00     0.072 A 
HETATM    4  C4  UNL     1     -34.193  18.637  -5.611  1.00 20.00     0.058 C 
HETATM    5  C5  UNL     1     -31.892  18.233  -0.892  1.00 20.00     0.078 C 
HETATM    6  N8  UNL     1     -33.002  16.775  -2.554  1.00 20.00    -0.249 NA
HETATM    7  S9  UNL     1     -32.891  19.262  -3.247  1.00 20.00    -0.078 SA
ENDROOT
BRANCH   1   8
HETATM    8  C7  UNL     1     -34.157  15.636  -4.436  1.00 20.00     0.093 C 
HETATM    9  C6  UNL     1     -33.161  14.477  -4.419  1.00 20.00     0.028 C 
BRANCH   8  10
HETATM   10  S10 UNL     1     -35.729  15.133  -3.649  1.00 20.00    -0.172 SA
HETATM   11  H21 UNL     1     -35.862  16.239  -2.907  1.00 20.00     0.102 HD
ENDBRANCH   8  10
ENDBRANCH   1   8
TORSDOF 2
ENDMDL
MODEL 8
REMARK VINA RESULT:      -3.1     12.305     13.969
REMARK  2 active torsions:
REMARK  status: ('A' for Active; 'I' for Inactive)
REMARK    1  A    between atoms: C1_1  and  C7_7 
REMARK    2  A    between atoms: C7_7  and  S10_10 
ROOT
HETATM    1  C1  UNL     1     -33.836  18.118   0.256  1.00 20.00     0.061 A 
HETATM    2  C2  UNL     1     -32.576  18.414  -0.220  1.00 20.00     0.006 A 
HETATM    3  C3  UNL     1     -32.761  18.145   2.167  1.00 20.00     0.072 A 
HETATM    4  C4  UNL     1     -32.109  18.639  -1.602  1.00 20.00     0.058 C 
HETATM    5  C5  UNL     1     -32.482  18.058   3.617  1.00 20.00     0.078 C 
HETATM    6  N8  UNL     1     -33.944  17.963   1.624  1.00 20.00    -0.249 NA
HETATM    7  S9  UNL     1     -31.474  18.508   1.091  1.00 20.00    -0.078 SA
ENDROOT
BRANCH   1   8
HETATM    8  C7  UNL     1     -35.087  17.946  -0.582  1.00 20.00     0.093 C 
HETATM    9  C6  UNL     1     -35.109  16.622  -1.344  1.00 20.00     0.028 C 
BRANCH   8  10
HETATM   10  S10 UNL     1     -36.591  18.111   0.445  1.00 20.00    -0.172 SA
HETATM   11  H21 UNL     1     -36.491  19.437   0.607  1.00 20.00     0.102 HD
ENDBRANCH   8  10
ENDBRANCH   1   8
TORSDOF 2
ENDMDL
MODEL 9
REMARK VINA RESULT:      -3.1     16.377     18.172
REMARK  2 active torsions:
REMARK  status: ('A' for Active; 'I' for Inactive)
REMARK    1  A    between atoms: C1_1  and  C7_7 
REMARK    2  A    between atoms: C7_7  and  S10_10 
ROOT
HETATM    1  C1  UNL     1     -35.504  16.144  -3.380  1.00 20.00     0.061 A 
HETATM    2  C2  UNL     1     -36.387  17.182  -3.591  1.00 20.00     0.006 A 
HETATM    3  C3  UNL     1     -35.552  16.956  -1.343  1.00 20.00     0.072 A 
HETATM    4  C4  UNL     1     -37.080  17.606  -4.824  1.00 20.00     0.058 C 
HETATM    5  C5  UNL     1     -35.272  17.137   0.098  1.00 20.00     0.078 C 
HETATM    6  N8  UNL     1     -35.024  16.013  -2.091  1.00 20.00    -0.249 NA
HETATM    7  S9  UNL     1     -36.635  18.034  -2.124  1.00 20.00    -0.078 SA
ENDROOT
BRANCH   1   8
HETATM    8  C7  UNL     1     -35.022  15.157  -4.424  1.00 20.00     0.093 C 
HETATM    9  C6  UNL     1     -33.635  14.598  -4.110  1.00 20.00     0.028 C 
BRANCH   8  10
HETATM   10  S10 UNL     1     -36.221  13.794  -4.641  1.00 20.00    -0.172 SA
HETATM   11  H21 UNL     1     -35.854  13.498  -5.894  1.00 20.00     0.102 HD
ENDBRANCH   8  10
ENDBRANCH   1   8
TORSDOF 2
ENDMDL
