MODEL 1
REMARK VINA RESULT:      -5.2      0.000      0.000
REMARK  2 active torsions:
REMARK  status: ('A' for Active; 'I' for Inactive)
REMARK    1  A    between atoms: C6_6  and  C7_7 
REMARK    2  A    between atoms: C7_7  and  N9_9 
ROOT
HETATM    1  C1  UNL     1     -32.919   8.762   0.339  1.00 20.00     0.012 C 
HETATM    2  C2  UNL     1     -32.653   8.070   1.284  1.00 20.00    -0.116 C 
HETATM    3  C6  UNL     1     -32.323   7.224   2.440  1.00 20.00     0.113 C 
ENDROOT
BRANCH   3   4
HETATM    4  C7  UNL     1     -33.288   6.047   2.593  1.00 20.00     0.141 C 
BRANCH   4   5
HETATM    5  N9  UNL     1     -33.850   5.926   3.935  1.00 20.00    -0.349 N 
HETATM    6  C4  UNL     1     -34.668   4.926   4.382  1.00 20.00     0.111 A 
HETATM    7  C3  UNL     1     -34.930   5.246   5.693  1.00 20.00     0.135 A 
HETATM    8  N8  UNL     1     -34.297   6.408   6.056  1.00 20.00    -0.255 NA
HETATM    9  C5  UNL     1     -33.655   6.791   4.974  1.00 20.00     0.209 A 
ENDBRANCH   4   5
ENDBRANCH   3   4
TORSDOF 2
ENDMDL
MODEL 2
REMARK VINA RESULT:      -4.2     11.397     12.084
REMARK  2 active torsions:
REMARK  status: ('A' for Active; 'I' for Inactive)
REMARK    1  A    between atoms: C6_6  and  C7_7 
REMARK    2  A    between atoms: C7_7  and  N9_9 
ROOT
HETATM    1  C1  UNL     1     -33.277  16.750  -2.577  1.00 20.00     0.012 C 
HETATM    2  C2  UNL     1     -33.293  15.849  -3.370  1.00 20.00    -0.116 C 
HETATM    3  C6  UNL     1     -33.307  14.744  -4.339  1.00 20.00     0.113 C 
ENDROOT
BRANCH   3   4
HETATM    4  C7  UNL     1     -34.302  14.982  -5.477  1.00 20.00     0.141 C 
BRANCH   4   5
HETATM    5  N9  UNL     1     -35.696  14.827  -5.073  1.00 20.00    -0.349 N 
HETATM    6  C4  UNL     1     -36.632  15.819  -5.000  1.00 20.00     0.111 A 
HETATM    7  C3  UNL     1     -37.780  15.191  -4.577  1.00 20.00     0.135 A 
HETATM    8  N8  UNL     1     -37.569  13.848  -4.390  1.00 20.00    -0.255 NA
HETATM    9  C5  UNL     1     -36.304  13.662  -4.698  1.00 20.00     0.209 A 
ENDBRANCH   4   5
ENDBRANCH   3   4
TORSDOF 2
ENDMDL
MODEL 3
REMARK VINA RESULT:      -4.0     11.519     12.644
REMARK  2 active torsions:
REMARK  status: ('A' for Active; 'I' for Inactive)
REMARK    1  A    between atoms: C6_6  and  C7_7 
REMARK    2  A    between atoms: C7_7  and  N9_9 
ROOT
HETATM    1  C1  UNL     1     -35.017  16.336  -1.651  1.00 20.00     0.012 C 
HETATM    2  C2  UNL     1     -34.198  16.113  -2.501  1.00 20.00    -0.116 C 
HETATM    3  C6  UNL     1     -33.195  15.845  -3.542  1.00 20.00     0.113 C 
ENDROOT
BRANCH   3   4
HETATM    4  C7  UNL     1     -33.472  14.543  -4.294  1.00 20.00     0.141 C 
BRANCH   4   5
HETATM    5  N9  UNL     1     -34.398  14.701  -5.411  1.00 20.00    -0.349 N 
HETATM    6  C4  UNL     1     -34.103  15.224  -6.639  1.00 20.00     0.111 A 
HETATM    7  C3  UNL     1     -35.284  15.164  -7.340  1.00 20.00     0.135 A 
HETATM    8  N8  UNL     1     -36.287  14.620  -6.577  1.00 20.00    -0.255 NA
HETATM    9  C5  UNL     1     -35.719  14.351  -5.422  1.00 20.00     0.209 A 
ENDBRANCH   4   5
ENDBRANCH   3   4
TORSDOF 2
ENDMDL
MODEL 4
REMARK VINA RESULT:      -3.9     10.581     11.630
REMARK  2 active torsions:
REMARK  status: ('A' for Active; 'I' for Inactive)
REMARK    1  A    between atoms: C6_6  and  C7_7 
REMARK    2  A    between atoms: C7_7  and  N9_9 
ROOT
HETATM    1  C1  UNL     1     -32.220  18.265  -1.585  1.00 20.00     0.012 C 
HETATM    2  C2  UNL     1     -33.076  17.469  -1.855  1.00 20.00    -0.116 C 
HETATM    3  C6  UNL     1     -34.127  16.493  -2.180  1.00 20.00     0.113 C 
ENDROOT
BRANCH   3   4
HETATM    4  C7  UNL     1     -33.749  15.606  -3.368  1.00 20.00     0.141 C 
BRANCH   4   5
HETATM    5  N9  UNL     1     -34.844  14.761  -3.835  1.00 20.00    -0.349 N 
HETATM    6  C4  UNL     1     -36.118  15.168  -4.117  1.00 20.00     0.111 A 
HETATM    7  C3  UNL     1     -36.772  14.027  -4.516  1.00 20.00     0.135 A 
HETATM    8  N8  UNL     1     -35.936  12.939  -4.484  1.00 20.00    -0.255 NA
HETATM    9  C5  UNL     1     -34.783  13.416  -4.071  1.00 20.00     0.209 A 
ENDBRANCH   4   5
ENDBRANCH   3   4
TORSDOF 2
ENDMDL
MODEL 5
REMARK VINA RESULT:      -3.8     11.619     12.428
REMARK  2 active torsions:
REMARK  status: ('A' for Active; 'I' for Inactive)
REMARK    1  A    between atoms: C6_6  and  C7_7 
REMARK    2  A    between atoms: C7_7  and  N9_9 
ROOT
HETATM    1  C1  UNL     1     -34.880  15.824  -2.471  1.00 20.00     0.012 C 
HETATM    2  C2  UNL     1     -34.917  16.518  -1.493  1.00 20.00    -0.116 C 
HETATM    3  C6  UNL     1     -34.967  17.366  -0.293  1.00 20.00     0.113 C 
ENDROOT
BRANCH   3   4
HETATM    4  C7  UNL     1     -34.168  18.659  -0.462  1.00 20.00     0.141 C 
BRANCH   4   5
HETATM    5  N9  UNL     1     -32.755  18.520  -0.119  1.00 20.00    -0.349 N 
HETATM    6  C4  UNL     1     -32.226  18.502   1.141  1.00 20.00     0.111 A 
HETATM    7  C3  UNL     1     -30.873  18.353   0.953  1.00 20.00     0.135 A 
HETATM    8  N8  UNL     1     -30.563  18.280  -0.382  1.00 20.00    -0.255 NA
HETATM    9  C5  UNL     1     -31.720  18.383  -1.000  1.00 20.00     0.209 A 
ENDBRANCH   4   5
ENDBRANCH   3   4
TORSDOF 2
ENDMDL
MODEL 6
REMARK VINA RESULT:      -3.7     11.562     12.425
REMARK  2 active torsions:
REMARK  status: ('A' for Active; 'I' for Inactive)
REMARK    1  A    between atoms: C6_6  and  C7_7 
REMARK    2  A    between atoms: C7_7  and  N9_9 
ROOT
HETATM    1  C1  UNL     1     -32.797  17.016  -2.734  1.00 20.00     0.012 C 
HETATM    2  C2  UNL     1     -33.866  16.531  -2.484  1.00 20.00    -0.116 C 
HETATM    3  C6  UNL     1     -35.172  15.932  -2.175  1.00 20.00     0.113 C 
ENDROOT
BRANCH   3   4
HETATM    4  C7  UNL     1     -36.214  16.221  -3.256  1.00 20.00     0.141 C 
BRANCH   4   5
HETATM    5  N9  UNL     1     -36.040  15.416  -4.462  1.00 20.00    -0.349 N 
HETATM    6  C4  UNL     1     -35.649  15.872  -5.689  1.00 20.00     0.111 A 
HETATM    7  C3  UNL     1     -35.631  14.755  -6.491  1.00 20.00     0.135 A 
HETATM    8  N8  UNL     1     -36.001  13.636  -5.789  1.00 20.00    -0.255 NA
HETATM    9  C5  UNL     1     -36.239  14.068  -4.570  1.00 20.00     0.209 A 
ENDBRANCH   4   5
ENDBRANCH   3   4
TORSDOF 2
ENDMDL
MODEL 7
REMARK VINA RESULT:      -3.6     11.271     12.171
REMARK  2 active torsions:
REMARK  status: ('A' for Active; 'I' for Inactive)
REMARK    1  A    between atoms: C6_6  and  C7_7 
REMARK    2  A    between atoms: C7_7  and  N9_9 
ROOT
HETATM    1  C1  UNL     1     -30.766  18.704   0.683  1.00 20.00     0.012 C 
HETATM    2  C2  UNL     1     -31.372  18.518  -0.337  1.00 20.00    -0.116 C 
HETATM    3  C6  UNL     1     -32.112  18.295  -1.588  1.00 20.00     0.113 C 
ENDROOT
BRANCH   3   4
HETATM    4  C7  UNL     1     -33.496  17.691  -1.344  1.00 20.00     0.141 C 
BRANCH   4   5
HETATM    5  N9  UNL     1     -33.831  16.611  -2.268  1.00 20.00    -0.349 N 
HETATM    6  C4  UNL     1     -34.996  15.898  -2.290  1.00 20.00     0.111 A 
HETATM    7  C3  UNL     1     -34.842  15.004  -3.323  1.00 20.00     0.135 A 
HETATM    8  N8  UNL     1     -33.619  15.152  -3.928  1.00 20.00    -0.255 NA
HETATM    9  C5  UNL     1     -33.036  16.129  -3.269  1.00 20.00     0.209 A 
ENDBRANCH   4   5
ENDBRANCH   3   4
TORSDOF 2
ENDMDL
MODEL 8
REMARK VINA RESULT:      -3.5     11.482     12.311
REMARK  2 active torsions:
REMARK  status: ('A' for Active; 'I' for Inactive)
REMARK    1  A    between atoms: C6_6  and  C7_7 
REMARK    2  A    between atoms: C7_7  and  N9_9 
ROOT
HETATM    1  C1  UNL     1     -34.073  15.379  -7.653  1.00 20.00     0.012 C 
HETATM    2  C2  UNL     1     -33.889  15.096  -6.501  1.00 20.00    -0.116 C 
HETATM    3  C6  UNL     1     -33.662  14.744  -5.092  1.00 20.00     0.113 C 
ENDROOT
BRANCH   3   4
HETATM    4  C7  UNL     1     -34.579  15.520  -4.145  1.00 20.00     0.141 C 
BRANCH   4   5
HETATM    5  N9  UNL     1     -35.984  15.136  -4.249  1.00 20.00    -0.349 N 
HETATM    6  C4  UNL     1     -37.059  15.976  -4.177  1.00 20.00     0.111 A 
HETATM    7  C3  UNL     1     -38.154  15.158  -4.328  1.00 20.00     0.135 A 
HETATM    8  N8  UNL     1     -37.777  13.849  -4.489  1.00 20.00    -0.255 NA
HETATM    9  C5  UNL     1     -36.463  13.870  -4.438  1.00 20.00     0.209 A 
ENDBRANCH   4   5
ENDBRANCH   3   4
TORSDOF 2
ENDMDL
MODEL 9
REMARK VINA RESULT:      -3.4     10.985     11.803
REMARK  2 active torsions:
REMARK  status: ('A' for Active; 'I' for Inactive)
REMARK    1  A    between atoms: C6_6  and  C7_7 
REMARK    2  A    between atoms: C7_7  and  N9_9 
ROOT
HETATM    1  C1  UNL     1     -34.176  18.045   1.114  1.00 20.00     0.012 C 
HETATM    2  C2  UNL     1     -34.103  17.769  -0.052  1.00 20.00    -0.116 C 
HETATM    3  C6  UNL     1     -34.013  17.435  -1.481  1.00 20.00     0.113 C 
ENDROOT
BRANCH   3   4
HETATM    4  C7  UNL     1     -34.935  16.278  -1.866  1.00 20.00     0.141 C 
BRANCH   4   5
HETATM    5  N9  UNL     1     -34.427  15.472  -2.973  1.00 20.00    -0.349 N 
HETATM    6  C4  UNL     1     -33.220  15.622  -3.596  1.00 20.00     0.111 A 
HETATM    7  C3  UNL     1     -33.197  14.644  -4.561  1.00 20.00     0.135 A 
HETATM    8  N8  UNL     1     -34.352  13.904  -4.544  1.00 20.00    -0.255 NA
HETATM    9  C5  UNL     1     -35.071  14.428  -3.575  1.00 20.00     0.209 A 
ENDBRANCH   4   5
ENDBRANCH   3   4
TORSDOF 2
ENDMDL
