MODEL 1
REMARK VINA RESULT:      -4.0      0.000      0.000
REMARK  2 active torsions:
REMARK  status: ('A' for Active; 'I' for Inactive)
REMARK    1  A    between atoms: C1_1  and  C7_7 
REMARK    2  A    between atoms: C7_7  and  S10_10 
ROOT
HETATM    1  C1  UNL     1     -24.358  18.072  10.908  1.00 20.00     0.061 A 
HETATM    2  C2  UNL     1     -22.979  18.011  10.896  1.00 20.00     0.006 A 
HETATM    3  C3  UNL     1     -24.021  18.616   8.810  1.00 20.00     0.072 A 
HETATM    4  C4  UNL     1     -22.032  17.679  11.980  1.00 20.00     0.058 C 
HETATM    5  C5  UNL     1     -24.280  19.005   7.406  1.00 20.00     0.078 C 
HETATM    6  N8  UNL     1     -24.956  18.419   9.712  1.00 20.00    -0.249 NA
HETATM    7  S9  UNL     1     -22.399  18.400   9.329  1.00 20.00    -0.078 SA
ENDROOT
BRANCH   1   8
HETATM    8  C7  UNL     1     -25.252  17.799  12.101  1.00 20.00     0.093 C 
HETATM    9  C6  UNL     1     -25.491  16.307  12.332  1.00 20.00     0.028 C 
BRANCH   8  10
HETATM   10  S10 UNL     1     -26.853  18.665  11.937  1.00 20.00    -0.172 SA
HETATM   11  H21 UNL     1     -27.432  17.723  11.183  1.00 20.00     0.102 HD
ENDBRANCH   8  10
ENDBRANCH   1   8
TORSDOF 2
ENDMDL
MODEL 2
REMARK VINA RESULT:      -3.3      1.376      3.720
REMARK  2 active torsions:
REMARK  status: ('A' for Active; 'I' for Inactive)
REMARK    1  A    between atoms: C1_1  and  C7_7 
REMARK    2  A    between atoms: C7_7  and  S10_10 
ROOT
HETATM    1  C1  UNL     1     -24.064  18.572   9.920  1.00 20.00     0.061 A 
HETATM    2  C2  UNL     1     -23.501  18.146  11.106  1.00 20.00     0.006 A 
HETATM    3  C3  UNL     1     -25.854  18.655  11.185  1.00 20.00     0.072 A 
HETATM    4  C4  UNL     1     -22.110  17.754  11.411  1.00 20.00     0.058 C 
HETATM    5  C5  UNL     1     -27.254  18.860  11.617  1.00 20.00     0.078 C 
HETATM    6  N8  UNL     1     -25.414  18.865   9.965  1.00 20.00    -0.249 NA
HETATM    7  S9  UNL     1     -24.700  18.108  12.332  1.00 20.00    -0.078 SA
ENDROOT
BRANCH   1   8
HETATM    8  C7  UNL     1     -23.341  18.739   8.599  1.00 20.00     0.093 C 
HETATM    9  C6  UNL     1     -24.292  19.019   7.435  1.00 20.00     0.028 C 
BRANCH   8  10
HETATM   10  S10 UNL     1     -22.313  17.275   8.220  1.00 20.00    -0.172 SA
HETATM   11  H21 UNL     1     -23.300  16.383   8.370  1.00 20.00     0.102 HD
ENDBRANCH   8  10
ENDBRANCH   1   8
TORSDOF 2
ENDMDL
MODEL 3
REMARK VINA RESULT:      -3.3      1.982      3.091
REMARK  2 active torsions:
REMARK  status: ('A' for Active; 'I' for Inactive)
REMARK    1  A    between atoms: C1_1  and  C7_7 
REMARK    2  A    between atoms: C7_7  and  S10_10 
ROOT
HETATM    1  C1  UNL     1     -24.188  18.525   9.730  1.00 20.00     0.061 A 
HETATM    2  C2  UNL     1     -25.479  18.824  10.116  1.00 20.00     0.006 A 
HETATM    3  C3  UNL     1     -25.018  19.016   7.760  1.00 20.00     0.072 A 
HETATM    4  C4  UNL     1     -26.098  18.811  11.457  1.00 20.00     0.058 C 
HETATM    5  C5  UNL     1     -25.121  19.238   6.301  1.00 20.00     0.078 C 
HETATM    6  N8  UNL     1     -23.923  18.635   8.379  1.00 20.00    -0.249 NA
HETATM    7  S9  UNL     1     -26.405  19.263   8.740  1.00 20.00    -0.078 SA
ENDROOT
BRANCH   1   8
HETATM    8  C7  UNL     1     -23.062  18.092  10.647  1.00 20.00     0.093 C 
HETATM    9  C6  UNL     1     -21.769  17.785   9.890  1.00 20.00     0.028 C 
BRANCH   8  10
HETATM   10  S10 UNL     1     -23.549  16.646  11.653  1.00 20.00    -0.172 SA
HETATM   11  H21 UNL     1     -24.735  17.142  12.024  1.00 20.00     0.102 HD
ENDBRANCH   8  10
ENDBRANCH   1   8
TORSDOF 2
ENDMDL
MODEL 4
REMARK VINA RESULT:      -3.3     14.545     15.771
REMARK  2 active torsions:
REMARK  status: ('A' for Active; 'I' for Inactive)
REMARK    1  A    between atoms: C1_1  and  C7_7 
REMARK    2  A    between atoms: C7_7  and  S10_10 
ROOT
HETATM    1  C1  UNL     1     -34.430  17.436  -1.133  1.00 20.00     0.061 A 
HETATM    2  C2  UNL     1     -33.232  17.648  -1.783  1.00 20.00     0.006 A 
HETATM    3  C3  UNL     1     -34.581  15.843  -2.633  1.00 20.00     0.072 A 
HETATM    4  C4  UNL     1     -32.178  18.652  -1.533  1.00 20.00     0.058 C 
HETATM    5  C5  UNL     1     -35.105  14.699  -3.411  1.00 20.00     0.078 C 
HETATM    6  N8  UNL     1     -35.205  16.400  -1.619  1.00 20.00    -0.249 NA
HETATM    7  S9  UNL     1     -33.058  16.510  -3.055  1.00 20.00    -0.078 SA
ENDROOT
BRANCH   1   8
HETATM    8  C7  UNL     1     -34.958  18.231   0.045  1.00 20.00     0.093 C 
HETATM    9  C6  UNL     1     -34.310  17.826   1.369  1.00 20.00     0.028 C 
BRANCH   8  10
HETATM   10  S10 UNL     1     -36.776  18.087   0.175  1.00 20.00    -0.172 SA
HETATM   11  H21 UNL     1     -36.913  19.035   1.110  1.00 20.00     0.102 HD
ENDBRANCH   8  10
ENDBRANCH   1   8
TORSDOF 2
ENDMDL
MODEL 5
REMARK VINA RESULT:      -3.3     16.520     18.188
REMARK  2 active torsions:
REMARK  status: ('A' for Active; 'I' for Inactive)
REMARK    1  A    between atoms: C1_1  and  C7_7 
REMARK    2  A    between atoms: C7_7  and  S10_10 
ROOT
HETATM    1  C1  UNL     1     -34.954  15.642  -3.184  1.00 20.00     0.061 A 
HETATM    2  C2  UNL     1     -34.477  14.740  -4.112  1.00 20.00     0.006 A 
HETATM    3  C3  UNL     1     -36.870  14.998  -4.034  1.00 20.00     0.072 A 
HETATM    4  C4  UNL     1     -33.090  14.341  -4.427  1.00 20.00     0.058 C 
HETATM    5  C5  UNL     1     -38.325  14.884  -4.278  1.00 20.00     0.078 C 
HETATM    6  N8  UNL     1     -36.327  15.791  -3.138  1.00 20.00    -0.249 NA
HETATM    7  S9  UNL     1     -35.791  14.043  -4.966  1.00 20.00    -0.078 SA
ENDROOT
BRANCH   1   8
HETATM    8  C7  UNL     1     -34.114  16.470  -2.232  1.00 20.00     0.093 C 
HETATM    9  C6  UNL     1     -34.918  17.008  -1.049  1.00 20.00     0.028 C 
BRANCH   8  10
HETATM   10  S10 UNL     1     -33.295  17.851  -3.106  1.00 20.00    -0.172 SA
HETATM   11  H21 UNL     1     -32.558  18.245  -2.061  1.00 20.00     0.102 HD
ENDBRANCH   8  10
ENDBRANCH   1   8
TORSDOF 2
ENDMDL
MODEL 6
REMARK VINA RESULT:      -3.2     16.575     18.268
REMARK  2 active torsions:
REMARK  status: ('A' for Active; 'I' for Inactive)
REMARK    1  A    between atoms: C1_1  and  C7_7 
REMARK    2  A    between atoms: C7_7  and  S10_10 
ROOT
HETATM    1  C1  UNL     1     -34.289  16.083  -3.999  1.00 20.00     0.061 A 
HETATM    2  C2  UNL     1     -34.739  14.919  -4.588  1.00 20.00     0.006 A 
HETATM    3  C3  UNL     1     -34.521  16.818  -6.053  1.00 20.00     0.072 A 
HETATM    4  C4  UNL     1     -34.983  13.587  -3.998  1.00 20.00     0.058 C 
HETATM    5  C5  UNL     1     -34.517  17.723  -7.224  1.00 20.00     0.078 C 
HETATM    6  N8  UNL     1     -34.164  17.173  -4.838  1.00 20.00    -0.249 NA
HETATM    7  S9  UNL     1     -35.021  15.190  -6.258  1.00 20.00    -0.078 SA
ENDROOT
BRANCH   1   8
HETATM    8  C7  UNL     1     -33.925  16.260  -2.539  1.00 20.00     0.093 C 
HETATM    9  C6  UNL     1     -35.151  16.407  -1.638  1.00 20.00     0.028 C 
BRANCH   8  10
HETATM   10  S10 UNL     1     -32.810  17.689  -2.306  1.00 20.00    -0.172 SA
HETATM   11  H21 UNL     1     -33.108  18.276  -3.471  1.00 20.00     0.102 HD
ENDBRANCH   8  10
ENDBRANCH   1   8
TORSDOF 2
ENDMDL
MODEL 7
REMARK VINA RESULT:      -3.1     16.602     18.260
REMARK  2 active torsions:
REMARK  status: ('A' for Active; 'I' for Inactive)
REMARK    1  A    between atoms: C1_1  and  C7_7 
REMARK    2  A    between atoms: C7_7  and  S10_10 
ROOT
HETATM    1  C1  UNL     1     -34.793  15.968  -3.564  1.00 20.00     0.061 A 
HETATM    2  C2  UNL     1     -34.218  15.130  -4.496  1.00 20.00     0.006 A 
HETATM    3  C3  UNL     1     -36.363  16.048  -5.093  1.00 20.00     0.072 A 
HETATM    4  C4  UNL     1     -32.931  14.406  -4.460  1.00 20.00     0.058 C 
HETATM    5  C5  UNL     1     -37.619  16.398  -5.792  1.00 20.00     0.078 C 
HETATM    6  N8  UNL     1     -36.024  16.496  -3.905  1.00 20.00    -0.249 NA
HETATM    7  S9  UNL     1     -35.252  14.987  -5.857  1.00 20.00    -0.078 SA
ENDROOT
BRANCH   1   8
HETATM    8  C7  UNL     1     -34.197  16.354  -2.224  1.00 20.00     0.093 C 
HETATM    9  C6  UNL     1     -35.257  16.761  -1.201  1.00 20.00     0.028 C 
BRANCH   8  10
HETATM   10  S10 UNL     1     -32.969  17.695  -2.411  1.00 20.00    -0.172 SA
HETATM   11  H21 UNL     1     -31.902  16.889  -2.445  1.00 20.00     0.102 HD
ENDBRANCH   8  10
ENDBRANCH   1   8
TORSDOF 2
ENDMDL
MODEL 8
REMARK VINA RESULT:      -3.1     12.971     14.966
REMARK  2 active torsions:
REMARK  status: ('A' for Active; 'I' for Inactive)
REMARK    1  A    between atoms: C1_1  and  C7_7 
REMARK    2  A    between atoms: C7_7  and  S10_10 
ROOT
HETATM    1  C1  UNL     1     -33.293  17.931  -1.243  1.00 20.00     0.061 A 
HETATM    2  C2  UNL     1     -34.156  17.915  -0.167  1.00 20.00     0.006 A 
HETATM    3  C3  UNL     1     -31.879  18.527   0.324  1.00 20.00     0.072 A 
HETATM    4  C4  UNL     1     -35.596  17.592  -0.107  1.00 20.00     0.058 C 
HETATM    5  C5  UNL     1     -30.625  18.934   0.997  1.00 20.00     0.078 C 
HETATM    6  N8  UNL     1     -31.986  18.282  -0.963  1.00 20.00    -0.249 NA
HETATM    7  S9  UNL     1     -33.308  18.353   1.258  1.00 20.00    -0.078 SA
ENDROOT
BRANCH   1   8
HETATM    8  C7  UNL     1     -33.653  17.606  -2.679  1.00 20.00     0.093 C 
HETATM    9  C6  UNL     1     -33.237  16.193  -3.088  1.00 20.00     0.028 C 
BRANCH   8  10
HETATM   10  S10 UNL     1     -32.926  18.824  -3.832  1.00 20.00    -0.172 SA
HETATM   11  H21 UNL     1     -32.088  17.962  -4.419  1.00 20.00     0.102 HD
ENDBRANCH   8  10
ENDBRANCH   1   8
TORSDOF 2
ENDMDL
MODEL 9
REMARK VINA RESULT:      -3.1     16.648     18.636
REMARK  2 active torsions:
REMARK  status: ('A' for Active; 'I' for Inactive)
REMARK    1  A    between atoms: C1_1  and  C7_7 
REMARK    2  A    between atoms: C7_7  and  S10_10 
ROOT
HETATM    1  C1  UNL     1     -34.687  16.241  -4.754  1.00 20.00     0.061 A 
HETATM    2  C2  UNL     1     -35.488  15.595  -3.835  1.00 20.00     0.006 A 
HETATM    3  C3  UNL     1     -33.716  16.942  -2.916  1.00 20.00     0.072 A 
HETATM    4  C4  UNL     1     -36.648  14.704  -4.045  1.00 20.00     0.058 C 
HETATM    5  C5  UNL     1     -32.782  17.642  -2.006  1.00 20.00     0.078 C 
HETATM    6  N8  UNL     1     -33.669  17.014  -4.228  1.00 20.00    -0.249 NA
HETATM    7  S9  UNL     1     -34.955  15.961  -2.247  1.00 20.00    -0.078 SA
ENDROOT
BRANCH   1   8
HETATM    8  C7  UNL     1     -34.828  16.178  -6.262  1.00 20.00     0.093 C 
HETATM    9  C6  UNL     1     -33.969  15.082  -6.891  1.00 20.00     0.028 C 
BRANCH   8  10
HETATM   10  S10 UNL     1     -34.437  17.790  -7.029  1.00 20.00    -0.172 SA
HETATM   11  H21 UNL     1     -33.412  17.338  -7.761  1.00 20.00     0.102 HD
ENDBRANCH   8  10
ENDBRANCH   1   8
TORSDOF 2
ENDMDL
