MODEL 1
REMARK VINA RESULT:      -5.1      0.000      0.000
REMARK  2 active torsions:
REMARK  status: ('A' for Active; 'I' for Inactive)
REMARK    1  A    between atoms: C4_4  and  C5_5 
REMARK    2  A    between atoms: C5_5  and  C7_7 
ROOT
HETATM    1  C1  UNL     1     -33.940   6.564   5.322  1.00 20.00     0.033 A 
HETATM    2  C2  UNL     1     -34.714   5.961   6.287  1.00 20.00     0.088 A 
HETATM    3  C3  UNL     1     -34.815   4.680   4.454  1.00 20.00     0.102 A 
HETATM    4  C4  UNL     1     -34.003   5.753   4.161  1.00 20.00     0.027 A 
HETATM    5  N10 UNL     1     -35.242   4.817   5.748  1.00 20.00    -0.374 N 
HETATM    6  H22 UNL     1     -35.853   4.172   6.232  1.00 20.00     0.164 HD
ENDROOT
BRANCH   4   7
HETATM    7  C5  UNL     1     -33.346   5.973   2.870  1.00 20.00     0.165 C 
HETATM    8  O11 UNL     1     -33.005   5.080   2.102  1.00 20.00    -0.292 OA
BRANCH   7   9
HETATM    9  C7  UNL     1     -33.088   7.363   2.478  1.00 20.00     0.065 A 
HETATM   10  C6  UNL     1     -31.666   7.862   2.422  1.00 20.00     0.018 A 
HETATM   11  C8  UNL     1     -32.434   7.643   1.148  1.00 20.00    -0.006 A 
HETATM   12  C9  UNL     1     -32.871   8.807   0.328  1.00 20.00     0.011 C 
ENDBRANCH   7   9
ENDBRANCH   4   7
TORSDOF 2
ENDMDL
MODEL 2
REMARK VINA RESULT:      -5.0     15.864     16.570
REMARK  2 active torsions:
REMARK  status: ('A' for Active; 'I' for Inactive)
REMARK    1  A    between atoms: C4_4  and  C5_5 
REMARK    2  A    between atoms: C5_5  and  C7_7 
ROOT
HETATM    1  C1  UNL     1     -25.569  18.596  12.047  1.00 20.00     0.033 A 
HETATM    2  C2  UNL     1     -26.772  17.967  12.278  1.00 20.00     0.088 A 
HETATM    3  C3  UNL     1     -25.245  16.373  11.899  1.00 20.00     0.102 A 
HETATM    4  C4  UNL     1     -24.603  17.588  11.808  1.00 20.00     0.027 A 
HETATM    5  N10 UNL     1     -26.563  16.615  12.185  1.00 20.00    -0.374 N 
HETATM    6  H22 UNL     1     -27.273  15.906  12.309  1.00 20.00     0.164 HD
ENDROOT
BRANCH   4   7
HETATM    7  C5  UNL     1     -23.177  17.756  11.514  1.00 20.00     0.165 C 
HETATM    8  O11 UNL     1     -22.269  17.434  12.271  1.00 20.00    -0.292 OA
BRANCH   7   9
HETATM    9  C7  UNL     1     -22.826  18.349  10.218  1.00 20.00     0.065 A 
HETATM   10  C6  UNL     1     -21.906  17.598   9.289  1.00 20.00     0.018 A 
HETATM   11  C8  UNL     1     -23.366  17.727   8.955  1.00 20.00    -0.006 A 
HETATM   12  C9  UNL     1     -23.802  18.591   7.822  1.00 20.00     0.011 C 
ENDBRANCH   7   9
ENDBRANCH   4   7
TORSDOF 2
ENDMDL
MODEL 3
REMARK VINA RESULT:      -4.7     15.733     16.819
REMARK  2 active torsions:
REMARK  status: ('A' for Active; 'I' for Inactive)
REMARK    1  A    between atoms: C4_4  and  C5_5 
REMARK    2  A    between atoms: C5_5  and  C7_7 
ROOT
HETATM    1  C1  UNL     1     -24.527  18.983   6.906  1.00 20.00     0.033 A 
HETATM    2  C2  UNL     1     -25.858  19.226   6.650  1.00 20.00     0.088 A 
HETATM    3  C3  UNL     1     -25.627  19.049   8.870  1.00 20.00     0.102 A 
HETATM    4  C4  UNL     1     -24.380  18.872   8.312  1.00 20.00     0.027 A 
HETATM    5  N10 UNL     1     -26.517  19.262   7.851  1.00 20.00    -0.374 N 
HETATM    6  H22 UNL     1     -27.509  19.423   7.967  1.00 20.00     0.164 HD
ENDROOT
BRANCH   4   7
HETATM    7  C5  UNL     1     -23.155  18.617   9.073  1.00 20.00     0.165 C 
HETATM    8  O11 UNL     1     -22.118  19.262   8.958  1.00 20.00    -0.292 OA
BRANCH   7   9
HETATM    9  C7  UNL     1     -23.184  17.513  10.039  1.00 20.00     0.065 A 
HETATM   10  C6  UNL     1     -22.378  17.623  11.309  1.00 20.00     0.018 A 
HETATM   11  C8  UNL     1     -23.878  17.714  11.364  1.00 20.00    -0.006 A 
HETATM   12  C9  UNL     1     -24.673  16.609  11.967  1.00 20.00     0.011 C 
ENDBRANCH   7   9
ENDBRANCH   4   7
TORSDOF 2
ENDMDL
MODEL 4
REMARK VINA RESULT:      -4.7     11.177     12.082
REMARK  2 active torsions:
REMARK  status: ('A' for Active; 'I' for Inactive)
REMARK    1  A    between atoms: C4_4  and  C5_5 
REMARK    2  A    between atoms: C5_5  and  C7_7 
ROOT
HETATM    1  C1  UNL     1     -35.023  15.886  -2.250  1.00 20.00     0.033 A 
HETATM    2  C2  UNL     1     -34.160  16.858  -1.797  1.00 20.00     0.088 A 
HETATM    3  C3  UNL     1     -33.164  15.830  -3.518  1.00 20.00     0.102 A 
HETATM    4  C4  UNL     1     -34.393  15.236  -3.341  1.00 20.00     0.027 A 
HETATM    5  N10 UNL     1     -33.032  16.814  -2.575  1.00 20.00    -0.374 N 
HETATM    6  H22 UNL     1     -32.227  17.416  -2.468  1.00 20.00     0.164 HD
ENDROOT
BRANCH   4   7
HETATM    7  C5  UNL     1     -34.912  14.134  -4.156  1.00 20.00     0.165 C 
HETATM    8  O11 UNL     1     -34.631  12.952  -3.986  1.00 20.00    -0.292 OA
BRANCH   7   9
HETATM    9  C7  UNL     1     -35.832  14.481  -5.244  1.00 20.00     0.065 A 
HETATM   10  C6  UNL     1     -36.201  15.927  -5.465  1.00 20.00     0.018 A 
HETATM   11  C8  UNL     1     -35.302  15.225  -6.445  1.00 20.00    -0.006 A 
HETATM   12  C9  UNL     1     -35.797  14.893  -7.810  1.00 20.00     0.011 C 
ENDBRANCH   7   9
ENDBRANCH   4   7
TORSDOF 2
ENDMDL
MODEL 5
REMARK VINA RESULT:      -4.7     11.377     12.188
REMARK  2 active torsions:
REMARK  status: ('A' for Active; 'I' for Inactive)
REMARK    1  A    between atoms: C4_4  and  C5_5 
REMARK    2  A    between atoms: C5_5  and  C7_7 
ROOT
HETATM    1  C1  UNL     1     -34.570  15.538  -2.918  1.00 20.00     0.033 A 
HETATM    2  C2  UNL     1     -33.288  16.034  -2.994  1.00 20.00     0.088 A 
HETATM    3  C3  UNL     1     -33.610  14.735  -4.789  1.00 20.00     0.102 A 
HETATM    4  C4  UNL     1     -34.774  14.716  -4.054  1.00 20.00     0.027 A 
HETATM    5  N10 UNL     1     -32.713  15.538  -4.136  1.00 20.00    -0.374 N 
HETATM    6  H22 UNL     1     -31.772  15.736  -4.448  1.00 20.00     0.164 HD
ENDROOT
BRANCH   4   7
HETATM    7  C5  UNL     1     -35.979  13.968  -4.421  1.00 20.00     0.165 C 
HETATM    8  O11 UNL     1     -36.097  12.751  -4.327  1.00 20.00    -0.292 OA
BRANCH   7   9
HETATM    9  C7  UNL     1     -37.118  14.739  -4.932  1.00 20.00     0.065 A 
HETATM   10  C6  UNL     1     -38.475  14.559  -4.300  1.00 20.00     0.018 A 
HETATM   11  C8  UNL     1     -37.708  15.832  -4.077  1.00 20.00    -0.006 A 
HETATM   12  C9  UNL     1     -38.171  17.103  -4.701  1.00 20.00     0.011 C 
ENDBRANCH   7   9
ENDBRANCH   4   7
TORSDOF 2
ENDMDL
MODEL 6
REMARK VINA RESULT:      -4.6     11.422     12.339
REMARK  2 active torsions:
REMARK  status: ('A' for Active; 'I' for Inactive)
REMARK    1  A    between atoms: C4_4  and  C5_5 
REMARK    2  A    between atoms: C5_5  and  C7_7 
ROOT
HETATM    1  C1  UNL     1     -34.840  15.161  -3.035  1.00 20.00     0.033 A 
HETATM    2  C2  UNL     1     -34.096  14.674  -4.086  1.00 20.00     0.088 A 
HETATM    3  C3  UNL     1     -32.954  16.381  -3.194  1.00 20.00     0.102 A 
HETATM    4  C4  UNL     1     -34.117  16.241  -2.469  1.00 20.00     0.027 A 
HETATM    5  N10 UNL     1     -32.952  15.424  -4.174  1.00 20.00    -0.374 N 
HETATM    6  H22 UNL     1     -32.218  15.291  -4.857  1.00 20.00     0.164 HD
ENDROOT
BRANCH   4   7
HETATM    7  C5  UNL     1     -34.495  17.081  -1.329  1.00 20.00     0.165 C 
HETATM    8  O11 UNL     1     -35.446  16.860  -0.588  1.00 20.00    -0.292 OA
BRANCH   7   9
HETATM    9  C7  UNL     1     -33.668  18.264  -1.066  1.00 20.00     0.065 A 
HETATM   10  C6  UNL     1     -33.864  19.030   0.218  1.00 20.00     0.018 A 
HETATM   11  C8  UNL     1     -32.624  18.203   0.021  1.00 20.00    -0.006 A 
HETATM   12  C9  UNL     1     -31.304  18.867  -0.170  1.00 20.00     0.011 C 
ENDBRANCH   7   9
ENDBRANCH   4   7
TORSDOF 2
ENDMDL
MODEL 7
REMARK VINA RESULT:      -4.5     11.489     11.958
REMARK  2 active torsions:
REMARK  status: ('A' for Active; 'I' for Inactive)
REMARK    1  A    between atoms: C4_4  and  C5_5 
REMARK    2  A    between atoms: C5_5  and  C7_7 
ROOT
HETATM    1  C1  UNL     1     -34.928  16.320  -1.814  1.00 20.00     0.033 A 
HETATM    2  C2  UNL     1     -34.246  17.284  -1.107  1.00 20.00     0.088 A 
HETATM    3  C3  UNL     1     -32.960  16.693  -2.842  1.00 20.00     0.102 A 
HETATM    4  C4  UNL     1     -34.115  15.946  -2.913  1.00 20.00     0.027 A 
HETATM    5  N10 UNL     1     -33.050  17.502  -1.740  1.00 20.00    -0.374 N 
HETATM    6  H22 UNL     1     -32.343  18.160  -1.441  1.00 20.00     0.164 HD
ENDROOT
BRANCH   4   7
HETATM    7  C5  UNL     1     -34.405  14.957  -3.954  1.00 20.00     0.165 C 
HETATM    8  O11 UNL     1     -33.663  14.029  -4.257  1.00 20.00    -0.292 OA
BRANCH   7   9
HETATM    9  C7  UNL     1     -35.676  15.095  -4.674  1.00 20.00     0.065 A 
HETATM   10  C6  UNL     1     -36.110  14.004  -5.621  1.00 20.00     0.018 A 
HETATM   11  C8  UNL     1     -36.827  14.190  -4.313  1.00 20.00    -0.006 A 
HETATM   12  C9  UNL     1     -38.219  14.722  -4.292  1.00 20.00     0.011 C 
ENDBRANCH   7   9
ENDBRANCH   4   7
TORSDOF 2
ENDMDL
MODEL 8
REMARK VINA RESULT:      -4.5     15.117     16.232
REMARK  2 active torsions:
REMARK  status: ('A' for Active; 'I' for Inactive)
REMARK    1  A    between atoms: C4_4  and  C5_5 
REMARK    2  A    between atoms: C5_5  and  C7_7 
ROOT
HETATM    1  C1  UNL     1     -25.131  19.138   6.142  1.00 20.00     0.033 A 
HETATM    2  C2  UNL     1     -26.167  19.190   5.237  1.00 20.00     0.088 A 
HETATM    3  C3  UNL     1     -27.068  19.247   7.286  1.00 20.00     0.102 A 
HETATM    4  C4  UNL     1     -25.701  19.175   7.440  1.00 20.00     0.027 A 
HETATM    5  N10 UNL     1     -27.340  19.254   5.943  1.00 20.00    -0.374 N 
HETATM    6  H22 UNL     1     -28.264  19.301   5.536  1.00 20.00     0.164 HD
ENDROOT
BRANCH   4   7
HETATM    7  C5  UNL     1     -25.008  19.144   8.730  1.00 20.00     0.165 C 
HETATM    8  O11 UNL     1     -25.564  19.227   9.820  1.00 20.00    -0.292 OA
BRANCH   7   9
HETATM    9  C7  UNL     1     -23.548  19.001   8.704  1.00 20.00     0.065 A 
HETATM   10  C6  UNL     1     -22.842  18.422   9.904  1.00 20.00     0.018 A 
HETATM   11  C8  UNL     1     -22.947  17.619   8.637  1.00 20.00    -0.006 A 
HETATM   12  C9  UNL     1     -21.735  17.369   7.807  1.00 20.00     0.011 C 
ENDBRANCH   7   9
ENDBRANCH   4   7
TORSDOF 2
ENDMDL
MODEL 9
REMARK VINA RESULT:      -4.5     11.624     12.243
REMARK  2 active torsions:
REMARK  status: ('A' for Active; 'I' for Inactive)
REMARK    1  A    between atoms: C4_4  and  C5_5 
REMARK    2  A    between atoms: C5_5  and  C7_7 
ROOT
HETATM    1  C1  UNL     1     -31.885  18.173   1.771  1.00 20.00     0.033 A 
HETATM    2  C2  UNL     1     -32.655  17.959   2.892  1.00 20.00     0.088 A 
HETATM    3  C3  UNL     1     -34.040  18.041   1.135  1.00 20.00     0.102 A 
HETATM    4  C4  UNL     1     -32.761  18.224   0.658  1.00 20.00     0.027 A 
HETATM    5  N10 UNL     1     -33.964  17.882   2.493  1.00 20.00    -0.374 N 
HETATM    6  H22 UNL     1     -34.753  17.730   3.108  1.00 20.00     0.164 HD
ENDROOT
BRANCH   4   7
HETATM    7  C5  UNL     1     -32.419  18.431  -0.751  1.00 20.00     0.165 C 
HETATM    8  O11 UNL     1     -31.363  18.914  -1.147  1.00 20.00    -0.292 OA
BRANCH   7   9
HETATM    9  C7  UNL     1     -33.415  18.025  -1.749  1.00 20.00     0.065 A 
HETATM   10  C6  UNL     1     -32.999  17.883  -3.191  1.00 20.00     0.018 A 
HETATM   11  C8  UNL     1     -33.310  16.658  -2.378  1.00 20.00    -0.006 A 
HETATM   12  C9  UNL     1     -34.541  15.866  -2.658  1.00 20.00     0.011 C 
ENDBRANCH   7   9
ENDBRANCH   4   7
TORSDOF 2
ENDMDL
