MODEL 1
REMARK VINA RESULT:      -3.8      0.000      0.000
REMARK  2 active torsions:
REMARK  status: ('A' for Active; 'I' for Inactive)
REMARK    1  A    between atoms: C4_4  and  C5_5 
REMARK    2  A    between atoms: C5_5  and  C6_6 
ROOT
HETATM    1  C1  UNL     1     -33.449   6.758   3.900  1.00 20.00     0.034 A 
HETATM    2  C2  UNL     1     -34.060   4.545   3.536  1.00 20.00     0.069 A 
HETATM    3  C3  UNL     1     -34.106   5.604   4.416  1.00 20.00     0.018 A 
HETATM    4  C4  UNL     1     -32.926   6.537   2.645  1.00 20.00    -0.015 A 
HETATM    5  S7  UNL     1     -33.228   4.944   2.094  1.00 20.00    -0.105 SA
HETATM    6 BR9  UNL     1     -34.927   5.578   6.110  1.00 20.00    -0.051 Br
ENDROOT
BRANCH   4   7
HETATM    7  C5  UNL     1     -32.179   7.476   1.781  1.00 20.00     0.061 C 
BRANCH   7   8
HETATM    8  C6  UNL     1     -32.982   8.704   1.324  1.00 20.00     0.119 C 
HETATM    9 CL8  UNL     1     -33.422   8.596  -0.398  1.00 20.00    -0.130 Cl
ENDBRANCH   7   8
ENDBRANCH   4   7
TORSDOF 2
ENDMDL
MODEL 2
REMARK VINA RESULT:      -3.6     11.427     11.982
REMARK  2 active torsions:
REMARK  status: ('A' for Active; 'I' for Inactive)
REMARK    1  A    between atoms: C4_4  and  C5_5 
REMARK    2  A    between atoms: C5_5  and  C6_6 
ROOT
HETATM    1  C1  UNL     1     -33.004  16.798  -2.543  1.00 20.00     0.034 A 
HETATM    2  C2  UNL     1     -35.115  15.850  -2.333  1.00 20.00     0.069 A 
HETATM    3  C3  UNL     1     -33.927  15.828  -3.030  1.00 20.00     0.018 A 
HETATM    4  C4  UNL     1     -33.522  17.524  -1.493  1.00 20.00    -0.015 A 
HETATM    5  S7  UNL     1     -35.115  17.035  -1.097  1.00 20.00    -0.105 SA
HETATM    6 BR9  UNL     1     -33.523  14.675  -4.461  1.00 20.00    -0.051 Br
ENDROOT
BRANCH   4   7
HETATM    7  C5  UNL     1     -32.883  18.611  -0.721  1.00 20.00     0.061 C 
BRANCH   7   8
HETATM    8  C6  UNL     1     -31.355  18.501  -0.602  1.00 20.00     0.119 C 
HETATM    9 CL8  UNL     1     -30.854  18.079   1.054  1.00 20.00    -0.130 Cl
ENDBRANCH   7   8
ENDBRANCH   4   7
TORSDOF 2
ENDMDL
MODEL 3
REMARK VINA RESULT:      -3.6     16.499     16.996
REMARK  2 active torsions:
REMARK  status: ('A' for Active; 'I' for Inactive)
REMARK    1  A    between atoms: C4_4  and  C5_5 
REMARK    2  A    between atoms: C5_5  and  C6_6 
ROOT
HETATM    1  C1  UNL     1     -24.271  18.549   9.478  1.00 20.00     0.034 A 
HETATM    2  C2  UNL     1     -22.714  18.077   7.819  1.00 20.00     0.069 A 
HETATM    3  C3  UNL     1     -23.973  18.567   8.085  1.00 20.00     0.018 A 
HETATM    4  C4  UNL     1     -23.227  18.047  10.224  1.00 20.00    -0.015 A 
HETATM    5  S7  UNL     1     -21.895  17.599   9.245  1.00 20.00    -0.105 SA
HETATM    6 BR9  UNL     1     -25.193  19.196   6.797  1.00 20.00    -0.051 Br
ENDROOT
BRANCH   4   7
HETATM    7  C5  UNL     1     -23.145  17.867  11.689  1.00 20.00     0.061 C 
BRANCH   7   8
HETATM    8  C6  UNL     1     -24.398  17.252  12.331  1.00 20.00     0.119 C 
HETATM    9 CL8  UNL     1     -24.741  15.631  11.680  1.00 20.00    -0.130 Cl
ENDBRANCH   7   8
ENDBRANCH   4   7
TORSDOF 2
ENDMDL
MODEL 4
REMARK VINA RESULT:      -3.6     16.538     17.066
REMARK  2 active torsions:
REMARK  status: ('A' for Active; 'I' for Inactive)
REMARK    1  A    between atoms: C4_4  and  C5_5 
REMARK    2  A    between atoms: C5_5  and  C6_6 
ROOT
HETATM    1  C1  UNL     1     -24.102  17.118  10.110  1.00 20.00     0.034 A 
HETATM    2  C2  UNL     1     -22.062  17.878  10.923  1.00 20.00     0.069 A 
HETATM    3  C3  UNL     1     -22.755  17.467   9.805  1.00 20.00     0.018 A 
HETATM    4  C4  UNL     1     -24.387  17.275  11.448  1.00 20.00    -0.015 A 
HETATM    5  S7  UNL     1     -23.034  17.843  12.332  1.00 20.00    -0.105 SA
HETATM    6 BR9  UNL     1     -22.050  17.362   8.063  1.00 20.00    -0.051 Br
ENDROOT
BRANCH   4   7
HETATM    7  C5  UNL     1     -25.662  17.021  12.154  1.00 20.00     0.061 C 
BRANCH   7   8
HETATM    8  C6  UNL     1     -26.600  18.234  12.239  1.00 20.00     0.119 C 
HETATM    9 CL8  UNL     1     -28.308  17.737  12.331  1.00 20.00    -0.130 Cl
ENDBRANCH   7   8
ENDBRANCH   4   7
TORSDOF 2
ENDMDL
MODEL 5
REMARK VINA RESULT:      -3.6     15.536     16.154
REMARK  2 active torsions:
REMARK  status: ('A' for Active; 'I' for Inactive)
REMARK    1  A    between atoms: C4_4  and  C5_5 
REMARK    2  A    between atoms: C5_5  and  C6_6 
ROOT
HETATM    1  C1  UNL     1     -24.685  18.665   9.495  1.00 20.00     0.034 A 
HETATM    2  C2  UNL     1     -22.748  17.521  10.077  1.00 20.00     0.069 A 
HETATM    3  C3  UNL     1     -23.928  18.060  10.539  1.00 20.00     0.018 A 
HETATM    4  C4  UNL     1     -24.054  18.564   8.274  1.00 20.00    -0.015 A 
HETATM    5  S7  UNL     1     -22.556  17.743   8.390  1.00 20.00    -0.105 SA
HETATM    6 BR9  UNL     1     -24.514  18.028  12.328  1.00 20.00    -0.051 Br
ENDROOT
BRANCH   4   7
HETATM    7  C5  UNL     1     -24.511  19.061   6.958  1.00 20.00     0.061 C 
BRANCH   7   8
HETATM    8  C6  UNL     1     -26.037  19.134   6.795  1.00 20.00     0.119 C 
HETATM    9 CL8  UNL     1     -26.535  18.797   5.119  1.00 20.00    -0.130 Cl
ENDBRANCH   7   8
ENDBRANCH   4   7
TORSDOF 2
ENDMDL
MODEL 6
REMARK VINA RESULT:      -3.6     15.353     16.115
REMARK  2 active torsions:
REMARK  status: ('A' for Active; 'I' for Inactive)
REMARK    1  A    between atoms: C4_4  and  C5_5 
REMARK    2  A    between atoms: C5_5  and  C6_6 
ROOT
HETATM    1  C1  UNL     1     -24.522  19.245   6.159  1.00 20.00     0.034 A 
HETATM    2  C2  UNL     1     -26.807  19.263   5.731  1.00 20.00     0.069 A 
HETATM    3  C3  UNL     1     -25.548  19.256   5.170  1.00 20.00     0.018 A 
HETATM    4  C4  UNL     1     -25.036  19.244   7.437  1.00 20.00    -0.015 A 
HETATM    5  S7  UNL     1     -26.748  19.255   7.442  1.00 20.00    -0.105 SA
HETATM    6 BR9  UNL     1     -25.177  19.261   3.325  1.00 20.00    -0.051 Br
ENDROOT
BRANCH   4   7
HETATM    7  C5  UNL     1     -24.305  19.233   8.723  1.00 20.00     0.061 C 
BRANCH   7   8
HETATM    8  C6  UNL     1     -24.086  17.836   9.324  1.00 20.00     0.119 C 
HETATM    9 CL8  UNL     1     -22.550  17.120   8.776  1.00 20.00    -0.130 Cl
ENDBRANCH   7   8
ENDBRANCH   4   7
TORSDOF 2
ENDMDL
MODEL 7
REMARK VINA RESULT:      -3.5     16.790     16.973
REMARK  2 active torsions:
REMARK  status: ('A' for Active; 'I' for Inactive)
REMARK    1  A    between atoms: C4_4  and  C5_5 
REMARK    2  A    between atoms: C5_5  and  C6_6 
ROOT
HETATM    1  C1  UNL     1     -24.600  18.816  10.071  1.00 20.00     0.034 A 
HETATM    2  C2  UNL     1     -24.712  17.746  12.130  1.00 20.00     0.069 A 
HETATM    3  C3  UNL     1     -25.403  18.492  11.202  1.00 20.00     0.018 A 
HETATM    4  C4  UNL     1     -23.325  18.304  10.178  1.00 20.00    -0.015 A 
HETATM    5  S7  UNL     1     -23.102  17.437  11.638  1.00 20.00    -0.105 SA
HETATM    6 BR9  UNL     1     -27.196  19.044  11.363  1.00 20.00    -0.051 Br
ENDROOT
BRANCH   4   7
HETATM    7  C5  UNL     1     -22.203  18.419   9.222  1.00 20.00     0.061 C 
BRANCH   7   8
HETATM    8  C6  UNL     1     -21.667  17.078   8.697  1.00 20.00     0.119 C 
HETATM    9 CL8  UNL     1     -21.294  17.155   6.958  1.00 20.00    -0.130 Cl
ENDBRANCH   7   8
ENDBRANCH   4   7
TORSDOF 2
ENDMDL
MODEL 8
REMARK VINA RESULT:      -3.5     11.089     11.504
REMARK  2 active torsions:
REMARK  status: ('A' for Active; 'I' for Inactive)
REMARK    1  A    between atoms: C4_4  and  C5_5 
REMARK    2  A    between atoms: C5_5  and  C6_6 
ROOT
HETATM    1  C1  UNL     1     -35.129  15.723  -2.494  1.00 20.00     0.034 A 
HETATM    2  C2  UNL     1     -32.980  16.413  -3.049  1.00 20.00     0.069 A 
HETATM    3  C3  UNL     1     -34.049  16.605  -2.201  1.00 20.00     0.018 A 
HETATM    4  C4  UNL     1     -34.844  14.891  -3.554  1.00 20.00    -0.015 A 
HETATM    5  S7  UNL     1     -33.279  15.173  -4.191  1.00 20.00    -0.105 SA
HETATM    6 BR9  UNL     1     -34.122  17.869  -0.808  1.00 20.00    -0.051 Br
ENDROOT
BRANCH   4   7
HETATM    7  C5  UNL     1     -35.696  13.844  -4.158  1.00 20.00     0.061 C 
BRANCH   7   8
HETATM    8  C6  UNL     1     -37.134  14.289  -4.468  1.00 20.00     0.119 C 
HETATM    9 CL8  UNL     1     -37.164  15.717  -5.532  1.00 20.00    -0.130 Cl
ENDBRANCH   7   8
ENDBRANCH   4   7
TORSDOF 2
ENDMDL
MODEL 9
REMARK VINA RESULT:      -3.5     11.125     11.526
REMARK  2 active torsions:
REMARK  status: ('A' for Active; 'I' for Inactive)
REMARK    1  A    between atoms: C4_4  and  C5_5 
REMARK    2  A    between atoms: C5_5  and  C6_6 
ROOT
HETATM    1  C1  UNL     1     -34.936  16.007  -1.952  1.00 20.00     0.034 A 
HETATM    2  C2  UNL     1     -33.770  17.990  -1.622  1.00 20.00     0.069 A 
HETATM    3  C3  UNL     1     -34.793  17.188  -1.168  1.00 20.00     0.018 A 
HETATM    4  C4  UNL     1     -34.016  15.952  -2.976  1.00 20.00    -0.015 A 
HETATM    5  S7  UNL     1     -32.985  17.319  -2.988  1.00 20.00    -0.105 SA
HETATM    6 BR9  UNL     1     -35.899  17.564   0.308  1.00 20.00    -0.051 Br
ENDROOT
BRANCH   4   7
HETATM    7  C5  UNL     1     -33.839  14.899  -3.999  1.00 20.00     0.061 C 
BRANCH   7   8
HETATM    8  C6  UNL     1     -34.990  14.787  -5.010  1.00 20.00     0.119 C 
HETATM    9 CL8  UNL     1     -36.190  13.572  -4.507  1.00 20.00    -0.130 Cl
ENDBRANCH   7   8
ENDBRANCH   4   7
TORSDOF 2
ENDMDL
