MODEL 1
REMARK VINA RESULT:      -4.3      0.000      0.000
REMARK  3 active torsions:
REMARK  status: ('A' for Active; 'I' for Inactive)
REMARK    1  A    between atoms: C4_4  and  C8_8 
REMARK    2  A    between atoms: C8_8  and  N11_11 
REMARK    3  A    between atoms: C9_9  and  N11_11 
ROOT
HETATM    1  C1  UNL     1     -37.216  14.612  -4.719  1.00 20.00     0.095 C 
HETATM    2  C6  UNL     1     -36.535  16.114  -6.551  1.00 20.00     0.059 C 
HETATM    3  C9  UNL     1     -36.133  15.457  -5.238  1.00 20.00     0.324 C 
HETATM    4  N10 UNL     1     -38.073  13.947  -4.306  1.00 20.00    -0.195 NA
ENDROOT
BRANCH   3   5
HETATM    5  N11 UNL     1     -34.911  14.656  -5.410  1.00 20.00     0.102 N 
HETATM    6  C7  UNL     1     -34.231  15.060  -6.651  1.00 20.00     0.311 C 
BRANCH   5   7
HETATM    7  C8  UNL     1     -34.041  14.776  -4.273  1.00 20.00     0.278 C 
BRANCH   7   8
HETATM    8  C4  UNL     1     -34.213  16.094  -3.600  1.00 20.00     0.018 A 
HETATM    9  C2  UNL     1     -33.118  16.646  -2.725  1.00 20.00     0.011 A 
HETATM   10  C3  UNL     1     -34.402  16.161  -2.106  1.00 20.00    -0.012 A 
HETATM   11  C5  UNL     1     -35.365  17.134  -1.518  1.00 20.00     0.010 C 
ENDBRANCH   7   8
ENDBRANCH   5   7
ENDBRANCH   3   5
TORSDOF 3
ENDMDL
MODEL 2
REMARK VINA RESULT:      -4.3      1.238      1.892
REMARK  3 active torsions:
REMARK  status: ('A' for Active; 'I' for Inactive)
REMARK    1  A    between atoms: C4_4  and  C8_8 
REMARK    2  A    between atoms: C8_8  and  N11_11 
REMARK    3  A    between atoms: C9_9  and  N11_11 
ROOT
HETATM    1  C1  UNL     1     -36.931  14.465  -4.510  1.00 20.00     0.095 C 
HETATM    2  C6  UNL     1     -35.162  14.822  -6.189  1.00 20.00     0.059 C 
HETATM    3  C9  UNL     1     -35.643  15.117  -4.775  1.00 20.00     0.324 C 
HETATM    4  N10 UNL     1     -37.952  13.953  -4.301  1.00 20.00    -0.195 NA
ENDROOT
BRANCH   3   5
HETATM    5  N11 UNL     1     -34.647  14.679  -3.784  1.00 20.00     0.102 N 
HETATM    6  C7  UNL     1     -33.345  14.501  -4.445  1.00 20.00     0.311 C 
BRANCH   5   7
HETATM    7  C8  UNL     1     -34.555  15.604  -2.688  1.00 20.00     0.278 C 
BRANCH   7   8
HETATM    8  C4  UNL     1     -33.453  16.583  -2.899  1.00 20.00     0.018 A 
HETATM    9  C2  UNL     1     -33.084  17.555  -1.809  1.00 20.00     0.011 A 
HETATM   10  C3  UNL     1     -33.763  18.049  -3.058  1.00 20.00    -0.012 A 
HETATM   11  C5  UNL     1     -33.008  18.870  -4.047  1.00 20.00     0.010 C 
ENDBRANCH   7   8
ENDBRANCH   5   7
ENDBRANCH   3   5
TORSDOF 3
ENDMDL
MODEL 3
REMARK VINA RESULT:      -4.3      1.160      1.940
REMARK  3 active torsions:
REMARK  status: ('A' for Active; 'I' for Inactive)
REMARK    1  A    between atoms: C4_4  and  C8_8 
REMARK    2  A    between atoms: C8_8  and  N11_11 
REMARK    3  A    between atoms: C9_9  and  N11_11 
ROOT
HETATM    1  C1  UNL     1     -36.431  14.366  -4.591  1.00 20.00     0.095 C 
HETATM    2  C6  UNL     1     -34.664  15.084  -6.152  1.00 20.00     0.059 C 
HETATM    3  C9  UNL     1     -35.251  15.224  -4.754  1.00 20.00     0.324 C 
HETATM    4  N10 UNL     1     -37.367  13.690  -4.461  1.00 20.00    -0.195 NA
ENDROOT
BRANCH   3   5
HETATM    5  N11 UNL     1     -34.246  14.895  -3.732  1.00 20.00     0.102 N 
HETATM    6  C7  UNL     1     -33.022  14.408  -4.387  1.00 20.00     0.311 C 
BRANCH   5   7
HETATM    7  C8  UNL     1     -33.972  16.022  -2.883  1.00 20.00     0.278 C 
BRANCH   7   8
HETATM    8  C4  UNL     1     -35.049  16.208  -1.871  1.00 20.00     0.018 A 
HETATM    9  C2  UNL     1     -36.002  17.369  -1.984  1.00 20.00     0.011 A 
HETATM   10  C3  UNL     1     -34.973  17.346  -0.886  1.00 20.00    -0.012 A 
HETATM   11  C5  UNL     1     -35.391  17.139   0.529  1.00 20.00     0.010 C 
ENDBRANCH   7   8
ENDBRANCH   5   7
ENDBRANCH   3   5
TORSDOF 3
ENDMDL
MODEL 4
REMARK VINA RESULT:      -4.2      1.700      2.292
REMARK  3 active torsions:
REMARK  status: ('A' for Active; 'I' for Inactive)
REMARK    1  A    between atoms: C4_4  and  C8_8 
REMARK    2  A    between atoms: C8_8  and  N11_11 
REMARK    3  A    between atoms: C9_9  and  N11_11 
ROOT
HETATM    1  C1  UNL     1     -35.659  13.845  -4.198  1.00 20.00     0.095 C 
HETATM    2  C6  UNL     1     -36.576  16.126  -4.019  1.00 20.00     0.059 C 
HETATM    3  C9  UNL     1     -35.404  15.206  -3.709  1.00 20.00     0.324 C 
HETATM    4  N10 UNL     1     -35.861  12.768  -4.581  1.00 20.00    -0.195 NA
ENDROOT
BRANCH   3   5
HETATM    5  N11 UNL     1     -34.162  15.727  -4.302  1.00 20.00     0.102 N 
HETATM    6  C7  UNL     1     -34.284  15.733  -5.768  1.00 20.00     0.311 C 
BRANCH   5   7
HETATM    7  C8  UNL     1     -33.849  17.037  -3.797  1.00 20.00     0.278 C 
BRANCH   7   8
HETATM    8  C4  UNL     1     -33.286  16.962  -2.421  1.00 20.00     0.018 A 
HETATM    9  C2  UNL     1     -34.078  17.483  -1.250  1.00 20.00     0.011 A 
HETATM   10  C3  UNL     1     -32.849  18.219  -1.714  1.00 20.00    -0.012 A 
HETATM   11  C5  UNL     1     -31.615  18.217  -0.879  1.00 20.00     0.010 C 
ENDBRANCH   7   8
ENDBRANCH   5   7
ENDBRANCH   3   5
TORSDOF 3
ENDMDL
MODEL 5
REMARK VINA RESULT:      -4.1      1.752      2.690
REMARK  3 active torsions:
REMARK  status: ('A' for Active; 'I' for Inactive)
REMARK    1  A    between atoms: C4_4  and  C8_8 
REMARK    2  A    between atoms: C8_8  and  N11_11 
REMARK    3  A    between atoms: C9_9  and  N11_11 
ROOT
HETATM    1  C1  UNL     1     -35.541  13.847  -4.517  1.00 20.00     0.095 C 
HETATM    2  C6  UNL     1     -33.238  14.714  -4.383  1.00 20.00     0.059 C 
HETATM    3  C9  UNL     1     -34.702  15.045  -4.638  1.00 20.00     0.324 C 
HETATM    4  N10 UNL     1     -36.206  12.900  -4.426  1.00 20.00    -0.195 NA
ENDROOT
BRANCH   3   5
HETATM    5  N11 UNL     1     -35.170  16.082  -3.704  1.00 20.00     0.102 N 
HETATM    6  C7  UNL     1     -36.641  16.104  -3.694  1.00 20.00     0.311 C 
BRANCH   5   7
HETATM    7  C8  UNL     1     -34.640  15.876  -2.383  1.00 20.00     0.278 C 
BRANCH   7   8
HETATM    8  C4  UNL     1     -34.158  17.155  -1.791  1.00 20.00     0.018 A 
HETATM    9  C2  UNL     1     -33.831  18.325  -2.682  1.00 20.00     0.011 A 
HETATM   10  C3  UNL     1     -32.725  17.582  -1.981  1.00 20.00    -0.012 A 
HETATM   11  C5  UNL     1     -31.983  18.226  -0.861  1.00 20.00     0.010 C 
ENDBRANCH   7   8
ENDBRANCH   5   7
ENDBRANCH   3   5
TORSDOF 3
ENDMDL
MODEL 6
REMARK VINA RESULT:      -4.0      3.274      5.503
REMARK  3 active torsions:
REMARK  status: ('A' for Active; 'I' for Inactive)
REMARK    1  A    between atoms: C4_4  and  C8_8 
REMARK    2  A    between atoms: C8_8  and  N11_11 
REMARK    3  A    between atoms: C9_9  and  N11_11 
ROOT
HETATM    1  C1  UNL     1     -31.701  18.554  -0.672  1.00 20.00     0.095 C 
HETATM    2  C6  UNL     1     -34.053  18.124  -0.075  1.00 20.00     0.059 C 
HETATM    3  C9  UNL     1     -33.098  18.824  -1.032  1.00 20.00     0.324 C 
HETATM    4  N10 UNL     1     -30.595  18.345  -0.386  1.00 20.00    -0.195 NA
ENDROOT
BRANCH   3   5
HETATM    5  N11 UNL     1     -33.350  18.401  -2.419  1.00 20.00     0.102 N 
HETATM    6  C7  UNL     1     -32.591  19.263  -3.339  1.00 20.00     0.311 C 
BRANCH   5   7
HETATM    7  C8  UNL     1     -33.024  17.014  -2.612  1.00 20.00     0.278 C 
BRANCH   7   8
HETATM    8  C4  UNL     1     -34.006  16.351  -3.513  1.00 20.00     0.018 A 
HETATM    9  C2  UNL     1     -35.480  16.426  -3.212  1.00 20.00     0.011 A 
HETATM   10  C3  UNL     1     -34.746  15.122  -3.052  1.00 20.00    -0.012 A 
HETATM   11  C5  UNL     1     -34.995  14.000  -4.000  1.00 20.00     0.010 C 
ENDBRANCH   7   8
ENDBRANCH   5   7
ENDBRANCH   3   5
TORSDOF 3
ENDMDL
MODEL 7
REMARK VINA RESULT:      -4.0      3.036      5.443
REMARK  3 active torsions:
REMARK  status: ('A' for Active; 'I' for Inactive)
REMARK    1  A    between atoms: C4_4  and  C8_8 
REMARK    2  A    between atoms: C8_8  and  N11_11 
REMARK    3  A    between atoms: C9_9  and  N11_11 
ROOT
HETATM    1  C1  UNL     1     -31.838  18.393  -0.897  1.00 20.00     0.095 C 
HETATM    2  C6  UNL     1     -34.133  19.102  -0.341  1.00 20.00     0.059 C 
HETATM    3  C9  UNL     1     -33.230  18.422  -1.362  1.00 20.00     0.324 C 
HETATM    4  N10 UNL     1     -30.736  18.373  -0.532  1.00 20.00    -0.195 NA
ENDROOT
BRANCH   3   5
HETATM    5  N11 UNL     1     -33.696  17.053  -1.637  1.00 20.00     0.102 N 
HETATM    6  C7  UNL     1     -35.101  16.922  -1.224  1.00 20.00     0.311 C 
BRANCH   5   7
HETATM    7  C8  UNL     1     -33.522  16.709  -3.022  1.00 20.00     0.278 C 
BRANCH   7   8
HETATM    8  C4  UNL     1     -33.911  15.295  -3.278  1.00 20.00     0.018 A 
HETATM    9  C2  UNL     1     -33.293  14.536  -4.423  1.00 20.00     0.011 A 
HETATM   10  C3  UNL     1     -34.740  14.945  -4.487  1.00 20.00    -0.012 A 
HETATM   11  C5  UNL     1     -35.815  13.918  -4.384  1.00 20.00     0.010 C 
ENDBRANCH   7   8
ENDBRANCH   5   7
ENDBRANCH   3   5
TORSDOF 3
ENDMDL
MODEL 8
REMARK VINA RESULT:      -4.0      1.782      2.728
REMARK  3 active torsions:
REMARK  status: ('A' for Active; 'I' for Inactive)
REMARK    1  A    between atoms: C4_4  and  C8_8 
REMARK    2  A    between atoms: C8_8  and  N11_11 
REMARK    3  A    between atoms: C9_9  and  N11_11 
ROOT
HETATM    1  C1  UNL     1     -35.404  13.900  -4.522  1.00 20.00     0.095 C 
HETATM    2  C6  UNL     1     -33.220  14.973  -4.128  1.00 20.00     0.059 C 
HETATM    3  C9  UNL     1     -34.664  15.167  -4.570  1.00 20.00     0.324 C 
HETATM    4  N10 UNL     1     -35.989  12.897  -4.488  1.00 20.00    -0.195 NA
ENDROOT
BRANCH   3   5
HETATM    5  N11 UNL     1     -35.335  16.171  -3.729  1.00 20.00     0.102 N 
HETATM    6  C7  UNL     1     -36.761  16.234  -4.085  1.00 20.00     0.311 C 
BRANCH   5   7
HETATM    7  C8  UNL     1     -35.156  15.890  -2.331  1.00 20.00     0.278 C 
BRANCH   7   8
HETATM    8  C4  UNL     1     -35.375  17.109  -1.504  1.00 20.00     0.018 A 
HETATM    9  C2  UNL     1     -34.223  17.737  -0.764  1.00 20.00     0.011 A 
HETATM   10  C3  UNL     1     -35.307  17.025  -0.001  1.00 20.00    -0.012 A 
HETATM   11  C5  UNL     1     -36.268  17.798   0.834  1.00 20.00     0.010 C 
ENDBRANCH   7   8
ENDBRANCH   5   7
ENDBRANCH   3   5
TORSDOF 3
ENDMDL
MODEL 9
REMARK VINA RESULT:      -3.9     16.329     18.409
REMARK  3 active torsions:
REMARK  status: ('A' for Active; 'I' for Inactive)
REMARK    1  A    between atoms: C4_4  and  C8_8 
REMARK    2  A    between atoms: C8_8  and  N11_11 
REMARK    3  A    between atoms: C9_9  and  N11_11 
ROOT
HETATM    1  C1  UNL     1     -22.823  17.947   7.414  1.00 20.00     0.095 C 
HETATM    2  C6  UNL     1     -24.802  19.262   6.757  1.00 20.00     0.059 C 
HETATM    3  C9  UNL     1     -24.149  18.413   7.839  1.00 20.00     0.324 C 
HETATM    4  N10 UNL     1     -21.776  17.575   7.077  1.00 20.00    -0.195 NA
ENDROOT
BRANCH   3   5
HETATM    5  N11 UNL     1     -24.035  19.168   9.096  1.00 20.00     0.102 N 
HETATM    6  C7  UNL     1     -25.358  19.263   9.732  1.00 20.00     0.311 C 
BRANCH   5   7
HETATM    7  C8  UNL     1     -23.070  18.574   9.980  1.00 20.00     0.278 C 
BRANCH   7   8
HETATM    8  C4  UNL     1     -23.730  17.979  11.176  1.00 20.00     0.018 A 
HETATM    9  C2  UNL     1     -22.897  17.427  12.303  1.00 20.00     0.011 A 
HETATM   10  C3  UNL     1     -23.669  16.492  11.411  1.00 20.00    -0.012 A 
HETATM   11  C5  UNL     1     -24.861  15.769  11.936  1.00 20.00     0.010 C 
ENDBRANCH   7   8
ENDBRANCH   5   7
ENDBRANCH   3   5
TORSDOF 3
ENDMDL
