MODEL 1
REMARK VINA RESULT:      -4.5      0.000      0.000
REMARK  3 active torsions:
REMARK  status: ('A' for Active; 'I' for Inactive)
REMARK    1  A    between atoms: C1_1  and  C6_6 
REMARK    2  A    between atoms: C6_6  and  C7_7 
REMARK    3  A    between atoms: C7_7  and  C8_8 
ROOT
HETATM    1  C2  UNL     1     -32.761  14.649  -4.305  1.00 20.00     0.011 C 
HETATM    2  C7  UNL     1     -34.185  15.228  -4.189  1.00 20.00    -0.003 C 
ENDROOT
BRANCH   2   3
HETATM    3  C6  UNL     1     -35.164  14.078  -3.844  1.00 20.00     0.101 C 
BRANCH   3   4
HETATM    4  C1  UNL     1     -36.322  13.955  -4.826  1.00 20.00     0.219 C 
HETATM    5  O9  UNL     1     -37.450  13.610  -4.485  1.00 20.00    -0.280 OA
HETATM    6 CL10 UNL     1     -35.853  14.414  -6.439  1.00 20.00    -0.044 Cl
ENDBRANCH   3   4
ENDBRANCH   2   3
BRANCH   2   7
HETATM    7  C8  UNL     1     -34.286  16.442  -3.190  1.00 20.00    -0.048 C 
HETATM    8  C3  UNL     1     -35.112  16.055  -1.944  1.00 20.00     0.015 C 
HETATM    9  C4  UNL     1     -35.015  17.626  -3.864  1.00 20.00     0.015 C 
HETATM   10  C5  UNL     1     -32.904  16.931  -2.720  1.00 20.00     0.015 C 
ENDBRANCH   2   7
TORSDOF 3
ENDMDL
MODEL 2
REMARK VINA RESULT:      -4.5      0.025      1.368
REMARK  3 active torsions:
REMARK  status: ('A' for Active; 'I' for Inactive)
REMARK    1  A    between atoms: C1_1  and  C6_6 
REMARK    2  A    between atoms: C6_6  and  C7_7 
REMARK    3  A    between atoms: C7_7  and  C8_8 
ROOT
HETATM    1  C2  UNL     1     -32.769  14.659  -4.293  1.00 20.00     0.011 C 
HETATM    2  C7  UNL     1     -34.197  15.228  -4.178  1.00 20.00    -0.003 C 
ENDROOT
BRANCH   2   3
HETATM    3  C6  UNL     1     -35.169  14.071  -3.841  1.00 20.00     0.101 C 
BRANCH   3   4
HETATM    4  C1  UNL     1     -36.331  13.953  -4.819  1.00 20.00     0.219 C 
HETATM    5  O9  UNL     1     -37.459  13.611  -4.476  1.00 20.00    -0.280 OA
HETATM    6 CL10 UNL     1     -35.865  14.413  -6.434  1.00 20.00    -0.044 Cl
ENDBRANCH   3   4
ENDBRANCH   2   3
BRANCH   2   7
HETATM    7  C8  UNL     1     -34.308  16.437  -3.173  1.00 20.00    -0.048 C 
HETATM    8  C3  UNL     1     -34.988  17.647  -3.850  1.00 20.00     0.015 C 
HETATM    9  C4  UNL     1     -32.899  16.898  -2.737  1.00 20.00     0.015 C 
HETATM   10  C5  UNL     1     -35.111  16.077  -1.909  1.00 20.00     0.015 C 
ENDBRANCH   2   7
TORSDOF 3
ENDMDL
MODEL 3
REMARK VINA RESULT:      -4.3     17.450     18.417
REMARK  3 active torsions:
REMARK  status: ('A' for Active; 'I' for Inactive)
REMARK    1  A    between atoms: C1_1  and  C6_6 
REMARK    2  A    between atoms: C6_6  and  C7_7 
REMARK    3  A    between atoms: C7_7  and  C8_8 
ROOT
HETATM    1  C2  UNL     1     -25.415  19.263   9.868  1.00 20.00     0.011 C 
HETATM    2  C7  UNL     1     -24.385  18.125  10.008  1.00 20.00    -0.003 C 
ENDROOT
BRANCH   2   3
HETATM    3  C6  UNL     1     -23.018  18.623   9.478  1.00 20.00     0.101 C 
BRANCH   3   4
HETATM    4  C1  UNL     1     -22.561  17.905   8.214  1.00 20.00     0.219 C 
HETATM    5  O9  UNL     1     -23.019  18.153   7.103  1.00 20.00    -0.280 OA
HETATM    6 CL10 UNL     1     -21.293  16.757   8.548  1.00 20.00    -0.044 Cl
ENDBRANCH   3   4
ENDBRANCH   2   3
BRANCH   2   7
HETATM    7  C8  UNL     1     -24.301  17.535  11.466  1.00 20.00    -0.048 C 
HETATM    8  C3  UNL     1     -24.323  15.991  11.431  1.00 20.00     0.015 C 
HETATM    9  C4  UNL     1     -25.526  17.984  12.294  1.00 20.00     0.015 C 
HETATM   10  C5  UNL     1     -23.027  17.982  12.208  1.00 20.00     0.015 C 
ENDBRANCH   2   7
TORSDOF 3
ENDMDL
MODEL 4
REMARK VINA RESULT:      -4.3      1.311      2.341
REMARK  3 active torsions:
REMARK  status: ('A' for Active; 'I' for Inactive)
REMARK    1  A    between atoms: C1_1  and  C6_6 
REMARK    2  A    between atoms: C6_6  and  C7_7 
REMARK    3  A    between atoms: C7_7  and  C8_8 
ROOT
HETATM    1  C2  UNL     1     -35.200  16.205  -1.666  1.00 20.00     0.011 C 
HETATM    2  C7  UNL     1     -35.078  15.491  -3.026  1.00 20.00    -0.003 C 
ENDROOT
BRANCH   2   3
HETATM    3  C6  UNL     1     -36.428  15.609  -3.774  1.00 20.00     0.101 C 
BRANCH   3   4
HETATM    4  C1  UNL     1     -37.018  14.262  -4.174  1.00 20.00     0.219 C 
HETATM    5  O9  UNL     1     -38.222  14.080  -4.325  1.00 20.00    -0.280 OA
HETATM    6 CL10 UNL     1     -35.777  13.068  -4.438  1.00 20.00    -0.044 Cl
ENDBRANCH   3   4
ENDBRANCH   2   3
BRANCH   2   7
HETATM    7  C8  UNL     1     -33.854  15.989  -3.884  1.00 20.00    -0.048 C 
HETATM    8  C3  UNL     1     -32.915  14.812  -4.229  1.00 20.00     0.015 C 
HETATM    9  C4  UNL     1     -33.019  17.010  -3.079  1.00 20.00     0.015 C 
HETATM   10  C5  UNL     1     -34.294  16.657  -5.201  1.00 20.00     0.015 C 
ENDBRANCH   2   7
TORSDOF 3
ENDMDL
MODEL 5
REMARK VINA RESULT:      -4.2      1.312      2.328
REMARK  3 active torsions:
REMARK  status: ('A' for Active; 'I' for Inactive)
REMARK    1  A    between atoms: C1_1  and  C6_6 
REMARK    2  A    between atoms: C6_6  and  C7_7 
REMARK    3  A    between atoms: C7_7  and  C8_8 
ROOT
HETATM    1  C2  UNL     1     -35.238  16.220  -1.675  1.00 20.00     0.011 C 
HETATM    2  C7  UNL     1     -35.079  15.514  -3.036  1.00 20.00    -0.003 C 
ENDROOT
BRANCH   2   3
HETATM    3  C6  UNL     1     -36.413  15.624  -3.814  1.00 20.00     0.101 C 
BRANCH   3   4
HETATM    4  C1  UNL     1     -37.008  14.272  -4.189  1.00 20.00     0.219 C 
HETATM    5  O9  UNL     1     -38.213  14.092  -4.334  1.00 20.00    -0.280 OA
HETATM    6 CL10 UNL     1     -35.772  13.069  -4.434  1.00 20.00    -0.044 Cl
ENDBRANCH   3   4
ENDBRANCH   2   3
BRANCH   2   7
HETATM    7  C8  UNL     1     -33.840  16.025  -3.864  1.00 20.00    -0.048 C 
HETATM    8  C3  UNL     1     -34.300  16.668  -5.191  1.00 20.00     0.015 C 
HETATM    9  C4  UNL     1     -32.920  14.840  -4.233  1.00 20.00     0.015 C 
HETATM   10  C5  UNL     1     -33.004  17.062  -3.090  1.00 20.00     0.015 C 
ENDBRANCH   2   7
TORSDOF 3
ENDMDL
MODEL 6
REMARK VINA RESULT:      -4.2      1.513      2.207
REMARK  3 active torsions:
REMARK  status: ('A' for Active; 'I' for Inactive)
REMARK    1  A    between atoms: C1_1  and  C6_6 
REMARK    2  A    between atoms: C6_6  and  C7_7 
REMARK    3  A    between atoms: C7_7  and  C8_8 
ROOT
HETATM    1  C2  UNL     1     -35.131  17.212  -5.876  1.00 20.00     0.011 C 
HETATM    2  C7  UNL     1     -35.246  16.115  -4.799  1.00 20.00    -0.003 C 
ENDROOT
BRANCH   2   3
HETATM    3  C6  UNL     1     -35.344  14.738  -5.499  1.00 20.00     0.101 C 
BRANCH   3   4
HETATM    4  C1  UNL     1     -36.239  13.748  -4.765  1.00 20.00     0.219 C 
HETATM    5  O9  UNL     1     -35.890  12.600  -4.504  1.00 20.00    -0.280 OA
HETATM    6 CL10 UNL     1     -37.759  14.467  -4.310  1.00 20.00    -0.044 Cl
ENDBRANCH   3   4
ENDBRANCH   2   3
BRANCH   2   7
HETATM    7  C8  UNL     1     -34.099  16.177  -3.720  1.00 20.00    -0.048 C 
HETATM    8  C3  UNL     1     -33.034  15.092  -3.994  1.00 20.00     0.015 C 
HETATM    9  C4  UNL     1     -34.675  15.897  -2.314  1.00 20.00     0.015 C 
HETATM   10  C5  UNL     1     -33.395  17.546  -3.690  1.00 20.00     0.015 C 
ENDBRANCH   2   7
TORSDOF 3
ENDMDL
MODEL 7
REMARK VINA RESULT:      -4.2      1.634      2.580
REMARK  3 active torsions:
REMARK  status: ('A' for Active; 'I' for Inactive)
REMARK    1  A    between atoms: C1_1  and  C6_6 
REMARK    2  A    between atoms: C6_6  and  C7_7 
REMARK    3  A    between atoms: C7_7  and  C8_8 
ROOT
HETATM    1  C2  UNL     1     -35.206  16.242  -1.730  1.00 20.00     0.011 C 
HETATM    2  C7  UNL     1     -35.206  15.468  -3.063  1.00 20.00    -0.003 C 
ENDROOT
BRANCH   2   3
HETATM    3  C6  UNL     1     -36.547  15.730  -3.791  1.00 20.00     0.101 C 
BRANCH   3   4
HETATM    4  C1  UNL     1     -37.274  14.454  -4.198  1.00 20.00     0.219 C 
HETATM    5  O9  UNL     1     -36.692  13.395  -4.413  1.00 20.00    -0.280 OA
HETATM    6 CL10 UNL     1     -39.000  14.686  -4.260  1.00 20.00    -0.044 Cl
ENDBRANCH   3   4
ENDBRANCH   2   3
BRANCH   2   7
HETATM    7  C8  UNL     1     -33.949  15.772  -3.961  1.00 20.00    -0.048 C 
HETATM    8  C3  UNL     1     -33.238  14.462  -4.366  1.00 20.00     0.015 C 
HETATM    9  C4  UNL     1     -32.922  16.616  -3.173  1.00 20.00     0.015 C 
HETATM   10  C5  UNL     1     -34.317  16.538  -5.246  1.00 20.00     0.015 C 
ENDBRANCH   2   7
TORSDOF 3
ENDMDL
MODEL 8
REMARK VINA RESULT:      -4.1      1.936      2.441
REMARK  3 active torsions:
REMARK  status: ('A' for Active; 'I' for Inactive)
REMARK    1  A    between atoms: C1_1  and  C6_6 
REMARK    2  A    between atoms: C6_6  and  C7_7 
REMARK    3  A    between atoms: C7_7  and  C8_8 
ROOT
HETATM    1  C2  UNL     1     -35.608  15.361  -3.259  1.00 20.00     0.011 C 
HETATM    2  C7  UNL     1     -34.256  15.782  -2.650  1.00 20.00    -0.003 C 
ENDROOT
BRANCH   2   3
HETATM    3  C6  UNL     1     -33.169  15.707  -3.750  1.00 20.00     0.101 C 
BRANCH   3   4
HETATM    4  C1  UNL     1     -33.334  14.514  -4.684  1.00 20.00     0.219 C 
HETATM    5  O9  UNL     1     -33.114  13.358  -4.334  1.00 20.00    -0.280 OA
HETATM    6 CL10 UNL     1     -33.916  14.999  -6.253  1.00 20.00    -0.044 Cl
ENDBRANCH   3   4
ENDBRANCH   2   3
BRANCH   2   7
HETATM    7  C8  UNL     1     -34.305  17.181  -1.928  1.00 20.00    -0.048 C 
HETATM    8  C3  UNL     1     -35.150  17.099  -0.637  1.00 20.00     0.015 C 
HETATM    9  C4  UNL     1     -34.981  18.228  -2.842  1.00 20.00     0.015 C 
HETATM   10  C5  UNL     1     -32.904  17.699  -1.555  1.00 20.00     0.015 C 
ENDBRANCH   2   7
TORSDOF 3
ENDMDL
MODEL 9
REMARK VINA RESULT:      -3.8      1.799      2.567
REMARK  3 active torsions:
REMARK  status: ('A' for Active; 'I' for Inactive)
REMARK    1  A    between atoms: C1_1  and  C6_6 
REMARK    2  A    between atoms: C6_6  and  C7_7 
REMARK    3  A    between atoms: C7_7  and  C8_8 
ROOT
HETATM    1  C2  UNL     1     -34.698  16.949  -5.789  1.00 20.00     0.011 C 
HETATM    2  C7  UNL     1     -35.450  16.248  -4.641  1.00 20.00    -0.003 C 
ENDROOT
BRANCH   2   3
HETATM    3  C6  UNL     1     -36.380  15.166  -5.242  1.00 20.00     0.101 C 
BRANCH   3   4
HETATM    4  C1  UNL     1     -37.711  15.038  -4.511  1.00 20.00     0.219 C 
HETATM    5  O9  UNL     1     -38.299  13.968  -4.381  1.00 20.00    -0.280 OA
HETATM    6 CL10 UNL     1     -38.236  16.564  -3.855  1.00 20.00    -0.044 Cl
ENDBRANCH   3   4
ENDBRANCH   2   3
BRANCH   2   7
HETATM    7  C8  UNL     1     -34.495  15.685  -3.521  1.00 20.00    -0.048 C 
HETATM    8  C3  UNL     1     -33.107  16.359  -3.599  1.00 20.00     0.015 C 
HETATM    9  C4  UNL     1     -34.271  14.170  -3.725  1.00 20.00     0.015 C 
HETATM   10  C5  UNL     1     -35.058  15.903  -2.105  1.00 20.00     0.015 C 
ENDBRANCH   2   7
TORSDOF 3
ENDMDL
