MODEL 1
REMARK VINA RESULT:      -4.3      0.000      0.000
REMARK  3 active torsions:
REMARK  status: ('A' for Active; 'I' for Inactive)
REMARK    1  A    between atoms: C5_5  and  C6_6 
REMARK    2  A    between atoms: C5_5  and  C7_7 
REMARK    3  A    between atoms: C7_7  and  C8_8 
ROOT
HETATM    1  C1  UNL     1     -33.123   7.302   5.219  1.00 20.00     0.011 C 
HETATM    2  C7  UNL     1     -33.873   6.642   4.049  1.00 20.00    -0.010 C 
ENDROOT
BRANCH   2   3
HETATM    3  C5  UNL     1     -32.898   6.376   2.869  1.00 20.00     0.020 C 
BRANCH   3   4
HETATM    4  C6  UNL     1     -32.098   7.580   2.364  1.00 20.00     0.115 C 
HETATM    5 CL9  UNL     1     -32.818   8.304   0.909  1.00 20.00    -0.130 Cl
ENDBRANCH   3   4
ENDBRANCH   2   3
BRANCH   2   6
HETATM    6  C8  UNL     1     -34.683   5.358   4.486  1.00 20.00    -0.048 C 
HETATM    7  C2  UNL     1     -36.133   5.431   3.956  1.00 20.00     0.015 C 
HETATM    8  C3  UNL     1     -34.741   5.191   6.016  1.00 20.00     0.015 C 
HETATM    9  C4  UNL     1     -34.050   4.084   3.885  1.00 20.00     0.015 C 
ENDBRANCH   2   6
TORSDOF 3
ENDMDL
MODEL 2
REMARK VINA RESULT:      -4.1      1.009      1.627
REMARK  3 active torsions:
REMARK  status: ('A' for Active; 'I' for Inactive)
REMARK    1  A    between atoms: C5_5  and  C6_6 
REMARK    2  A    between atoms: C5_5  and  C7_7 
REMARK    3  A    between atoms: C7_7  and  C8_8 
ROOT
HETATM    1  C1  UNL     1     -33.387   4.909   2.356  1.00 20.00     0.011 C 
HETATM    2  C7  UNL     1     -33.138   5.851   3.546  1.00 20.00    -0.010 C 
ENDROOT
BRANCH   2   3
HETATM    3  C5  UNL     1     -32.884   7.298   3.041  1.00 20.00     0.020 C 
BRANCH   3   4
HETATM    4  C6  UNL     1     -32.429   7.439   1.585  1.00 20.00     0.115 C 
HETATM    5 CL9  UNL     1     -32.953   8.976   0.861  1.00 20.00    -0.130 Cl
ENDBRANCH   3   4
ENDBRANCH   2   3
BRANCH   2   6
HETATM    6  C8  UNL     1     -34.272   5.768   4.644  1.00 20.00    -0.048 C 
HETATM    7  C2  UNL     1     -35.664   5.929   3.991  1.00 20.00     0.015 C 
HETATM    8  C3  UNL     1     -34.124   6.854   5.726  1.00 20.00     0.015 C 
HETATM    9  C4  UNL     1     -34.259   4.389   5.338  1.00 20.00     0.015 C 
ENDBRANCH   2   6
TORSDOF 3
ENDMDL
MODEL 3
REMARK VINA RESULT:      -4.0     15.803     16.922
REMARK  3 active torsions:
REMARK  status: ('A' for Active; 'I' for Inactive)
REMARK    1  A    between atoms: C5_5  and  C6_6 
REMARK    2  A    between atoms: C5_5  and  C7_7 
REMARK    3  A    between atoms: C7_7  and  C8_8 
ROOT
HETATM    1  C1  UNL     1     -24.841  18.878   9.314  1.00 20.00     0.011 C 
HETATM    2  C7  UNL     1     -23.850  17.875   9.930  1.00 20.00    -0.010 C 
ENDROOT
BRANCH   2   3
HETATM    3  C5  UNL     1     -22.390  18.359   9.707  1.00 20.00     0.020 C 
BRANCH   3   4
HETATM    4  C6  UNL     1     -21.436  17.358   9.049  1.00 20.00     0.115 C 
HETATM    5 CL9  UNL     1     -21.620  17.315   7.281  1.00 20.00    -0.130 Cl
ENDBRANCH   3   4
ENDBRANCH   2   3
BRANCH   2   6
HETATM    6  C8  UNL     1     -24.170  17.546  11.442  1.00 20.00    -0.048 C 
HETATM    7  C2  UNL     1     -24.520  16.049  11.603  1.00 20.00     0.015 C 
HETATM    8  C3  UNL     1     -25.349  18.374  11.988  1.00 20.00     0.015 C 
HETATM    9  C4  UNL     1     -22.938  17.817  12.332  1.00 20.00     0.015 C 
ENDBRANCH   2   6
TORSDOF 3
ENDMDL
MODEL 4
REMARK VINA RESULT:      -3.8     11.315     12.407
REMARK  3 active torsions:
REMARK  status: ('A' for Active; 'I' for Inactive)
REMARK    1  A    between atoms: C5_5  and  C6_6 
REMARK    2  A    between atoms: C5_5  and  C7_7 
REMARK    3  A    between atoms: C7_7  and  C8_8 
ROOT
HETATM    1  C1  UNL     1     -32.695  14.643  -4.320  1.00 20.00     0.011 C 
HETATM    2  C7  UNL     1     -34.147  15.143  -4.230  1.00 20.00    -0.010 C 
ENDROOT
BRANCH   2   3
HETATM    3  C5  UNL     1     -35.101  13.961  -3.901  1.00 20.00     0.020 C 
BRANCH   3   4
HETATM    4  C6  UNL     1     -36.297  13.773  -4.838  1.00 20.00     0.115 C 
HETATM    5 CL9  UNL     1     -37.757  14.595  -4.240  1.00 20.00    -0.130 Cl
ENDBRANCH   3   4
ENDBRANCH   2   3
BRANCH   2   6
HETATM    6  C8  UNL     1     -34.315  16.368  -3.247  1.00 20.00    -0.048 C 
HETATM    7  C2  UNL     1     -32.932  16.874  -2.777  1.00 20.00     0.015 C 
HETATM    8  C3  UNL     1     -35.143  16.011  -1.998  1.00 20.00     0.015 C 
HETATM    9  C4  UNL     1     -35.006  17.550  -3.962  1.00 20.00     0.015 C 
ENDBRANCH   2   6
TORSDOF 3
ENDMDL
MODEL 5
REMARK VINA RESULT:      -3.8     11.511     12.276
REMARK  3 active torsions:
REMARK  status: ('A' for Active; 'I' for Inactive)
REMARK    1  A    between atoms: C5_5  and  C6_6 
REMARK    2  A    between atoms: C5_5  and  C7_7 
REMARK    3  A    between atoms: C7_7  and  C8_8 
ROOT
HETATM    1  C1  UNL     1     -33.024  17.223  -2.729  1.00 20.00     0.011 C 
HETATM    2  C7  UNL     1     -33.909  15.971  -2.599  1.00 20.00    -0.010 C 
ENDROOT
BRANCH   2   3
HETATM    3  C5  UNL     1     -35.218  16.316  -1.836  1.00 20.00     0.020 C 
BRANCH   3   4
HETATM    4  C6  UNL     1     -35.160  17.529  -0.903  1.00 20.00     0.115 C 
HETATM    5 CL9  UNL     1     -35.562  17.106   0.776  1.00 20.00    -0.130 Cl
ENDBRANCH   3   4
ENDBRANCH   2   3
BRANCH   2   6
HETATM    6  C8  UNL     1     -34.169  15.257  -3.985  1.00 20.00    -0.048 C 
HETATM    7  C2  UNL     1     -34.481  16.305  -5.078  1.00 20.00     0.015 C 
HETATM    8  C3  UNL     1     -35.346  14.265  -3.925  1.00 20.00     0.015 C 
HETATM    9  C4  UNL     1     -32.912  14.488  -4.447  1.00 20.00     0.015 C 
ENDBRANCH   2   6
TORSDOF 3
ENDMDL
MODEL 6
REMARK VINA RESULT:      -3.8     11.540     12.346
REMARK  3 active torsions:
REMARK  status: ('A' for Active; 'I' for Inactive)
REMARK    1  A    between atoms: C5_5  and  C6_6 
REMARK    2  A    between atoms: C5_5  and  C7_7 
REMARK    3  A    between atoms: C7_7  and  C8_8 
ROOT
HETATM    1  C1  UNL     1     -33.007  17.205  -2.689  1.00 20.00     0.011 C 
HETATM    2  C7  UNL     1     -33.911  15.963  -2.599  1.00 20.00    -0.010 C 
ENDROOT
BRANCH   2   3
HETATM    3  C5  UNL     1     -35.217  16.305  -1.831  1.00 20.00     0.020 C 
BRANCH   3   4
HETATM    4  C6  UNL     1     -35.169  17.537  -0.922  1.00 20.00     0.115 C 
HETATM    5 CL9  UNL     1     -35.576  17.146   0.764  1.00 20.00    -0.130 Cl
ENDBRANCH   3   4
ENDBRANCH   2   3
BRANCH   2   6
HETATM    6  C8  UNL     1     -34.176  15.294  -4.006  1.00 20.00    -0.048 C 
HETATM    7  C2  UNL     1     -32.945  14.471  -4.450  1.00 20.00     0.015 C 
HETATM    8  C3  UNL     1     -34.478  16.331  -5.104  1.00 20.00     0.015 C 
HETATM    9  C4  UNL     1     -35.367  14.314  -3.927  1.00 20.00     0.015 C 
ENDBRANCH   2   6
TORSDOF 3
ENDMDL
MODEL 7
REMARK VINA RESULT:      -3.8     11.433     12.459
REMARK  3 active torsions:
REMARK  status: ('A' for Active; 'I' for Inactive)
REMARK    1  A    between atoms: C5_5  and  C6_6 
REMARK    2  A    between atoms: C5_5  and  C7_7 
REMARK    3  A    between atoms: C7_7  and  C8_8 
ROOT
HETATM    1  C1  UNL     1     -32.761  14.684  -4.286  1.00 20.00     0.011 C 
HETATM    2  C7  UNL     1     -34.182  15.258  -4.158  1.00 20.00    -0.010 C 
ENDROOT
BRANCH   2   3
HETATM    3  C5  UNL     1     -35.191  14.124  -3.828  1.00 20.00     0.020 C 
BRANCH   3   4
HETATM    4  C6  UNL     1     -36.217  13.790  -4.914  1.00 20.00     0.115 C 
HETATM    5 CL9  UNL     1     -35.793  14.508  -6.484  1.00 20.00    -0.130 Cl
ENDBRANCH   3   4
ENDBRANCH   2   3
BRANCH   2   6
HETATM    6  C8  UNL     1     -34.265  16.474  -3.152  1.00 20.00    -0.048 C 
HETATM    7  C2  UNL     1     -34.973  17.676  -3.818  1.00 20.00     0.015 C 
HETATM    8  C3  UNL     1     -32.876  16.941  -2.677  1.00 20.00     0.015 C 
HETATM    9  C4  UNL     1     -35.098  16.096  -1.908  1.00 20.00     0.015 C 
ENDBRANCH   2   6
TORSDOF 3
ENDMDL
MODEL 8
REMARK VINA RESULT:      -3.7     11.568     12.509
REMARK  3 active torsions:
REMARK  status: ('A' for Active; 'I' for Inactive)
REMARK    1  A    between atoms: C5_5  and  C6_6 
REMARK    2  A    between atoms: C5_5  and  C7_7 
REMARK    3  A    between atoms: C7_7  and  C8_8 
ROOT
HETATM    1  C1  UNL     1     -35.151  16.280  -1.532  1.00 20.00     0.011 C 
HETATM    2  C7  UNL     1     -35.130  15.648  -2.934  1.00 20.00    -0.010 C 
ENDROOT
BRANCH   2   3
HETATM    3  C5  UNL     1     -36.467  15.936  -3.673  1.00 20.00     0.020 C 
BRANCH   3   4
HETATM    4  C6  UNL     1     -37.229  14.717  -4.199  1.00 20.00     0.115 C 
HETATM    5 CL9  UNL     1     -36.155  13.334  -4.510  1.00 20.00    -0.130 Cl
ENDBRANCH   3   4
ENDBRANCH   2   3
BRANCH   2   6
HETATM    6  C8  UNL     1     -33.857  16.059  -3.774  1.00 20.00    -0.048 C 
HETATM    7  C2  UNL     1     -34.278  16.835  -5.043  1.00 20.00     0.015 C 
HETATM    8  C3  UNL     1     -33.023  14.840  -4.214  1.00 20.00     0.015 C 
HETATM    9  C4  UNL     1     -32.944  16.998  -2.956  1.00 20.00     0.015 C 
ENDBRANCH   2   6
TORSDOF 3
ENDMDL
MODEL 9
REMARK VINA RESULT:      -3.6     11.554     12.475
REMARK  3 active torsions:
REMARK  status: ('A' for Active; 'I' for Inactive)
REMARK    1  A    between atoms: C5_5  and  C6_6 
REMARK    2  A    between atoms: C5_5  and  C7_7 
REMARK    3  A    between atoms: C7_7  and  C8_8 
ROOT
HETATM    1  C1  UNL     1     -35.092  16.123  -1.870  1.00 20.00     0.011 C 
HETATM    2  C7  UNL     1     -34.240  16.491  -3.097  1.00 20.00    -0.010 C 
ENDROOT
BRANCH   2   3
HETATM    3  C5  UNL     1     -32.820  16.937  -2.649  1.00 20.00     0.020 C 
BRANCH   3   4
HETATM    4  C6  UNL     1     -32.745  18.209  -1.799  1.00 20.00     0.115 C 
HETATM    5 CL9  UNL     1     -31.338  18.211  -0.713  1.00 20.00    -0.130 Cl
ENDBRANCH   3   4
ENDBRANCH   2   3
BRANCH   2   6
HETATM    6  C8  UNL     1     -34.214  15.351  -4.191  1.00 20.00    -0.048 C 
HETATM    7  C2  UNL     1     -35.279  14.276  -3.872  1.00 20.00     0.015 C 
HETATM    8  C3  UNL     1     -32.844  14.652  -4.282  1.00 20.00     0.015 C 
HETATM    9  C4  UNL     1     -34.558  15.923  -5.583  1.00 20.00     0.015 C 
ENDBRANCH   2   6
TORSDOF 3
ENDMDL
