MODEL 1
REMARK VINA RESULT:      -5.4      0.000      0.000
REMARK  4 active torsions:
REMARK  status: ('A' for Active; 'I' for Inactive)
REMARK    1  A    between atoms: C8_8  and  C11_11 
REMARK    2  A    between atoms: C9_9  and  C10_10 
REMARK    3  A    between atoms: C10_10  and  C11_11 
REMARK    4  A    between atoms: C11_11  and  O12_12 
ROOT
HETATM    1  C1  UNL     1     -33.811   9.448  -0.038  1.00 20.00     0.012 C 
HETATM    2  C2  UNL     1     -32.936   8.709   0.320  1.00 20.00    -0.117 C 
HETATM    3  C9  UNL     1     -31.861   7.806   0.756  1.00 20.00     0.095 C 
ENDROOT
BRANCH   3   4
HETATM    4  C10 UNL     1     -32.312   6.864   1.877  1.00 20.00     0.044 C 
BRANCH   4   5
HETATM    5  C11 UNL     1     -32.680   7.587   3.178  1.00 20.00     0.123 C 
BRANCH   5   6
HETATM    6  C8  UNL     1     -33.764   6.826   3.939  1.00 20.00     0.018 C 
HETATM    7  C6  UNL     1     -33.575   6.982   5.458  1.00 20.00     0.034 C 
HETATM    8  C4  UNL     1     -34.413   6.028   6.256  1.00 20.00    -0.030 C 
HETATM    9  C3  UNL     1     -35.017   4.957   5.720  1.00 20.00    -0.031 C 
HETATM   10  C5  UNL     1     -34.890   4.584   4.274  1.00 20.00     0.027 C 
HETATM   11  C7  UNL     1     -33.774   5.342   3.549  1.00 20.00     0.011 C 
ENDBRANCH   5   6
BRANCH   5  12
HETATM   12  O12 UNL     1     -31.525   7.683   4.005  1.00 20.00    -0.395 OA
HETATM   13  H28 UNL     1     -31.765   7.303   4.864  1.00 20.00     0.210 HD
ENDBRANCH   5  12
ENDBRANCH   4   5
ENDBRANCH   3   4
TORSDOF 4
ENDMDL
MODEL 2
REMARK VINA RESULT:      -5.1     10.675     11.612
REMARK  4 active torsions:
REMARK  status: ('A' for Active; 'I' for Inactive)
REMARK    1  A    between atoms: C8_8  and  C11_11 
REMARK    2  A    between atoms: C9_9  and  C10_10 
REMARK    3  A    between atoms: C10_10  and  C11_11 
REMARK    4  A    between atoms: C11_11  and  O12_12 
ROOT
HETATM    1  C1  UNL     1     -38.326  14.760  -4.162  1.00 20.00     0.012 C 
HETATM    2  C2  UNL     1     -37.267  14.403  -4.600  1.00 20.00    -0.117 C 
HETATM    3  C9  UNL     1     -35.972  13.965  -5.141  1.00 20.00     0.095 C 
ENDROOT
BRANCH   3   4
HETATM    4  C10 UNL     1     -34.871  13.957  -4.076  1.00 20.00     0.044 C 
BRANCH   4   5
HETATM    5  C11 UNL     1     -33.859  15.099  -4.228  1.00 20.00     0.123 C 
BRANCH   5   6
HETATM    6  C8  UNL     1     -33.670  15.841  -2.907  1.00 20.00     0.018 C 
HETATM    7  C6  UNL     1     -35.015  16.008  -2.178  1.00 20.00     0.034 C 
HETATM    8  C4  UNL     1     -34.949  16.978  -1.036  1.00 20.00    -0.030 C 
HETATM    9  C3  UNL     1     -33.933  17.835  -0.859  1.00 20.00    -0.031 C 
HETATM   10  C5  UNL     1     -32.773  17.935  -1.802  1.00 20.00     0.027 C 
HETATM   11  C7  UNL     1     -33.007  17.207  -3.130  1.00 20.00     0.011 C 
ENDBRANCH   5   6
BRANCH   5  12
HETATM   12  O12 UNL     1     -32.604  14.564  -4.633  1.00 20.00    -0.395 OA
HETATM   13  H28 UNL     1     -31.953  15.278  -4.542  1.00 20.00     0.210 HD
ENDBRANCH   5  12
ENDBRANCH   4   5
ENDBRANCH   3   4
TORSDOF 4
ENDMDL
MODEL 3
REMARK VINA RESULT:      -5.0     10.603     11.597
REMARK  4 active torsions:
REMARK  status: ('A' for Active; 'I' for Inactive)
REMARK    1  A    between atoms: C8_8  and  C11_11 
REMARK    2  A    between atoms: C9_9  and  C10_10 
REMARK    3  A    between atoms: C10_10  and  C11_11 
REMARK    4  A    between atoms: C11_11  and  O12_12 
ROOT
HETATM    1  C1  UNL     1     -38.247  15.025  -4.223  1.00 20.00     0.012 C 
HETATM    2  C2  UNL     1     -37.260  14.378  -4.445  1.00 20.00    -0.117 C 
HETATM    3  C9  UNL     1     -36.054  13.584  -4.719  1.00 20.00     0.095 C 
ENDROOT
BRANCH   3   4
HETATM    4  C10 UNL     1     -34.865  14.018  -3.856  1.00 20.00     0.044 C 
BRANCH   4   5
HETATM    5  C11 UNL     1     -34.183  15.302  -4.346  1.00 20.00     0.123 C 
BRANCH   5   6
HETATM    6  C8  UNL     1     -34.267  16.402  -3.290  1.00 20.00     0.018 C 
HETATM    7  C6  UNL     1     -32.861  16.881  -2.890  1.00 20.00     0.034 C 
HETATM    8  C4  UNL     1     -32.859  17.735  -1.657  1.00 20.00    -0.030 C 
HETATM    9  C3  UNL     1     -33.904  17.818  -0.821  1.00 20.00    -0.031 C 
HETATM   10  C5  UNL     1     -35.170  17.041  -1.013  1.00 20.00     0.027 C 
HETATM   11  C7  UNL     1     -35.044  15.925  -2.055  1.00 20.00     0.011 C 
ENDBRANCH   5   6
BRANCH   5  12
HETATM   12  O12 UNL     1     -32.812  15.032  -4.615  1.00 20.00    -0.395 OA
HETATM   13  H28 UNL     1     -32.726  14.959  -5.578  1.00 20.00     0.210 HD
ENDBRANCH   5  12
ENDBRANCH   4   5
ENDBRANCH   3   4
TORSDOF 4
ENDMDL
MODEL 4
REMARK VINA RESULT:      -4.9     10.957     11.958
REMARK  4 active torsions:
REMARK  status: ('A' for Active; 'I' for Inactive)
REMARK    1  A    between atoms: C8_8  and  C11_11 
REMARK    2  A    between atoms: C9_9  and  C10_10 
REMARK    3  A    between atoms: C10_10  and  C11_11 
REMARK    4  A    between atoms: C11_11  and  O12_12 
ROOT
HETATM    1  C1  UNL     1     -34.510  17.288  -7.053  1.00 20.00     0.012 C 
HETATM    2  C2  UNL     1     -34.930  16.202  -6.761  1.00 20.00    -0.117 C 
HETATM    3  C9  UNL     1     -35.446  14.872  -6.407  1.00 20.00     0.095 C 
ENDROOT
BRANCH   3   4
HETATM    4  C10 UNL     1     -35.021  14.440  -5.000  1.00 20.00     0.044 C 
BRANCH   4   5
HETATM    5  C11 UNL     1     -33.606  14.891  -4.618  1.00 20.00     0.123 C 
BRANCH   5   6
HETATM    6  C8  UNL     1     -33.600  15.569  -3.250  1.00 20.00     0.018 C 
HETATM    7  C6  UNL     1     -35.021  15.624  -2.662  1.00 20.00     0.034 C 
HETATM    8  C4  UNL     1     -35.132  16.532  -1.474  1.00 20.00    -0.030 C 
HETATM    9  C3  UNL     1     -34.192  17.431  -1.148  1.00 20.00    -0.031 C 
HETATM   10  C5  UNL     1     -32.948  17.645  -1.956  1.00 20.00     0.027 C 
HETATM   11  C7  UNL     1     -32.999  16.979  -3.334  1.00 20.00     0.011 C 
ENDBRANCH   5   6
BRANCH   5  12
HETATM   12  O12 UNL     1     -32.748  13.756  -4.568  1.00 20.00    -0.395 OA
HETATM   13  H28 UNL     1     -33.304  12.979  -4.737  1.00 20.00     0.210 HD
ENDBRANCH   5  12
ENDBRANCH   4   5
ENDBRANCH   3   4
TORSDOF 4
ENDMDL
MODEL 5
REMARK VINA RESULT:      -4.8     10.874     11.837
REMARK  4 active torsions:
REMARK  status: ('A' for Active; 'I' for Inactive)
REMARK    1  A    between atoms: C8_8  and  C11_11 
REMARK    2  A    between atoms: C9_9  and  C10_10 
REMARK    3  A    between atoms: C10_10  and  C11_11 
REMARK    4  A    between atoms: C11_11  and  O12_12 
ROOT
HETATM    1  C1  UNL     1     -31.110  18.294  -0.059  1.00 20.00     0.012 C 
HETATM    2  C2  UNL     1     -32.288  18.517   0.008  1.00 20.00    -0.117 C 
HETATM    3  C9  UNL     1     -33.729  18.795   0.090  1.00 20.00     0.095 C 
ENDROOT
BRANCH   3   4
HETATM    4  C10 UNL     1     -34.574  17.526  -0.058  1.00 20.00     0.044 C 
BRANCH   4   5
HETATM    5  C11 UNL     1     -35.209  17.366  -1.445  1.00 20.00     0.123 C 
BRANCH   5   6
HETATM    6  C8  UNL     1     -34.646  16.144  -2.167  1.00 20.00     0.018 C 
HETATM    7  C6  UNL     1     -33.328  16.493  -2.880  1.00 20.00     0.034 C 
HETATM    8  C4  UNL     1     -32.883  15.433  -3.845  1.00 20.00    -0.030 C 
HETATM    9  C3  UNL     1     -33.684  14.448  -4.272  1.00 20.00    -0.031 C 
HETATM   10  C5  UNL     1     -35.119  14.321  -3.858  1.00 20.00     0.027 C 
HETATM   11  C7  UNL     1     -35.663  15.574  -3.165  1.00 20.00     0.011 C 
ENDBRANCH   5   6
BRANCH   5  12
HETATM   12  O12 UNL     1     -36.616  17.201  -1.300  1.00 20.00    -0.395 OA
HETATM   13  H28 UNL     1     -36.799  17.189  -0.348  1.00 20.00     0.210 HD
ENDBRANCH   5  12
ENDBRANCH   4   5
ENDBRANCH   3   4
TORSDOF 4
ENDMDL
MODEL 6
REMARK VINA RESULT:      -4.7      0.451      1.517
REMARK  4 active torsions:
REMARK  status: ('A' for Active; 'I' for Inactive)
REMARK    1  A    between atoms: C8_8  and  C11_11 
REMARK    2  A    between atoms: C9_9  and  C10_10 
REMARK    3  A    between atoms: C10_10  and  C11_11 
REMARK    4  A    between atoms: C11_11  and  O12_12 
ROOT
HETATM    1  C1  UNL     1     -33.555   9.873   0.698  1.00 20.00     0.012 C 
HETATM    2  C2  UNL     1     -32.892   8.873   0.653  1.00 20.00    -0.117 C 
HETATM    3  C9  UNL     1     -32.077   7.651   0.595  1.00 20.00     0.095 C 
ENDROOT
BRANCH   3   4
HETATM    4  C10 UNL     1     -32.426   6.667   1.716  1.00 20.00     0.044 C 
BRANCH   4   5
HETATM    5  C11 UNL     1     -32.546   7.322   3.097  1.00 20.00     0.123 C 
BRANCH   5   6
HETATM    6  C8  UNL     1     -33.144   6.351   4.113  1.00 20.00     0.018 C 
HETATM    7  C6  UNL     1     -34.155   5.410   3.437  1.00 20.00     0.034 C 
HETATM    8  C4  UNL     1     -34.991   4.641   4.418  1.00 20.00    -0.030 C 
HETATM    9  C3  UNL     1     -35.072   4.959   5.718  1.00 20.00    -0.031 C 
HETATM   10  C5  UNL     1     -34.363   6.134   6.321  1.00 20.00     0.027 C 
HETATM   11  C7  UNL     1     -33.804   7.105   5.275  1.00 20.00     0.011 C 
ENDBRANCH   5   6
BRANCH   5  12
HETATM   12  O12 UNL     1     -31.253   7.713   3.546  1.00 20.00    -0.395 OA
HETATM   13  H28 UNL     1     -30.984   7.068   4.217  1.00 20.00     0.210 HD
ENDBRANCH   5  12
ENDBRANCH   4   5
ENDBRANCH   3   4
TORSDOF 4
ENDMDL
MODEL 7
REMARK VINA RESULT:      -4.6     10.830     11.884
REMARK  4 active torsions:
REMARK  status: ('A' for Active; 'I' for Inactive)
REMARK    1  A    between atoms: C8_8  and  C11_11 
REMARK    2  A    between atoms: C9_9  and  C10_10 
REMARK    3  A    between atoms: C10_10  and  C11_11 
REMARK    4  A    between atoms: C11_11  and  O12_12 
ROOT
HETATM    1  C1  UNL     1     -32.669  17.800   2.729  1.00 20.00     0.012 C 
HETATM    2  C2  UNL     1     -33.684  18.083   2.154  1.00 20.00    -0.117 C 
HETATM    3  C9  UNL     1     -34.927  18.435   1.452  1.00 20.00     0.095 C 
ENDROOT
BRANCH   3   4
HETATM    4  C10 UNL     1     -35.507  17.252   0.671  1.00 20.00     0.044 C 
BRANCH   4   5
HETATM    5  C11 UNL     1     -35.630  17.509  -0.836  1.00 20.00     0.123 C 
BRANCH   5   6
HETATM    6  C8  UNL     1     -34.795  16.509  -1.632  1.00 20.00     0.018 C 
HETATM    7  C6  UNL     1     -33.547  17.190  -2.222  1.00 20.00     0.034 C 
HETATM    8  C4  UNL     1     -32.850  16.349  -3.251  1.00 20.00    -0.030 C 
HETATM    9  C3  UNL     1     -33.410  15.273  -3.821  1.00 20.00    -0.031 C 
HETATM   10  C5  UNL     1     -34.804  14.817  -3.514  1.00 20.00     0.027 C 
HETATM   11  C7  UNL     1     -35.626  15.855  -2.743  1.00 20.00     0.011 C 
ENDBRANCH   5   6
BRANCH   5  12
HETATM   12  O12 UNL     1     -36.993  17.376  -1.225  1.00 20.00    -0.395 OA
HETATM   13  H28 UNL     1     -37.329  16.574  -0.795  1.00 20.00     0.210 HD
ENDBRANCH   5  12
ENDBRANCH   4   5
ENDBRANCH   3   4
TORSDOF 4
ENDMDL
MODEL 8
REMARK VINA RESULT:      -4.6     10.776     11.913
REMARK  4 active torsions:
REMARK  status: ('A' for Active; 'I' for Inactive)
REMARK    1  A    between atoms: C8_8  and  C11_11 
REMARK    2  A    between atoms: C9_9  and  C10_10 
REMARK    3  A    between atoms: C10_10  and  C11_11 
REMARK    4  A    between atoms: C11_11  and  O12_12 
ROOT
HETATM    1  C1  UNL     1     -30.997  18.513   0.677  1.00 20.00     0.012 C 
HETATM    2  C2  UNL     1     -31.540  18.451  -0.391  1.00 20.00    -0.117 C 
HETATM    3  C9  UNL     1     -32.202  18.380  -1.702  1.00 20.00     0.095 C 
ENDROOT
BRANCH   3   4
HETATM    4  C10 UNL     1     -33.370  17.389  -1.708  1.00 20.00     0.044 C 
BRANCH   4   5
HETATM    5  C11 UNL     1     -33.273  16.329  -2.812  1.00 20.00     0.123 C 
BRANCH   5   6
HETATM    6  C8  UNL     1     -34.608  15.610  -2.999  1.00 20.00     0.018 C 
HETATM    7  C6  UNL     1     -34.418  14.306  -3.793  1.00 20.00     0.034 C 
HETATM    8  C4  UNL     1     -35.712  13.712  -4.267  1.00 20.00    -0.030 C 
HETATM    9  C3  UNL     1     -36.869  14.388  -4.275  1.00 20.00    -0.031 C 
HETATM   10  C5  UNL     1     -36.986  15.818  -3.843  1.00 20.00     0.027 C 
HETATM   11  C7  UNL     1     -35.631  16.518  -3.695  1.00 20.00     0.011 C 
ENDBRANCH   5   6
BRANCH   5  12
HETATM   12  O12 UNL     1     -32.918  16.958  -4.039  1.00 20.00    -0.395 OA
HETATM   13  H28 UNL     1     -33.593  16.704  -4.687  1.00 20.00     0.210 HD
ENDBRANCH   5  12
ENDBRANCH   4   5
ENDBRANCH   3   4
TORSDOF 4
ENDMDL
MODEL 9
REMARK VINA RESULT:      -4.6     11.126     11.687
REMARK  4 active torsions:
REMARK  status: ('A' for Active; 'I' for Inactive)
REMARK    1  A    between atoms: C8_8  and  C11_11 
REMARK    2  A    between atoms: C9_9  and  C10_10 
REMARK    3  A    between atoms: C10_10  and  C11_11 
REMARK    4  A    between atoms: C11_11  and  O12_12 
ROOT
HETATM    1  C1  UNL     1     -36.563  14.381  -4.166  1.00 20.00     0.012 C 
HETATM    2  C2  UNL     1     -35.367  14.427  -4.258  1.00 20.00    -0.117 C 
HETATM    3  C9  UNL     1     -33.903  14.480  -4.375  1.00 20.00     0.095 C 
ENDROOT
BRANCH   3   4
HETATM    4  C10 UNL     1     -33.285  15.541  -3.458  1.00 20.00     0.044 C 
BRANCH   4   5
HETATM    5  C11 UNL     1     -33.908  16.933  -3.619  1.00 20.00     0.123 C 
BRANCH   5   6
HETATM    6  C8  UNL     1     -34.221  17.552  -2.258  1.00 20.00     0.018 C 
HETATM    7  C6  UNL     1     -32.924  17.938  -1.525  1.00 20.00     0.034 C 
HETATM    8  C4  UNL     1     -33.142  18.270  -0.079  1.00 20.00    -0.030 C 
HETATM    9  C3  UNL     1     -34.270  17.967   0.581  1.00 20.00    -0.031 C 
HETATM   10  C5  UNL     1     -35.416  17.236  -0.050  1.00 20.00     0.027 C 
HETATM   11  C7  UNL     1     -35.061  16.600  -1.397  1.00 20.00     0.011 C 
ENDBRANCH   5   6
BRANCH   5  12
HETATM   12  O12 UNL     1     -32.994  17.780  -4.307  1.00 20.00    -0.395 OA
HETATM   13  H28 UNL     1     -33.267  17.787  -5.237  1.00 20.00     0.210 HD
ENDBRANCH   5  12
ENDBRANCH   4   5
ENDBRANCH   3   4
TORSDOF 4
ENDMDL
