MODEL 1
REMARK VINA RESULT:      -4.6      0.000      0.000
REMARK  4 active torsions:
REMARK  status: ('A' for Active; 'I' for Inactive)
REMARK    1  A    between atoms: C2_2  and  C10_10 
REMARK    2  A    between atoms: C7_7  and  C11_11 
REMARK    3  A    between atoms: C10_10  and  N12_12 
REMARK    4  A    between atoms: C11_11  and  N12_12 
ROOT
HETATM    1  C1  UNL     1     -42.280   1.324  -3.822  1.00 20.00    -0.109 C 
HETATM    2  C2  UNL     1     -42.749   2.357  -3.427  1.00 20.00    -0.077 C 
HETATM    3  C8  UNL     1     -41.710   0.066  -4.301  1.00 20.00     0.112 C 
ENDROOT
BRANCH   2   4
HETATM    4  C10 UNL     1     -43.314   3.622  -2.947  1.00 20.00     0.362 C 
BRANCH   4   5
HETATM    5  N12 UNL     1     -42.800   3.952  -1.610  1.00 20.00     0.095 N 
HETATM    6  H31 UNL     1     -41.772   4.007  -1.677  1.00 20.00     0.317 HD
BRANCH   5   7
HETATM    7  C11 UNL     1     -43.345   5.164  -1.108  1.00 20.00     0.279 C 
BRANCH   7   8
HETATM    8  C7  UNL     1     -42.208   6.107  -0.711  1.00 20.00    -0.018 C 
HETATM    9  C5  UNL     1     -42.316   6.538   0.758  1.00 20.00     0.011 C 
HETATM   10  C3  UNL     1     -41.538   7.849   0.846  1.00 20.00     0.001 C 
HETATM   11  C4  UNL     1     -41.537   8.438  -0.563  1.00 20.00     0.001 C 
HETATM   12  C6  UNL     1     -42.312   7.455  -1.438  1.00 20.00     0.011 C 
HETATM   13  C9  UNL     1     -40.860   5.423  -0.994  1.00 20.00     0.017 C 
ENDBRANCH   7   8
ENDBRANCH   5   7
ENDBRANCH   4   5
ENDBRANCH   2   4
TORSDOF 4
ENDMDL
MODEL 2
REMARK VINA RESULT:      -4.5     11.425     13.218
REMARK  4 active torsions:
REMARK  status: ('A' for Active; 'I' for Inactive)
REMARK    1  A    between atoms: C2_2  and  C10_10 
REMARK    2  A    between atoms: C7_7  and  C11_11 
REMARK    3  A    between atoms: C10_10  and  N12_12 
REMARK    4  A    between atoms: C11_11  and  N12_12 
ROOT
HETATM    1  C1  UNL     1     -38.464  14.886  -4.181  1.00 20.00    -0.109 C 
HETATM    2  C2  UNL     1     -37.428  14.363  -4.488  1.00 20.00    -0.077 C 
HETATM    3  C8  UNL     1     -39.726  15.522  -3.805  1.00 20.00     0.112 C 
ENDROOT
BRANCH   2   4
HETATM    4  C10 UNL     1     -36.166  13.721  -4.870  1.00 20.00     0.362 C 
BRANCH   4   5
HETATM    5  N12 UNL     1     -35.140  13.925  -3.838  1.00 20.00     0.095 N 
HETATM    6  H31 UNL     1     -34.726  13.005  -3.625  1.00 20.00     0.317 HD
BRANCH   5   7
HETATM    7  C11 UNL     1     -34.144  14.853  -4.244  1.00 20.00     0.279 C 
BRANCH   7   8
HETATM    8  C7  UNL     1     -34.300  16.148  -3.445  1.00 20.00    -0.018 C 
HETATM    9  C5  UNL     1     -32.953  16.645  -2.904  1.00 20.00     0.011 C 
HETATM   10  C3  UNL     1     -33.307  17.532  -1.712  1.00 20.00     0.001 C 
HETATM   11  C4  UNL     1     -34.679  17.066  -1.227  1.00 20.00     0.001 C 
HETATM   12  C6  UNL     1     -35.091  15.921  -2.150  1.00 20.00     0.011 C 
HETATM   13  C9  UNL     1     -34.972  17.212  -4.330  1.00 20.00     0.017 C 
ENDBRANCH   7   8
ENDBRANCH   5   7
ENDBRANCH   4   5
ENDBRANCH   2   4
TORSDOF 4
ENDMDL
MODEL 3
REMARK VINA RESULT:      -4.4     13.283     16.218
REMARK  4 active torsions:
REMARK  status: ('A' for Active; 'I' for Inactive)
REMARK    1  A    between atoms: C2_2  and  C10_10 
REMARK    2  A    between atoms: C7_7  and  C11_11 
REMARK    3  A    between atoms: C10_10  and  N12_12 
REMARK    4  A    between atoms: C11_11  and  N12_12 
ROOT
HETATM    1  C1  UNL     1     -32.195  18.195   1.973  1.00 20.00    -0.109 C 
HETATM    2  C2  UNL     1     -31.932  18.528   0.849  1.00 20.00    -0.077 C 
HETATM    3  C8  UNL     1     -32.517  17.792   3.340  1.00 20.00     0.112 C 
ENDROOT
BRANCH   2   4
HETATM    4  C10 UNL     1     -31.602  18.936  -0.520  1.00 20.00     0.362 C 
BRANCH   4   5
HETATM    5  N12 UNL     1     -32.137  17.976  -1.497  1.00 20.00     0.095 N 
HETATM    6  H31 UNL     1     -31.665  17.074  -1.336  1.00 20.00     0.317 HD
BRANCH   5   7
HETATM    7  C11 UNL     1     -33.548  17.840  -1.401  1.00 20.00     0.279 C 
BRANCH   7   8
HETATM    8  C7  UNL     1     -34.065  17.045  -2.601  1.00 20.00    -0.018 C 
HETATM    9  C5  UNL     1     -35.063  15.960  -2.173  1.00 20.00     0.011 C 
HETATM   10  C3  UNL     1     -35.033  14.928  -3.299  1.00 20.00     0.001 C 
HETATM   11  C4  UNL     1     -33.678  15.084  -3.985  1.00 20.00     0.001 C 
HETATM   12  C6  UNL     1     -32.952  16.206  -3.244  1.00 20.00     0.011 C 
HETATM   13  C9  UNL     1     -34.693  18.012  -3.618  1.00 20.00     0.017 C 
ENDBRANCH   7   8
ENDBRANCH   5   7
ENDBRANCH   4   5
ENDBRANCH   2   4
TORSDOF 4
ENDMDL
MODEL 4
REMARK VINA RESULT:      -4.4     12.621     15.804
REMARK  4 active torsions:
REMARK  status: ('A' for Active; 'I' for Inactive)
REMARK    1  A    between atoms: C2_2  and  C10_10 
REMARK    2  A    between atoms: C7_7  and  C11_11 
REMARK    3  A    between atoms: C10_10  and  N12_12 
REMARK    4  A    between atoms: C11_11  and  N12_12 
ROOT
HETATM    1  C1  UNL     1     -31.595  18.523  -0.737  1.00 20.00    -0.109 C 
HETATM    2  C2  UNL     1     -32.029  18.830  -1.814  1.00 20.00    -0.077 C 
HETATM    3  C8  UNL     1     -31.065  18.150   0.574  1.00 20.00     0.112 C 
ENDROOT
BRANCH   2   4
HETATM    4  C10 UNL     1     -32.554  19.200  -3.132  1.00 20.00     0.362 C 
BRANCH   4   5
HETATM    5  N12 UNL     1     -32.947  18.006  -3.894  1.00 20.00     0.095 N 
HETATM    6  H31 UNL     1     -32.412  17.208  -3.519  1.00 20.00     0.317 HD
BRANCH   5   7
HETATM    7  C11 UNL     1     -34.345  17.761  -3.827  1.00 20.00     0.279 C 
BRANCH   7   8
HETATM    8  C7  UNL     1     -34.587  16.308  -3.414  1.00 20.00    -0.018 C 
HETATM    9  C5  UNL     1     -33.431  15.396  -3.848  1.00 20.00     0.011 C 
HETATM   10  C3  UNL     1     -34.034  13.995  -3.912  1.00 20.00     0.001 C 
HETATM   11  C4  UNL     1     -35.535  14.186  -4.123  1.00 20.00     0.001 C 
HETATM   12  C6  UNL     1     -35.770  15.694  -4.175  1.00 20.00     0.011 C 
HETATM   13  C9  UNL     1     -34.808  16.244  -1.894  1.00 20.00     0.017 C 
ENDBRANCH   7   8
ENDBRANCH   5   7
ENDBRANCH   4   5
ENDBRANCH   2   4
TORSDOF 4
ENDMDL
MODEL 5
REMARK VINA RESULT:      -4.4     11.788     13.692
REMARK  4 active torsions:
REMARK  status: ('A' for Active; 'I' for Inactive)
REMARK    1  A    between atoms: C2_2  and  C10_10 
REMARK    2  A    between atoms: C7_7  and  C11_11 
REMARK    3  A    between atoms: C10_10  and  N12_12 
REMARK    4  A    between atoms: C11_11  and  N12_12 
ROOT
HETATM    1  C1  UNL     1     -35.007  14.938  -6.718  1.00 20.00    -0.109 C 
HETATM    2  C2  UNL     1     -35.759  14.600  -5.845  1.00 20.00    -0.077 C 
HETATM    3  C8  UNL     1     -34.092  15.350  -7.781  1.00 20.00     0.112 C 
ENDROOT
BRANCH   2   4
HETATM    4  C10 UNL     1     -36.677  14.195  -4.776  1.00 20.00     0.362 C 
BRANCH   4   5
HETATM    5  N12 UNL     1     -36.482  15.022  -3.576  1.00 20.00     0.095 N 
HETATM    6  H31 UNL     1     -37.127  14.673  -2.850  1.00 20.00     0.317 HD
BRANCH   5   7
HETATM    7  C11 UNL     1     -35.138  15.002  -3.120  1.00 20.00     0.279 C 
BRANCH   7   8
HETATM    8  C7  UNL     1     -34.727  16.410  -2.684  1.00 20.00    -0.018 C 
HETATM    9  C5  UNL     1     -33.202  16.582  -2.690  1.00 20.00     0.011 C 
HETATM   10  C3  UNL     1     -32.929  17.736  -1.727  1.00 20.00     0.001 C 
HETATM   11  C4  UNL     1     -34.123  17.788  -0.776  1.00 20.00     0.001 C 
HETATM   12  C6  UNL     1     -35.063  16.665  -1.208  1.00 20.00     0.011 C 
HETATM   13  C9  UNL     1     -35.409  17.442  -3.597  1.00 20.00     0.017 C 
ENDBRANCH   7   8
ENDBRANCH   5   7
ENDBRANCH   4   5
ENDBRANCH   2   4
TORSDOF 4
ENDMDL
MODEL 6
REMARK VINA RESULT:      -4.4     12.389     15.617
REMARK  4 active torsions:
REMARK  status: ('A' for Active; 'I' for Inactive)
REMARK    1  A    between atoms: C2_2  and  C10_10 
REMARK    2  A    between atoms: C7_7  and  C11_11 
REMARK    3  A    between atoms: C10_10  and  N12_12 
REMARK    4  A    between atoms: C11_11  and  N12_12 
ROOT
HETATM    1  C1  UNL     1     -31.569  18.425  -0.745  1.00 20.00    -0.109 C 
HETATM    2  C2  UNL     1     -32.168  18.551  -1.778  1.00 20.00    -0.077 C 
HETATM    3  C8  UNL     1     -30.838  18.272   0.512  1.00 20.00     0.112 C 
ENDROOT
BRANCH   2   4
HETATM    4  C10 UNL     1     -32.898  18.698  -3.041  1.00 20.00     0.362 C 
BRANCH   4   5
HETATM    5  N12 UNL     1     -32.906  17.434  -3.792  1.00 20.00     0.095 N 
HETATM    6  H31 UNL     1     -31.929  17.210  -4.034  1.00 20.00     0.317 HD
BRANCH   5   7
HETATM    7  C11 UNL     1     -33.507  16.376  -3.058  1.00 20.00     0.279 C 
BRANCH   7   8
HETATM    8  C7  UNL     1     -34.021  15.312  -4.029  1.00 20.00    -0.018 C 
HETATM    9  C5  UNL     1     -34.663  15.943  -5.272  1.00 20.00     0.011 C 
HETATM   10  C3  UNL     1     -35.603  14.871  -5.821  1.00 20.00     0.001 C 
HETATM   11  C4  UNL     1     -35.948  13.964  -4.642  1.00 20.00     0.001 C 
HETATM   12  C6  UNL     1     -35.199  14.527  -3.436  1.00 20.00     0.011 C 
HETATM   13  C9  UNL     1     -32.864  14.374  -4.413  1.00 20.00     0.017 C 
ENDBRANCH   7   8
ENDBRANCH   5   7
ENDBRANCH   4   5
ENDBRANCH   2   4
TORSDOF 4
ENDMDL
MODEL 7
REMARK VINA RESULT:      -4.3     11.870     14.019
REMARK  4 active torsions:
REMARK  status: ('A' for Active; 'I' for Inactive)
REMARK    1  A    between atoms: C2_2  and  C10_10 
REMARK    2  A    between atoms: C7_7  and  C11_11 
REMARK    3  A    between atoms: C10_10  and  N12_12 
REMARK    4  A    between atoms: C11_11  and  N12_12 
ROOT
HETATM    1  C1  UNL     1     -34.679  16.688  -1.531  1.00 20.00    -0.109 C 
HETATM    2  C2  UNL     1     -33.944  16.311  -2.403  1.00 20.00    -0.077 C 
HETATM    3  C8  UNL     1     -35.574  17.149  -0.471  1.00 20.00     0.112 C 
ENDROOT
BRANCH   2   4
HETATM    4  C10 UNL     1     -33.041  15.855  -3.464  1.00 20.00     0.362 C 
BRANCH   4   5
HETATM    5  N12 UNL     1     -33.573  16.203  -4.790  1.00 20.00     0.095 N 
HETATM    6  H31 UNL     1     -32.843  16.735  -5.287  1.00 20.00     0.317 HD
BRANCH   5   7
HETATM    7  C11 UNL     1     -33.965  15.057  -5.530  1.00 20.00     0.279 C 
BRANCH   7   8
HETATM    8  C7  UNL     1     -35.492  14.999  -5.606  1.00 20.00    -0.018 C 
HETATM    9  C5  UNL     1     -36.130  16.336  -5.203  1.00 20.00     0.011 C 
HETATM   10  C3  UNL     1     -37.551  15.982  -4.767  1.00 20.00     0.001 C 
HETATM   11  C4  UNL     1     -37.515  14.514  -4.348  1.00 20.00     0.001 C 
HETATM   12  C6  UNL     1     -36.075  14.047  -4.552  1.00 20.00     0.011 C 
HETATM   13  C9  UNL     1     -35.914  14.584  -7.025  1.00 20.00     0.017 C 
ENDBRANCH   7   8
ENDBRANCH   5   7
ENDBRANCH   4   5
ENDBRANCH   2   4
TORSDOF 4
ENDMDL
MODEL 8
REMARK VINA RESULT:      -4.3     12.728     15.120
REMARK  4 active torsions:
REMARK  status: ('A' for Active; 'I' for Inactive)
REMARK    1  A    between atoms: C2_2  and  C10_10 
REMARK    2  A    between atoms: C7_7  and  C11_11 
REMARK    3  A    between atoms: C10_10  and  N12_12 
REMARK    4  A    between atoms: C11_11  and  N12_12 
ROOT
HETATM    1  C1  UNL     1     -32.817  18.139  -0.377  1.00 20.00    -0.109 C 
HETATM    2  C2  UNL     1     -33.964  17.784  -0.328  1.00 20.00    -0.077 C 
HETATM    3  C8  UNL     1     -31.421  18.570  -0.438  1.00 20.00     0.112 C 
ENDROOT
BRANCH   2   4
HETATM    4  C10 UNL     1     -35.361  17.344  -0.267  1.00 20.00     0.362 C 
BRANCH   4   5
HETATM    5  N12 UNL     1     -35.745  16.643  -1.501  1.00 20.00     0.095 N 
HETATM    6  H31 UNL     1     -36.767  16.513  -1.478  1.00 20.00     0.317 HD
BRANCH   5   7
HETATM    7  C11 UNL     1     -35.343  17.348  -2.667  1.00 20.00     0.279 C 
BRANCH   7   8
HETATM    8  C7  UNL     1     -34.804  16.355  -3.699  1.00 20.00    -0.018 C 
HETATM    9  C5  UNL     1     -35.364  14.944  -3.474  1.00 20.00     0.011 C 
HETATM   10  C3  UNL     1     -34.356  14.007  -4.136  1.00 20.00     0.001 C 
HETATM   11  C4  UNL     1     -33.029  14.763  -4.168  1.00 20.00     0.001 C 
HETATM   12  C6  UNL     1     -33.297  16.122  -3.526  1.00 20.00     0.011 C 
HETATM   13  C9  UNL     1     -35.130  16.867  -5.112  1.00 20.00     0.017 C 
ENDBRANCH   7   8
ENDBRANCH   5   7
ENDBRANCH   4   5
ENDBRANCH   2   4
TORSDOF 4
ENDMDL
MODEL 9
REMARK VINA RESULT:      -4.2     12.910     15.455
REMARK  4 active torsions:
REMARK  status: ('A' for Active; 'I' for Inactive)
REMARK    1  A    between atoms: C2_2  and  C10_10 
REMARK    2  A    between atoms: C7_7  and  C11_11 
REMARK    3  A    between atoms: C10_10  and  N12_12 
REMARK    4  A    between atoms: C11_11  and  N12_12 
ROOT
HETATM    1  C1  UNL     1     -33.491  18.024   2.294  1.00 20.00    -0.109 C 
HETATM    2  C2  UNL     1     -34.297  18.124   1.409  1.00 20.00    -0.077 C 
HETATM    3  C8  UNL     1     -32.510  17.903   3.371  1.00 20.00     0.112 C 
ENDROOT
BRANCH   2   4
HETATM    4  C10 UNL     1     -35.274  18.248   0.323  1.00 20.00     0.362 C 
BRANCH   4   5
HETATM    5  N12 UNL     1     -35.120  17.155  -0.648  1.00 20.00     0.095 N 
HETATM    6  H31 UNL     1     -35.992  17.100  -1.195  1.00 20.00     0.317 HD
BRANCH   5   7
HETATM    7  C11 UNL     1     -33.995  17.343  -1.496  1.00 20.00     0.279 C 
BRANCH   7   8
HETATM    8  C7  UNL     1     -34.225  16.603  -2.815  1.00 20.00    -0.018 C 
HETATM    9  C5  UNL     1     -35.114  15.367  -2.624  1.00 20.00     0.011 C 
HETATM   10  C3  UNL     1     -34.785  14.456  -3.805  1.00 20.00     0.001 C 
HETATM   11  C4  UNL     1     -33.381  14.844  -4.265  1.00 20.00     0.001 C 
HETATM   12  C6  UNL     1     -32.928  15.974  -3.343  1.00 20.00     0.011 C 
HETATM   13  C9  UNL     1     -34.831  17.574  -3.842  1.00 20.00     0.017 C 
ENDBRANCH   7   8
ENDBRANCH   5   7
ENDBRANCH   4   5
ENDBRANCH   2   4
TORSDOF 4
ENDMDL
