MODEL 1
REMARK VINA RESULT:      -4.1      0.000      0.000
REMARK  4 active torsions:
REMARK  status: ('A' for Active; 'I' for Inactive)
REMARK    1  A    between atoms: C4_4  and  C8_8 
REMARK    2  A    between atoms: C5_5  and  C9_9 
REMARK    3  A    between atoms: C8_8  and  N10_10 
REMARK    4  A    between atoms: C9_9  and  N10_10 
ROOT
HETATM    1  C7  UNL     1     -33.033  14.380  -4.482  1.00 20.00     0.310 C 
HETATM    2  N10 UNL     1     -34.301  15.114  -4.624  1.00 20.00     0.087 N 
ENDROOT
BRANCH   2   3
HETATM    3  C8  UNL     1     -34.227  16.412  -4.012  1.00 20.00     0.277 C 
BRANCH   3   4
HETATM    4  C4  UNL     1     -33.693  16.323  -2.624  1.00 20.00     0.018 A 
HETATM    5  C1  UNL     1     -34.298  17.156  -1.523  1.00 20.00     0.011 A 
HETATM    6  C3  UNL     1     -32.894  17.438  -1.990  1.00 20.00    -0.012 A 
HETATM    7  C6  UNL     1     -32.581  18.706  -2.707  1.00 20.00     0.010 C 
ENDBRANCH   3   4
ENDBRANCH   2   3
BRANCH   2   8
HETATM    8  C9  UNL     1     -35.395  14.313  -4.053  1.00 20.00     0.305 C 
BRANCH   8   9
HETATM    9  C5  UNL     1     -36.643  14.455  -4.856  1.00 20.00     0.173 A 
HETATM   10  C2  UNL     1     -37.893  15.036  -4.257  1.00 20.00     0.201 A 
HETATM   11  O11 UNL     1     -37.724  13.620  -4.428  1.00 20.00    -0.379 OA
ENDBRANCH   8   9
ENDBRANCH   2   8
TORSDOF 4
ENDMDL
MODEL 2
REMARK VINA RESULT:      -3.9      1.475      1.687
REMARK  4 active torsions:
REMARK  status: ('A' for Active; 'I' for Inactive)
REMARK    1  A    between atoms: C4_4  and  C8_8 
REMARK    2  A    between atoms: C5_5  and  C9_9 
REMARK    3  A    between atoms: C8_8  and  N10_10 
REMARK    4  A    between atoms: C9_9  and  N10_10 
ROOT
HETATM    1  C7  UNL     1     -34.385  16.650  -7.112  1.00 20.00     0.310 C 
HETATM    2  N10 UNL     1     -34.916  16.272  -5.792  1.00 20.00     0.087 N 
ENDROOT
BRANCH   2   3
HETATM    3  C8  UNL     1     -34.324  17.058  -4.744  1.00 20.00     0.277 C 
BRANCH   3   4
HETATM    4  C4  UNL     1     -33.805  16.191  -3.649  1.00 20.00     0.018 A 
HETATM    5  C1  UNL     1     -34.431  16.241  -2.280  1.00 20.00     0.011 A 
HETATM    6  C3  UNL     1     -33.026  16.745  -2.478  1.00 20.00    -0.012 A 
HETATM    7  C6  UNL     1     -32.720  18.195  -2.335  1.00 20.00     0.010 C 
ENDBRANCH   3   4
ENDBRANCH   2   3
BRANCH   2   8
HETATM    8  C9  UNL     1     -34.700  14.834  -5.571  1.00 20.00     0.305 C 
BRANCH   8   9
HETATM    9  C5  UNL     1     -35.991  14.087  -5.583  1.00 20.00     0.173 A 
HETATM   10  C2  UNL     1     -36.869  14.033  -4.365  1.00 20.00     0.201 A 
HETATM   11  O11 UNL     1     -36.020  12.936  -4.734  1.00 20.00    -0.379 OA
ENDBRANCH   8   9
ENDBRANCH   2   8
TORSDOF 4
ENDMDL
MODEL 3
REMARK VINA RESULT:      -3.9      2.213      2.922
REMARK  4 active torsions:
REMARK  status: ('A' for Active; 'I' for Inactive)
REMARK    1  A    between atoms: C4_4  and  C8_8 
REMARK    2  A    between atoms: C5_5  and  C9_9 
REMARK    3  A    between atoms: C8_8  and  N10_10 
REMARK    4  A    between atoms: C9_9  and  N10_10 
ROOT
HETATM    1  C7  UNL     1     -37.724  14.502  -4.303  1.00 20.00     0.310 C 
HETATM    2  N10 UNL     1     -36.261  14.603  -4.434  1.00 20.00     0.087 N 
ENDROOT
BRANCH   2   3
HETATM    3  C8  UNL     1     -35.772  15.845  -3.901  1.00 20.00     0.277 C 
BRANCH   3   4
HETATM    4  C4  UNL     1     -34.958  15.620  -2.674  1.00 20.00     0.018 A 
HETATM    5  C1  UNL     1     -34.892  16.678  -1.602  1.00 20.00     0.011 A 
HETATM    6  C3  UNL     1     -33.664  16.357  -2.413  1.00 20.00    -0.012 A 
HETATM    7  C6  UNL     1     -33.109  17.360  -3.364  1.00 20.00     0.010 C 
ENDBRANCH   3   4
ENDBRANCH   2   3
BRANCH   2   8
HETATM    8  C9  UNL     1     -35.884  14.440  -5.847  1.00 20.00     0.305 C 
BRANCH   8   9
HETATM    9  C5  UNL     1     -34.745  15.332  -6.208  1.00 20.00     0.173 A 
HETATM   10  C2  UNL     1     -34.133  15.298  -7.580  1.00 20.00     0.201 A 
HETATM   11  O11 UNL     1     -33.512  14.651  -6.458  1.00 20.00    -0.379 OA
ENDBRANCH   8   9
ENDBRANCH   2   8
TORSDOF 4
ENDMDL
MODEL 4
REMARK VINA RESULT:      -3.8      3.555      5.671
REMARK  4 active torsions:
REMARK  status: ('A' for Active; 'I' for Inactive)
REMARK    1  A    between atoms: C4_4  and  C8_8 
REMARK    2  A    between atoms: C5_5  and  C9_9 
REMARK    3  A    between atoms: C8_8  and  N10_10 
REMARK    4  A    between atoms: C9_9  and  N10_10 
ROOT
HETATM    1  C7  UNL     1     -33.940  19.206  -3.368  1.00 20.00     0.310 C 
HETATM    2  N10 UNL     1     -32.693  18.563  -2.924  1.00 20.00     0.087 N 
ENDROOT
BRANCH   2   3
HETATM    3  C8  UNL     1     -32.879  17.155  -2.703  1.00 20.00     0.277 C 
BRANCH   3   4
HETATM    4  C4  UNL     1     -34.173  16.687  -3.275  1.00 20.00     0.018 A 
HETATM    5  C1  UNL     1     -34.868  15.483  -2.694  1.00 20.00     0.011 A 
HETATM    6  C3  UNL     1     -34.289  15.415  -4.083  1.00 20.00    -0.012 A 
HETATM    7  C6  UNL     1     -33.119  14.538  -4.367  1.00 20.00     0.010 C 
ENDBRANCH   3   4
ENDBRANCH   2   3
BRANCH   2   8
HETATM    8  C9  UNL     1     -32.202  19.236  -1.712  1.00 20.00     0.305 C 
BRANCH   8   9
HETATM    9  C5  UNL     1     -31.715  18.248  -0.706  1.00 20.00     0.173 A 
HETATM   10  C2  UNL     1     -31.264  18.684   0.659  1.00 20.00     0.201 A 
HETATM   11  O11 UNL     1     -30.327  18.364  -0.380  1.00 20.00    -0.379 OA
ENDBRANCH   8   9
ENDBRANCH   2   8
TORSDOF 4
ENDMDL
MODEL 5
REMARK VINA RESULT:      -3.8      0.883      1.441
REMARK  4 active torsions:
REMARK  status: ('A' for Active; 'I' for Inactive)
REMARK    1  A    between atoms: C4_4  and  C8_8 
REMARK    2  A    between atoms: C5_5  and  C9_9 
REMARK    3  A    between atoms: C8_8  and  N10_10 
REMARK    4  A    between atoms: C9_9  and  N10_10 
ROOT
HETATM    1  C7  UNL     1     -34.082  15.030  -5.537  1.00 20.00     0.310 C 
HETATM    2  N10 UNL     1     -34.599  15.629  -4.295  1.00 20.00     0.087 N 
ENDROOT
BRANCH   2   3
HETATM    3  C8  UNL     1     -33.551  15.818  -3.329  1.00 20.00     0.277 C 
BRANCH   3   4
HETATM    4  C4  UNL     1     -33.416  17.254  -2.955  1.00 20.00     0.018 A 
HETATM    5  C1  UNL     1     -32.633  17.648  -1.730  1.00 20.00     0.011 A 
HETATM    6  C3  UNL     1     -34.125  17.850  -1.761  1.00 20.00    -0.012 A 
HETATM    7  C6  UNL     1     -35.011  17.047  -0.873  1.00 20.00     0.010 C 
ENDBRANCH   3   4
ENDBRANCH   2   3
BRANCH   2   8
HETATM    8  C9  UNL     1     -35.679  14.788  -3.759  1.00 20.00     0.305 C 
BRANCH   8   9
HETATM    9  C5  UNL     1     -36.809  14.680  -4.726  1.00 20.00     0.173 A 
HETATM   10  C2  UNL     1     -38.217  15.013  -4.319  1.00 20.00     0.201 A 
HETATM   11  O11 UNL     1     -37.760  13.655  -4.418  1.00 20.00    -0.379 OA
ENDBRANCH   8   9
ENDBRANCH   2   8
TORSDOF 4
ENDMDL
MODEL 6
REMARK VINA RESULT:      -3.8     17.264     18.399
REMARK  4 active torsions:
REMARK  status: ('A' for Active; 'I' for Inactive)
REMARK    1  A    between atoms: C4_4  and  C8_8 
REMARK    2  A    between atoms: C5_5  and  C9_9 
REMARK    3  A    between atoms: C8_8  and  N10_10 
REMARK    4  A    between atoms: C9_9  and  N10_10 
ROOT
HETATM    1  C7  UNL     1     -22.876  17.820  12.332  1.00 20.00     0.310 C 
HETATM    2  N10 UNL     1     -23.263  18.167  10.954  1.00 20.00     0.087 N 
ENDROOT
BRANCH   2   3
HETATM    3  C8  UNL     1     -24.667  18.461  10.862  1.00 20.00     0.277 C 
BRANCH   3   4
HETATM    4  C4  UNL     1     -25.367  18.147  12.139  1.00 20.00     0.018 A 
HETATM    5  C1  UNL     1     -26.318  16.980  12.216  1.00 20.00     0.011 A 
HETATM    6  C3  UNL     1     -26.847  18.385  12.332  1.00 20.00    -0.012 A 
HETATM    7  C6  UNL     1     -27.712  18.954  11.260  1.00 20.00     0.010 C 
ENDBRANCH   3   4
ENDBRANCH   2   3
BRANCH   2   8
HETATM    8  C9  UNL     1     -22.884  17.071  10.050  1.00 20.00     0.305 C 
BRANCH   8   9
HETATM    9  C5  UNL     1     -21.762  17.474   9.155  1.00 20.00     0.173 A 
HETATM   10  C2  UNL     1     -21.955  17.596   7.670  1.00 20.00     0.201 A 
HETATM   11  O11 UNL     1     -21.319  16.451   8.258  1.00 20.00    -0.379 OA
ENDBRANCH   8   9
ENDBRANCH   2   8
TORSDOF 4
ENDMDL
MODEL 7
REMARK VINA RESULT:      -3.8      3.363      5.634
REMARK  4 active torsions:
REMARK  status: ('A' for Active; 'I' for Inactive)
REMARK    1  A    between atoms: C4_4  and  C8_8 
REMARK    2  A    between atoms: C5_5  and  C9_9 
REMARK    3  A    between atoms: C8_8  and  N10_10 
REMARK    4  A    between atoms: C9_9  and  N10_10 
ROOT
HETATM    1  C7  UNL     1     -34.286  17.534  -0.970  1.00 20.00     0.310 C 
HETATM    2  N10 UNL     1     -33.807  18.191  -2.198  1.00 20.00     0.087 N 
ENDROOT
BRANCH   2   3
HETATM    3  C8  UNL     1     -33.997  17.351  -3.349  1.00 20.00     0.277 C 
BRANCH   3   4
HETATM    4  C4  UNL     1     -33.660  15.933  -3.041  1.00 20.00     0.018 A 
HETATM    5  C1  UNL     1     -33.222  15.001  -4.141  1.00 20.00     0.011 A 
HETATM    6  C3  UNL     1     -34.546  14.781  -3.458  1.00 20.00    -0.012 A 
HETATM    7  C6  UNL     1     -35.819  14.981  -4.205  1.00 20.00     0.010 C 
ENDBRANCH   3   4
ENDBRANCH   2   3
BRANCH   2   8
HETATM    8  C9  UNL     1     -32.394  18.564  -2.032  1.00 20.00     0.305 C 
BRANCH   8   9
HETATM    9  C5  UNL     1     -31.903  18.223  -0.666  1.00 20.00     0.173 A 
HETATM   10  C2  UNL     1     -31.269  19.262   0.215  1.00 20.00     0.201 A 
HETATM   11  O11 UNL     1     -30.483  18.301  -0.507  1.00 20.00    -0.379 OA
ENDBRANCH   8   9
ENDBRANCH   2   8
TORSDOF 4
ENDMDL
MODEL 8
REMARK VINA RESULT:      -3.8      1.437      2.119
REMARK  4 active torsions:
REMARK  status: ('A' for Active; 'I' for Inactive)
REMARK    1  A    between atoms: C4_4  and  C8_8 
REMARK    2  A    between atoms: C5_5  and  C9_9 
REMARK    3  A    between atoms: C8_8  and  N10_10 
REMARK    4  A    between atoms: C9_9  and  N10_10 
ROOT
HETATM    1  C7  UNL     1     -35.042  16.820  -6.384  1.00 20.00     0.310 C 
HETATM    2  N10 UNL     1     -36.051  16.982  -5.325  1.00 20.00     0.087 N 
ENDROOT
BRANCH   2   3
HETATM    3  C8  UNL     1     -35.444  17.011  -4.022  1.00 20.00     0.277 C 
BRANCH   3   4
HETATM    4  C4  UNL     1     -33.963  16.878  -4.116  1.00 20.00     0.018 A 
HETATM    5  C1  UNL     1     -33.263  15.714  -3.463  1.00 20.00     0.011 A 
HETATM    6  C3  UNL     1     -33.053  17.107  -2.932  1.00 20.00    -0.012 A 
HETATM    7  C6  UNL     1     -33.569  17.484  -1.586  1.00 20.00     0.010 C 
ENDBRANCH   3   4
ENDBRANCH   2   3
BRANCH   2   8
HETATM    8  C9  UNL     1     -37.046  15.904  -5.430  1.00 20.00     0.305 C 
BRANCH   8   9
HETATM    9  C5  UNL     1     -36.882  14.910  -4.330  1.00 20.00     0.173 A 
HETATM   10  C2  UNL     1     -36.278  13.559  -4.586  1.00 20.00     0.201 A 
HETATM   11  O11 UNL     1     -37.697  13.741  -4.459  1.00 20.00    -0.379 OA
ENDBRANCH   8   9
ENDBRANCH   2   8
TORSDOF 4
ENDMDL
MODEL 9
REMARK VINA RESULT:      -3.6      1.751      2.780
REMARK  4 active torsions:
REMARK  status: ('A' for Active; 'I' for Inactive)
REMARK    1  A    between atoms: C4_4  and  C8_8 
REMARK    2  A    between atoms: C5_5  and  C9_9 
REMARK    3  A    between atoms: C8_8  and  N10_10 
REMARK    4  A    between atoms: C9_9  and  N10_10 
ROOT
HETATM    1  C7  UNL     1     -37.792  18.329  -3.534  1.00 20.00     0.310 C 
HETATM    2  N10 UNL     1     -36.829  17.223  -3.407  1.00 20.00     0.087 N 
ENDROOT
BRANCH   2   3
HETATM    3  C8  UNL     1     -35.475  17.690  -3.520  1.00 20.00     0.277 C 
BRANCH   3   4
HETATM    4  C4  UNL     1     -34.646  17.221  -2.374  1.00 20.00     0.018 A 
HETATM    5  C1  UNL     1     -33.193  17.608  -2.280  1.00 20.00     0.011 A 
HETATM    6  C3  UNL     1     -33.570  16.171  -2.528  1.00 20.00    -0.012 A 
HETATM    7  C6  UNL     1     -33.261  15.529  -3.836  1.00 20.00     0.010 C 
ENDBRANCH   3   4
ENDBRANCH   2   3
BRANCH   2   8
HETATM    8  C9  UNL     1     -37.129  16.196  -4.417  1.00 20.00     0.305 C 
BRANCH   8   9
HETATM    9  C5  UNL     1     -36.946  14.824  -3.861  1.00 20.00     0.173 A 
HETATM   10  C2  UNL     1     -36.390  13.711  -4.703  1.00 20.00     0.201 A 
HETATM   11  O11 UNL     1     -37.797  13.829  -4.440  1.00 20.00    -0.379 OA
ENDBRANCH   8   9
ENDBRANCH   2   8
TORSDOF 4
ENDMDL
