MODEL 1
REMARK VINA RESULT:      -4.5      0.000      0.000
REMARK  2 active torsions:
REMARK  status: ('A' for Active; 'I' for Inactive)
REMARK    1  A    between atoms: C3_3  and  C8_8 
REMARK    2  A    between atoms: C10_10  and  N11_11 
ROOT
HETATM    1  C1  UNL     1     -35.419  17.035   0.081  1.00 20.00     0.013 C 
HETATM    2  C2  UNL     1     -35.268  17.264  -1.088  1.00 20.00    -0.087 C 
HETATM    3  C10 UNL     1     -35.084  17.548  -2.513  1.00 20.00     0.364 C 
ENDROOT
BRANCH   3   4
HETATM    4  N11 UNL     1     -34.914  16.307  -3.269  1.00 20.00     0.100 N 
HETATM    5  C6  UNL     1     -33.487  16.006  -3.448  1.00 20.00     0.273 C 
HETATM    6  C4  UNL     1     -33.295  14.677  -4.178  1.00 20.00     0.031 C 
HETATM    7  C5  UNL     1     -34.019  14.665  -5.521  1.00 20.00     0.015 C 
HETATM    8  C8  UNL     1     -35.479  15.099  -5.375  1.00 20.00     0.083 C 
HETATM    9  C7  UNL     1     -35.604  16.396  -4.566  1.00 20.00     0.285 C 
BRANCH   8  10
HETATM   10  C3  UNL     1     -36.305  14.001  -4.762  1.00 20.00     0.129 C 
HETATM   11  C9  UNL     1     -37.666  14.385  -4.250  1.00 20.00     0.091 C 
HETATM   12  O12 UNL     1     -35.888  12.846  -4.686  1.00 20.00    -0.298 OA
ENDBRANCH   8  10
ENDBRANCH   3   4
TORSDOF 2
ENDMDL
MODEL 2
REMARK VINA RESULT:      -4.3      3.374      5.759
REMARK  2 active torsions:
REMARK  status: ('A' for Active; 'I' for Inactive)
REMARK    1  A    between atoms: C3_3  and  C8_8 
REMARK    2  A    between atoms: C10_10  and  N11_11 
ROOT
HETATM    1  C1  UNL     1     -34.636  14.174  -3.748  1.00 20.00     0.013 C 
HETATM    2  C2  UNL     1     -33.910  15.128  -3.698  1.00 20.00    -0.087 C 
HETATM    3  C10 UNL     1     -33.023  16.293  -3.642  1.00 20.00     0.364 C 
ENDROOT
BRANCH   3   4
HETATM    4  N11 UNL     1     -33.103  16.940  -2.332  1.00 20.00     0.100 N 
HETATM    5  C6  UNL     1     -34.479  16.897  -1.821  1.00 20.00     0.273 C 
HETATM    6  C4  UNL     1     -34.564  17.510  -0.424  1.00 20.00     0.031 C 
HETATM    7  C5  UNL     1     -34.028  18.939  -0.404  1.00 20.00     0.015 C 
HETATM    8  C8  UNL     1     -32.644  19.028  -1.049  1.00 20.00     0.083 C 
HETATM    9  C7  UNL     1     -32.609  18.324  -2.412  1.00 20.00     0.285 C 
BRANCH   8  10
HETATM   10  C3  UNL     1     -31.589  18.472  -0.131  1.00 20.00     0.129 C 
HETATM   11  C9  UNL     1     -31.919  18.442   1.337  1.00 20.00     0.091 C 
HETATM   12  O12 UNL     1     -30.513  18.062  -0.560  1.00 20.00    -0.298 OA
ENDBRANCH   8  10
ENDBRANCH   3   4
TORSDOF 2
ENDMDL
MODEL 3
REMARK VINA RESULT:      -4.2      1.163      1.313
REMARK  2 active torsions:
REMARK  status: ('A' for Active; 'I' for Inactive)
REMARK    1  A    between atoms: C3_3  and  C8_8 
REMARK    2  A    between atoms: C10_10  and  N11_11 
ROOT
HETATM    1  C1  UNL     1     -35.483  17.094   0.531  1.00 20.00     0.013 C 
HETATM    2  C2  UNL     1     -35.379  17.320  -0.643  1.00 20.00    -0.087 C 
HETATM    3  C10 UNL     1     -35.250  17.599  -2.076  1.00 20.00     0.364 C 
ENDROOT
BRANCH   3   4
HETATM    4  N11 UNL     1     -35.590  16.416  -2.866  1.00 20.00     0.100 N 
HETATM    5  C6  UNL     1     -34.416  15.547  -3.020  1.00 20.00     0.273 C 
HETATM    6  C4  UNL     1     -34.774  14.274  -3.786  1.00 20.00     0.031 C 
HETATM    7  C5  UNL     1     -35.390  14.592  -5.146  1.00 20.00     0.015 C 
HETATM    8  C8  UNL     1     -36.536  15.597  -5.022  1.00 20.00     0.083 C 
HETATM    9  C7  UNL     1     -36.134  16.811  -4.175  1.00 20.00     0.285 C 
BRANCH   8  10
HETATM   10  C3  UNL     1     -37.768  14.937  -4.464  1.00 20.00     0.129 C 
HETATM   11  C9  UNL     1     -38.882  15.848  -4.024  1.00 20.00     0.091 C 
HETATM   12  O12 UNL     1     -37.859  13.714  -4.374  1.00 20.00    -0.298 OA
ENDBRANCH   8  10
ENDBRANCH   3   4
TORSDOF 2
ENDMDL
MODEL 4
REMARK VINA RESULT:      -4.1     11.419     12.371
REMARK  2 active torsions:
REMARK  status: ('A' for Active; 'I' for Inactive)
REMARK    1  A    between atoms: C3_3  and  C8_8 
REMARK    2  A    between atoms: C10_10  and  N11_11 
ROOT
HETATM    1  C1  UNL     1     -33.138   8.416   0.397  1.00 20.00     0.013 C 
HETATM    2  C2  UNL     1     -32.570   7.965   1.352  1.00 20.00    -0.087 C 
HETATM    3  C10 UNL     1     -31.872   7.416   2.518  1.00 20.00     0.364 C 
ENDROOT
BRANCH   3   4
HETATM    4  N11 UNL     1     -32.736   6.488   3.248  1.00 20.00     0.100 N 
HETATM    5  C6  UNL     1     -32.974   5.275   2.454  1.00 20.00     0.273 C 
HETATM    6  C4  UNL     1     -33.819   4.268   3.232  1.00 20.00     0.031 C 
HETATM    7  C5  UNL     1     -35.141   4.879   3.689  1.00 20.00     0.015 C 
HETATM    8  C8  UNL     1     -34.924   6.211   4.410  1.00 20.00     0.083 C 
HETATM    9  C7  UNL     1     -34.003   7.142   3.610  1.00 20.00     0.285 C 
BRANCH   8  10
HETATM   10  C3  UNL     1     -34.388   5.987   5.798  1.00 20.00     0.129 C 
HETATM   11  C9  UNL     1     -33.622   7.124   6.418  1.00 20.00     0.091 C 
HETATM   12  O12 UNL     1     -34.570   4.928   6.395  1.00 20.00    -0.298 OA
ENDBRANCH   8  10
ENDBRANCH   3   4
TORSDOF 2
ENDMDL
MODEL 5
REMARK VINA RESULT:      -4.1      0.939      1.075
REMARK  2 active torsions:
REMARK  status: ('A' for Active; 'I' for Inactive)
REMARK    1  A    between atoms: C3_3  and  C8_8 
REMARK    2  A    between atoms: C10_10  and  N11_11 
ROOT
HETATM    1  C1  UNL     1     -37.631  18.034  -2.033  1.00 20.00     0.013 C 
HETATM    2  C2  UNL     1     -36.482  17.865  -2.336  1.00 20.00    -0.087 C 
HETATM    3  C10 UNL     1     -35.078  17.664  -2.703  1.00 20.00     0.364 C 
ENDROOT
BRANCH   3   4
HETATM    4  N11 UNL     1     -34.902  16.385  -3.391  1.00 20.00     0.100 N 
HETATM    5  C6  UNL     1     -33.474  16.074  -3.539  1.00 20.00     0.273 C 
HETATM    6  C4  UNL     1     -33.276  14.708  -4.196  1.00 20.00     0.031 C 
HETATM    7  C5  UNL     1     -33.987  14.626  -5.544  1.00 20.00     0.015 C 
HETATM    8  C8  UNL     1     -35.448  15.069  -5.437  1.00 20.00     0.083 C 
HETATM    9  C7  UNL     1     -35.579  16.407  -4.697  1.00 20.00     0.285 C 
BRANCH   8  10
HETATM   10  C3  UNL     1     -36.281  14.005  -4.775  1.00 20.00     0.129 C 
HETATM   11  C9  UNL     1     -37.626  14.429  -4.251  1.00 20.00     0.091 C 
HETATM   12  O12 UNL     1     -35.883  12.847  -4.670  1.00 20.00    -0.298 OA
ENDBRANCH   8  10
ENDBRANCH   3   4
TORSDOF 2
ENDMDL
MODEL 6
REMARK VINA RESULT:      -4.1      1.866      2.848
REMARK  2 active torsions:
REMARK  status: ('A' for Active; 'I' for Inactive)
REMARK    1  A    between atoms: C3_3  and  C8_8 
REMARK    2  A    between atoms: C10_10  and  N11_11 
ROOT
HETATM    1  C1  UNL     1     -32.997  17.137  -2.393  1.00 20.00     0.013 C 
HETATM    2  C2  UNL     1     -33.404  16.213  -3.043  1.00 20.00    -0.087 C 
HETATM    3  C10 UNL     1     -33.897  15.084  -3.835  1.00 20.00     0.364 C 
ENDROOT
BRANCH   3   4
HETATM    4  N11 UNL     1     -35.210  15.387  -4.406  1.00 20.00     0.100 N 
HETATM    5  C6  UNL     1     -35.087  16.386  -5.475  1.00 20.00     0.273 C 
HETATM    6  C4  UNL     1     -36.442  16.661  -6.126  1.00 20.00     0.031 C 
HETATM    7  C5  UNL     1     -37.480  17.101  -5.096  1.00 20.00     0.015 C 
HETATM    8  C8  UNL     1     -37.534  16.139  -3.908  1.00 20.00     0.083 C 
HETATM    9  C7  UNL     1     -36.134  15.844  -3.355  1.00 20.00     0.285 C 
BRANCH   8  10
HETATM   10  C3  UNL     1     -38.242  14.865  -4.284  1.00 20.00     0.129 C 
HETATM   11  C9  UNL     1     -39.733  14.950  -4.467  1.00 20.00     0.091 C 
HETATM   12  O12 UNL     1     -37.632  13.809  -4.435  1.00 20.00    -0.298 OA
ENDBRANCH   8  10
ENDBRANCH   3   4
TORSDOF 2
ENDMDL
MODEL 7
REMARK VINA RESULT:      -4.0      2.487      3.471
REMARK  2 active torsions:
REMARK  status: ('A' for Active; 'I' for Inactive)
REMARK    1  A    between atoms: C3_3  and  C8_8 
REMARK    2  A    between atoms: C10_10  and  N11_11 
ROOT
HETATM    1  C1  UNL     1     -30.983  18.237  -0.120  1.00 20.00     0.013 C 
HETATM    2  C2  UNL     1     -31.830  18.697  -0.835  1.00 20.00    -0.087 C 
HETATM    3  C10 UNL     1     -32.862  19.263  -1.707  1.00 20.00     0.364 C 
ENDROOT
BRANCH   3   4
HETATM    4  N11 UNL     1     -33.697  18.203  -2.274  1.00 20.00     0.100 N 
HETATM    5  C6  UNL     1     -34.315  17.409  -1.203  1.00 20.00     0.273 C 
HETATM    6  C4  UNL     1     -35.244  16.342  -1.780  1.00 20.00     0.031 C 
HETATM    7  C5  UNL     1     -34.513  15.436  -2.768  1.00 20.00     0.015 C 
HETATM    8  C8  UNL     1     -33.756  16.249  -3.820  1.00 20.00     0.083 C 
HETATM    9  C7  UNL     1     -32.906  17.353  -3.177  1.00 20.00     0.285 C 
BRANCH   8  10
HETATM   10  C3  UNL     1     -34.705  16.825  -4.836  1.00 20.00     0.129 C 
HETATM   11  C9  UNL     1     -34.248  18.059  -5.564  1.00 20.00     0.091 C 
HETATM   12  O12 UNL     1     -35.799  16.310  -5.061  1.00 20.00    -0.298 OA
ENDBRANCH   8  10
ENDBRANCH   3   4
TORSDOF 2
ENDMDL
MODEL 8
REMARK VINA RESULT:      -4.0      2.674      3.470
REMARK  2 active torsions:
REMARK  status: ('A' for Active; 'I' for Inactive)
REMARK    1  A    between atoms: C3_3  and  C8_8 
REMARK    2  A    between atoms: C10_10  and  N11_11 
ROOT
HETATM    1  C1  UNL     1     -30.978  18.194  -0.027  1.00 20.00     0.013 C 
HETATM    2  C2  UNL     1     -31.706  18.657  -0.861  1.00 20.00    -0.087 C 
HETATM    3  C10 UNL     1     -32.593  19.227  -1.878  1.00 20.00     0.364 C 
ENDROOT
BRANCH   3   4
HETATM    4  N11 UNL     1     -33.536  18.219  -2.365  1.00 20.00     0.100 N 
HETATM    5  C6  UNL     1     -34.310  17.660  -1.249  1.00 20.00     0.273 C 
HETATM    6  C4  UNL     1     -35.346  16.655  -1.751  1.00 20.00     0.031 C 
HETATM    7  C5  UNL     1     -34.697  15.540  -2.568  1.00 20.00     0.015 C 
HETATM    8  C8  UNL     1     -33.784  16.103  -3.658  1.00 20.00     0.083 C 
HETATM    9  C7  UNL     1     -32.824  17.162  -3.100  1.00 20.00     0.285 C 
BRANCH   8  10
HETATM   10  C3  UNL     1     -34.592  16.657  -4.799  1.00 20.00     0.129 C 
HETATM   11  C9  UNL     1     -35.770  15.839  -5.254  1.00 20.00     0.091 C 
HETATM   12  O12 UNL     1     -34.305  17.728  -5.332  1.00 20.00    -0.298 OA
ENDBRANCH   8  10
ENDBRANCH   3   4
TORSDOF 2
ENDMDL
MODEL 9
REMARK VINA RESULT:      -4.0      1.619      2.834
REMARK  2 active torsions:
REMARK  status: ('A' for Active; 'I' for Inactive)
REMARK    1  A    between atoms: C3_3  and  C8_8 
REMARK    2  A    between atoms: C10_10  and  N11_11 
ROOT
HETATM    1  C1  UNL     1     -32.333  17.960  -1.464  1.00 20.00     0.013 C 
HETATM    2  C2  UNL     1     -33.507  17.958  -1.715  1.00 20.00    -0.087 C 
HETATM    3  C10 UNL     1     -34.940  17.960  -2.018  1.00 20.00     0.364 C 
ENDROOT
BRANCH   3   4
HETATM    4  N11 UNL     1     -35.254  16.959  -3.038  1.00 20.00     0.100 N 
HETATM    5  C6  UNL     1     -36.655  17.079  -3.461  1.00 20.00     0.273 C 
HETATM    6  C4  UNL     1     -36.978  16.085  -4.576  1.00 20.00     0.031 C 
HETATM    7  C5  UNL     1     -36.664  14.651  -4.156  1.00 20.00     0.015 C 
HETATM    8  C8  UNL     1     -35.248  14.528  -3.592  1.00 20.00     0.083 C 
HETATM    9  C7  UNL     1     -34.965  15.606  -2.537  1.00 20.00     0.285 C 
BRANCH   8  10
HETATM   10  C3  UNL     1     -34.227  14.576  -4.696  1.00 20.00     0.129 C 
HETATM   11  C9  UNL     1     -32.803  14.842  -4.289  1.00 20.00     0.091 C 
HETATM   12  O12 UNL     1     -34.541  14.404  -5.872  1.00 20.00    -0.298 OA
ENDBRANCH   8  10
ENDBRANCH   3   4
TORSDOF 2
ENDMDL
