MODEL 1
REMARK VINA RESULT:      -4.2      0.000      0.000
REMARK  3 active torsions:
REMARK  status: ('A' for Active; 'I' for Inactive)
REMARK    1  A    between atoms: C4_4  and  C8_8 
REMARK    2  A    between atoms: C7_7  and  N10_10 
REMARK    3  A    between atoms: C8_8  and  N10_10 
ROOT
HETATM    1  C1  UNL     1     -36.122  13.884  -4.861  1.00 20.00     0.089 C 
HETATM    2  C7  UNL     1     -36.213  15.251  -5.370  1.00 20.00     0.394 C 
HETATM    3  N9  UNL     1     -36.053  12.799  -4.454  1.00 20.00    -0.195 NA
ENDROOT
BRANCH   2   4
HETATM    4  N10 UNL     1     -34.886  15.758  -5.755  1.00 20.00     0.097 N 
HETATM    5  C6  UNL     1     -34.431  15.064  -6.970  1.00 20.00     0.311 C 
BRANCH   4   6
HETATM    6  C8  UNL     1     -33.940  15.613  -4.684  1.00 20.00     0.278 C 
BRANCH   6   7
HETATM    7  C4  UNL     1     -34.188  16.612  -3.607  1.00 20.00     0.018 A 
HETATM    8  C2  UNL     1     -33.099  16.954  -2.625  1.00 20.00     0.011 A 
HETATM    9  C3  UNL     1     -34.298  16.165  -2.172  1.00 20.00    -0.012 A 
HETATM   10  C5  UNL     1     -35.308  16.788  -1.270  1.00 20.00     0.010 C 
ENDBRANCH   6   7
ENDBRANCH   4   6
ENDBRANCH   2   4
TORSDOF 3
ENDMDL
MODEL 2
REMARK VINA RESULT:      -4.1      1.513      1.962
REMARK  3 active torsions:
REMARK  status: ('A' for Active; 'I' for Inactive)
REMARK    1  A    between atoms: C4_4  and  C8_8 
REMARK    2  A    between atoms: C7_7  and  N10_10 
REMARK    3  A    between atoms: C8_8  and  N10_10 
ROOT
HETATM    1  C1  UNL     1     -36.655  13.870  -4.368  1.00 20.00     0.089 C 
HETATM    2  C7  UNL     1     -35.221  13.698  -4.144  1.00 20.00     0.394 C 
HETATM    3  N9  UNL     1     -37.794  14.002  -4.546  1.00 20.00    -0.195 NA
ENDROOT
BRANCH   2   4
HETATM    4  N10 UNL     1     -34.469  14.861  -4.643  1.00 20.00     0.097 N 
HETATM    5  C6  UNL     1     -33.026  14.613  -4.488  1.00 20.00     0.311 C 
BRANCH   4   6
HETATM    6  C8  UNL     1     -34.867  16.068  -3.974  1.00 20.00     0.278 C 
BRANCH   6   7
HETATM    7  C4  UNL     1     -34.177  16.210  -2.662  1.00 20.00     0.018 A 
HETATM    8  C2  UNL     1     -34.937  16.694  -1.455  1.00 20.00     0.011 A 
HETATM    9  C3  UNL     1     -33.903  17.580  -2.097  1.00 20.00    -0.012 A 
HETATM   10  C5  UNL     1     -32.616  17.856  -1.398  1.00 20.00     0.010 C 
ENDBRANCH   6   7
ENDBRANCH   4   6
ENDBRANCH   2   4
TORSDOF 3
ENDMDL
MODEL 3
REMARK VINA RESULT:      -4.1      1.340      1.762
REMARK  3 active torsions:
REMARK  status: ('A' for Active; 'I' for Inactive)
REMARK    1  A    between atoms: C4_4  and  C8_8 
REMARK    2  A    between atoms: C7_7  and  N10_10 
REMARK    3  A    between atoms: C8_8  and  N10_10 
ROOT
HETATM    1  C1  UNL     1     -36.642  13.958  -4.338  1.00 20.00     0.089 C 
HETATM    2  C7  UNL     1     -35.194  13.900  -4.143  1.00 20.00     0.394 C 
HETATM    3  N9  UNL     1     -37.791  13.999  -4.492  1.00 20.00    -0.195 NA
ENDROOT
BRANCH   2   4
HETATM    4  N10 UNL     1     -34.553  15.142  -4.605  1.00 20.00     0.097 N 
HETATM    5  C6  UNL     1     -34.350  15.076  -6.060  1.00 20.00     0.311 C 
BRANCH   4   6
HETATM    6  C8  UNL     1     -33.316  15.381  -3.913  1.00 20.00     0.278 C 
BRANCH   6   7
HETATM    7  C4  UNL     1     -33.531  16.221  -2.701  1.00 20.00     0.018 A 
HETATM    8  C2  UNL     1     -34.372  17.467  -2.783  1.00 20.00     0.011 A 
HETATM    9  C3  UNL     1     -32.882  17.577  -2.598  1.00 20.00    -0.012 A 
HETATM   10  C5  UNL     1     -32.321  18.040  -1.297  1.00 20.00     0.010 C 
ENDBRANCH   6   7
ENDBRANCH   4   6
ENDBRANCH   2   4
TORSDOF 3
ENDMDL
MODEL 4
REMARK VINA RESULT:      -4.1     16.371     18.100
REMARK  3 active torsions:
REMARK  status: ('A' for Active; 'I' for Inactive)
REMARK    1  A    between atoms: C4_4  and  C8_8 
REMARK    2  A    between atoms: C7_7  and  N10_10 
REMARK    3  A    between atoms: C8_8  and  N10_10 
ROOT
HETATM    1  C1  UNL     1     -24.339  19.076   7.083  1.00 20.00     0.089 C 
HETATM    2  C7  UNL     1     -24.086  18.841   8.503  1.00 20.00     0.394 C 
HETATM    3  N9  UNL     1     -24.545  19.263   5.957  1.00 20.00    -0.195 NA
ENDROOT
BRANCH   2   4
HETATM    4  N10 UNL     1     -22.666  18.531   8.738  1.00 20.00     0.097 N 
HETATM    5  C6  UNL     1     -22.279  17.365   7.928  1.00 20.00     0.311 C 
BRANCH   4   6
HETATM    6  C8  UNL     1     -22.403  18.309  10.133  1.00 20.00     0.278 C 
BRANCH   6   7
HETATM    7  C4  UNL     1     -23.628  17.850  10.846  1.00 20.00     0.018 A 
HETATM    8  C2  UNL     1     -23.768  18.070  12.329  1.00 20.00     0.011 A 
HETATM    9  C3  UNL     1     -23.558  16.679  11.793  1.00 20.00    -0.012 A 
HETATM   10  C5  UNL     1     -24.667  15.685  11.835  1.00 20.00     0.010 C 
ENDBRANCH   6   7
ENDBRANCH   4   6
ENDBRANCH   2   4
TORSDOF 3
ENDMDL
MODEL 5
REMARK VINA RESULT:      -3.9      1.517      1.871
REMARK  3 active torsions:
REMARK  status: ('A' for Active; 'I' for Inactive)
REMARK    1  A    between atoms: C4_4  and  C8_8 
REMARK    2  A    between atoms: C7_7  and  N10_10 
REMARK    3  A    between atoms: C8_8  and  N10_10 
ROOT
HETATM    1  C1  UNL     1     -36.555  13.786  -4.555  1.00 20.00     0.089 C 
HETATM    2  C7  UNL     1     -37.458  14.929  -4.435  1.00 20.00     0.394 C 
HETATM    3  N9  UNL     1     -35.842  12.875  -4.650  1.00 20.00    -0.195 NA
ENDROOT
BRANCH   2   4
HETATM    4  N10 UNL     1     -36.704  16.169  -4.190  1.00 20.00     0.097 N 
HETATM    5  C6  UNL     1     -35.996  16.562  -5.419  1.00 20.00     0.311 C 
BRANCH   4   6
HETATM    6  C8  UNL     1     -35.796  16.020  -3.087  1.00 20.00     0.278 C 
BRANCH   6   7
HETATM    7  C4  UNL     1     -34.476  16.643  -3.388  1.00 20.00     0.018 A 
HETATM    8  C2  UNL     1     -33.227  15.802  -3.398  1.00 20.00     0.011 A 
HETATM    9  C3  UNL     1     -33.450  16.804  -2.297  1.00 20.00    -0.012 A 
HETATM   10  C5  UNL     1     -32.619  18.039  -2.229  1.00 20.00     0.010 C 
ENDBRANCH   6   7
ENDBRANCH   4   6
ENDBRANCH   2   4
TORSDOF 3
ENDMDL
MODEL 6
REMARK VINA RESULT:      -3.9      3.035      5.040
REMARK  3 active torsions:
REMARK  status: ('A' for Active; 'I' for Inactive)
REMARK    1  A    between atoms: C4_4  and  C8_8 
REMARK    2  A    between atoms: C7_7  and  N10_10 
REMARK    3  A    between atoms: C8_8  and  N10_10 
ROOT
HETATM    1  C1  UNL     1     -31.592  18.290  -0.755  1.00 20.00     0.089 C 
HETATM    2  C7  UNL     1     -32.991  18.207  -1.171  1.00 20.00     0.394 C 
HETATM    3  N9  UNL     1     -30.483  18.360  -0.420  1.00 20.00    -0.195 NA
ENDROOT
BRANCH   2   4
HETATM    4  N10 UNL     1     -33.102  17.633  -2.522  1.00 20.00     0.097 N 
HETATM    5  C6  UNL     1     -32.797  18.669  -3.521  1.00 20.00     0.311 C 
BRANCH   4   6
HETATM    6  C8  UNL     1     -34.401  17.059  -2.741  1.00 20.00     0.278 C 
BRANCH   6   7
HETATM    7  C4  UNL     1     -34.309  15.589  -2.967  1.00 20.00     0.018 A 
HETATM    8  C2  UNL     1     -33.352  15.039  -3.990  1.00 20.00     0.011 A 
HETATM    9  C3  UNL     1     -34.834  14.987  -4.245  1.00 20.00    -0.012 A 
HETATM   10  C5  UNL     1     -35.554  13.682  -4.215  1.00 20.00     0.010 C 
ENDBRANCH   6   7
ENDBRANCH   4   6
ENDBRANCH   2   4
TORSDOF 3
ENDMDL
MODEL 7
REMARK VINA RESULT:      -3.9     10.832     11.841
REMARK  3 active torsions:
REMARK  status: ('A' for Active; 'I' for Inactive)
REMARK    1  A    between atoms: C4_4  and  C8_8 
REMARK    2  A    between atoms: C7_7  and  N10_10 
REMARK    3  A    between atoms: C8_8  and  N10_10 
ROOT
HETATM    1  C1  UNL     1     -32.957   8.399   0.328  1.00 20.00     0.089 C 
HETATM    2  C7  UNL     1     -32.037   7.861   1.329  1.00 20.00     0.394 C 
HETATM    3  N9  UNL     1     -33.684   8.829  -0.468  1.00 20.00    -0.195 NA
ENDROOT
BRANCH   2   4
HETATM    4  N10 UNL     1     -32.767   7.421   2.529  1.00 20.00     0.097 N 
HETATM    5  C6  UNL     1     -31.882   7.513   3.701  1.00 20.00     0.311 C 
BRANCH   4   6
HETATM    6  C8  UNL     1     -33.285   6.090   2.368  1.00 20.00     0.278 C 
BRANCH   6   7
HETATM    7  C4  UNL     1     -33.439   5.409   3.684  1.00 20.00     0.018 A 
HETATM    8  C2  UNL     1     -34.278   4.165   3.799  1.00 20.00     0.011 A 
HETATM    9  C3  UNL     1     -34.760   5.455   4.408  1.00 20.00    -0.012 A 
HETATM   10  C5  UNL     1     -34.795   5.617   5.889  1.00 20.00     0.010 C 
ENDBRANCH   6   7
ENDBRANCH   4   6
ENDBRANCH   2   4
TORSDOF 3
ENDMDL
MODEL 8
REMARK VINA RESULT:      -3.8      1.386      1.883
REMARK  3 active torsions:
REMARK  status: ('A' for Active; 'I' for Inactive)
REMARK    1  A    between atoms: C4_4  and  C8_8 
REMARK    2  A    between atoms: C7_7  and  N10_10 
REMARK    3  A    between atoms: C8_8  and  N10_10 
ROOT
HETATM    1  C1  UNL     1     -35.826  13.978  -4.623  1.00 20.00     0.089 C 
HETATM    2  C7  UNL     1     -35.432  15.371  -4.825  1.00 20.00     0.394 C 
HETATM    3  N9  UNL     1     -36.143  12.873  -4.464  1.00 20.00    -0.195 NA
ENDROOT
BRANCH   2   4
HETATM    4  N10 UNL     1     -34.334  15.742  -3.919  1.00 20.00     0.097 N 
HETATM    5  C6  UNL     1     -33.141  14.945  -4.244  1.00 20.00     0.311 C 
BRANCH   4   6
HETATM    6  C8  UNL     1     -34.713  15.580  -2.543  1.00 20.00     0.278 C 
BRANCH   6   7
HETATM    7  C4  UNL     1     -35.106  16.882  -1.935  1.00 20.00     0.018 A 
HETATM    8  C2  UNL     1     -34.120  17.657  -1.102  1.00 20.00     0.011 A 
HETATM    9  C3  UNL     1     -35.300  16.993  -0.445  1.00 20.00    -0.012 A 
HETATM   10  C5  UNL     1     -36.413  17.818   0.105  1.00 20.00     0.010 C 
ENDBRANCH   6   7
ENDBRANCH   4   6
ENDBRANCH   2   4
TORSDOF 3
ENDMDL
MODEL 9
REMARK VINA RESULT:      -3.7      2.938      5.077
REMARK  3 active torsions:
REMARK  status: ('A' for Active; 'I' for Inactive)
REMARK    1  A    between atoms: C4_4  and  C8_8 
REMARK    2  A    between atoms: C7_7  and  N10_10 
REMARK    3  A    between atoms: C8_8  and  N10_10 
ROOT
HETATM    1  C1  UNL     1     -31.700  18.310  -0.925  1.00 20.00     0.089 C 
HETATM    2  C7  UNL     1     -33.023  18.181  -1.533  1.00 20.00     0.394 C 
HETATM    3  N9  UNL     1     -30.652  18.416  -0.439  1.00 20.00    -0.195 NA
ENDROOT
BRANCH   2   4
HETATM    4  N10 UNL     1     -32.919  17.690  -2.916  1.00 20.00     0.097 N 
HETATM    5  C6  UNL     1     -33.943  18.344  -3.746  1.00 20.00     0.311 C 
BRANCH   4   6
HETATM    6  C8  UNL     1     -33.035  16.259  -2.973  1.00 20.00     0.278 C 
BRANCH   6   7
HETATM    7  C4  UNL     1     -34.079  15.842  -3.951  1.00 20.00     0.018 A 
HETATM    8  C2  UNL     1     -34.688  14.468  -3.868  1.00 20.00     0.011 A 
HETATM    9  C3  UNL     1     -33.761  14.812  -5.003  1.00 20.00    -0.012 A 
HETATM   10  C5  UNL     1     -34.296  14.966  -6.386  1.00 20.00     0.010 C 
ENDBRANCH   6   7
ENDBRANCH   4   6
ENDBRANCH   2   4
TORSDOF 3
ENDMDL
