MODEL 1
REMARK VINA RESULT:      -5.7      0.000      0.000
REMARK  4 active torsions:
REMARK  status: ('A' for Active; 'I' for Inactive)
REMARK    1  A    between atoms: C6_6  and  C10_10 
REMARK    2  A    between atoms: C8_8  and  C9_9 
REMARK    3  A    between atoms: C9_9  and  C10_10 
REMARK    4  A    between atoms: C10_10  and  O11_11 
ROOT
HETATM    1  C1  UNL     1     -34.978   4.999   5.666  1.00 20.00    -0.031 C 
HETATM    2  C2  UNL     1     -34.383   6.082   6.184  1.00 20.00    -0.030 C 
HETATM    3  C3  UNL     1     -34.849   4.603   4.226  1.00 20.00     0.027 C 
HETATM    4  C4  UNL     1     -33.553   7.030   5.371  1.00 20.00     0.034 C 
HETATM    5  C5  UNL     1     -33.738   5.358   3.488  1.00 20.00     0.011 C 
HETATM    6  C6  UNL     1     -33.739   6.847   3.853  1.00 20.00     0.018 C 
ENDROOT
BRANCH   6   7
HETATM    7  C10 UNL     1     -32.662   7.605   3.081  1.00 20.00     0.122 C 
BRANCH   7   8
HETATM    8  C9  UNL     1     -32.434   6.992   1.697  1.00 20.00     0.032 C 
BRANCH   8   9
HETATM    9  C8  UNL     1     -32.193   8.063   0.630  1.00 20.00    -0.002 C 
HETATM   10  C7  UNL     1     -33.089   9.273   0.846  1.00 20.00     0.005 C 
ENDBRANCH   8   9
ENDBRANCH   7   8
BRANCH   7  11
HETATM   11  O11 UNL     1     -31.457   7.575   3.838  1.00 20.00    -0.395 OA
HETATM   12  H29 UNL     1     -31.703   7.761   4.758  1.00 20.00     0.210 HD
ENDBRANCH   7  11
ENDBRANCH   6   7
TORSDOF 4
ENDMDL
MODEL 2
REMARK VINA RESULT:      -5.2      0.616      1.629
REMARK  4 active torsions:
REMARK  status: ('A' for Active; 'I' for Inactive)
REMARK    1  A    between atoms: C6_6  and  C10_10 
REMARK    2  A    between atoms: C8_8  and  C9_9 
REMARK    3  A    between atoms: C9_9  and  C10_10 
REMARK    4  A    between atoms: C10_10  and  O11_11 
ROOT
HETATM    1  C1  UNL     1     -35.097   4.914   5.443  1.00 20.00    -0.031 C 
HETATM    2  C2  UNL     1     -34.945   4.801   4.116  1.00 20.00    -0.030 C 
HETATM    3  C3  UNL     1     -34.412   5.968   6.261  1.00 20.00     0.027 C 
HETATM    4  C4  UNL     1     -34.046   5.697   3.315  1.00 20.00     0.034 C 
HETATM    5  C5  UNL     1     -33.784   7.078   5.413  1.00 20.00     0.011 C 
HETATM    6  C6  UNL     1     -33.065   6.504   4.186  1.00 20.00     0.018 C 
ENDROOT
BRANCH   6   7
HETATM    7  C10 UNL     1     -32.401   7.610   3.369  1.00 20.00     0.122 C 
BRANCH   7   8
HETATM    8  C9  UNL     1     -32.547   7.357   1.866  1.00 20.00     0.032 C 
BRANCH   8   9
HETATM    9  C8  UNL     1     -32.607   8.663   1.071  1.00 20.00    -0.002 C 
HETATM   10  C7  UNL     1     -33.385   8.489  -0.225  1.00 20.00     0.005 C 
ENDBRANCH   8   9
ENDBRANCH   7   8
BRANCH   7  11
HETATM   11  O11 UNL     1     -31.025   7.673   3.727  1.00 20.00    -0.395 OA
HETATM   12  H29 UNL     1     -30.520   7.630   2.900  1.00 20.00     0.210 HD
ENDBRANCH   7  11
ENDBRANCH   6   7
TORSDOF 4
ENDMDL
MODEL 3
REMARK VINA RESULT:      -5.0      1.359      2.026
REMARK  4 active torsions:
REMARK  status: ('A' for Active; 'I' for Inactive)
REMARK    1  A    between atoms: C6_6  and  C10_10 
REMARK    2  A    between atoms: C8_8  and  C9_9 
REMARK    3  A    between atoms: C9_9  and  C10_10 
REMARK    4  A    between atoms: C10_10  and  O11_11 
ROOT
HETATM    1  C1  UNL     1     -34.843   5.700   6.147  1.00 20.00    -0.031 C 
HETATM    2  C2  UNL     1     -35.130   4.869   5.135  1.00 20.00    -0.030 C 
HETATM    3  C3  UNL     1     -33.858   6.824   6.030  1.00 20.00     0.027 C 
HETATM    4  C4  UNL     1     -34.472   4.957   3.790  1.00 20.00     0.034 C 
HETATM    5  C5  UNL     1     -33.455   7.127   4.583  1.00 20.00     0.011 C 
HETATM    6  C6  UNL     1     -33.209   5.838   3.791  1.00 20.00     0.018 C 
ENDROOT
BRANCH   6   7
HETATM    7  C10 UNL     1     -32.762   6.145   2.364  1.00 20.00     0.122 C 
BRANCH   7   8
HETATM    8  C9  UNL     1     -32.582   7.649   2.148  1.00 20.00     0.032 C 
BRANCH   8   9
HETATM    9  C8  UNL     1     -32.221   7.979   0.697  1.00 20.00    -0.002 C 
HETATM   10  C7  UNL     1     -33.259   8.891   0.060  1.00 20.00     0.005 C 
ENDBRANCH   8   9
ENDBRANCH   7   8
BRANCH   7  11
HETATM   11  O11 UNL     1     -33.737   5.630   1.464  1.00 20.00    -0.395 OA
HETATM   12  H29 UNL     1     -33.378   4.802   1.109  1.00 20.00     0.210 HD
ENDBRANCH   7  11
ENDBRANCH   6   7
TORSDOF 4
ENDMDL
MODEL 4
REMARK VINA RESULT:      -4.8     11.158     11.967
REMARK  4 active torsions:
REMARK  status: ('A' for Active; 'I' for Inactive)
REMARK    1  A    between atoms: C6_6  and  C10_10 
REMARK    2  A    between atoms: C8_8  and  C9_9 
REMARK    3  A    between atoms: C9_9  and  C10_10 
REMARK    4  A    between atoms: C10_10  and  O11_11 
ROOT
HETATM    1  C1  UNL     1     -34.173  17.419  -1.174  1.00 20.00    -0.031 C 
HETATM    2  C2  UNL     1     -35.128  16.531  -1.482  1.00 20.00    -0.030 C 
HETATM    3  C3  UNL     1     -32.941  17.620  -2.003  1.00 20.00     0.027 C 
HETATM    4  C4  UNL     1     -35.047  15.621  -2.673  1.00 20.00     0.034 C 
HETATM    5  C5  UNL     1     -33.023  16.954  -3.380  1.00 20.00     0.011 C 
HETATM    6  C6  UNL     1     -33.636  15.552  -3.286  1.00 20.00     0.018 C 
ENDROOT
BRANCH   6   7
HETATM    7  C10 UNL     1     -33.674  14.874  -4.654  1.00 20.00     0.122 C 
BRANCH   7   8
HETATM    8  C9  UNL     1     -35.103  14.491  -5.047  1.00 20.00     0.032 C 
BRANCH   8   9
HETATM    9  C8  UNL     1     -35.391  14.793  -6.520  1.00 20.00    -0.002 C 
HETATM   10  C7  UNL     1     -34.177  15.398  -7.210  1.00 20.00     0.005 C 
ENDBRANCH   8   9
ENDBRANCH   7   8
BRANCH   7  11
HETATM   11  O11 UNL     1     -32.847  13.717  -4.608  1.00 20.00    -0.395 OA
HETATM   12  H29 UNL     1     -32.556  13.619  -3.688  1.00 20.00     0.210 HD
ENDBRANCH   7  11
ENDBRANCH   6   7
TORSDOF 4
ENDMDL
MODEL 5
REMARK VINA RESULT:      -4.6     10.820     11.776
REMARK  4 active torsions:
REMARK  status: ('A' for Active; 'I' for Inactive)
REMARK    1  A    between atoms: C6_6  and  C10_10 
REMARK    2  A    between atoms: C8_8  and  C9_9 
REMARK    3  A    between atoms: C9_9  and  C10_10 
REMARK    4  A    between atoms: C10_10  and  O11_11 
ROOT
HETATM    1  C1  UNL     1     -33.974  17.849  -0.775  1.00 20.00    -0.031 C 
HETATM    2  C2  UNL     1     -32.885  17.775  -1.553  1.00 20.00    -0.030 C 
HETATM    3  C3  UNL     1     -35.216  17.046  -1.025  1.00 20.00     0.027 C 
HETATM    4  C4  UNL     1     -32.807  16.907  -2.773  1.00 20.00     0.034 C 
HETATM    5  C5  UNL     1     -35.014  15.921  -2.045  1.00 20.00     0.011 C 
HETATM    6  C6  UNL     1     -34.182  16.397  -3.242  1.00 20.00     0.018 C 
ENDROOT
BRANCH   6   7
HETATM    7  C10 UNL     1     -34.023  15.286  -4.278  1.00 20.00     0.122 C 
BRANCH   7   8
HETATM    8  C9  UNL     1     -34.813  14.037  -3.881  1.00 20.00     0.032 C 
BRANCH   8   9
HETATM    9  C8  UNL     1     -36.001  13.792  -4.816  1.00 20.00    -0.002 C 
HETATM   10  C7  UNL     1     -35.843  14.551  -6.125  1.00 20.00     0.005 C 
ENDBRANCH   8   9
ENDBRANCH   7   8
BRANCH   7  11
HETATM   11  O11 UNL     1     -32.639  14.977  -4.401  1.00 20.00    -0.395 OA
HETATM   12  H29 UNL     1     -32.181  15.477  -3.707  1.00 20.00     0.210 HD
ENDBRANCH   7  11
ENDBRANCH   6   7
TORSDOF 4
ENDMDL
MODEL 6
REMARK VINA RESULT:      -4.5     11.113     12.026
REMARK  4 active torsions:
REMARK  status: ('A' for Active; 'I' for Inactive)
REMARK    1  A    between atoms: C6_6  and  C10_10 
REMARK    2  A    between atoms: C8_8  and  C9_9 
REMARK    3  A    between atoms: C9_9  and  C10_10 
REMARK    4  A    between atoms: C10_10  and  O11_11 
ROOT
HETATM    1  C1  UNL     1     -33.792  16.866  -1.958  1.00 20.00    -0.031 C 
HETATM    2  C2  UNL     1     -35.073  16.492  -1.832  1.00 20.00    -0.030 C 
HETATM    3  C3  UNL     1     -32.909  16.400  -3.076  1.00 20.00     0.027 C 
HETATM    4  C4  UNL     1     -35.747  15.543  -2.778  1.00 20.00     0.034 C 
HETATM    5  C5  UNL     1     -33.679  15.724  -4.215  1.00 20.00     0.011 C 
HETATM    6  C6  UNL     1     -34.756  14.777  -3.674  1.00 20.00     0.018 C 
ENDROOT
BRANCH   6   7
HETATM    7  C10 UNL     1     -35.490  14.070  -4.811  1.00 20.00     0.122 C 
BRANCH   7   8
HETATM    8  C9  UNL     1     -36.775  14.810  -5.190  1.00 20.00     0.032 C 
BRANCH   8   9
HETATM    9  C8  UNL     1     -36.564  15.748  -6.381  1.00 20.00    -0.002 C 
HETATM   10  C7  UNL     1     -35.746  15.079  -7.476  1.00 20.00     0.005 C 
ENDBRANCH   8   9
ENDBRANCH   7   8
BRANCH   7  11
HETATM   11  O11 UNL     1     -35.788  12.740  -4.400  1.00 20.00    -0.395 OA
HETATM   12  H29 UNL     1     -35.092  12.173  -4.768  1.00 20.00     0.210 HD
ENDBRANCH   7  11
ENDBRANCH   6   7
TORSDOF 4
ENDMDL
MODEL 7
REMARK VINA RESULT:      -4.4     11.063     11.826
REMARK  4 active torsions:
REMARK  status: ('A' for Active; 'I' for Inactive)
REMARK    1  A    between atoms: C6_6  and  C10_10 
REMARK    2  A    between atoms: C8_8  and  C9_9 
REMARK    3  A    between atoms: C9_9  and  C10_10 
REMARK    4  A    between atoms: C10_10  and  O11_11 
ROOT
HETATM    1  C1  UNL     1     -33.627  14.403  -4.306  1.00 20.00    -0.031 C 
HETATM    2  C2  UNL     1     -32.916  15.419  -3.800  1.00 20.00    -0.030 C 
HETATM    3  C3  UNL     1     -35.079  14.186  -4.002  1.00 20.00     0.027 C 
HETATM    4  C4  UNL     1     -33.490  16.428  -2.850  1.00 20.00     0.034 C 
HETATM    5  C5  UNL     1     -35.742  15.390  -3.325  1.00 20.00     0.011 C 
HETATM    6  C6  UNL     1     -34.836  15.990  -2.243  1.00 20.00     0.018 C 
ENDROOT
BRANCH   6   7
HETATM    7  C10 UNL     1     -35.519  17.161  -1.540  1.00 20.00     0.122 C 
BRANCH   7   8
HETATM    8  C9  UNL     1     -35.289  17.113  -0.027  1.00 20.00     0.032 C 
BRANCH   8   9
HETATM    9  C8  UNL     1     -34.225  18.119   0.421  1.00 20.00    -0.002 C 
HETATM   10  C7  UNL     1     -33.971  18.027   1.918  1.00 20.00     0.005 C 
ENDBRANCH   8   9
ENDBRANCH   7   8
BRANCH   7  11
HETATM   11  O11 UNL     1     -36.911  17.113  -1.829  1.00 20.00    -0.395 OA
HETATM   12  H29 UNL     1     -37.316  17.867  -1.373  1.00 20.00     0.210 HD
ENDBRANCH   7  11
ENDBRANCH   6   7
TORSDOF 4
ENDMDL
MODEL 8
REMARK VINA RESULT:      -4.3     11.091     11.926
REMARK  4 active torsions:
REMARK  status: ('A' for Active; 'I' for Inactive)
REMARK    1  A    between atoms: C6_6  and  C10_10 
REMARK    2  A    between atoms: C8_8  and  C9_9 
REMARK    3  A    between atoms: C9_9  and  C10_10 
REMARK    4  A    between atoms: C10_10  and  O11_11 
ROOT
HETATM    1  C1  UNL     1     -34.390  14.374  -4.216  1.00 20.00    -0.031 C 
HETATM    2  C2  UNL     1     -33.222  15.027  -4.145  1.00 20.00    -0.030 C 
HETATM    3  C3  UNL     1     -35.599  14.767  -3.421  1.00 20.00     0.027 C 
HETATM    4  C4  UNL     1     -32.992  16.199  -3.238  1.00 20.00     0.034 C 
HETATM    5  C5  UNL     1     -35.472  16.149  -2.772  1.00 20.00     0.011 C 
HETATM    6  C6  UNL     1     -34.081  16.353  -2.161  1.00 20.00     0.018 C 
ENDROOT
BRANCH   6   7
HETATM    7  C10 UNL     1     -33.975  17.713  -1.474  1.00 20.00     0.122 C 
BRANCH   7   8
HETATM    8  C9  UNL     1     -32.519  18.178  -1.381  1.00 20.00     0.032 C 
BRANCH   8   9
HETATM    9  C8  UNL     1     -32.173  18.694   0.018  1.00 20.00    -0.002 C 
HETATM   10  C7  UNL     1     -30.792  18.228   0.455  1.00 20.00     0.005 C 
ENDBRANCH   8   9
ENDBRANCH   7   8
BRANCH   7  11
HETATM   11  O11 UNL     1     -34.544  17.610  -0.174  1.00 20.00    -0.395 OA
HETATM   12  H29 UNL     1     -35.091  18.401  -0.047  1.00 20.00     0.210 HD
ENDBRANCH   7  11
ENDBRANCH   6   7
TORSDOF 4
ENDMDL
MODEL 9
REMARK VINA RESULT:      -4.3     11.216     12.106
REMARK  4 active torsions:
REMARK  status: ('A' for Active; 'I' for Inactive)
REMARK    1  A    between atoms: C6_6  and  C10_10 
REMARK    2  A    between atoms: C8_8  and  C9_9 
REMARK    3  A    between atoms: C9_9  and  C10_10 
REMARK    4  A    between atoms: C10_10  and  O11_11 
ROOT
HETATM    1  C1  UNL     1     -33.147  16.258  -2.921  1.00 20.00    -0.031 C 
HETATM    2  C2  UNL     1     -32.868  15.400  -3.911  1.00 20.00    -0.030 C 
HETATM    3  C3  UNL     1     -34.534  16.484  -2.398  1.00 20.00     0.027 C 
HETATM    4  C4  UNL     1     -33.918  14.599  -4.623  1.00 20.00     0.034 C 
HETATM    5  C5  UNL     1     -35.539  15.430  -2.875  1.00 20.00     0.011 C 
HETATM    6  C6  UNL     1     -35.347  15.110  -4.362  1.00 20.00     0.018 C 
ENDROOT
BRANCH   6   7
HETATM    7  C10 UNL     1     -36.381  14.094  -4.844  1.00 20.00     0.122 C 
BRANCH   7   8
HETATM    8  C9  UNL     1     -37.749  14.346  -4.206  1.00 20.00     0.032 C 
BRANCH   8   9
HETATM    9  C8  UNL     1     -38.459  15.548  -4.834  1.00 20.00    -0.002 C 
HETATM   10  C7  UNL     1     -39.840  15.755  -4.230  1.00 20.00     0.005 C 
ENDBRANCH   8   9
ENDBRANCH   7   8
BRANCH   7  11
HETATM   11  O11 UNL     1     -35.918  12.788  -4.518  1.00 20.00    -0.395 OA
HETATM   12  H29 UNL     1     -36.267  12.192  -5.199  1.00 20.00     0.210 HD
ENDBRANCH   7  11
ENDBRANCH   6   7
TORSDOF 4
ENDMDL
