MODEL 1
REMARK VINA RESULT:      -4.3      0.000      0.000
REMARK  3 active torsions:
REMARK  status: ('A' for Active; 'I' for Inactive)
REMARK    1  A    between atoms: C4_4  and  C8_8 
REMARK    2  A    between atoms: C7_7  and  N10_10 
REMARK    3  A    between atoms: C8_8  and  N10_10 
ROOT
HETATM    1  C1  UNL     1     -21.484  17.357   8.101  1.00 20.00     0.089 C 
HETATM    2  C7  UNL     1     -21.628  18.100   9.352  1.00 20.00     0.394 C 
HETATM    3  N9  UNL     1     -21.366  16.769   7.108  1.00 20.00    -0.195 NA
ENDROOT
BRANCH   2   4
HETATM    4  N10 UNL     1     -23.047  18.283   9.692  1.00 20.00     0.097 N 
HETATM    5  C6  UNL     1     -23.712  19.046   8.624  1.00 20.00     0.311 C 
BRANCH   4   6
HETATM    6  C8  UNL     1     -23.699  17.023   9.920  1.00 20.00     0.278 C 
BRANCH   6   7
HETATM    7  C4  UNL     1     -24.415  17.015  11.227  1.00 20.00     0.018 A 
HETATM    8  C2  UNL     1     -23.985  17.943  12.332  1.00 20.00     0.011 A 
HETATM    9  C3  UNL     1     -25.289  18.178  11.616  1.00 20.00    -0.012 A 
HETATM   10  C5  UNL     1     -26.581  17.940  12.319  1.00 20.00     0.010 C 
ENDBRANCH   6   7
ENDBRANCH   4   6
ENDBRANCH   2   4
TORSDOF 3
ENDMDL
MODEL 2
REMARK VINA RESULT:      -4.2     15.778     16.897
REMARK  3 active torsions:
REMARK  status: ('A' for Active; 'I' for Inactive)
REMARK    1  A    between atoms: C4_4  and  C8_8 
REMARK    2  A    between atoms: C7_7  and  N10_10 
REMARK    3  A    between atoms: C8_8  and  N10_10 
ROOT
HETATM    1  C1  UNL     1     -35.750  13.939  -4.176  1.00 20.00     0.089 C 
HETATM    2  C7  UNL     1     -35.594  15.301  -3.666  1.00 20.00     0.394 C 
HETATM    3  N9  UNL     1     -35.878  12.859  -4.581  1.00 20.00    -0.195 NA
ENDROOT
BRANCH   2   4
HETATM    4  N10 UNL     1     -34.358  15.427  -2.878  1.00 20.00     0.097 N 
HETATM    5  C6  UNL     1     -33.203  15.489  -3.786  1.00 20.00     0.311 C 
BRANCH   4   6
HETATM    6  C8  UNL     1     -34.405  16.570  -2.009  1.00 20.00     0.278 C 
BRANCH   6   7
HETATM    7  C4  UNL     1     -33.133  17.344  -2.068  1.00 20.00     0.018 A 
HETATM    8  C2  UNL     1     -33.163  18.845  -2.176  1.00 20.00     0.011 A 
HETATM    9  C3  UNL     1     -32.709  18.191  -0.897  1.00 20.00    -0.012 A 
HETATM   10  C5  UNL     1     -31.276  18.249  -0.495  1.00 20.00     0.010 C 
ENDBRANCH   6   7
ENDBRANCH   4   6
ENDBRANCH   2   4
TORSDOF 3
ENDMDL
MODEL 3
REMARK VINA RESULT:      -4.2     17.311     18.373
REMARK  3 active torsions:
REMARK  status: ('A' for Active; 'I' for Inactive)
REMARK    1  A    between atoms: C4_4  and  C8_8 
REMARK    2  A    between atoms: C7_7  and  N10_10 
REMARK    3  A    between atoms: C8_8  and  N10_10 
ROOT
HETATM    1  C1  UNL     1     -36.246  13.808  -4.764  1.00 20.00     0.089 C 
HETATM    2  C7  UNL     1     -36.761  15.146  -5.050  1.00 20.00     0.394 C 
HETATM    3  N9  UNL     1     -35.841  12.744  -4.539  1.00 20.00    -0.195 NA
ENDROOT
BRANCH   2   4
HETATM    4  N10 UNL     1     -35.903  16.178  -4.446  1.00 20.00     0.097 N 
HETATM    5  C6  UNL     1     -36.342  17.506  -4.899  1.00 20.00     0.311 C 
BRANCH   4   6
HETATM    6  C8  UNL     1     -35.903  16.085  -3.012  1.00 20.00     0.278 C 
BRANCH   6   7
HETATM    7  C4  UNL     1     -34.514  16.036  -2.475  1.00 20.00     0.018 A 
HETATM    8  C2  UNL     1     -33.355  15.768  -3.397  1.00 20.00     0.011 A 
HETATM    9  C3  UNL     1     -33.539  17.138  -2.797  1.00 20.00    -0.012 A 
HETATM   10  C5  UNL     1     -32.597  17.631  -1.755  1.00 20.00     0.010 C 
ENDBRANCH   6   7
ENDBRANCH   4   6
ENDBRANCH   2   4
TORSDOF 3
ENDMDL
MODEL 4
REMARK VINA RESULT:      -4.2     16.783     17.896
REMARK  3 active torsions:
REMARK  status: ('A' for Active; 'I' for Inactive)
REMARK    1  A    between atoms: C4_4  and  C8_8 
REMARK    2  A    between atoms: C7_7  and  N10_10 
REMARK    3  A    between atoms: C8_8  and  N10_10 
ROOT
HETATM    1  C1  UNL     1     -36.807  14.274  -4.617  1.00 20.00     0.089 C 
HETATM    2  C7  UNL     1     -35.473  14.768  -4.957  1.00 20.00     0.394 C 
HETATM    3  N9  UNL     1     -37.866  13.884  -4.350  1.00 20.00    -0.195 NA
ENDROOT
BRANCH   2   4
HETATM    4  N10 UNL     1     -34.527  14.523  -3.858  1.00 20.00     0.097 N 
HETATM    5  C6  UNL     1     -33.160  14.452  -4.396  1.00 20.00     0.311 C 
BRANCH   4   6
HETATM    6  C8  UNL     1     -34.638  15.529  -2.837  1.00 20.00     0.278 C 
BRANCH   6   7
HETATM    7  C4  UNL     1     -33.455  16.435  -2.844  1.00 20.00     0.018 A 
HETATM    8  C2  UNL     1     -33.574  17.832  -3.393  1.00 20.00     0.011 A 
HETATM    9  C3  UNL     1     -33.403  17.617  -1.911  1.00 20.00    -0.012 A 
HETATM   10  C5  UNL     1     -32.125  17.987  -1.244  1.00 20.00     0.010 C 
ENDBRANCH   6   7
ENDBRANCH   4   6
ENDBRANCH   2   4
TORSDOF 3
ENDMDL
MODEL 5
REMARK VINA RESULT:      -4.2     17.067     17.998
REMARK  3 active torsions:
REMARK  status: ('A' for Active; 'I' for Inactive)
REMARK    1  A    between atoms: C4_4  and  C8_8 
REMARK    2  A    between atoms: C7_7  and  N10_10 
REMARK    3  A    between atoms: C8_8  and  N10_10 
ROOT
HETATM    1  C1  UNL     1     -37.010  14.143  -4.644  1.00 20.00     0.089 C 
HETATM    2  C7  UNL     1     -35.623  14.298  -5.081  1.00 20.00     0.394 C 
HETATM    3  N9  UNL     1     -38.111  14.019  -4.302  1.00 20.00    -0.195 NA
ENDROOT
BRANCH   2   4
HETATM    4  N10 UNL     1     -34.760  14.688  -3.955  1.00 20.00     0.097 N 
HETATM    5  C6  UNL     1     -33.352  14.649  -4.381  1.00 20.00     0.311 C 
BRANCH   4   6
HETATM    6  C8  UNL     1     -35.118  15.983  -3.445  1.00 20.00     0.278 C 
BRANCH   6   7
HETATM    7  C4  UNL     1     -34.632  16.165  -2.048  1.00 20.00     0.018 A 
HETATM    8  C2  UNL     1     -33.708  17.305  -1.710  1.00 20.00     0.011 A 
HETATM    9  C3  UNL     1     -35.132  17.318  -1.218  1.00 20.00    -0.012 A 
HETATM   10  C5  UNL     1     -35.425  17.125   0.230  1.00 20.00     0.010 C 
ENDBRANCH   6   7
ENDBRANCH   4   6
ENDBRANCH   2   4
TORSDOF 3
ENDMDL
MODEL 6
REMARK VINA RESULT:      -4.0     17.466     18.556
REMARK  3 active torsions:
REMARK  status: ('A' for Active; 'I' for Inactive)
REMARK    1  A    between atoms: C4_4  and  C8_8 
REMARK    2  A    between atoms: C7_7  and  N10_10 
REMARK    3  A    between atoms: C8_8  and  N10_10 
ROOT
HETATM    1  C1  UNL     1     -36.118  13.787  -4.922  1.00 20.00     0.089 C 
HETATM    2  C7  UNL     1     -36.367  15.123  -5.459  1.00 20.00     0.394 C 
HETATM    3  N9  UNL     1     -35.925  12.726  -4.494  1.00 20.00    -0.195 NA
ENDROOT
BRANCH   2   4
HETATM    4  N10 UNL     1     -35.105  15.779  -5.837  1.00 20.00     0.097 N 
HETATM    5  C6  UNL     1     -35.346  17.214  -6.056  1.00 20.00     0.311 C 
BRANCH   4   6
HETATM    6  C8  UNL     1     -34.085  15.563  -4.849  1.00 20.00     0.278 C 
BRANCH   6   7
HETATM    7  C4  UNL     1     -34.202  16.543  -3.732  1.00 20.00     0.018 A 
HETATM    8  C2  UNL     1     -34.630  16.083  -2.363  1.00 20.00     0.011 A 
HETATM    9  C3  UNL     1     -33.207  16.520  -2.600  1.00 20.00    -0.012 A 
HETATM   10  C5  UNL     1     -32.710  17.797  -2.017  1.00 20.00     0.010 C 
ENDBRANCH   6   7
ENDBRANCH   4   6
ENDBRANCH   2   4
TORSDOF 3
ENDMDL
MODEL 7
REMARK VINA RESULT:      -3.9     14.682     15.851
REMARK  3 active torsions:
REMARK  status: ('A' for Active; 'I' for Inactive)
REMARK    1  A    between atoms: C4_4  and  C8_8 
REMARK    2  A    between atoms: C7_7  and  N10_10 
REMARK    3  A    between atoms: C8_8  and  N10_10 
ROOT
HETATM    1  C1  UNL     1     -31.694  18.566  -0.309  1.00 20.00     0.089 C 
HETATM    2  C7  UNL     1     -33.099  18.905  -0.088  1.00 20.00     0.394 C 
HETATM    3  N9  UNL     1     -30.578  18.301  -0.484  1.00 20.00    -0.195 NA
ENDROOT
BRANCH   2   4
HETATM    4  N10 UNL     1     -33.980  17.834  -0.579  1.00 20.00     0.097 N 
HETATM    5  C6  UNL     1     -35.369  18.130  -0.197  1.00 20.00     0.311 C 
BRANCH   4   6
HETATM    6  C8  UNL     1     -33.852  17.661  -2.000  1.00 20.00     0.278 C 
BRANCH   6   7
HETATM    7  C4  UNL     1     -33.849  16.217  -2.369  1.00 20.00     0.018 A 
HETATM    8  C2  UNL     1     -35.104  15.564  -2.884  1.00 20.00     0.011 A 
HETATM    9  C3  UNL     1     -33.944  15.806  -3.815  1.00 20.00    -0.012 A 
HETATM   10  C5  UNL     1     -33.139  14.659  -4.321  1.00 20.00     0.010 C 
ENDBRANCH   6   7
ENDBRANCH   4   6
ENDBRANCH   2   4
TORSDOF 3
ENDMDL
MODEL 8
REMARK VINA RESULT:      -3.8      1.592      2.387
REMARK  3 active torsions:
REMARK  status: ('A' for Active; 'I' for Inactive)
REMARK    1  A    between atoms: C4_4  and  C8_8 
REMARK    2  A    between atoms: C7_7  and  N10_10 
REMARK    3  A    between atoms: C8_8  and  N10_10 
ROOT
HETATM    1  C1  UNL     1     -24.264  19.032   7.249  1.00 20.00     0.089 C 
HETATM    2  C7  UNL     1     -23.832  19.159   8.640  1.00 20.00     0.394 C 
HETATM    3  N9  UNL     1     -24.610  18.935   6.146  1.00 20.00    -0.195 NA
ENDROOT
BRANCH   2   4
HETATM    4  N10 UNL     1     -23.160  17.932   9.094  1.00 20.00     0.097 N 
HETATM    5  C6  UNL     1     -22.315  17.407   8.010  1.00 20.00     0.311 C 
BRANCH   4   6
HETATM    6  C8  UNL     1     -22.397  18.163  10.289  1.00 20.00     0.278 C 
BRANCH   6   7
HETATM    7  C4  UNL     1     -22.947  17.390  11.438  1.00 20.00     0.018 A 
HETATM    8  C2  UNL     1     -23.992  18.003  12.332  1.00 20.00     0.011 A 
HETATM    9  C3  UNL     1     -24.364  16.881  11.397  1.00 20.00    -0.012 A 
HETATM   10  C5  UNL     1     -24.690  15.533  11.939  1.00 20.00     0.010 C 
ENDBRANCH   6   7
ENDBRANCH   4   6
ENDBRANCH   2   4
TORSDOF 3
ENDMDL
MODEL 9
REMARK VINA RESULT:      -3.8     15.198     16.324
REMARK  3 active torsions:
REMARK  status: ('A' for Active; 'I' for Inactive)
REMARK    1  A    between atoms: C4_4  and  C8_8 
REMARK    2  A    between atoms: C7_7  and  N10_10 
REMARK    3  A    between atoms: C8_8  and  N10_10 
ROOT
HETATM    1  C1  UNL     1     -31.719  18.307  -0.677  1.00 20.00     0.089 C 
HETATM    2  C7  UNL     1     -33.155  18.278  -0.950  1.00 20.00     0.394 C 
HETATM    3  N9  UNL     1     -30.580  18.332  -0.456  1.00 20.00    -0.195 NA
ENDROOT
BRANCH   2   4
HETATM    4  N10 UNL     1     -33.412  17.997  -2.372  1.00 20.00     0.097 N 
HETATM    5  C6  UNL     1     -32.817  19.060  -3.196  1.00 20.00     0.311 C 
BRANCH   4   6
HETATM    6  C8  UNL     1     -32.916  16.702  -2.748  1.00 20.00     0.278 C 
BRANCH   6   7
HETATM    7  C4  UNL     1     -33.799  16.060  -3.762  1.00 20.00     0.018 A 
HETATM    8  C2  UNL     1     -33.466  14.695  -4.301  1.00 20.00     0.011 A 
HETATM    9  C3  UNL     1     -34.647  14.874  -3.383  1.00 20.00    -0.012 A 
HETATM   10  C5  UNL     1     -36.033  14.746  -3.913  1.00 20.00     0.010 C 
ENDBRANCH   6   7
ENDBRANCH   4   6
ENDBRANCH   2   4
TORSDOF 3
ENDMDL
