MODEL 1
REMARK VINA RESULT:      -4.6      0.000      0.000
REMARK  2 active torsions:
REMARK  status: ('A' for Active; 'I' for Inactive)
REMARK    1  A    between atoms: C6_6  and  C8_8 
REMARK    2  A    between atoms: C8_8  and  N9_9 
ROOT
HETATM    1  C1  UNL     1     -24.125  18.876   7.794  1.00 20.00     0.332 C 
HETATM    2  N9  UNL     1     -24.307  18.862   8.958  1.00 20.00    -0.247 NA
HETATM    3  O10 UNL     1     -23.947  18.890   6.632  1.00 20.00    -0.260 OA
ENDROOT
BRANCH   2   4
HETATM    4  C8  UNL     1     -23.143  18.496   9.752  1.00 20.00     0.162 C 
BRANCH   4   5
HETATM    5  C6  UNL     1     -23.629  17.746  10.995  1.00 20.00    -0.026 C 
HETATM    6  C4  UNL     1     -24.040  16.306  10.660  1.00 20.00     0.011 C 
HETATM    7  C2  UNL     1     -25.001  15.900  11.775  1.00 20.00     0.001 C 
HETATM    8  C3  UNL     1     -25.582  17.199  12.332  1.00 20.00     0.001 C 
HETATM    9  C5  UNL     1     -24.944  18.329  11.529  1.00 20.00     0.011 C 
HETATM   10  C7  UNL     1     -22.527  17.778  12.067  1.00 20.00     0.017 C 
ENDBRANCH   4   5
ENDBRANCH   2   4
TORSDOF 2
ENDMDL
MODEL 2
REMARK VINA RESULT:      -4.6     16.549     17.977
REMARK  2 active torsions:
REMARK  status: ('A' for Active; 'I' for Inactive)
REMARK    1  A    between atoms: C6_6  and  C8_8 
REMARK    2  A    between atoms: C8_8  and  N9_9 
ROOT
HETATM    1  C1  UNL     1     -36.642  13.895  -4.725  1.00 20.00     0.332 C 
HETATM    2  N9  UNL     1     -35.539  14.154  -5.048  1.00 20.00    -0.247 NA
HETATM    3  O10 UNL     1     -37.744  13.637  -4.405  1.00 20.00    -0.260 OA
ENDROOT
BRANCH   2   4
HETATM    4  C8  UNL     1     -34.579  14.205  -3.955  1.00 20.00     0.162 C 
BRANCH   4   5
HETATM    5  C6  UNL     1     -34.404  15.667  -3.539  1.00 20.00    -0.026 C 
HETATM    6  C4  UNL     1     -32.931  16.007  -3.277  1.00 20.00     0.011 C 
HETATM    7  C2  UNL     1     -32.964  17.223  -2.354  1.00 20.00     0.001 C 
HETATM    8  C3  UNL     1     -34.314  17.182  -1.641  1.00 20.00     0.001 C 
HETATM    9  C5  UNL     1     -35.035  15.943  -2.167  1.00 20.00     0.011 C 
HETATM   10  C7  UNL     1     -35.004  16.576  -4.624  1.00 20.00     0.017 C 
ENDBRANCH   4   5
ENDBRANCH   2   4
TORSDOF 2
ENDMDL
MODEL 3
REMARK VINA RESULT:      -4.4     15.821     17.304
REMARK  2 active torsions:
REMARK  status: ('A' for Active; 'I' for Inactive)
REMARK    1  A    between atoms: C6_6  and  C8_8 
REMARK    2  A    between atoms: C8_8  and  N9_9 
ROOT
HETATM    1  C1  UNL     1     -35.659  13.704  -4.412  1.00 20.00     0.332 C 
HETATM    2  N9  UNL     1     -35.394  14.851  -4.382  1.00 20.00    -0.247 NA
HETATM    3  O10 UNL     1     -35.926  12.559  -4.443  1.00 20.00    -0.260 OA
ENDROOT
BRANCH   2   4
HETATM    4  C8  UNL     1     -34.127  15.168  -3.740  1.00 20.00     0.162 C 
BRANCH   4   5
HETATM    5  C6  UNL     1     -34.299  16.473  -2.959  1.00 20.00    -0.026 C 
HETATM    6  C4  UNL     1     -32.961  16.978  -2.402  1.00 20.00     0.011 C 
HETATM    7  C2  UNL     1     -33.337  17.878  -1.227  1.00 20.00     0.001 C 
HETATM    8  C3  UNL     1     -34.717  17.416  -0.759  1.00 20.00     0.001 C 
HETATM    9  C5  UNL     1     -35.111  16.260  -1.674  1.00 20.00     0.011 C 
HETATM   10  C7  UNL     1     -34.957  17.524  -3.868  1.00 20.00     0.017 C 
ENDBRANCH   4   5
ENDBRANCH   2   4
TORSDOF 2
ENDMDL
MODEL 4
REMARK VINA RESULT:      -4.3     16.607     18.117
REMARK  2 active torsions:
REMARK  status: ('A' for Active; 'I' for Inactive)
REMARK    1  A    between atoms: C6_6  and  C8_8 
REMARK    2  A    between atoms: C8_8  and  N9_9 
ROOT
HETATM    1  C1  UNL     1     -36.663  13.842  -4.630  1.00 20.00     0.332 C 
HETATM    2  N9  UNL     1     -35.522  14.042  -4.846  1.00 20.00    -0.247 NA
HETATM    3  O10 UNL     1     -37.801  13.639  -4.415  1.00 20.00    -0.260 OA
ENDROOT
BRANCH   2   4
HETATM    4  C8  UNL     1     -35.181  15.437  -5.082  1.00 20.00     0.162 C 
BRANCH   4   5
HETATM    5  C6  UNL     1     -34.124  15.851  -4.055  1.00 20.00    -0.026 C 
HETATM    6  C4  UNL     1     -34.704  15.897  -2.635  1.00 20.00     0.011 C 
HETATM    7  C2  UNL     1     -33.784  16.838  -1.862  1.00 20.00     0.001 C 
HETATM    8  C3  UNL     1     -33.128  17.744  -2.903  1.00 20.00     0.001 C 
HETATM    9  C5  UNL     1     -33.681  17.307  -4.257  1.00 20.00     0.011 C 
HETATM   10  C7  UNL     1     -32.930  14.886  -4.140  1.00 20.00     0.017 C 
ENDBRANCH   4   5
ENDBRANCH   2   4
TORSDOF 2
ENDMDL
MODEL 5
REMARK VINA RESULT:      -4.3     15.643     16.559
REMARK  2 active torsions:
REMARK  status: ('A' for Active; 'I' for Inactive)
REMARK    1  A    between atoms: C6_6  and  C8_8 
REMARK    2  A    between atoms: C8_8  and  N9_9 
ROOT
HETATM    1  C1  UNL     1     -32.549   7.527   1.775  1.00 20.00     0.332 C 
HETATM    2  N9  UNL     1     -32.466   6.833   2.724  1.00 20.00    -0.247 NA
HETATM    3  O10 UNL     1     -32.631   8.221   0.831  1.00 20.00    -0.260 OA
ENDROOT
BRANCH   2   4
HETATM    4  C8  UNL     1     -33.343   5.671   2.709  1.00 20.00     0.162 C 
BRANCH   4   5
HETATM    5  C6  UNL     1     -34.260   5.749   3.932  1.00 20.00    -0.026 C 
HETATM    6  C4  UNL     1     -33.763   6.789   4.945  1.00 20.00     0.011 C 
HETATM    7  C2  UNL     1     -34.372   6.363   6.279  1.00 20.00     0.001 C 
HETATM    8  C3  UNL     1     -34.657   4.866   6.161  1.00 20.00     0.001 C 
HETATM    9  C5  UNL     1     -34.208   4.458   4.760  1.00 20.00     0.011 C 
HETATM   10  C7  UNL     1     -35.693   6.059   3.470  1.00 20.00     0.017 C 
ENDBRANCH   4   5
ENDBRANCH   2   4
TORSDOF 2
ENDMDL
MODEL 6
REMARK VINA RESULT:      -4.2     13.673     15.665
REMARK  2 active torsions:
REMARK  status: ('A' for Active; 'I' for Inactive)
REMARK    1  A    between atoms: C6_6  and  C8_8 
REMARK    2  A    between atoms: C8_8  and  N9_9 
ROOT
HETATM    1  C1  UNL     1     -31.152  18.459  -0.598  1.00 20.00     0.332 C 
HETATM    2  N9  UNL     1     -31.956  18.404  -1.457  1.00 20.00    -0.247 NA
HETATM    3  O10 UNL     1     -30.348  18.514   0.257  1.00 20.00    -0.260 OA
ENDROOT
BRANCH   2   4
HETATM    4  C8  UNL     1     -33.268  17.935  -1.036  1.00 20.00     0.162 C 
BRANCH   4   5
HETATM    5  C6  UNL     1     -33.949  17.275  -2.238  1.00 20.00    -0.026 C 
HETATM    6  C4  UNL     1     -34.998  16.245  -1.797  1.00 20.00     0.011 C 
HETATM    7  C2  UNL     1     -35.149  15.301  -2.987  1.00 20.00     0.001 C 
HETATM    8  C3  UNL     1     -33.847  15.399  -3.779  1.00 20.00     0.001 C 
HETATM    9  C5  UNL     1     -32.969  16.400  -3.032  1.00 20.00     0.011 C 
HETATM   10  C7  UNL     1     -34.573  18.363  -3.126  1.00 20.00     0.017 C 
ENDBRANCH   4   5
ENDBRANCH   2   4
TORSDOF 2
ENDMDL
MODEL 7
REMARK VINA RESULT:      -4.1     22.916     23.749
REMARK  2 active torsions:
REMARK  status: ('A' for Active; 'I' for Inactive)
REMARK    1  A    between atoms: C6_6  and  C8_8 
REMARK    2  A    between atoms: C8_8  and  N9_9 
ROOT
HETATM    1  C1  UNL     1     -41.414   9.317   0.337  1.00 20.00     0.332 C 
HETATM    2  N9  UNL     1     -41.335   8.142   0.346  1.00 20.00    -0.247 NA
HETATM    3  O10 UNL     1     -41.491  10.491   0.328  1.00 20.00    -0.260 OA
ENDROOT
BRANCH   2   4
HETATM    4  C8  UNL     1     -42.582   7.448   0.631  1.00 20.00     0.162 C 
BRANCH   4   5
HETATM    5  C6  UNL     1     -42.472   6.022   0.087  1.00 20.00    -0.026 C 
HETATM    6  C4  UNL     1     -41.100   5.766  -0.552  1.00 20.00     0.011 C 
HETATM    7  C2  UNL     1     -41.324   4.606  -1.518  1.00 20.00     0.001 C 
HETATM    8  C3  UNL     1     -42.810   4.625  -1.872  1.00 20.00     0.001 C 
HETATM    9  C5  UNL     1     -43.415   5.796  -1.102  1.00 20.00     0.011 C 
HETATM   10  C7  UNL     1     -42.754   5.025   1.222  1.00 20.00     0.017 C 
ENDBRANCH   4   5
ENDBRANCH   2   4
TORSDOF 2
ENDMDL
MODEL 8
REMARK VINA RESULT:      -4.0     14.406     16.400
REMARK  2 active torsions:
REMARK  status: ('A' for Active; 'I' for Inactive)
REMARK    1  A    between atoms: C6_6  and  C8_8 
REMARK    2  A    between atoms: C8_8  and  N9_9 
ROOT
HETATM    1  C1  UNL     1     -31.690  18.183  -0.956  1.00 20.00     0.332 C 
HETATM    2  N9  UNL     1     -32.763  17.834  -1.295  1.00 20.00    -0.247 NA
HETATM    3  O10 UNL     1     -30.620  18.531  -0.615  1.00 20.00    -0.260 OA
ENDROOT
BRANCH   2   4
HETATM    4  C8  UNL     1     -33.006  17.913  -2.728  1.00 20.00     0.162 C 
BRANCH   4   5
HETATM    5  C6  UNL     1     -33.872  16.719  -3.133  1.00 20.00    -0.026 C 
HETATM    6  C4  UNL     1     -33.018  15.541  -3.622  1.00 20.00     0.011 C 
HETATM    7  C2  UNL     1     -33.952  14.712  -4.500  1.00 20.00     0.001 C 
HETATM    8  C3  UNL     1     -35.042  15.667  -4.986  1.00 20.00     0.001 C 
HETATM    9  C5  UNL     1     -34.715  17.028  -4.378  1.00 20.00     0.011 C 
HETATM   10  C7  UNL     1     -34.758  16.310  -1.945  1.00 20.00     0.017 C 
ENDBRANCH   4   5
ENDBRANCH   2   4
TORSDOF 2
ENDMDL
MODEL 9
REMARK VINA RESULT:      -4.0     16.412     17.490
REMARK  2 active torsions:
REMARK  status: ('A' for Active; 'I' for Inactive)
REMARK    1  A    between atoms: C6_6  and  C8_8 
REMARK    2  A    between atoms: C8_8  and  N9_9 
ROOT
HETATM    1  C1  UNL     1     -35.750  13.732  -4.225  1.00 20.00     0.332 C 
HETATM    2  N9  UNL     1     -35.638  14.836  -3.829  1.00 20.00    -0.247 NA
HETATM    3  O10 UNL     1     -35.866  12.630  -4.620  1.00 20.00    -0.260 OA
ENDROOT
BRANCH   2   4
HETATM    4  C8  UNL     1     -34.305  15.182  -3.360  1.00 20.00     0.162 C 
BRANCH   4   5
HETATM    5  C6  UNL     1     -34.378  16.549  -2.676  1.00 20.00    -0.026 C 
HETATM    6  C4  UNL     1     -35.149  16.476  -1.350  1.00 20.00     0.011 C 
HETATM    7  C2  UNL     1     -35.637  17.901  -1.098  1.00 20.00     0.001 C 
HETATM    8  C3  UNL     1     -35.693  18.582  -2.465  1.00 20.00     0.001 C 
HETATM    9  C5  UNL     1     -35.235  17.537  -3.479  1.00 20.00     0.011 C 
HETATM   10  C7  UNL     1     -32.954  17.087  -2.466  1.00 20.00     0.017 C 
ENDBRANCH   4   5
ENDBRANCH   2   4
TORSDOF 2
ENDMDL
