MODEL 1
REMARK VINA RESULT:      -4.3      0.000      0.000
REMARK  2 active torsions:
REMARK  status: ('A' for Active; 'I' for Inactive)
REMARK    1  A    between atoms: C6_6  and  C8_8 
REMARK    2  A    between atoms: C8_8  and  N9_9 
ROOT
HETATM    1  C1  UNL     1     -24.939  19.207   7.896  1.00 20.00     0.157 C 
HETATM    2  N9  UNL     1     -24.804  19.170   9.067  1.00 20.00    -0.275 NA
HETATM    3  S10 UNL     1     -25.140  19.263   6.317  1.00 20.00    -0.055 SA
ENDROOT
BRANCH   2   4
HETATM    4  C8  UNL     1     -23.488  18.752   9.527  1.00 20.00     0.159 C 
BRANCH   4   5
HETATM    5  C6  UNL     1     -23.673  17.852  10.750  1.00 20.00    -0.026 C 
HETATM    6  C4  UNL     1     -23.999  16.408  10.344  1.00 20.00     0.011 C 
HETATM    7  C2  UNL     1     -24.705  15.805  11.557  1.00 20.00     0.001 C 
HETATM    8  C3  UNL     1     -25.300  16.981  12.332  1.00 20.00     0.001 C 
HETATM    9  C5  UNL     1     -24.923  18.239  11.552  1.00 20.00     0.011 C 
HETATM   10  C7  UNL     1     -22.408  17.915  11.622  1.00 20.00     0.017 C 
ENDBRANCH   4   5
ENDBRANCH   2   4
TORSDOF 2
ENDMDL
MODEL 2
REMARK VINA RESULT:      -4.2     15.544     16.464
REMARK  2 active torsions:
REMARK  status: ('A' for Active; 'I' for Inactive)
REMARK    1  A    between atoms: C6_6  and  C8_8 
REMARK    2  A    between atoms: C8_8  and  N9_9 
ROOT
HETATM    1  C1  UNL     1     -32.614   7.592   1.783  1.00 20.00     0.157 C 
HETATM    2  N9  UNL     1     -32.453   6.860   2.693  1.00 20.00    -0.275 NA
HETATM    3  S10 UNL     1     -32.817   8.593   0.560  1.00 20.00    -0.055 SA
ENDROOT
BRANCH   2   4
HETATM    4  C8  UNL     1     -33.298   5.675   2.693  1.00 20.00     0.159 C 
BRANCH   4   5
HETATM    5  C6  UNL     1     -34.222   5.748   3.909  1.00 20.00    -0.026 C 
HETATM    6  C4  UNL     1     -33.736   6.789   4.927  1.00 20.00     0.011 C 
HETATM    7  C2  UNL     1     -34.351   6.360   6.257  1.00 20.00     0.001 C 
HETATM    8  C3  UNL     1     -34.629   4.862   6.136  1.00 20.00     0.001 C 
HETATM    9  C5  UNL     1     -34.171   4.456   4.737  1.00 20.00     0.011 C 
HETATM   10  C7  UNL     1     -35.655   6.053   3.440  1.00 20.00     0.017 C 
ENDBRANCH   4   5
ENDBRANCH   2   4
TORSDOF 2
ENDMDL
MODEL 3
REMARK VINA RESULT:      -4.1     17.155     18.810
REMARK  2 active torsions:
REMARK  status: ('A' for Active; 'I' for Inactive)
REMARK    1  A    between atoms: C6_6  and  C8_8 
REMARK    2  A    between atoms: C8_8  and  N9_9 
ROOT
HETATM    1  C1  UNL     1     -38.643  14.696  -4.258  1.00 20.00     0.157 C 
HETATM    2  N9  UNL     1     -37.627  14.114  -4.395  1.00 20.00    -0.275 NA
HETATM    3  S10 UNL     1     -40.024  15.467  -4.064  1.00 20.00    -0.055 SA
ENDROOT
BRANCH   2   4
HETATM    4  C8  UNL     1     -36.580  14.849  -5.089  1.00 20.00     0.159 C 
BRANCH   4   5
HETATM    5  C6  UNL     1     -35.322  14.824  -4.219  1.00 20.00    -0.026 C 
HETATM    6  C4  UNL     1     -35.515  15.622  -2.922  1.00 20.00     0.011 C 
HETATM    7  C2  UNL     1     -34.105  15.996  -2.473  1.00 20.00     0.001 C 
HETATM    8  C3  UNL     1     -33.236  15.971  -3.731  1.00 20.00     0.001 C 
HETATM    9  C5  UNL     1     -34.162  15.581  -4.880  1.00 20.00     0.011 C 
HETATM   10  C7  UNL     1     -34.939  13.364  -3.924  1.00 20.00     0.017 C 
ENDBRANCH   4   5
ENDBRANCH   2   4
TORSDOF 2
ENDMDL
MODEL 4
REMARK VINA RESULT:      -3.9     13.228     15.455
REMARK  2 active torsions:
REMARK  status: ('A' for Active; 'I' for Inactive)
REMARK    1  A    between atoms: C6_6  and  C8_8 
REMARK    2  A    between atoms: C8_8  and  N9_9 
ROOT
HETATM    1  C1  UNL     1     -31.451  18.473  -0.237  1.00 20.00     0.157 C 
HETATM    2  N9  UNL     1     -32.036  18.161  -1.211  1.00 20.00    -0.275 NA
HETATM    3  S10 UNL     1     -30.643  18.895   1.070  1.00 20.00    -0.055 SA
ENDROOT
BRANCH   2   4
HETATM    4  C8  UNL     1     -33.480  18.060  -1.061  1.00 20.00     0.159 C 
BRANCH   4   5
HETATM    5  C6  UNL     1     -34.035  17.317  -2.278  1.00 20.00    -0.026 C 
HETATM    6  C4  UNL     1     -35.023  16.216  -1.865  1.00 20.00     0.011 C 
HETATM    7  C2  UNL     1     -35.031  15.233  -3.033  1.00 20.00     0.001 C 
HETATM    8  C3  UNL     1     -33.696  15.417  -3.755  1.00 20.00     0.001 C 
HETATM    9  C5  UNL     1     -32.945  16.505  -2.990  1.00 20.00     0.011 C 
HETATM   10  C7  UNL     1     -34.692  18.327  -3.233  1.00 20.00     0.017 C 
ENDBRANCH   4   5
ENDBRANCH   2   4
TORSDOF 2
ENDMDL
MODEL 5
REMARK VINA RESULT:      -3.9     17.159     18.817
REMARK  2 active torsions:
REMARK  status: ('A' for Active; 'I' for Inactive)
REMARK    1  A    between atoms: C6_6  and  C8_8 
REMARK    2  A    between atoms: C8_8  and  N9_9 
ROOT
HETATM    1  C1  UNL     1     -38.357  14.578  -4.262  1.00 20.00     0.157 C 
HETATM    2  N9  UNL     1     -37.332  14.026  -4.077  1.00 20.00    -0.275 NA
HETATM    3  S10 UNL     1     -39.749  15.316  -4.496  1.00 20.00    -0.055 SA
ENDROOT
BRANCH   2   4
HETATM    4  C8  UNL     1     -36.308  14.263  -5.084  1.00 20.00     0.159 C 
BRANCH   4   5
HETATM    5  C6  UNL     1     -35.322  15.293  -4.530  1.00 20.00    -0.026 C 
HETATM    6  C4  UNL     1     -33.868  14.831  -4.699  1.00 20.00     0.011 C 
HETATM    7  C2  UNL     1     -33.081  15.601  -3.642  1.00 20.00     0.001 C 
HETATM    8  C3  UNL     1     -34.085  15.977  -2.553  1.00 20.00     0.001 C 
HETATM    9  C5  UNL     1     -35.432  15.417  -3.004  1.00 20.00     0.011 C 
HETATM   10  C7  UNL     1     -35.561  16.647  -5.219  1.00 20.00     0.017 C 
ENDBRANCH   4   5
ENDBRANCH   2   4
TORSDOF 2
ENDMDL
MODEL 6
REMARK VINA RESULT:      -3.9      2.678      3.955
REMARK  2 active torsions:
REMARK  status: ('A' for Active; 'I' for Inactive)
REMARK    1  A    between atoms: C6_6  and  C8_8 
REMARK    2  A    between atoms: C8_8  and  N9_9 
ROOT
HETATM    1  C1  UNL     1     -26.222  17.259  12.324  1.00 20.00     0.157 C 
HETATM    2  N9  UNL     1     -25.140  16.791  12.332  1.00 20.00    -0.275 NA
HETATM    3  S10 UNL     1     -27.683  17.893  12.332  1.00 20.00    -0.055 SA
ENDROOT
BRANCH   2   4
HETATM    4  C8  UNL     1     -24.655  16.326  11.041  1.00 20.00     0.159 C 
BRANCH   4   5
HETATM    5  C6  UNL     1     -23.613  17.324  10.534  1.00 20.00    -0.026 C 
HETATM    6  C4  UNL     1     -24.272  18.537   9.861  1.00 20.00     0.011 C 
HETATM    7  C2  UNL     1     -23.201  19.107   8.935  1.00 20.00     0.001 C 
HETATM    8  C3  UNL     1     -22.247  17.953   8.625  1.00 20.00     0.001 C 
HETATM    9  C5  UNL     1     -22.786  16.741   9.381  1.00 20.00     0.011 C 
HETATM   10  C7  UNL     1     -22.713  17.756  11.704  1.00 20.00     0.017 C 
ENDBRANCH   4   5
ENDBRANCH   2   4
TORSDOF 2
ENDMDL
MODEL 7
REMARK VINA RESULT:      -3.9     23.580     24.429
REMARK  2 active torsions:
REMARK  status: ('A' for Active; 'I' for Inactive)
REMARK    1  A    between atoms: C6_6  and  C8_8 
REMARK    2  A    between atoms: C8_8  and  N9_9 
ROOT
HETATM    1  C1  UNL     1     -42.627   3.830  -2.360  1.00 20.00     0.157 C 
HETATM    2  N9  UNL     1     -42.885   4.660  -1.564  1.00 20.00    -0.275 NA
HETATM    3  S10 UNL     1     -42.297   2.704  -3.437  1.00 20.00    -0.055 SA
ENDROOT
BRANCH   2   4
HETATM    4  C8  UNL     1     -41.743   5.400  -1.047  1.00 20.00     0.159 C 
BRANCH   4   5
HETATM    5  C6  UNL     1     -42.270   6.582  -0.230  1.00 20.00    -0.026 C 
HETATM    6  C4  UNL     1     -43.269   7.424  -1.035  1.00 20.00     0.011 C 
HETATM    7  C2  UNL     1     -43.250   8.800  -0.374  1.00 20.00     0.001 C 
HETATM    8  C3  UNL     1     -41.898   8.917   0.329  1.00 20.00     0.001 C 
HETATM    9  C5  UNL     1     -41.164   7.605   0.061  1.00 20.00     0.011 C 
HETATM   10  C7  UNL     1     -42.902   6.058   1.070  1.00 20.00     0.017 C 
ENDBRANCH   4   5
ENDBRANCH   2   4
TORSDOF 2
ENDMDL
MODEL 8
REMARK VINA RESULT:      -3.7     14.977     16.556
REMARK  2 active torsions:
REMARK  status: ('A' for Active; 'I' for Inactive)
REMARK    1  A    between atoms: C6_6  and  C8_8 
REMARK    2  A    between atoms: C8_8  and  N9_9 
ROOT
HETATM    1  C1  UNL     1     -35.361  17.393   0.266  1.00 20.00     0.157 C 
HETATM    2  N9  UNL     1     -35.301  16.839  -0.772  1.00 20.00    -0.275 NA
HETATM    3  S10 UNL     1     -35.456  18.131   1.675  1.00 20.00    -0.055 SA
ENDROOT
BRANCH   2   4
HETATM    4  C8  UNL     1     -34.230  17.282  -1.652  1.00 20.00     0.159 C 
BRANCH   4   5
HETATM    5  C6  UNL     1     -34.333  16.501  -2.963  1.00 20.00    -0.026 C 
HETATM    6  C4  UNL     1     -35.184  15.233  -2.799  1.00 20.00     0.011 C 
HETATM    7  C2  UNL     1     -34.735  14.307  -3.927  1.00 20.00     0.001 C 
HETATM    8  C3  UNL     1     -33.318  14.743  -4.299  1.00 20.00     0.001 C 
HETATM    9  C5  UNL     1     -32.978  15.914  -3.380  1.00 20.00     0.011 C 
HETATM   10  C7  UNL     1     -34.904  17.419  -4.057  1.00 20.00     0.017 C 
ENDBRANCH   4   5
ENDBRANCH   2   4
TORSDOF 2
ENDMDL
MODEL 9
REMARK VINA RESULT:      -3.7     14.766     15.883
REMARK  2 active torsions:
REMARK  status: ('A' for Active; 'I' for Inactive)
REMARK    1  A    between atoms: C6_6  and  C8_8 
REMARK    2  A    between atoms: C8_8  and  N9_9 
ROOT
HETATM    1  C1  UNL     1     -35.954  17.717   1.226  1.00 20.00     0.157 C 
HETATM    2  N9  UNL     1     -35.416  17.146   0.347  1.00 20.00    -0.275 NA
HETATM    3  S10 UNL     1     -36.691  18.474   2.418  1.00 20.00    -0.055 SA
ENDROOT
BRANCH   2   4
HETATM    4  C8  UNL     1     -34.437  17.927  -0.395  1.00 20.00     0.159 C 
BRANCH   4   5
HETATM    5  C6  UNL     1     -34.393  17.399  -1.830  1.00 20.00    -0.026 C 
HETATM    6  C4  UNL     1     -35.061  16.022  -1.946  1.00 20.00     0.011 C 
HETATM    7  C2  UNL     1     -34.455  15.392  -3.198  1.00 20.00     0.001 C 
HETATM    8  C3  UNL     1     -33.103  16.075  -3.408  1.00 20.00     0.001 C 
HETATM    9  C5  UNL     1     -32.957  17.087  -2.273  1.00 20.00     0.011 C 
HETATM   10  C7  UNL     1     -35.056  18.422  -2.767  1.00 20.00     0.017 C 
ENDBRANCH   4   5
ENDBRANCH   2   4
TORSDOF 2
ENDMDL
