MODEL 1
REMARK VINA RESULT:      -4.3      0.000      0.000
REMARK  3 active torsions:
REMARK  status: ('A' for Active; 'I' for Inactive)
REMARK    1  A    between atoms: C5_5  and  C9_9 
REMARK    2  A    between atoms: C8_8  and  N10_10 
REMARK    3  A    between atoms: C9_9  and  N10_10 
ROOT
HETATM    1  C1  UNL     1     -32.899   9.238   0.731  1.00 20.00     0.013 C 
HETATM    2  C2  UNL     1     -32.816   8.108   1.129  1.00 20.00    -0.087 C 
HETATM    3  C8  UNL     1     -32.717   6.728   1.608  1.00 20.00     0.364 C 
ENDROOT
BRANCH   3   4
HETATM    4  N10 UNL     1     -32.485   6.697   3.061  1.00 20.00     0.095 N 
HETATM    5  C7  UNL     1     -31.512   7.740   3.423  1.00 20.00     0.310 C 
BRANCH   4   6
HETATM    6  C9  UNL     1     -33.713   6.851   3.791  1.00 20.00     0.278 C 
BRANCH   6   7
HETATM    7  C5  UNL     1     -34.602   5.669   3.604  1.00 20.00     0.018 A 
HETATM    8  C3  UNL     1     -34.083   4.279   3.866  1.00 20.00     0.011 A 
HETATM    9  C4  UNL     1     -35.137   4.867   4.768  1.00 20.00    -0.012 A 
HETATM   10  C6  UNL     1     -34.817   5.198   6.184  1.00 20.00     0.010 C 
ENDBRANCH   6   7
ENDBRANCH   4   6
ENDBRANCH   3   4
TORSDOF 3
ENDMDL
MODEL 2
REMARK VINA RESULT:      -4.2     14.801     16.157
REMARK  3 active torsions:
REMARK  status: ('A' for Active; 'I' for Inactive)
REMARK    1  A    between atoms: C5_5  and  C9_9 
REMARK    2  A    between atoms: C8_8  and  N10_10 
REMARK    3  A    between atoms: C9_9  and  N10_10 
ROOT
HETATM    1  C1  UNL     1     -26.608  18.880   6.449  1.00 20.00     0.013 C 
HETATM    2  C2  UNL     1     -25.571  19.049   7.030  1.00 20.00    -0.087 C 
HETATM    3  C8  UNL     1     -24.306  19.262   7.736  1.00 20.00     0.364 C 
ENDROOT
BRANCH   3   4
HETATM    4  N10 UNL     1     -23.971  18.093   8.565  1.00 20.00     0.095 N 
HETATM    5  C7  UNL     1     -22.549  17.758   8.388  1.00 20.00     0.310 C 
BRANCH   4   6
HETATM    6  C9  UNL     1     -24.286  18.325   9.948  1.00 20.00     0.278 C 
BRANCH   6   7
HETATM    7  C5  UNL     1     -23.215  17.797  10.840  1.00 20.00     0.018 A 
HETATM    8  C3  UNL     1     -23.302  17.994  12.331  1.00 20.00     0.011 A 
HETATM    9  C4  UNL     1     -23.430  16.610  11.750  1.00 20.00    -0.012 A 
HETATM   10  C6  UNL     1     -24.728  15.881  11.822  1.00 20.00     0.010 C 
ENDBRANCH   6   7
ENDBRANCH   4   6
ENDBRANCH   3   4
TORSDOF 3
ENDMDL
MODEL 3
REMARK VINA RESULT:      -4.1     11.174     12.082
REMARK  3 active torsions:
REMARK  status: ('A' for Active; 'I' for Inactive)
REMARK    1  A    between atoms: C5_5  and  C9_9 
REMARK    2  A    between atoms: C8_8  and  N10_10 
REMARK    3  A    between atoms: C9_9  and  N10_10 
ROOT
HETATM    1  C1  UNL     1     -38.365  14.944  -4.236  1.00 20.00     0.013 C 
HETATM    2  C2  UNL     1     -37.305  14.395  -4.367  1.00 20.00    -0.087 C 
HETATM    3  C8  UNL     1     -36.015  13.721  -4.524  1.00 20.00     0.364 C 
ENDROOT
BRANCH   3   4
HETATM    4  N10 UNL     1     -35.100  14.533  -5.342  1.00 20.00     0.095 N 
HETATM    5  C7  UNL     1     -35.708  14.776  -6.660  1.00 20.00     0.310 C 
BRANCH   4   6
HETATM    6  C9  UNL     1     -34.764  15.766  -4.685  1.00 20.00     0.278 C 
BRANCH   6   7
HETATM    7  C5  UNL     1     -34.063  15.514  -3.394  1.00 20.00     0.018 A 
HETATM    8  C3  UNL     1     -33.240  16.601  -2.751  1.00 20.00     0.011 A 
HETATM    9  C4  UNL     1     -34.514  16.138  -2.093  1.00 20.00    -0.012 A 
HETATM   10  C6  UNL     1     -35.689  17.048  -2.006  1.00 20.00     0.010 C 
ENDBRANCH   6   7
ENDBRANCH   4   6
ENDBRANCH   3   4
TORSDOF 3
ENDMDL
MODEL 4
REMARK VINA RESULT:      -3.9     11.234     12.145
REMARK  3 active torsions:
REMARK  status: ('A' for Active; 'I' for Inactive)
REMARK    1  A    between atoms: C5_5  and  C9_9 
REMARK    2  A    between atoms: C8_8  and  N10_10 
REMARK    3  A    between atoms: C9_9  and  N10_10 
ROOT
HETATM    1  C1  UNL     1     -31.211  18.267  -0.356  1.00 20.00     0.013 C 
HETATM    2  C2  UNL     1     -32.355  18.543  -0.122  1.00 20.00    -0.087 C 
HETATM    3  C8  UNL     1     -33.750  18.887   0.164  1.00 20.00     0.364 C 
ENDROOT
BRANCH   3   4
HETATM    4  N10 UNL     1     -34.604  17.691   0.100  1.00 20.00     0.095 N 
HETATM    5  C7  UNL     1     -35.629  17.764   1.154  1.00 20.00     0.310 C 
BRANCH   4   6
HETATM    6  C9  UNL     1     -35.199  17.541  -1.200  1.00 20.00     0.278 C 
BRANCH   6   7
HETATM    7  C5  UNL     1     -35.024  16.154  -1.716  1.00 20.00     0.018 A 
HETATM    8  C3  UNL     1     -35.489  15.795  -3.103  1.00 20.00     0.011 A 
HETATM    9  C4  UNL     1     -34.016  15.810  -2.788  1.00 20.00    -0.012 A 
HETATM   10  C6  UNL     1     -33.124  16.830  -3.406  1.00 20.00     0.010 C 
ENDBRANCH   6   7
ENDBRANCH   4   6
ENDBRANCH   3   4
TORSDOF 3
ENDMDL
MODEL 5
REMARK VINA RESULT:      -3.9     11.144     12.278
REMARK  3 active torsions:
REMARK  status: ('A' for Active; 'I' for Inactive)
REMARK    1  A    between atoms: C5_5  and  C9_9 
REMARK    2  A    between atoms: C8_8  and  N10_10 
REMARK    3  A    between atoms: C9_9  and  N10_10 
ROOT
HETATM    1  C1  UNL     1     -34.050  15.714  -7.789  1.00 20.00     0.013 C 
HETATM    2  C2  UNL     1     -34.801  15.124  -7.060  1.00 20.00    -0.087 C 
HETATM    3  C8  UNL     1     -35.718  14.401  -6.177  1.00 20.00     0.364 C 
ENDROOT
BRANCH   3   4
HETATM    4  N10 UNL     1     -35.805  15.062  -4.864  1.00 20.00     0.095 N 
HETATM    5  C7  UNL     1     -37.202  15.050  -4.402  1.00 20.00     0.310 C 
BRANCH   4   6
HETATM    6  C9  UNL     1     -34.931  14.441  -3.907  1.00 20.00     0.278 C 
BRANCH   6   7
HETATM    7  C5  UNL     1     -33.790  15.334  -3.561  1.00 20.00     0.018 A 
HETATM    8  C3  UNL     1     -33.868  16.812  -3.844  1.00 20.00     0.011 A 
HETATM    9  C4  UNL     1     -33.851  16.322  -2.419  1.00 20.00    -0.012 A 
HETATM   10  C6  UNL     1     -35.056  16.475  -1.557  1.00 20.00     0.010 C 
ENDBRANCH   6   7
ENDBRANCH   4   6
ENDBRANCH   3   4
TORSDOF 3
ENDMDL
MODEL 6
REMARK VINA RESULT:      -3.9     11.091     12.176
REMARK  3 active torsions:
REMARK  status: ('A' for Active; 'I' for Inactive)
REMARK    1  A    between atoms: C5_5  and  C9_9 
REMARK    2  A    between atoms: C8_8  and  N10_10 
REMARK    3  A    between atoms: C9_9  and  N10_10 
ROOT
HETATM    1  C1  UNL     1     -30.687  18.607   0.673  1.00 20.00     0.013 C 
HETATM    2  C2  UNL     1     -31.328  18.564  -0.340  1.00 20.00    -0.087 C 
HETATM    3  C8  UNL     1     -32.107  18.516  -1.580  1.00 20.00     0.364 C 
ENDROOT
BRANCH   3   4
HETATM    4  N10 UNL     1     -33.222  17.563  -1.457  1.00 20.00     0.095 N 
HETATM    5  C7  UNL     1     -34.379  18.239  -0.849  1.00 20.00     0.310 C 
BRANCH   4   6
HETATM    6  C9  UNL     1     -33.561  16.986  -2.729  1.00 20.00     0.278 C 
BRANCH   6   7
HETATM    7  C5  UNL     1     -34.349  15.733  -2.559  1.00 20.00     0.018 A 
HETATM    8  C3  UNL     1     -35.643  15.542  -3.306  1.00 20.00     0.011 A 
HETATM    9  C4  UNL     1     -34.451  14.686  -3.644  1.00 20.00    -0.012 A 
HETATM   10  C6  UNL     1     -33.771  14.830  -4.962  1.00 20.00     0.010 C 
ENDBRANCH   6   7
ENDBRANCH   4   6
ENDBRANCH   3   4
TORSDOF 3
ENDMDL
MODEL 7
REMARK VINA RESULT:      -3.8     11.070     12.176
REMARK  3 active torsions:
REMARK  status: ('A' for Active; 'I' for Inactive)
REMARK    1  A    between atoms: C5_5  and  C9_9 
REMARK    2  A    between atoms: C8_8  and  N10_10 
REMARK    3  A    between atoms: C9_9  and  N10_10 
ROOT
HETATM    1  C1  UNL     1     -31.091  18.338  -0.271  1.00 20.00     0.013 C 
HETATM    2  C2  UNL     1     -31.850  18.234  -1.194  1.00 20.00    -0.087 C 
HETATM    3  C8  UNL     1     -32.773  18.110  -2.325  1.00 20.00     0.364 C 
ENDROOT
BRANCH   3   4
HETATM    4  N10 UNL     1     -34.047  17.514  -1.894  1.00 20.00     0.095 N 
HETATM    5  C7  UNL     1     -35.164  18.325  -2.404  1.00 20.00     0.310 C 
BRANCH   4   6
HETATM    6  C9  UNL     1     -34.156  16.145  -2.320  1.00 20.00     0.278 C 
BRANCH   6   7
HETATM    7  C5  UNL     1     -33.779  15.997  -3.754  1.00 20.00     0.018 A 
HETATM    8  C3  UNL     1     -32.962  14.814  -4.206  1.00 20.00     0.011 A 
HETATM    9  C4  UNL     1     -34.396  14.947  -4.649  1.00 20.00    -0.012 A 
HETATM   10  C6  UNL     1     -35.426  13.985  -4.164  1.00 20.00     0.010 C 
ENDBRANCH   6   7
ENDBRANCH   4   6
ENDBRANCH   3   4
TORSDOF 3
ENDMDL
MODEL 8
REMARK VINA RESULT:      -3.8      1.114      4.885
REMARK  3 active torsions:
REMARK  status: ('A' for Active; 'I' for Inactive)
REMARK    1  A    between atoms: C5_5  and  C9_9 
REMARK    2  A    between atoms: C8_8  and  N10_10 
REMARK    3  A    between atoms: C9_9  and  N10_10 
ROOT
HETATM    1  C1  UNL     1     -34.813   5.085   5.945  1.00 20.00     0.013 C 
HETATM    2  C2  UNL     1     -34.466   5.853   5.090  1.00 20.00    -0.087 C 
HETATM    3  C8  UNL     1     -34.046   6.793   4.048  1.00 20.00     0.364 C 
ENDROOT
BRANCH   3   4
HETATM    4  N10 UNL     1     -32.875   6.276   3.322  1.00 20.00     0.095 N 
HETATM    5  C7  UNL     1     -33.284   5.142   2.478  1.00 20.00     0.310 C 
BRANCH   4   6
HETATM    6  C9  UNL     1     -32.244   7.307   2.545  1.00 20.00     0.278 C 
BRANCH   6   7
HETATM    7  C5  UNL     1     -33.225   7.985   1.652  1.00 20.00     0.018 A 
HETATM    8  C3  UNL     1     -32.977   9.395   1.183  1.00 20.00     0.011 A 
HETATM    9  C4  UNL     1     -32.939   8.259   0.194  1.00 20.00    -0.012 A 
HETATM   10  C6  UNL     1     -31.657   7.871  -0.458  1.00 20.00     0.010 C 
ENDBRANCH   6   7
ENDBRANCH   4   6
ENDBRANCH   3   4
TORSDOF 3
ENDMDL
MODEL 9
REMARK VINA RESULT:      -3.7     10.917     11.994
REMARK  3 active torsions:
REMARK  status: ('A' for Active; 'I' for Inactive)
REMARK    1  A    between atoms: C5_5  and  C9_9 
REMARK    2  A    between atoms: C8_8  and  N10_10 
REMARK    3  A    between atoms: C9_9  and  N10_10 
ROOT
HETATM    1  C1  UNL     1     -32.731  17.702  -1.940  1.00 20.00     0.013 C 
HETATM    2  C2  UNL     1     -33.817  17.272  -1.661  1.00 20.00    -0.087 C 
HETATM    3  C8  UNL     1     -35.139  16.746  -1.315  1.00 20.00     0.364 C 
ENDROOT
BRANCH   3   4
HETATM    4  N10 UNL     1     -36.114  17.053  -2.375  1.00 20.00     0.095 N 
HETATM    5  C7  UNL     1     -36.254  18.512  -2.503  1.00 20.00     0.310 C 
BRANCH   4   6
HETATM    6  C9  UNL     1     -35.736  16.451  -3.624  1.00 20.00     0.278 C 
BRANCH   6   7
HETATM    7  C5  UNL     1     -35.841  14.966  -3.560  1.00 20.00     0.018 A 
HETATM    8  C3  UNL     1     -35.894  14.153  -4.827  1.00 20.00     0.011 A 
HETATM    9  C4  UNL     1     -34.691  14.056  -3.926  1.00 20.00    -0.012 A 
HETATM   10  C6  UNL     1     -33.370  14.576  -4.375  1.00 20.00     0.010 C 
ENDBRANCH   6   7
ENDBRANCH   4   6
ENDBRANCH   3   4
TORSDOF 3
ENDMDL
