MODEL 1
REMARK VINA RESULT:      -4.3      0.000      0.000
REMARK  3 active torsions:
REMARK  status: ('A' for Active; 'I' for Inactive)
REMARK    1  A    between atoms: C5_5  and  C9_9 
REMARK    2  A    between atoms: C8_8  and  N10_10 
REMARK    3  A    between atoms: C9_9  and  N10_10 
ROOT
HETATM    1  C1  UNL     1     -33.583   9.188  -0.278  1.00 20.00     0.013 C 
HETATM    2  C2  UNL     1     -32.884   8.523   0.437  1.00 20.00    -0.087 C 
HETATM    3  C8  UNL     1     -32.027   7.714   1.307  1.00 20.00     0.364 C 
ENDROOT
BRANCH   3   4
HETATM    4  N10 UNL     1     -32.755   7.306   2.520  1.00 20.00     0.095 N 
HETATM    5  C7  UNL     1     -31.877   7.455   3.691  1.00 20.00     0.310 C 
BRANCH   4   6
HETATM    6  C9  UNL     1     -33.252   5.962   2.406  1.00 20.00     0.278 C 
BRANCH   6   7
HETATM    7  C5  UNL     1     -33.437   5.341   3.747  1.00 20.00     0.018 A 
HETATM    8  C3  UNL     1     -34.380   4.179   3.919  1.00 20.00     0.011 A 
HETATM    9  C4  UNL     1     -34.732   5.525   4.493  1.00 20.00    -0.012 A 
HETATM   10  C6  UNL     1     -34.721   5.735   5.968  1.00 20.00     0.010 C 
ENDBRANCH   6   7
ENDBRANCH   4   6
ENDBRANCH   3   4
TORSDOF 3
ENDMDL
MODEL 2
REMARK VINA RESULT:      -4.0      1.255      4.794
REMARK  3 active torsions:
REMARK  status: ('A' for Active; 'I' for Inactive)
REMARK    1  A    between atoms: C5_5  and  C9_9 
REMARK    2  A    between atoms: C8_8  and  N10_10 
REMARK    3  A    between atoms: C9_9  and  N10_10 
ROOT
HETATM    1  C1  UNL     1     -34.364   6.463   6.321  1.00 20.00     0.013 C 
HETATM    2  C2  UNL     1     -34.511   5.695   5.409  1.00 20.00    -0.087 C 
HETATM    3  C8  UNL     1     -34.695   4.757   4.300  1.00 20.00     0.364 C 
ENDROOT
BRANCH   3   4
HETATM    4  N10 UNL     1     -34.098   5.289   3.064  1.00 20.00     0.095 N 
HETATM    5  C7  UNL     1     -33.201   4.280   2.480  1.00 20.00     0.310 C 
BRANCH   4   6
HETATM    6  C9  UNL     1     -33.407   6.527   3.307  1.00 20.00     0.278 C 
BRANCH   6   7
HETATM    7  C5  UNL     1     -32.694   6.993   2.085  1.00 20.00     0.018 A 
HETATM    8  C3  UNL     1     -31.645   8.071   2.187  1.00 20.00     0.011 A 
HETATM    9  C4  UNL     1     -32.967   8.367   1.529  1.00 20.00    -0.012 A 
HETATM   10  C6  UNL     1     -33.040   8.575   0.056  1.00 20.00     0.010 C 
ENDBRANCH   6   7
ENDBRANCH   4   6
ENDBRANCH   3   4
TORSDOF 3
ENDMDL
MODEL 3
REMARK VINA RESULT:      -3.9     11.077     11.903
REMARK  3 active torsions:
REMARK  status: ('A' for Active; 'I' for Inactive)
REMARK    1  A    between atoms: C5_5  and  C9_9 
REMARK    2  A    between atoms: C8_8  and  N10_10 
REMARK    3  A    between atoms: C9_9  and  N10_10 
ROOT
HETATM    1  C1  UNL     1     -38.740  14.871  -4.094  1.00 20.00     0.013 C 
HETATM    2  C2  UNL     1     -37.656  14.487  -4.440  1.00 20.00    -0.087 C 
HETATM    3  C8  UNL     1     -36.335  14.014  -4.861  1.00 20.00     0.364 C 
ENDROOT
BRANCH   3   4
HETATM    4  N10 UNL     1     -35.587  15.089  -5.532  1.00 20.00     0.095 N 
HETATM    5  C7  UNL     1     -35.511  14.806  -6.974  1.00 20.00     0.310 C 
BRANCH   4   6
HETATM    6  C9  UNL     1     -34.279  15.254  -4.960  1.00 20.00     0.278 C 
BRANCH   6   7
HETATM    7  C5  UNL     1     -34.287  16.285  -3.886  1.00 20.00     0.018 A 
HETATM    8  C3  UNL     1     -33.090  16.449  -2.985  1.00 20.00     0.011 A 
HETATM    9  C4  UNL     1     -34.369  15.869  -2.440  1.00 20.00    -0.012 A 
HETATM   10  C6  UNL     1     -35.198  16.653  -1.483  1.00 20.00     0.010 C 
ENDBRANCH   6   7
ENDBRANCH   4   6
ENDBRANCH   3   4
TORSDOF 3
ENDMDL
MODEL 4
REMARK VINA RESULT:      -3.9      0.979      5.001
REMARK  3 active torsions:
REMARK  status: ('A' for Active; 'I' for Inactive)
REMARK    1  A    between atoms: C5_5  and  C9_9 
REMARK    2  A    between atoms: C8_8  and  N10_10 
REMARK    3  A    between atoms: C9_9  and  N10_10 
ROOT
HETATM    1  C1  UNL     1     -35.078   5.016   6.038  1.00 20.00     0.013 C 
HETATM    2  C2  UNL     1     -34.362   5.816   5.499  1.00 20.00    -0.087 C 
HETATM    3  C8  UNL     1     -33.485   6.792   4.848  1.00 20.00     0.364 C 
ENDROOT
BRANCH   3   4
HETATM    4  N10 UNL     1     -33.521   6.628   3.385  1.00 20.00     0.095 N 
HETATM    5  C7  UNL     1     -33.622   5.198   3.056  1.00 20.00     0.310 C 
BRANCH   4   6
HETATM    6  C9  UNL     1     -32.374   7.229   2.762  1.00 20.00     0.278 C 
BRANCH   6   7
HETATM    7  C5  UNL     1     -32.615   7.473   1.312  1.00 20.00     0.018 A 
HETATM    8  C3  UNL     1     -31.525   8.058   0.452  1.00 20.00     0.011 A 
HETATM    9  C4  UNL     1     -32.738   8.882   0.793  1.00 20.00    -0.012 A 
HETATM   10  C6  UNL     1     -33.743   9.205  -0.258  1.00 20.00     0.010 C 
ENDBRANCH   6   7
ENDBRANCH   4   6
ENDBRANCH   3   4
TORSDOF 3
ENDMDL
MODEL 5
REMARK VINA RESULT:      -3.9     10.754     11.560
REMARK  3 active torsions:
REMARK  status: ('A' for Active; 'I' for Inactive)
REMARK    1  A    between atoms: C5_5  and  C9_9 
REMARK    2  A    between atoms: C8_8  and  N10_10 
REMARK    3  A    between atoms: C9_9  and  N10_10 
ROOT
HETATM    1  C1  UNL     1     -34.389  15.843  -6.840  1.00 20.00     0.013 C 
HETATM    2  C2  UNL     1     -34.163  15.220  -5.839  1.00 20.00    -0.087 C 
HETATM    3  C8  UNL     1     -33.881  14.462  -4.618  1.00 20.00     0.364 C 
ENDROOT
BRANCH   3   4
HETATM    4  N10 UNL     1     -35.108  14.277  -3.826  1.00 20.00     0.095 N 
HETATM    5  C7  UNL     1     -36.149  13.670  -4.671  1.00 20.00     0.310 C 
BRANCH   4   6
HETATM    6  C9  UNL     1     -35.555  15.517  -3.254  1.00 20.00     0.278 C 
BRANCH   6   7
HETATM    7  C5  UNL     1     -34.641  15.970  -2.169  1.00 20.00     0.018 A 
HETATM    8  C3  UNL     1     -35.148  16.887  -1.086  1.00 20.00     0.011 A 
HETATM    9  C4  UNL     1     -34.181  17.404  -2.118  1.00 20.00    -0.012 A 
HETATM   10  C6  UNL     1     -32.778  17.725  -1.734  1.00 20.00     0.010 C 
ENDBRANCH   6   7
ENDBRANCH   4   6
ENDBRANCH   3   4
TORSDOF 3
ENDMDL
MODEL 6
REMARK VINA RESULT:      -3.7     10.909     12.280
REMARK  3 active torsions:
REMARK  status: ('A' for Active; 'I' for Inactive)
REMARK    1  A    between atoms: C5_5  and  C9_9 
REMARK    2  A    between atoms: C8_8  and  N10_10 
REMARK    3  A    between atoms: C9_9  and  N10_10 
ROOT
HETATM    1  C1  UNL     1     -31.330  18.303  -0.414  1.00 20.00     0.013 C 
HETATM    2  C2  UNL     1     -32.097  18.594  -1.291  1.00 20.00    -0.087 C 
HETATM    3  C8  UNL     1     -33.034  18.954  -2.358  1.00 20.00     0.364 C 
ENDROOT
BRANCH   3   4
HETATM    4  N10 UNL     1     -32.788  18.141  -3.561  1.00 20.00     0.095 N 
HETATM    5  C7  UNL     1     -33.679  18.588  -4.643  1.00 20.00     0.310 C 
BRANCH   4   6
HETATM    6  C9  UNL     1     -32.955  16.740  -3.290  1.00 20.00     0.278 C 
BRANCH   6   7
HETATM    7  C5  UNL     1     -34.380  16.330  -3.431  1.00 20.00     0.018 A 
HETATM    8  C3  UNL     1     -35.152  15.851  -2.229  1.00 20.00     0.011 A 
HETATM    9  C4  UNL     1     -34.764  14.878  -3.311  1.00 20.00    -0.012 A 
HETATM   10  C6  UNL     1     -35.805  14.305  -4.210  1.00 20.00     0.010 C 
ENDBRANCH   6   7
ENDBRANCH   4   6
ENDBRANCH   3   4
TORSDOF 3
ENDMDL
MODEL 7
REMARK VINA RESULT:      -3.7     10.969     11.807
REMARK  3 active torsions:
REMARK  status: ('A' for Active; 'I' for Inactive)
REMARK    1  A    between atoms: C5_5  and  C9_9 
REMARK    2  A    between atoms: C8_8  and  N10_10 
REMARK    3  A    between atoms: C9_9  and  N10_10 
ROOT
HETATM    1  C1  UNL     1     -37.176  14.370  -4.345  1.00 20.00     0.013 C 
HETATM    2  C2  UNL     1     -36.251  14.574  -5.084  1.00 20.00    -0.087 C 
HETATM    3  C8  UNL     1     -35.128  14.822  -5.991  1.00 20.00     0.364 C 
ENDROOT
BRANCH   3   4
HETATM    4  N10 UNL     1     -33.999  15.429  -5.266  1.00 20.00     0.095 N 
HETATM    5  C7  UNL     1     -33.313  14.395  -4.476  1.00 20.00     0.310 C 
BRANCH   4   6
HETATM    6  C9  UNL     1     -34.435  16.519  -4.436  1.00 20.00     0.278 C 
BRANCH   6   7
HETATM    7  C5  UNL     1     -33.881  16.401  -3.058  1.00 20.00     0.018 A 
HETATM    8  C3  UNL     1     -34.809  16.322  -1.874  1.00 20.00     0.011 A 
HETATM    9  C4  UNL     1     -33.983  17.560  -2.101  1.00 20.00    -0.012 A 
HETATM   10  C6  UNL     1     -32.848  17.879  -1.192  1.00 20.00     0.010 C 
ENDBRANCH   6   7
ENDBRANCH   4   6
ENDBRANCH   3   4
TORSDOF 3
ENDMDL
MODEL 8
REMARK VINA RESULT:      -3.6     10.990     12.117
REMARK  3 active torsions:
REMARK  status: ('A' for Active; 'I' for Inactive)
REMARK    1  A    between atoms: C5_5  and  C9_9 
REMARK    2  A    between atoms: C8_8  and  N10_10 
REMARK    3  A    between atoms: C9_9  and  N10_10 
ROOT
HETATM    1  C1  UNL     1     -31.385  18.678  -0.443  1.00 20.00     0.013 C 
HETATM    2  C2  UNL     1     -32.412  18.505   0.154  1.00 20.00    -0.087 C 
HETATM    3  C8  UNL     1     -33.663  18.294   0.888  1.00 20.00     0.364 C 
ENDROOT
BRANCH   3   4
HETATM    4  N10 UNL     1     -34.821  18.436  -0.009  1.00 20.00     0.095 N 
HETATM    5  C7  UNL     1     -35.876  19.204   0.671  1.00 20.00     0.310 C 
BRANCH   4   6
HETATM    6  C9  UNL     1     -35.305  17.155  -0.447  1.00 20.00     0.278 C 
BRANCH   6   7
HETATM    7  C5  UNL     1     -35.086  16.966  -1.908  1.00 20.00     0.018 A 
HETATM    8  C3  UNL     1     -35.156  15.588  -2.512  1.00 20.00     0.011 A 
HETATM    9  C4  UNL     1     -33.831  16.295  -2.402  1.00 20.00    -0.012 A 
HETATM   10  C6  UNL     1     -33.148  16.798  -3.627  1.00 20.00     0.010 C 
ENDBRANCH   6   7
ENDBRANCH   4   6
ENDBRANCH   3   4
TORSDOF 3
ENDMDL
MODEL 9
REMARK VINA RESULT:      -3.6     11.326     12.329
REMARK  3 active torsions:
REMARK  status: ('A' for Active; 'I' for Inactive)
REMARK    1  A    between atoms: C5_5  and  C9_9 
REMARK    2  A    between atoms: C8_8  and  N10_10 
REMARK    3  A    between atoms: C9_9  and  N10_10 
ROOT
HETATM    1  C1  UNL     1     -30.438  19.182   1.978  1.00 20.00     0.013 C 
HETATM    2  C2  UNL     1     -30.714  18.763   0.887  1.00 20.00    -0.087 C 
HETATM    3  C8  UNL     1     -31.047  18.246  -0.443  1.00 20.00     0.364 C 
ENDROOT
BRANCH   3   4
HETATM    4  N10 UNL     1     -32.346  18.773  -0.894  1.00 20.00     0.095 N 
HETATM    5  C7  UNL     1     -33.395  18.365   0.053  1.00 20.00     0.310 C 
BRANCH   4   6
HETATM    6  C9  UNL     1     -32.650  18.340  -2.231  1.00 20.00     0.278 C 
BRANCH   6   7
HETATM    7  C5  UNL     1     -33.250  16.977  -2.233  1.00 20.00     0.018 A 
HETATM    8  C3  UNL     1     -33.000  16.042  -3.388  1.00 20.00     0.011 A 
HETATM    9  C4  UNL     1     -34.365  16.644  -3.189  1.00 20.00    -0.012 A 
HETATM   10  C6  UNL     1     -35.501  15.790  -2.742  1.00 20.00     0.010 C 
ENDBRANCH   6   7
ENDBRANCH   4   6
ENDBRANCH   3   4
TORSDOF 3
ENDMDL
