MODEL 1
REMARK VINA RESULT:      -3.7      0.000      0.000
REMARK  4 active torsions:
REMARK  status: ('A' for Active; 'I' for Inactive)
REMARK    1  A    between atoms: C1_1  and  C5_5 
REMARK    2  A    between atoms: C2_2  and  C6_6 
REMARK    3  A    between atoms: C5_5  and  N8_8 
REMARK    4  A    between atoms: C7_7  and  N8_8 
ROOT
HETATM    1  C5  UNL     1     -33.192   6.185   2.135  1.00 20.00     0.299 C 
ENDROOT
BRANCH   1   2
HETATM    2  C1  UNL     1     -33.688   6.109   3.543  1.00 20.00     0.000 C 
HETATM    3  C2  UNL     1     -34.493   5.135   3.995  1.00 20.00    -0.014 C 
BRANCH   3   4
HETATM    4  C6  UNL     1     -34.973   5.049   5.407  1.00 20.00     0.141 C 
HETATM    5 CL9  UNL     1     -34.358   6.428   6.340  1.00 20.00    -0.126 Cl
ENDBRANCH   3   4
ENDBRANCH   1   2
BRANCH   1   6
HETATM    6  N8  UNL     1     -32.268   7.279   2.023  1.00 20.00     0.087 N 
HETATM    7  C4  UNL     1     -31.662   7.606   3.323  1.00 20.00     0.310 C 
BRANCH   6   8
HETATM    8  C7  UNL     1     -32.918   8.478   1.471  1.00 20.00     0.268 C 
HETATM    9  C3  UNL     1     -32.957   8.431  -0.019  1.00 20.00     0.037 C 
ENDBRANCH   6   8
ENDBRANCH   1   6
TORSDOF 4
ENDMDL
MODEL 2
REMARK VINA RESULT:      -3.6      2.766      4.901
REMARK  4 active torsions:
REMARK  status: ('A' for Active; 'I' for Inactive)
REMARK    1  A    between atoms: C1_1  and  C5_5 
REMARK    2  A    between atoms: C2_2  and  C6_6 
REMARK    3  A    between atoms: C5_5  and  N8_8 
REMARK    4  A    between atoms: C7_7  and  N8_8 
ROOT
HETATM    1  C5  UNL     1     -33.260   6.545   3.767  1.00 20.00     0.299 C 
ENDROOT
BRANCH   1   2
HETATM    2  C1  UNL     1     -32.885   6.812   2.346  1.00 20.00     0.000 C 
HETATM    3  C2  UNL     1     -32.488   8.013   1.895  1.00 20.00    -0.014 C 
BRANCH   3   4
HETATM    4  C6  UNL     1     -32.095   8.276   0.479  1.00 20.00     0.141 C 
HETATM    5 CL9  UNL     1     -33.527   8.718  -0.474  1.00 20.00    -0.126 Cl
ENDBRANCH   3   4
ENDBRANCH   1   2
BRANCH   1   6
HETATM    6  N8  UNL     1     -33.699   5.183   3.887  1.00 20.00     0.087 N 
HETATM    7  C4  UNL     1     -33.779   4.526   2.572  1.00 20.00     0.310 C 
BRANCH   6   8
HETATM    8  C7  UNL     1     -35.007   5.097   4.557  1.00 20.00     0.268 C 
HETATM    9  C3  UNL     1     -34.892   5.435   6.004  1.00 20.00     0.037 C 
ENDBRANCH   6   8
ENDBRANCH   1   6
TORSDOF 4
ENDMDL
MODEL 3
REMARK VINA RESULT:      -3.4     11.093     11.787
REMARK  4 active torsions:
REMARK  status: ('A' for Active; 'I' for Inactive)
REMARK    1  A    between atoms: C1_1  and  C5_5 
REMARK    2  A    between atoms: C2_2  and  C6_6 
REMARK    3  A    between atoms: C5_5  and  N8_8 
REMARK    4  A    between atoms: C7_7  and  N8_8 
ROOT
HETATM    1  C5  UNL     1     -34.363  14.518  -4.221  1.00 20.00     0.299 C 
ENDROOT
BRANCH   1   2
HETATM    2  C1  UNL     1     -34.158  15.504  -3.117  1.00 20.00     0.000 C 
HETATM    3  C2  UNL     1     -33.167  16.408  -3.103  1.00 20.00    -0.014 C 
BRANCH   3   4
HETATM    4  C6  UNL     1     -32.973  17.406  -2.009  1.00 20.00     0.141 C 
HETATM    5 CL9  UNL     1     -34.387  17.407  -0.934  1.00 20.00    -0.126 Cl
ENDBRANCH   3   4
ENDBRANCH   1   2
BRANCH   1   6
HETATM    6  N8  UNL     1     -35.564  14.854  -4.932  1.00 20.00     0.087 N 
HETATM    7  C4  UNL     1     -36.698  14.022  -4.497  1.00 20.00     0.310 C 
BRANCH   6   8
HETATM    8  C7  UNL     1     -35.384  14.713  -6.386  1.00 20.00     0.268 C 
HETATM    9  C3  UNL     1     -33.996  15.073  -6.793  1.00 20.00     0.037 C 
ENDBRANCH   6   8
ENDBRANCH   1   6
TORSDOF 4
ENDMDL
MODEL 4
REMARK VINA RESULT:      -3.4     10.975     11.721
REMARK  4 active torsions:
REMARK  status: ('A' for Active; 'I' for Inactive)
REMARK    1  A    between atoms: C1_1  and  C5_5 
REMARK    2  A    between atoms: C2_2  and  C6_6 
REMARK    3  A    between atoms: C5_5  and  N8_8 
REMARK    4  A    between atoms: C7_7  and  N8_8 
ROOT
HETATM    1  C5  UNL     1     -34.808  15.492  -2.727  1.00 20.00     0.299 C 
ENDROOT
BRANCH   1   2
HETATM    2  C1  UNL     1     -33.686  16.473  -2.823  1.00 20.00     0.000 C 
HETATM    3  C2  UNL     1     -33.408  17.380  -1.874  1.00 20.00    -0.014 C 
BRANCH   3   4
HETATM    4  C6  UNL     1     -32.275  18.349  -1.962  1.00 20.00     0.141 C 
HETATM    5 CL9  UNL     1     -31.233  18.191  -0.533  1.00 20.00    -0.126 Cl
ENDBRANCH   3   4
ENDBRANCH   1   2
BRANCH   1   6
HETATM    6  N8  UNL     1     -34.564  14.411  -3.640  1.00 20.00     0.087 N 
HETATM    7  C4  UNL     1     -33.535  14.765  -4.630  1.00 20.00     0.310 C 
BRANCH   6   8
HETATM    8  C7  UNL     1     -35.796  14.009  -4.338  1.00 20.00     0.268 C 
HETATM    9  C3  UNL     1     -35.784  14.468  -5.756  1.00 20.00     0.037 C 
ENDBRANCH   6   8
ENDBRANCH   1   6
TORSDOF 4
ENDMDL
MODEL 5
REMARK VINA RESULT:      -3.3     11.135     11.849
REMARK  4 active torsions:
REMARK  status: ('A' for Active; 'I' for Inactive)
REMARK    1  A    between atoms: C1_1  and  C5_5 
REMARK    2  A    between atoms: C2_2  and  C6_6 
REMARK    3  A    between atoms: C5_5  and  N8_8 
REMARK    4  A    between atoms: C7_7  and  N8_8 
ROOT
HETATM    1  C5  UNL     1     -34.243  14.845  -3.843  1.00 20.00     0.299 C 
ENDROOT
BRANCH   1   2
HETATM    2  C1  UNL     1     -34.219  15.800  -2.694  1.00 20.00     0.000 C 
HETATM    3  C2  UNL     1     -33.321  16.790  -2.569  1.00 20.00    -0.014 C 
BRANCH   3   4
HETATM    4  C6  UNL     1     -33.308  17.756  -1.430  1.00 20.00     0.141 C 
HETATM    5 CL9  UNL     1     -31.635  18.183  -1.019  1.00 20.00    -0.126 Cl
ENDBRANCH   3   4
ENDBRANCH   1   2
BRANCH   1   6
HETATM    6  N8  UNL     1     -35.496  14.974  -4.533  1.00 20.00     0.087 N 
HETATM    7  C4  UNL     1     -36.225  13.696  -4.567  1.00 20.00     0.310 C 
BRANCH   6   8
HETATM    8  C7  UNL     1     -35.304  15.465  -5.907  1.00 20.00     0.268 C 
HETATM    9  C3  UNL     1     -33.987  15.030  -6.454  1.00 20.00     0.037 C 
ENDBRANCH   6   8
ENDBRANCH   1   6
TORSDOF 4
ENDMDL
MODEL 6
REMARK VINA RESULT:      -3.3     11.085     11.903
REMARK  4 active torsions:
REMARK  status: ('A' for Active; 'I' for Inactive)
REMARK    1  A    between atoms: C1_1  and  C5_5 
REMARK    2  A    between atoms: C2_2  and  C6_6 
REMARK    3  A    between atoms: C5_5  and  N8_8 
REMARK    4  A    between atoms: C7_7  and  N8_8 
ROOT
HETATM    1  C5  UNL     1     -34.402  17.366  -1.185  1.00 20.00     0.299 C 
ENDROOT
BRANCH   1   2
HETATM    2  C1  UNL     1     -34.080  16.374  -2.254  1.00 20.00     0.000 C 
HETATM    3  C2  UNL     1     -34.968  15.495  -2.745  1.00 20.00    -0.014 C 
BRANCH   3   4
HETATM    4  C6  UNL     1     -34.652  14.515  -3.826  1.00 20.00     0.141 C 
HETATM    5 CL9  UNL     1     -32.947  14.667  -4.299  1.00 20.00    -0.126 Cl
ENDBRANCH   3   4
ENDBRANCH   1   2
BRANCH   1   6
HETATM    6  N8  UNL     1     -33.427  18.420  -1.216  1.00 20.00     0.087 N 
HETATM    7  C4  UNL     1     -32.549  18.307  -2.392  1.00 20.00     0.310 C 
BRANCH   6   8
HETATM    8  C7  UNL     1     -32.607  18.430   0.006  1.00 20.00     0.268 C 
HETATM    9  C3  UNL     1     -31.154  18.376  -0.321  1.00 20.00     0.037 C 
ENDBRANCH   6   8
ENDBRANCH   1   6
TORSDOF 4
ENDMDL
MODEL 7
REMARK VINA RESULT:      -3.3      9.757     10.247
REMARK  4 active torsions:
REMARK  status: ('A' for Active; 'I' for Inactive)
REMARK    1  A    between atoms: C1_1  and  C5_5 
REMARK    2  A    between atoms: C2_2  and  C6_6 
REMARK    3  A    between atoms: C5_5  and  N8_8 
REMARK    4  A    between atoms: C7_7  and  N8_8 
ROOT
HETATM    1  C5  UNL     1     -41.197   6.336  -0.343  1.00 20.00     0.299 C 
ENDROOT
BRANCH   1   2
HETATM    2  C1  UNL     1     -42.109   5.456  -1.134  1.00 20.00     0.000 C 
HETATM    3  C2  UNL     1     -41.686   4.411  -1.863  1.00 20.00    -0.014 C 
BRANCH   3   4
HETATM    4  C6  UNL     1     -42.599   3.520  -2.639  1.00 20.00     0.141 C 
HETATM    5 CL9  UNL     1     -41.688   2.681  -3.911  1.00 20.00    -0.126 Cl
ENDBRANCH   3   4
ENDBRANCH   1   2
BRANCH   1   6
HETATM    6  N8  UNL     1     -41.927   6.895   0.760  1.00 20.00     0.087 N 
HETATM    7  C4  UNL     1     -42.988   5.984   1.220  1.00 20.00     0.310 C 
BRANCH   6   8
HETATM    8  C7  UNL     1     -42.519   8.196   0.409  1.00 20.00     0.268 C 
HETATM    9  C3  UNL     1     -41.464   9.233   0.223  1.00 20.00     0.037 C 
ENDBRANCH   6   8
ENDBRANCH   1   6
TORSDOF 4
ENDMDL
MODEL 8
REMARK VINA RESULT:      -3.2     10.960     11.481
REMARK  4 active torsions:
REMARK  status: ('A' for Active; 'I' for Inactive)
REMARK    1  A    between atoms: C1_1  and  C5_5 
REMARK    2  A    between atoms: C2_2  and  C6_6 
REMARK    3  A    between atoms: C5_5  and  N8_8 
REMARK    4  A    between atoms: C7_7  and  N8_8 
ROOT
HETATM    1  C5  UNL     1     -33.262  15.712  -3.673  1.00 20.00     0.299 C 
ENDROOT
BRANCH   1   2
HETATM    2  C1  UNL     1     -34.018  16.148  -2.460  1.00 20.00     0.000 C 
HETATM    3  C2  UNL     1     -33.731  17.259  -1.765  1.00 20.00    -0.014 C 
BRANCH   3   4
HETATM    4  C6  UNL     1     -34.499  17.705  -0.564  1.00 20.00     0.141 C 
HETATM    5 CL9  UNL     1     -33.382  18.315   0.675  1.00 20.00    -0.126 Cl
ENDBRANCH   3   4
ENDBRANCH   1   2
BRANCH   1   6
HETATM    6  N8  UNL     1     -34.024  14.712  -4.366  1.00 20.00     0.087 N 
HETATM    7  C4  UNL     1     -34.107  15.000  -5.806  1.00 20.00     0.310 C 
BRANCH   6   8
HETATM    8  C7  UNL     1     -35.383  14.593  -3.812  1.00 20.00     0.268 C 
HETATM    9  C3  UNL     1     -36.216  13.662  -4.627  1.00 20.00     0.037 C 
ENDBRANCH   6   8
ENDBRANCH   1   6
TORSDOF 4
ENDMDL
MODEL 9
REMARK VINA RESULT:      -3.2     10.961     11.643
REMARK  4 active torsions:
REMARK  status: ('A' for Active; 'I' for Inactive)
REMARK    1  A    between atoms: C1_1  and  C5_5 
REMARK    2  A    between atoms: C2_2  and  C6_6 
REMARK    3  A    between atoms: C5_5  and  N8_8 
REMARK    4  A    between atoms: C7_7  and  N8_8 
ROOT
HETATM    1  C5  UNL     1     -35.134  17.014  -1.430  1.00 20.00     0.299 C 
ENDROOT
BRANCH   1   2
HETATM    2  C1  UNL     1     -34.534  15.968  -2.311  1.00 20.00     0.000 C 
HETATM    3  C2  UNL     1     -35.250  15.200  -3.147  1.00 20.00    -0.014 C 
BRANCH   3   4
HETATM    4  C6  UNL     1     -34.648  14.167  -4.041  1.00 20.00     0.141 C 
HETATM    5 CL9  UNL     1     -32.940  14.549  -4.343  1.00 20.00    -0.126 Cl
ENDBRANCH   3   4
ENDBRANCH   1   2
BRANCH   1   6
HETATM    6  N8  UNL     1     -34.150  18.028  -1.171  1.00 20.00     0.087 N 
HETATM    7  C4  UNL     1     -32.860  17.698  -1.796  1.00 20.00     0.310 C 
BRANCH   6   8
HETATM    8  C7  UNL     1     -33.956  18.231   0.274  1.00 20.00     0.268 C 
HETATM    9  C3  UNL     1     -35.070  17.624   1.057  1.00 20.00     0.037 C 
ENDBRANCH   6   8
ENDBRANCH   1   6
TORSDOF 4
ENDMDL
