MODEL 1
REMARK VINA RESULT:      -3.9      0.000      0.000
REMARK  1 active torsions:
REMARK  status: ('A' for Active; 'I' for Inactive)
REMARK    1  A    between atoms: C2_2  and  C6_6 
ROOT
HETATM    1  C1  UNL     1     -32.994   5.586   2.726  1.00 20.00     0.015 A 
HETATM    2  C2  UNL     1     -33.912   6.559   3.418  1.00 20.00     0.008 A 
HETATM    3  C3  UNL     1     -32.652   7.060   2.731  1.00 20.00    -0.043 A 
HETATM    4  C4  UNL     1     -32.830   7.830   1.448  1.00 20.00     0.015 C 
HETATM    5  C5  UNL     1     -31.471   7.508   3.553  1.00 20.00     0.015 C 
ENDROOT
BRANCH   2   6
HETATM    6  C6  UNL     1     -34.062   6.526   4.900  1.00 20.00     0.120 C 
HETATM    7 CL7  UNL     1     -34.911   5.049   5.432  1.00 20.00    -0.130 Cl
ENDBRANCH   2   6
TORSDOF 1
ENDMDL
MODEL 2
REMARK VINA RESULT:      -3.8      2.436      3.654
REMARK  1 active torsions:
REMARK  status: ('A' for Active; 'I' for Inactive)
REMARK    1  A    between atoms: C2_2  and  C6_6 
ROOT
HETATM    1  C1  UNL     1     -35.611   5.729   4.079  1.00 20.00     0.015 A 
HETATM    2  C2  UNL     1     -34.342   4.955   3.835  1.00 20.00     0.008 A 
HETATM    3  C3  UNL     1     -34.533   5.710   5.141  1.00 20.00    -0.043 A 
HETATM    4  C4  UNL     1     -34.778   4.888   6.379  1.00 20.00     0.015 C 
HETATM    5  C5  UNL     1     -33.769   6.984   5.395  1.00 20.00     0.015 C 
ENDROOT
BRANCH   2   6
HETATM    6  C6  UNL     1     -33.383   5.396   2.783  1.00 20.00     0.120 C 
HETATM    7 CL7  UNL     1     -32.907   4.035   1.731  1.00 20.00    -0.130 Cl
ENDBRANCH   2   6
TORSDOF 1
ENDMDL
MODEL 3
REMARK VINA RESULT:      -3.8      2.681      3.718
REMARK  1 active torsions:
REMARK  status: ('A' for Active; 'I' for Inactive)
REMARK    1  A    between atoms: C2_2  and  C6_6 
ROOT
HETATM    1  C1  UNL     1     -31.799   7.185   3.369  1.00 20.00     0.015 A 
HETATM    2  C2  UNL     1     -32.797   7.725   2.379  1.00 20.00     0.008 A 
HETATM    3  C3  UNL     1     -33.105   6.452   3.151  1.00 20.00    -0.043 A 
HETATM    4  C4  UNL     1     -34.151   6.541   4.232  1.00 20.00     0.015 C 
HETATM    5  C5  UNL     1     -33.059   5.117   2.455  1.00 20.00     0.015 C 
ENDROOT
BRANCH   2   6
HETATM    6  C6  UNL     1     -32.486   7.727   0.922  1.00 20.00     0.120 C 
HETATM    7 CL7  UNL     1     -33.268   9.103   0.096  1.00 20.00    -0.130 Cl
ENDBRANCH   2   6
TORSDOF 1
ENDMDL
MODEL 4
REMARK VINA RESULT:      -3.6      2.225      3.537
REMARK  1 active torsions:
REMARK  status: ('A' for Active; 'I' for Inactive)
REMARK    1  A    between atoms: C2_2  and  C6_6 
ROOT
HETATM    1  C1  UNL     1     -34.935   6.593   3.667  1.00 20.00     0.015 A 
HETATM    2  C2  UNL     1     -33.538   6.049   3.524  1.00 20.00     0.008 A 
HETATM    3  C3  UNL     1     -34.227   6.026   4.879  1.00 20.00    -0.043 A 
HETATM    4  C4  UNL     1     -34.679   4.685   5.396  1.00 20.00     0.015 C 
HETATM    5  C5  UNL     1     -33.800   6.985   5.960  1.00 20.00     0.015 C 
ENDROOT
BRANCH   2   6
HETATM    6  C6  UNL     1     -32.403   6.964   3.213  1.00 20.00     0.120 C 
HETATM    7 CL7  UNL     1     -32.576   7.680   1.588  1.00 20.00    -0.130 Cl
ENDBRANCH   2   6
TORSDOF 1
ENDMDL
MODEL 5
REMARK VINA RESULT:      -3.6      9.060      9.923
REMARK  1 active torsions:
REMARK  status: ('A' for Active; 'I' for Inactive)
REMARK    1  A    between atoms: C2_2  and  C6_6 
ROOT
HETATM    1  C1  UNL     1     -40.919   5.656  -0.700  1.00 20.00     0.015 A 
HETATM    2  C2  UNL     1     -41.219   6.950   0.010  1.00 20.00     0.008 A 
HETATM    3  C3  UNL     1     -42.314   5.911  -0.171  1.00 20.00    -0.043 A 
HETATM    4  C4  UNL     1     -42.752   5.155   1.056  1.00 20.00     0.015 C 
HETATM    5  C5  UNL     1     -43.417   6.143  -1.171  1.00 20.00     0.015 C 
ENDROOT
BRANCH   2   6
HETATM    6  C6  UNL     1     -41.201   8.239  -0.738  1.00 20.00     0.120 C 
HETATM    7 CL7  UNL     1     -41.354   9.630   0.369  1.00 20.00    -0.130 Cl
ENDBRANCH   2   6
TORSDOF 1
ENDMDL
MODEL 6
REMARK VINA RESULT:      -3.5     15.556     16.658
REMARK  1 active torsions:
REMARK  status: ('A' for Active; 'I' for Inactive)
REMARK    1  A    between atoms: C2_2  and  C6_6 
ROOT
HETATM    1  C1  UNL     1     -22.755  17.666  12.125  1.00 20.00     0.015 A 
HETATM    2  C2  UNL     1     -23.257  17.884  10.722  1.00 20.00     0.008 A 
HETATM    3  C3  UNL     1     -24.197  17.353  11.792  1.00 20.00    -0.043 A 
HETATM    4  C4  UNL     1     -25.258  18.293  12.302  1.00 20.00     0.015 C 
HETATM    5  C5  UNL     1     -24.621  15.907  11.775  1.00 20.00     0.015 C 
ENDROOT
BRANCH   2   6
HETATM    6  C6  UNL     1     -22.753  17.039   9.603  1.00 20.00     0.120 C 
HETATM    7 CL7  UNL     1     -22.821  17.916   8.050  1.00 20.00    -0.130 Cl
ENDBRANCH   2   6
TORSDOF 1
ENDMDL
MODEL 7
REMARK VINA RESULT:      -3.5      9.347     10.020
REMARK  1 active torsions:
REMARK  status: ('A' for Active; 'I' for Inactive)
REMARK    1  A    between atoms: C2_2  and  C6_6 
ROOT
HETATM    1  C1  UNL     1     -43.305   7.455   1.053  1.00 20.00     0.015 A 
HETATM    2  C2  UNL     1     -42.081   6.708   0.593  1.00 20.00     0.008 A 
HETATM    3  C3  UNL     1     -42.451   8.032  -0.055  1.00 20.00    -0.043 A 
HETATM    4  C4  UNL     1     -41.585   9.221   0.269  1.00 20.00     0.015 C 
HETATM    5  C5  UNL     1     -43.024   8.057  -1.449  1.00 20.00     0.015 C 
ENDROOT
BRANCH   2   6
HETATM    6  C6  UNL     1     -42.217   5.402  -0.111  1.00 20.00     0.120 C 
HETATM    7 CL7  UNL     1     -40.834   5.106  -1.200  1.00 20.00    -0.130 Cl
ENDBRANCH   2   6
TORSDOF 1
ENDMDL
MODEL 8
REMARK VINA RESULT:      -3.5     15.512     16.485
REMARK  1 active torsions:
REMARK  status: ('A' for Active; 'I' for Inactive)
REMARK    1  A    between atoms: C2_2  and  C6_6 
ROOT
HETATM    1  C1  UNL     1     -22.515  17.210   9.560  1.00 20.00     0.015 A 
HETATM    2  C2  UNL     1     -23.423  18.382   9.825  1.00 20.00     0.008 A 
HETATM    3  C3  UNL     1     -23.276  17.284  10.866  1.00 20.00    -0.043 A 
HETATM    4  C4  UNL     1     -22.502  17.622  12.114  1.00 20.00     0.015 C 
HETATM    5  C5  UNL     1     -24.395  16.300  11.090  1.00 20.00     0.015 C 
ENDROOT
BRANCH   2   6
HETATM    6  C6  UNL     1     -24.664  18.568   9.022  1.00 20.00     0.120 C 
HETATM    7 CL7  UNL     1     -24.283  18.976   7.327  1.00 20.00    -0.130 Cl
ENDBRANCH   2   6
TORSDOF 1
ENDMDL
MODEL 9
REMARK VINA RESULT:      -3.5      9.405     10.128
REMARK  1 active torsions:
REMARK  status: ('A' for Active; 'I' for Inactive)
REMARK    1  A    between atoms: C2_2  and  C6_6 
ROOT
HETATM    1  C1  UNL     1     -43.250   6.520  -1.466  1.00 20.00     0.015 A 
HETATM    2  C2  UNL     1     -42.270   7.599  -1.087  1.00 20.00     0.008 A 
HETATM    3  C3  UNL     1     -42.110   6.195  -0.525  1.00 20.00    -0.043 A 
HETATM    4  C4  UNL     1     -40.970   5.368  -1.058  1.00 20.00     0.015 C 
HETATM    5  C5  UNL     1     -42.442   5.918   0.919  1.00 20.00     0.015 C 
ENDROOT
BRANCH   2   6
HETATM    6  C6  UNL     1     -42.707   8.755  -0.255  1.00 20.00     0.120 C 
HETATM    7 CL7  UNL     1     -41.307   9.656   0.386  1.00 20.00    -0.130 Cl
ENDBRANCH   2   6
TORSDOF 1
ENDMDL
