MODEL 1
REMARK VINA RESULT:      -5.2      0.000      0.000
REMARK  4 active torsions:
REMARK  status: ('A' for Active; 'I' for Inactive)
REMARK    1  A    between atoms: C2_2  and  C5_5 
REMARK    2  A    between atoms: C5_5  and  C6_6 
REMARK    3  A    between atoms: C6_6  and  C8_8 
REMARK    4  A    between atoms: C7_7  and  C8_8 
ROOT
HETATM    1  C1  UNL     1     -32.904   8.372   0.815  1.00 20.00    -0.111 C 
HETATM    2  C2  UNL     1     -32.563   7.813   1.823  1.00 20.00    -0.107 C 
HETATM    3  C3  UNL     1     -33.319   9.054  -0.409  1.00 20.00     0.112 C 
ENDROOT
BRANCH   2   4
HETATM    4  C5  UNL     1     -32.148   7.126   3.053  1.00 20.00     0.094 C 
BRANCH   4   5
HETATM    5  C6  UNL     1     -33.340   6.716   3.923  1.00 20.00     0.017 C 
BRANCH   5   6
HETATM    6  C8  UNL     1     -34.146   5.500   3.416  1.00 20.00    -0.004 C 
HETATM    7  C4  UNL     1     -33.247   4.609   2.549  1.00 20.00     0.011 C 
BRANCH   6   8
HETATM    8  C7  UNL     1     -34.838   4.688   4.523  1.00 20.00     0.119 C 
HETATM    9 CL9  UNL     1     -34.720   5.434   6.135  1.00 20.00    -0.130 Cl
ENDBRANCH   6   8
ENDBRANCH   5   6
ENDBRANCH   4   5
ENDBRANCH   2   4
TORSDOF 4
ENDMDL
MODEL 2
REMARK VINA RESULT:      -4.7      1.067      1.248
REMARK  4 active torsions:
REMARK  status: ('A' for Active; 'I' for Inactive)
REMARK    1  A    between atoms: C2_2  and  C5_5 
REMARK    2  A    between atoms: C5_5  and  C6_6 
REMARK    3  A    between atoms: C6_6  and  C8_8 
REMARK    4  A    between atoms: C7_7  and  C8_8 
ROOT
HETATM    1  C1  UNL     1     -32.721   8.171   1.144  1.00 20.00    -0.111 C 
HETATM    2  C2  UNL     1     -32.863   7.300   1.960  1.00 20.00    -0.107 C 
HETATM    3  C3  UNL     1     -32.546   9.230   0.153  1.00 20.00     0.112 C 
ENDROOT
BRANCH   2   4
HETATM    4  C5  UNL     1     -33.040   6.237   2.958  1.00 20.00     0.094 C 
BRANCH   4   5
HETATM    5  C6  UNL     1     -34.450   6.228   3.557  1.00 20.00     0.017 C 
BRANCH   5   6
HETATM    6  C8  UNL     1     -34.807   4.983   4.399  1.00 20.00    -0.004 C 
HETATM    7  C4  UNL     1     -33.947   3.793   3.952  1.00 20.00     0.011 C 
BRANCH   6   8
HETATM    8  C7  UNL     1     -34.720   5.196   5.918  1.00 20.00     0.119 C 
HETATM    9 CL9  UNL     1     -34.136   6.813   6.381  1.00 20.00    -0.130 Cl
ENDBRANCH   6   8
ENDBRANCH   5   6
ENDBRANCH   4   5
ENDBRANCH   2   4
TORSDOF 4
ENDMDL
MODEL 3
REMARK VINA RESULT:      -4.4      1.628      2.010
REMARK  4 active torsions:
REMARK  status: ('A' for Active; 'I' for Inactive)
REMARK    1  A    between atoms: C2_2  and  C5_5 
REMARK    2  A    between atoms: C5_5  and  C6_6 
REMARK    3  A    between atoms: C6_6  and  C8_8 
REMARK    4  A    between atoms: C7_7  and  C8_8 
ROOT
HETATM    1  C1  UNL     1     -32.846   8.220   1.074  1.00 20.00    -0.111 C 
HETATM    2  C2  UNL     1     -32.568   7.778   2.156  1.00 20.00    -0.107 C 
HETATM    3  C3  UNL     1     -33.182   8.760  -0.242  1.00 20.00     0.112 C 
ENDROOT
BRANCH   2   4
HETATM    4  C5  UNL     1     -32.232   7.238   3.480  1.00 20.00     0.094 C 
BRANCH   4   5
HETATM    5  C6  UNL     1     -33.460   7.112   4.387  1.00 20.00     0.017 C 
BRANCH   5   6
HETATM    6  C8  UNL     1     -33.841   5.671   4.795  1.00 20.00    -0.004 C 
HETATM    7  C4  UNL     1     -34.725   5.707   6.048  1.00 20.00     0.011 C 
BRANCH   6   8
HETATM    8  C7  UNL     1     -34.492   4.844   3.675  1.00 20.00     0.119 C 
HETATM    9 CL9  UNL     1     -33.340   4.287   2.437  1.00 20.00    -0.130 Cl
ENDBRANCH   6   8
ENDBRANCH   5   6
ENDBRANCH   4   5
ENDBRANCH   2   4
TORSDOF 4
ENDMDL
MODEL 4
REMARK VINA RESULT:      -4.3      2.537      4.899
REMARK  4 active torsions:
REMARK  status: ('A' for Active; 'I' for Inactive)
REMARK    1  A    between atoms: C2_2  and  C5_5 
REMARK    2  A    between atoms: C5_5  and  C6_6 
REMARK    3  A    between atoms: C6_6  and  C8_8 
REMARK    4  A    between atoms: C7_7  and  C8_8 
ROOT
HETATM    1  C1  UNL     1     -34.699   5.211   5.029  1.00 20.00    -0.111 C 
HETATM    2  C2  UNL     1     -34.343   5.044   3.894  1.00 20.00    -0.107 C 
HETATM    3  C3  UNL     1     -35.132   5.417   6.410  1.00 20.00     0.112 C 
ENDROOT
BRANCH   2   4
HETATM    4  C5  UNL     1     -33.905   4.838   2.508  1.00 20.00     0.094 C 
BRANCH   4   5
HETATM    5  C6  UNL     1     -32.605   5.582   2.189  1.00 20.00     0.017 C 
BRANCH   5   6
HETATM    6  C8  UNL     1     -32.672   7.120   2.311  1.00 20.00    -0.004 C 
HETATM    7  C4  UNL     1     -31.860   7.577   3.530  1.00 20.00     0.011 C 
BRANCH   6   8
HETATM    8  C7  UNL     1     -32.250   7.878   1.042  1.00 20.00     0.119 C 
HETATM    9 CL9  UNL     1     -33.227   9.331   0.720  1.00 20.00    -0.130 Cl
ENDBRANCH   6   8
ENDBRANCH   5   6
ENDBRANCH   4   5
ENDBRANCH   2   4
TORSDOF 4
ENDMDL
MODEL 5
REMARK VINA RESULT:      -3.9     11.145     11.821
REMARK  4 active torsions:
REMARK  status: ('A' for Active; 'I' for Inactive)
REMARK    1  A    between atoms: C2_2  and  C5_5 
REMARK    2  A    between atoms: C5_5  and  C6_6 
REMARK    3  A    between atoms: C6_6  and  C8_8 
REMARK    4  A    between atoms: C7_7  and  C8_8 
ROOT
HETATM    1  C1  UNL     1     -34.587  16.470  -1.889  1.00 20.00    -0.111 C 
HETATM    2  C2  UNL     1     -33.837  16.065  -2.735  1.00 20.00    -0.107 C 
HETATM    3  C3  UNL     1     -35.502  16.963  -0.861  1.00 20.00     0.112 C 
ENDROOT
BRANCH   2   4
HETATM    4  C5  UNL     1     -32.918  15.572  -3.770  1.00 20.00     0.094 C 
BRANCH   4   5
HETATM    5  C6  UNL     1     -33.575  14.539  -4.690  1.00 20.00     0.017 C 
BRANCH   5   6
HETATM    6  C8  UNL     1     -34.529  15.114  -5.762  1.00 20.00    -0.004 C 
HETATM    7  C4  UNL     1     -33.840  15.091  -7.132  1.00 20.00     0.011 C 
BRANCH   6   8
HETATM    8  C7  UNL     1     -35.907  14.434  -5.817  1.00 20.00     0.119 C 
HETATM    9 CL9  UNL     1     -36.616  14.125  -4.214  1.00 20.00    -0.130 Cl
ENDBRANCH   6   8
ENDBRANCH   5   6
ENDBRANCH   4   5
ENDBRANCH   2   4
TORSDOF 4
ENDMDL
MODEL 6
REMARK VINA RESULT:      -3.9     10.980     11.905
REMARK  4 active torsions:
REMARK  status: ('A' for Active; 'I' for Inactive)
REMARK    1  A    between atoms: C2_2  and  C5_5 
REMARK    2  A    between atoms: C5_5  and  C6_6 
REMARK    3  A    between atoms: C6_6  and  C8_8 
REMARK    4  A    between atoms: C7_7  and  C8_8 
ROOT
HETATM    1  C1  UNL     1     -31.502  18.309  -0.463  1.00 20.00    -0.111 C 
HETATM    2  C2  UNL     1     -32.193  18.105  -1.424  1.00 20.00    -0.107 C 
HETATM    3  C3  UNL     1     -30.658  18.555   0.705  1.00 20.00     0.112 C 
ENDROOT
BRANCH   2   4
HETATM    4  C5  UNL     1     -33.042  17.854  -2.596  1.00 20.00     0.094 C 
BRANCH   4   5
HETATM    5  C6  UNL     1     -32.977  16.398  -3.063  1.00 20.00     0.017 C 
BRANCH   5   6
HETATM    6  C8  UNL     1     -34.281  15.586  -2.897  1.00 20.00    -0.004 C 
HETATM    7  C4  UNL     1     -35.196  16.282  -1.882  1.00 20.00     0.011 C 
BRANCH   6   8
HETATM    8  C7  UNL     1     -35.022  15.295  -4.212  1.00 20.00     0.119 C 
HETATM    9 CL9  UNL     1     -35.774  13.682  -4.266  1.00 20.00    -0.130 Cl
ENDBRANCH   6   8
ENDBRANCH   5   6
ENDBRANCH   4   5
ENDBRANCH   2   4
TORSDOF 4
ENDMDL
MODEL 7
REMARK VINA RESULT:      -3.9     15.371     16.301
REMARK  4 active torsions:
REMARK  status: ('A' for Active; 'I' for Inactive)
REMARK    1  A    between atoms: C2_2  and  C5_5 
REMARK    2  A    between atoms: C5_5  and  C6_6 
REMARK    3  A    between atoms: C6_6  and  C8_8 
REMARK    4  A    between atoms: C7_7  and  C8_8 
ROOT
HETATM    1  C1  UNL     1     -25.604  19.228   6.641  1.00 20.00    -0.111 C 
HETATM    2  C2  UNL     1     -24.917  19.198   7.626  1.00 20.00    -0.107 C 
HETATM    3  C3  UNL     1     -26.439  19.262   5.442  1.00 20.00     0.112 C 
ENDROOT
BRANCH   2   4
HETATM    4  C5  UNL     1     -24.075  19.165   8.829  1.00 20.00     0.094 C 
BRANCH   4   5
HETATM    5  C6  UNL     1     -24.615  18.205   9.893  1.00 20.00     0.017 C 
BRANCH   5   6
HETATM    6  C8  UNL     1     -23.699  17.010  10.238  1.00 20.00    -0.004 C 
HETATM    7  C4  UNL     1     -22.400  17.104   9.427  1.00 20.00     0.011 C 
BRANCH   6   8
HETATM    8  C7  UNL     1     -23.410  16.842  11.739  1.00 20.00     0.119 C 
HETATM    9 CL9  UNL     1     -22.008  17.781  12.306  1.00 20.00    -0.130 Cl
ENDBRANCH   6   8
ENDBRANCH   5   6
ENDBRANCH   4   5
ENDBRANCH   2   4
TORSDOF 4
ENDMDL
MODEL 8
REMARK VINA RESULT:      -3.9     10.962     11.887
REMARK  4 active torsions:
REMARK  status: ('A' for Active; 'I' for Inactive)
REMARK    1  A    between atoms: C2_2  and  C5_5 
REMARK    2  A    between atoms: C5_5  and  C6_6 
REMARK    3  A    between atoms: C6_6  and  C8_8 
REMARK    4  A    between atoms: C7_7  and  C8_8 
ROOT
HETATM    1  C1  UNL     1     -35.012  16.602  -1.364  1.00 20.00    -0.111 C 
HETATM    2  C2  UNL     1     -34.519  16.061  -2.316  1.00 20.00    -0.107 C 
HETATM    3  C3  UNL     1     -35.612  17.258  -0.203  1.00 20.00     0.112 C 
ENDROOT
BRANCH   2   4
HETATM    4  C5  UNL     1     -33.920  15.401  -3.483  1.00 20.00     0.094 C 
BRANCH   4   5
HETATM    5  C6  UNL     1     -34.654  14.113  -3.867  1.00 20.00     0.017 C 
BRANCH   5   6
HETATM    6  C8  UNL     1     -35.679  14.247  -5.015  1.00 20.00    -0.004 C 
HETATM    7  C4  UNL     1     -37.093  14.368  -4.433  1.00 20.00     0.011 C 
BRANCH   6   8
HETATM    8  C7  UNL     1     -35.381  15.386  -6.004  1.00 20.00     0.119 C 
HETATM    9 CL9  UNL     1     -33.983  15.068  -7.060  1.00 20.00    -0.130 Cl
ENDBRANCH   6   8
ENDBRANCH   5   6
ENDBRANCH   4   5
ENDBRANCH   2   4
TORSDOF 4
ENDMDL
MODEL 9
REMARK VINA RESULT:      -3.9      9.563     10.340
REMARK  4 active torsions:
REMARK  status: ('A' for Active; 'I' for Inactive)
REMARK    1  A    between atoms: C2_2  and  C5_5 
REMARK    2  A    between atoms: C5_5  and  C6_6 
REMARK    3  A    between atoms: C6_6  and  C8_8 
REMARK    4  A    between atoms: C7_7  and  C8_8 
ROOT
HETATM    1  C1  UNL     1     -42.013   2.954  -3.267  1.00 20.00    -0.111 C 
HETATM    2  C2  UNL     1     -42.234   3.782  -2.425  1.00 20.00    -0.107 C 
HETATM    3  C3  UNL     1     -41.746   1.946  -4.291  1.00 20.00     0.112 C 
ENDROOT
BRANCH   2   4
HETATM    4  C5  UNL     1     -42.501   4.793  -1.393  1.00 20.00     0.094 C 
BRANCH   4   5
HETATM    5  C6  UNL     1     -41.247   5.585  -1.014  1.00 20.00     0.017 C 
BRANCH   5   6
HETATM    6  C8  UNL     1     -41.430   7.117  -0.920  1.00 20.00    -0.004 C 
HETATM    7  C4  UNL     1     -42.761   7.518  -1.569  1.00 20.00     0.011 C 
BRANCH   6   8
HETATM    8  C7  UNL     1     -41.306   7.686   0.502  1.00 20.00     0.119 C 
HETATM    9 CL9  UNL     1     -41.314   9.466   0.562  1.00 20.00    -0.130 Cl
ENDBRANCH   6   8
ENDBRANCH   5   6
ENDBRANCH   4   5
ENDBRANCH   2   4
TORSDOF 4
ENDMDL
