MODEL 1
REMARK VINA RESULT:      -4.4      0.000      0.000
REMARK  1 active torsions:
REMARK  status: ('A' for Active; 'I' for Inactive)
REMARK    1  A    between atoms: C6_6  and  C9_9 
ROOT
HETATM    1  C1  UNL     1     -32.709   6.831   2.333  1.00 20.00    -0.085 C 
HETATM    2  C2  UNL     1     -32.523   7.836   1.468  1.00 20.00     0.014 C 
HETATM    3  C3  UNL     1     -32.578   5.381   1.950  1.00 20.00     0.059 C 
HETATM    4  C4  UNL     1     -33.099   7.045   3.772  1.00 20.00     0.065 C 
HETATM    5  C5  UNL     1     -33.832   4.627   2.386  1.00 20.00     0.172 C 
HETATM    6  C6  UNL     1     -34.332   6.193   4.098  1.00 20.00     0.128 C 
HETATM    7  O10 UNL     1     -34.078   4.816   3.784  1.00 20.00    -0.385 OA
ENDROOT
BRANCH   6   8
HETATM    8  C9  UNL     1     -34.675   6.275   5.579  1.00 20.00     0.007 C 
HETATM    9  C7  UNL     1     -34.740   4.879   6.199  1.00 20.00     0.012 C 
HETATM   10  C8  UNL     1     -33.659   7.142   6.323  1.00 20.00     0.012 C 
ENDBRANCH   6   8
TORSDOF 1
ENDMDL
MODEL 2
REMARK VINA RESULT:      -4.4     15.845     16.631
REMARK  1 active torsions:
REMARK  status: ('A' for Active; 'I' for Inactive)
REMARK    1  A    between atoms: C6_6  and  C9_9 
ROOT
HETATM    1  C1  UNL     1     -22.605  17.522   9.146  1.00 20.00    -0.085 C 
HETATM    2  C2  UNL     1     -21.293  17.397   8.907  1.00 20.00     0.014 C 
HETATM    3  C3  UNL     1     -23.550  18.214   8.201  1.00 20.00     0.059 C 
HETATM    4  C4  UNL     1     -23.266  17.011  10.399  1.00 20.00     0.065 C 
HETATM    5  C5  UNL     1     -24.354  19.263   8.967  1.00 20.00     0.172 C 
HETATM    6  C6  UNL     1     -24.084  18.139  11.039  1.00 20.00     0.128 C 
HETATM    7  O10 UNL     1     -25.018  18.673  10.090  1.00 20.00    -0.385 OA
ENDROOT
BRANCH   6   8
HETATM    8  C9  UNL     1     -24.878  17.627  12.232  1.00 20.00     0.007 C 
HETATM    9  C7  UNL     1     -26.237  18.323  12.320  1.00 20.00     0.012 C 
HETATM   10  C8  UNL     1     -25.060  16.111  12.151  1.00 20.00     0.012 C 
ENDBRANCH   6   8
TORSDOF 1
ENDMDL
MODEL 3
REMARK VINA RESULT:      -4.3     15.802     16.407
REMARK  1 active torsions:
REMARK  status: ('A' for Active; 'I' for Inactive)
REMARK    1  A    between atoms: C6_6  and  C9_9 
ROOT
HETATM    1  C1  UNL     1     -24.076  18.788   8.259  1.00 20.00    -0.085 C 
HETATM    2  C2  UNL     1     -24.659  19.055   7.083  1.00 20.00     0.014 C 
HETATM    3  C3  UNL     1     -22.696  18.199   8.377  1.00 20.00     0.059 C 
HETATM    4  C4  UNL     1     -24.752  19.022   9.585  1.00 20.00     0.065 C 
HETATM    5  C5  UNL     1     -22.745  16.975   9.288  1.00 20.00     0.172 C 
HETATM    6  C6  UNL     1     -24.683  17.740  10.424  1.00 20.00     0.128 C 
HETATM    7  O10 UNL     1     -23.321  17.308  10.556  1.00 20.00    -0.385 OA
ENDROOT
BRANCH   6   8
HETATM    8  C9  UNL     1     -25.233  17.976  11.823  1.00 20.00     0.007 C 
HETATM    9  C7  UNL     1     -26.159  19.192  11.846  1.00 20.00     0.012 C 
HETATM   10  C8  UNL     1     -25.969  16.736  12.332  1.00 20.00     0.012 C 
ENDBRANCH   6   8
TORSDOF 1
ENDMDL
MODEL 4
REMARK VINA RESULT:      -4.2     11.557     12.551
REMARK  1 active torsions:
REMARK  status: ('A' for Active; 'I' for Inactive)
REMARK    1  A    between atoms: C6_6  and  C9_9 
ROOT
HETATM    1  C1  UNL     1     -33.031  17.846  -1.483  1.00 20.00    -0.085 C 
HETATM    2  C2  UNL     1     -31.875  18.169  -0.887  1.00 20.00     0.014 C 
HETATM    3  C3  UNL     1     -34.378  18.165  -0.892  1.00 20.00     0.059 C 
HETATM    4  C4  UNL     1     -33.103  17.103  -2.791  1.00 20.00     0.065 C 
HETATM    5  C5  UNL     1     -35.227  16.898  -0.854  1.00 20.00     0.172 C 
HETATM    6  C6  UNL     1     -34.028  15.890  -2.637  1.00 20.00     0.128 C 
HETATM    7  O10 UNL     1     -35.314  16.306  -2.156  1.00 20.00    -0.385 OA
ENDROOT
BRANCH   6   8
HETATM    8  C9  UNL     1     -34.236  15.191  -3.973  1.00 20.00     0.007 C 
HETATM    9  C7  UNL     1     -32.960  14.478  -4.418  1.00 20.00     0.012 C 
HETATM   10  C8  UNL     1     -35.399  14.201  -3.891  1.00 20.00     0.012 C 
ENDBRANCH   6   8
TORSDOF 1
ENDMDL
MODEL 5
REMARK VINA RESULT:      -4.1     11.722     12.736
REMARK  1 active torsions:
REMARK  status: ('A' for Active; 'I' for Inactive)
REMARK    1  A    between atoms: C6_6  and  C9_9 
ROOT
HETATM    1  C1  UNL     1     -34.741  17.081  -1.244  1.00 20.00    -0.085 C 
HETATM    2  C2  UNL     1     -35.774  17.526  -0.517  1.00 20.00     0.014 C 
HETATM    3  C3  UNL     1     -33.386  17.734  -1.232  1.00 20.00     0.059 C 
HETATM    4  C4  UNL     1     -34.837  15.898  -2.172  1.00 20.00     0.065 C 
HETATM    5  C5  UNL     1     -32.948  18.018  -2.667  1.00 20.00     0.172 C 
HETATM    6  C6  UNL     1     -34.317  16.297  -3.559  1.00 20.00     0.128 C 
HETATM    7  O10 UNL     1     -32.986  16.823  -3.456  1.00 20.00    -0.385 OA
ENDROOT
BRANCH   6   8
HETATM    8  C9  UNL     1     -34.268  15.092  -4.488  1.00 20.00     0.007 C 
HETATM    9  C7  UNL     1     -32.891  14.429  -4.446  1.00 20.00     0.012 C 
HETATM   10  C8  UNL     1     -35.357  14.082  -4.125  1.00 20.00     0.012 C 
ENDBRANCH   6   8
TORSDOF 1
ENDMDL
MODEL 6
REMARK VINA RESULT:      -4.1     16.214     17.096
REMARK  1 active torsions:
REMARK  status: ('A' for Active; 'I' for Inactive)
REMARK    1  A    between atoms: C6_6  and  C9_9 
ROOT
HETATM    1  C1  UNL     1     -22.553  17.668   9.651  1.00 20.00    -0.085 C 
HETATM    2  C2  UNL     1     -22.289  16.980   8.533  1.00 20.00     0.014 C 
HETATM    3  C3  UNL     1     -21.546  17.866  10.752  1.00 20.00     0.059 C 
HETATM    4  C4  UNL     1     -23.896  18.288   9.937  1.00 20.00     0.065 C 
HETATM    5  C5  UNL     1     -22.165  17.451  12.084  1.00 20.00     0.172 C 
HETATM    6  C6  UNL     1     -24.378  17.840  11.322  1.00 20.00     0.128 C 
HETATM    7  O10 UNL     1     -23.392  18.153  12.316  1.00 20.00    -0.385 OA
ENDROOT
BRANCH   6   8
HETATM    8  C9  UNL     1     -25.666  18.553  11.707  1.00 20.00     0.007 C 
HETATM    9  C7  UNL     1     -26.276  19.263  10.498  1.00 20.00     0.012 C 
HETATM   10  C8  UNL     1     -26.670  17.571  12.311  1.00 20.00     0.012 C 
ENDBRANCH   6   8
TORSDOF 1
ENDMDL
MODEL 7
REMARK VINA RESULT:      -4.0     11.921     12.637
REMARK  1 active torsions:
REMARK  status: ('A' for Active; 'I' for Inactive)
REMARK    1  A    between atoms: C6_6  and  C9_9 
ROOT
HETATM    1  C1  UNL     1     -34.464  14.875  -6.007  1.00 20.00    -0.085 C 
HETATM    2  C2  UNL     1     -33.889  15.139  -7.188  1.00 20.00     0.014 C 
HETATM    3  C3  UNL     1     -35.857  14.319  -5.877  1.00 20.00     0.059 C 
HETATM    4  C4  UNL     1     -33.789  15.136  -4.686  1.00 20.00     0.065 C 
HETATM    5  C5  UNL     1     -36.661  15.190  -4.915  1.00 20.00     0.172 C 
HETATM    6  C6  UNL     1     -34.719  15.967  -3.795  1.00 20.00     0.128 C 
HETATM    7  O10 UNL     1     -35.988  15.312  -3.657  1.00 20.00    -0.385 OA
ENDROOT
BRANCH   6   8
HETATM    8  C9  UNL     1     -34.131  16.135  -2.401  1.00 20.00     0.007 C 
HETATM    9  C7  UNL     1     -32.976  17.138  -2.416  1.00 20.00     0.012 C 
HETATM   10  C8  UNL     1     -35.207  16.577  -1.408  1.00 20.00     0.012 C 
ENDBRANCH   6   8
TORSDOF 1
ENDMDL
MODEL 8
REMARK VINA RESULT:      -4.0     11.682     12.155
REMARK  1 active torsions:
REMARK  status: ('A' for Active; 'I' for Inactive)
REMARK    1  A    between atoms: C6_6  and  C9_9 
ROOT
HETATM    1  C1  UNL     1     -35.340  14.639  -4.406  1.00 20.00    -0.085 C 
HETATM    2  C2  UNL     1     -36.207  13.627  -4.543  1.00 20.00     0.014 C 
HETATM    3  C3  UNL     1     -34.030  14.704  -5.144  1.00 20.00     0.059 C 
HETATM    4  C4  UNL     1     -35.572  15.801  -3.477  1.00 20.00     0.065 C 
HETATM    5  C5  UNL     1     -32.900  14.955  -4.149  1.00 20.00     0.172 C 
HETATM    6  C6  UNL     1     -34.347  15.982  -2.573  1.00 20.00     0.128 C 
HETATM    7  O10 UNL     1     -33.162  16.127  -3.368  1.00 20.00    -0.385 OA
ENDROOT
BRANCH   6   8
HETATM    8  C9  UNL     1     -34.484  17.231  -1.714  1.00 20.00     0.007 C 
HETATM    9  C7  UNL     1     -35.296  16.936  -0.452  1.00 20.00     0.012 C 
HETATM   10  C8  UNL     1     -33.109  17.788  -1.344  1.00 20.00     0.012 C 
ENDBRANCH   6   8
TORSDOF 1
ENDMDL
MODEL 9
REMARK VINA RESULT:      -3.9     11.393     13.536
REMARK  1 active torsions:
REMARK  status: ('A' for Active; 'I' for Inactive)
REMARK    1  A    between atoms: C6_6  and  C9_9 
ROOT
HETATM    1  C1  UNL     1     -34.006  16.165  -3.627  1.00 20.00    -0.085 C 
HETATM    2  C2  UNL     1     -33.109  16.794  -2.856  1.00 20.00     0.014 C 
HETATM    3  C3  UNL     1     -34.936  15.103  -3.107  1.00 20.00     0.059 C 
HETATM    4  C4  UNL     1     -34.155  16.433  -5.102  1.00 20.00     0.065 C 
HETATM    5  C5  UNL     1     -34.833  13.862  -3.990  1.00 20.00     0.172 C 
HETATM    6  C6  UNL     1     -34.091  15.108  -5.869  1.00 20.00     0.128 C 
HETATM    7  O10 UNL     1     -35.074  14.194  -5.362  1.00 20.00    -0.385 OA
ENDROOT
BRANCH   6   8
HETATM    8  C9  UNL     1     -34.376  15.321  -7.349  1.00 20.00     0.007 C 
HETATM    9  C7  UNL     1     -35.841  15.024  -7.668  1.00 20.00     0.012 C 
HETATM   10  C8  UNL     1     -34.017  16.746  -7.770  1.00 20.00     0.012 C 
ENDBRANCH   6   8
TORSDOF 1
ENDMDL
