MODEL 1
REMARK VINA RESULT:      -5.3      0.000      0.000
REMARK  4 active torsions:
REMARK  status: ('A' for Active; 'I' for Inactive)
REMARK    1  A    between atoms: C1_1  and  C12_12 
REMARK    2  A    between atoms: C6_6  and  C10_10 
REMARK    3  A    between atoms: C7_7  and  C11_11 
REMARK    4  A    between atoms: C11_11  and  C12_12 
ROOT
HETATM    1  C2  UNL     1     -35.048  17.000  -1.131  1.00 20.00     0.001 C 
HETATM    2  C3  UNL     1     -34.514  18.329  -1.663  1.00 20.00     0.005 C 
HETATM    3  C4  UNL     1     -35.121  15.942  -2.229  1.00 20.00     0.005 C 
HETATM    4  C5  UNL     1     -33.241  17.095  -3.466  1.00 20.00     0.009 C 
HETATM    5  C6  UNL     1     -33.169  18.189  -2.389  1.00 20.00    -0.014 C 
HETATM    6  C7  UNL     1     -33.771  15.755  -2.933  1.00 20.00    -0.013 C 
ENDROOT
BRANCH   6   7
HETATM    7  C11 UNL     1     -33.894  14.738  -4.067  1.00 20.00     0.015 C 
BRANCH   7   8
HETATM    8  C12 UNL     1     -35.191  14.906  -4.864  1.00 20.00     0.043 C 
HETATM    9  C9  UNL     1     -34.886  15.082  -6.350  1.00 20.00     0.017 C 
BRANCH   8  10
HETATM   10  C1  UNL     1     -36.135  13.726  -4.721  1.00 20.00     0.235 C 
HETATM   11  O13 UNL     1     -35.792  12.578  -4.454  1.00 20.00    -0.306 OA
ENDBRANCH   8  10
ENDBRANCH   7   8
ENDBRANCH   6   7
BRANCH   5  12
HETATM   12  C10 UNL     1     -32.019  17.945  -1.408  1.00 20.00     0.000 C 
HETATM   13  C8  UNL     1     -31.972  18.993  -0.345  1.00 20.00     0.005 C 
ENDBRANCH   5  12
TORSDOF 4
ENDMDL
MODEL 2
REMARK VINA RESULT:      -4.9      1.070      2.440
REMARK  4 active torsions:
REMARK  status: ('A' for Active; 'I' for Inactive)
REMARK    1  A    between atoms: C1_1  and  C12_12 
REMARK    2  A    between atoms: C6_6  and  C10_10 
REMARK    3  A    between atoms: C7_7  and  C11_11 
REMARK    4  A    between atoms: C11_11  and  C12_12 
ROOT
HETATM    1  C2  UNL     1     -32.836  18.166  -1.904  1.00 20.00     0.001 C 
HETATM    2  C3  UNL     1     -33.580  18.096  -0.572  1.00 20.00     0.005 C 
HETATM    3  C4  UNL     1     -32.897  16.838  -2.654  1.00 20.00     0.005 C 
HETATM    4  C5  UNL     1     -35.081  16.287  -1.504  1.00 20.00     0.009 C 
HETATM    5  C6  UNL     1     -35.027  17.604  -0.716  1.00 20.00    -0.014 C 
HETATM    6  C7  UNL     1     -34.340  16.356  -2.849  1.00 20.00    -0.013 C 
ENDROOT
BRANCH   6   7
HETATM    7  C11 UNL     1     -34.361  14.995  -3.543  1.00 20.00     0.015 C 
BRANCH   7   8
HETATM    8  C12 UNL     1     -35.381  14.938  -4.684  1.00 20.00     0.043 C 
HETATM    9  C9  UNL     1     -34.672  14.954  -6.036  1.00 20.00     0.017 C 
BRANCH   8  10
HETATM   10  C1  UNL     1     -36.259  13.699  -4.636  1.00 20.00     0.235 C 
HETATM   11  O13 UNL     1     -35.849  12.551  -4.503  1.00 20.00    -0.306 OA
ENDBRANCH   8  10
ENDBRANCH   7   8
ENDBRANCH   6   7
BRANCH   5  12
HETATM   12  C10 UNL     1     -35.929  18.674  -1.335  1.00 20.00     0.000 C 
HETATM   13  C8  UNL     1     -37.308  18.156  -1.583  1.00 20.00     0.005 C 
ENDBRANCH   5  12
TORSDOF 4
ENDMDL
MODEL 3
REMARK VINA RESULT:      -4.6      1.514      2.360
REMARK  4 active torsions:
REMARK  status: ('A' for Active; 'I' for Inactive)
REMARK    1  A    between atoms: C1_1  and  C12_12 
REMARK    2  A    between atoms: C6_6  and  C10_10 
REMARK    3  A    between atoms: C7_7  and  C11_11 
REMARK    4  A    between atoms: C11_11  and  C12_12 
ROOT
HETATM    1  C2  UNL     1     -33.971  17.955   0.394  1.00 20.00     0.001 C 
HETATM    2  C3  UNL     1     -33.116  19.215   0.282  1.00 20.00     0.005 C 
HETATM    3  C4  UNL     1     -34.424  17.458  -0.977  1.00 20.00     0.005 C 
HETATM    4  C5  UNL     1     -32.385  18.514  -2.035  1.00 20.00     0.009 C 
HETATM    5  C6  UNL     1     -31.924  19.051  -0.671  1.00 20.00    -0.014 C 
HETATM    6  C7  UNL     1     -33.240  17.242  -1.927  1.00 20.00    -0.013 C 
ENDROOT
BRANCH   6   7
HETATM    7  C11 UNL     1     -33.732  16.808  -3.307  1.00 20.00     0.015 C 
BRANCH   7   8
HETATM    8  C12 UNL     1     -34.251  15.368  -3.316  1.00 20.00     0.043 C 
HETATM    9  C9  UNL     1     -35.776  15.349  -3.375  1.00 20.00     0.017 C 
BRANCH   8  10
HETATM   10  C1  UNL     1     -33.732  14.555  -4.488  1.00 20.00     0.235 C 
HETATM   11  O13 UNL     1     -32.785  13.776  -4.441  1.00 20.00    -0.306 OA
ENDBRANCH   8  10
ENDBRANCH   7   8
ENDBRANCH   6   7
BRANCH   5  12
HETATM   12  C10 UNL     1     -30.826  18.177  -0.059  1.00 20.00     0.000 C 
HETATM   13  C8  UNL     1     -30.413  18.676   1.287  1.00 20.00     0.005 C 
ENDBRANCH   5  12
TORSDOF 4
ENDMDL
MODEL 4
REMARK VINA RESULT:      -4.6      2.688      5.489
REMARK  4 active torsions:
REMARK  status: ('A' for Active; 'I' for Inactive)
REMARK    1  A    between atoms: C1_1  and  C12_12 
REMARK    2  A    between atoms: C6_6  and  C10_10 
REMARK    3  A    between atoms: C7_7  and  C11_11 
REMARK    4  A    between atoms: C11_11  and  C12_12 
ROOT
HETATM    1  C2  UNL     1     -33.457  14.657  -4.465  1.00 20.00     0.001 C 
HETATM    2  C3  UNL     1     -34.576  15.131  -5.390  1.00 20.00     0.005 C 
HETATM    3  C4  UNL     1     -33.085  15.723  -3.439  1.00 20.00     0.005 C 
HETATM    4  C5  UNL     1     -35.425  16.672  -3.574  1.00 20.00     0.009 C 
HETATM    5  C6  UNL     1     -35.815  15.627  -4.631  1.00 20.00    -0.014 C 
HETATM    6  C7  UNL     1     -34.305  16.196  -2.637  1.00 20.00    -0.013 C 
ENDROOT
BRANCH   6   7
HETATM    7  C11 UNL     1     -33.910  17.307  -1.665  1.00 20.00     0.015 C 
BRANCH   7   8
HETATM    8  C12 UNL     1     -32.517  17.872  -1.959  1.00 20.00     0.043 C 
HETATM    9  C9  UNL     1     -32.626  19.245  -2.618  1.00 20.00     0.017 C 
BRANCH   8  10
HETATM   10  C1  UNL     1     -31.661  18.023  -0.714  1.00 20.00     0.235 C 
HETATM   11  O13 UNL     1     -30.624  18.674  -0.648  1.00 20.00    -0.306 OA
ENDBRANCH   8  10
ENDBRANCH   7   8
ENDBRANCH   6   7
BRANCH   5  12
HETATM   12  C10 UNL     1     -36.606  14.468  -4.019  1.00 20.00     0.000 C 
HETATM   13  C8  UNL     1     -38.060  14.560  -4.348  1.00 20.00     0.005 C 
ENDBRANCH   5  12
TORSDOF 4
ENDMDL
MODEL 5
REMARK VINA RESULT:      -4.6      1.380      1.808
REMARK  4 active torsions:
REMARK  status: ('A' for Active; 'I' for Inactive)
REMARK    1  A    between atoms: C1_1  and  C12_12 
REMARK    2  A    between atoms: C6_6  and  C10_10 
REMARK    3  A    between atoms: C7_7  and  C11_11 
REMARK    4  A    between atoms: C11_11  and  C12_12 
ROOT
HETATM    1  C2  UNL     1     -36.759  17.882  -2.143  1.00 20.00     0.001 C 
HETATM    2  C3  UNL     1     -35.642  18.765  -1.589  1.00 20.00     0.005 C 
HETATM    3  C4  UNL     1     -36.214  16.805  -3.078  1.00 20.00     0.005 C 
HETATM    4  C5  UNL     1     -34.003  16.857  -1.851  1.00 20.00     0.009 C 
HETATM    5  C6  UNL     1     -34.519  17.963  -0.917  1.00 20.00    -0.014 C 
HETATM    6  C7  UNL     1     -35.122  15.962  -2.405  1.00 20.00    -0.013 C 
ENDROOT
BRANCH   6   7
HETATM    7  C11 UNL     1     -34.555  14.938  -3.386  1.00 20.00     0.015 C 
BRANCH   7   8
HETATM    8  C12 UNL     1     -35.258  14.980  -4.746  1.00 20.00     0.043 C 
HETATM    9  C9  UNL     1     -34.236  15.115  -5.872  1.00 20.00     0.017 C 
BRANCH   8  10
HETATM   10  C1  UNL     1     -36.092  13.742  -5.023  1.00 20.00     0.235 C 
HETATM   11  O13 UNL     1     -35.953  12.660  -4.462  1.00 20.00    -0.306 OA
ENDBRANCH   8  10
ENDBRANCH   7   8
ENDBRANCH   6   7
BRANCH   5  12
HETATM   12  C10 UNL     1     -34.956  17.403   0.439  1.00 20.00     0.000 C 
HETATM   13  C8  UNL     1     -34.382  18.192   1.570  1.00 20.00     0.005 C 
ENDBRANCH   5  12
TORSDOF 4
ENDMDL
MODEL 6
REMARK VINA RESULT:      -4.5      2.241      3.662
REMARK  4 active torsions:
REMARK  status: ('A' for Active; 'I' for Inactive)
REMARK    1  A    between atoms: C1_1  and  C12_12 
REMARK    2  A    between atoms: C6_6  and  C10_10 
REMARK    3  A    between atoms: C7_7  and  C11_11 
REMARK    4  A    between atoms: C11_11  and  C12_12 
ROOT
HETATM    1  C2  UNL     1     -33.988  14.945  -5.598  1.00 20.00     0.001 C 
HETATM    2  C3  UNL     1     -33.733  14.440  -4.179  1.00 20.00     0.005 C 
HETATM    3  C4  UNL     1     -35.430  15.412  -5.779  1.00 20.00     0.005 C 
HETATM    4  C5  UNL     1     -35.568  15.949  -3.311  1.00 20.00     0.009 C 
HETATM    5  C6  UNL     1     -34.128  15.456  -3.099  1.00 20.00    -0.014 C 
HETATM    6  C7  UNL     1     -35.826  16.465  -4.735  1.00 20.00    -0.013 C 
ENDROOT
BRANCH   6   7
HETATM    7  C11 UNL     1     -37.292  16.862  -4.904  1.00 20.00     0.015 C 
BRANCH   7   8
HETATM    8  C12 UNL     1     -38.191  16.248  -3.828  1.00 20.00     0.043 C 
HETATM    9  C9  UNL     1     -39.289  17.230  -3.425  1.00 20.00     0.017 C 
BRANCH   8  10
HETATM   10  C1  UNL     1     -38.863  14.962  -4.276  1.00 20.00     0.235 C 
HETATM   11  O13 UNL     1     -38.299  13.879  -4.397  1.00 20.00    -0.306 OA
ENDBRANCH   8  10
ENDBRANCH   7   8
ENDBRANCH   6   7
BRANCH   5  12
HETATM   12  C10 UNL     1     -33.135  16.619  -3.025  1.00 20.00     0.000 C 
HETATM   13  C8  UNL     1     -33.344  17.445  -1.799  1.00 20.00     0.005 C 
ENDBRANCH   5  12
TORSDOF 4
ENDMDL
MODEL 7
REMARK VINA RESULT:      -4.5      2.606      5.269
REMARK  4 active torsions:
REMARK  status: ('A' for Active; 'I' for Inactive)
REMARK    1  A    between atoms: C1_1  and  C12_12 
REMARK    2  A    between atoms: C6_6  and  C10_10 
REMARK    3  A    between atoms: C7_7  and  C11_11 
REMARK    4  A    between atoms: C11_11  and  C12_12 
ROOT
HETATM    1  C2  UNL     1     -36.362  15.303  -3.635  1.00 20.00     0.001 C 
HETATM    2  C3  UNL     1     -35.635  14.201  -4.404  1.00 20.00     0.005 C 
HETATM    3  C4  UNL     1     -35.479  15.907  -2.546  1.00 20.00     0.005 C 
HETATM    4  C5  UNL     1     -33.418  15.297  -3.879  1.00 20.00     0.009 C 
HETATM    5  C6  UNL     1     -34.284  14.656  -4.973  1.00 20.00    -0.014 C 
HETATM    6  C7  UNL     1     -34.143  16.411  -3.108  1.00 20.00    -0.013 C 
ENDROOT
BRANCH   6   7
HETATM    7  C11 UNL     1     -33.258  16.949  -1.984  1.00 20.00     0.015 C 
BRANCH   7   8
HETATM    8  C12 UNL     1     -32.574  18.267  -2.359  1.00 20.00     0.043 C 
HETATM    9  C9  UNL     1     -33.595  19.262  -2.904  1.00 20.00     0.017 C 
BRANCH   8  10
HETATM   10  C1  UNL     1     -31.865  18.924  -1.189  1.00 20.00     0.235 C 
HETATM   11  O13 UNL     1     -30.787  18.565  -0.727  1.00 20.00    -0.306 OA
ENDBRANCH   8  10
ENDBRANCH   7   8
ENDBRANCH   6   7
BRANCH   5  12
HETATM   12  C10 UNL     1     -34.462  15.587  -6.175  1.00 20.00     0.000 C 
HETATM   13  C8  UNL     1     -33.727  15.084  -7.374  1.00 20.00     0.005 C 
ENDBRANCH   5  12
TORSDOF 4
ENDMDL
MODEL 8
REMARK VINA RESULT:      -4.4      2.699      5.295
REMARK  4 active torsions:
REMARK  status: ('A' for Active; 'I' for Inactive)
REMARK    1  A    between atoms: C1_1  and  C12_12 
REMARK    2  A    between atoms: C6_6  and  C10_10 
REMARK    3  A    between atoms: C7_7  and  C11_11 
REMARK    4  A    between atoms: C11_11  and  C12_12 
ROOT
HETATM    1  C2  UNL     1     -36.942  16.502  -3.821  1.00 20.00     0.001 C 
HETATM    2  C3  UNL     1     -36.708  15.005  -4.016  1.00 20.00     0.005 C 
HETATM    3  C4  UNL     1     -36.123  17.052  -2.656  1.00 20.00     0.005 C 
HETATM    4  C5  UNL     1     -34.402  15.232  -3.003  1.00 20.00     0.009 C 
HETATM    5  C6  UNL     1     -35.223  14.642  -4.160  1.00 20.00    -0.014 C 
HETATM    6  C7  UNL     1     -34.629  16.739  -2.808  1.00 20.00    -0.013 C 
ENDROOT
BRANCH   6   7
HETATM    7  C11 UNL     1     -33.849  17.246  -1.596  1.00 20.00     0.015 C 
BRANCH   7   8
HETATM    8  C12 UNL     1     -32.481  17.818  -1.979  1.00 20.00     0.043 C 
HETATM    9  C9  UNL     1     -32.629  18.858  -3.088  1.00 20.00     0.017 C 
BRANCH   8  10
HETATM   10  C1  UNL     1     -31.766  18.481  -0.815  1.00 20.00     0.235 C 
HETATM   11  O13 UNL     1     -30.573  18.355  -0.559  1.00 20.00    -0.306 OA
ENDBRANCH   8  10
ENDBRANCH   7   8
ENDBRANCH   6   7
BRANCH   5  12
HETATM   12  C10 UNL     1     -34.667  15.060  -5.523  1.00 20.00     0.000 C 
HETATM   13  C8  UNL     1     -35.578  14.658  -6.636  1.00 20.00     0.005 C 
ENDBRANCH   5  12
TORSDOF 4
ENDMDL
MODEL 9
REMARK VINA RESULT:      -4.3      2.742      5.150
REMARK  4 active torsions:
REMARK  status: ('A' for Active; 'I' for Inactive)
REMARK    1  A    between atoms: C1_1  and  C12_12 
REMARK    2  A    between atoms: C6_6  and  C10_10 
REMARK    3  A    between atoms: C7_7  and  C11_11 
REMARK    4  A    between atoms: C11_11  and  C12_12 
ROOT
HETATM    1  C2  UNL     1     -35.849  13.719  -4.397  1.00 20.00     0.001 C 
HETATM    2  C3  UNL     1     -36.432  14.652  -5.457  1.00 20.00     0.005 C 
HETATM    3  C4  UNL     1     -34.548  14.268  -3.817  1.00 20.00     0.005 C 
HETATM    4  C5  UNL     1     -35.307  16.623  -4.340  1.00 20.00     0.009 C 
HETATM    5  C6  UNL     1     -36.610  16.093  -4.957  1.00 20.00    -0.014 C 
HETATM    6  C7  UNL     1     -34.721  15.690  -3.269  1.00 20.00    -0.013 C 
ENDROOT
BRANCH   6   7
HETATM    7  C11 UNL     1     -33.388  16.233  -2.756  1.00 20.00     0.015 C 
BRANCH   7   8
HETATM    8  C12 UNL     1     -33.548  17.553  -1.997  1.00 20.00     0.043 C 
HETATM    9  C9  UNL     1     -34.555  17.398  -0.860  1.00 20.00     0.017 C 
BRANCH   8  10
HETATM   10  C1  UNL     1     -32.247  18.057  -1.398  1.00 20.00     0.235 C 
HETATM   11  O13 UNL     1     -31.602  19.012  -1.819  1.00 20.00    -0.306 OA
ENDBRANCH   8  10
ENDBRANCH   7   8
ENDBRANCH   6   7
BRANCH   5  12
HETATM   12  C10 UNL     1     -37.788  16.213  -3.986  1.00 20.00     0.000 C 
HETATM   13  C8  UNL     1     -37.803  17.539  -3.300  1.00 20.00     0.005 C 
ENDBRANCH   5  12
TORSDOF 4
ENDMDL
