MODEL 1
REMARK VINA RESULT:      -4.4      0.000      0.000
REMARK  2 active torsions:
REMARK  status: ('A' for Active; 'I' for Inactive)
REMARK    1  A    between atoms: C7_7  and  C8_8 
REMARK    2  A    between atoms: C7_7  and  N9_9 
ROOT
HETATM    1  C1  UNL     1     -33.779   4.373   3.815  1.00 20.00     0.038 C 
HETATM    2  C2  UNL     1     -33.360   5.065   2.526  1.00 20.00     0.235 C 
HETATM    3  C3  UNL     1     -33.858   6.694   4.280  1.00 20.00     0.243 C 
HETATM    4  C4  UNL     1     -34.627   5.404   4.566  1.00 20.00    -0.022 C 
HETATM    5  C5  UNL     1     -36.059   5.463   4.011  1.00 20.00     0.016 C 
HETATM    6  C6  UNL     1     -34.680   5.106   6.066  1.00 20.00     0.016 C 
HETATM    7  N9  UNL     1     -33.429   6.548   2.835  1.00 20.00    -0.069 N 
HETATM    8  H27 UNL     1     -34.184   6.940   2.257  1.00 20.00     0.280 HD
ENDROOT
BRANCH   7   9
HETATM    9  C7  UNL     1     -32.185   7.306   2.497  1.00 20.00     0.250 C 
BRANCH   9  10
HETATM   10  C8  UNL     1     -32.216   7.734   1.042  1.00 20.00     0.142 C 
HETATM   11 CL10 UNL     1     -32.963   9.339   0.847  1.00 20.00    -0.129 Cl
ENDBRANCH   9  10
ENDBRANCH   7   9
TORSDOF 2
ENDMDL
MODEL 2
REMARK VINA RESULT:      -3.9     11.505     12.525
REMARK  2 active torsions:
REMARK  status: ('A' for Active; 'I' for Inactive)
REMARK    1  A    between atoms: C7_7  and  C8_8 
REMARK    2  A    between atoms: C7_7  and  N9_9 
ROOT
HETATM    1  C1  UNL     1     -34.300  14.619  -3.630  1.00 20.00     0.038 C 
HETATM    2  C2  UNL     1     -35.608  14.404  -4.379  1.00 20.00     0.235 C 
HETATM    3  C3  UNL     1     -34.992  16.770  -4.341  1.00 20.00     0.243 C 
HETATM    4  C4  UNL     1     -34.352  16.070  -3.142  1.00 20.00    -0.022 C 
HETATM    5  C5  UNL     1     -35.217  16.206  -1.878  1.00 20.00     0.016 C 
HETATM    6  C6  UNL     1     -32.953  16.620  -2.856  1.00 20.00     0.016 C 
HETATM    7  N9  UNL     1     -36.044  15.788  -4.814  1.00 20.00    -0.069 N 
HETATM    8  H27 UNL     1     -36.909  16.005  -4.301  1.00 20.00     0.280 HD
ENDROOT
BRANCH   7   9
HETATM    9  C7  UNL     1     -36.363  15.904  -6.271  1.00 20.00     0.250 C 
BRANCH   9  10
HETATM   10  C8  UNL     1     -35.659  14.806  -7.046  1.00 20.00     0.142 C 
HETATM   11 CL10 UNL     1     -33.994  15.270  -7.474  1.00 20.00    -0.129 Cl
ENDBRANCH   9  10
ENDBRANCH   7   9
TORSDOF 2
ENDMDL
MODEL 3
REMARK VINA RESULT:      -3.8     11.568     12.555
REMARK  2 active torsions:
REMARK  status: ('A' for Active; 'I' for Inactive)
REMARK    1  A    between atoms: C7_7  and  C8_8 
REMARK    2  A    between atoms: C7_7  and  N9_9 
ROOT
HETATM    1  C1  UNL     1     -34.981  17.587  -3.618  1.00 20.00     0.038 C 
HETATM    2  C2  UNL     1     -34.287  17.243  -4.929  1.00 20.00     0.235 C 
HETATM    3  C3  UNL     1     -33.957  15.480  -3.266  1.00 20.00     0.243 C 
HETATM    4  C4  UNL     1     -34.222  16.802  -2.545  1.00 20.00    -0.022 C 
HETATM    5  C5  UNL     1     -32.912  17.507  -2.155  1.00 20.00     0.016 C 
HETATM    6  C6  UNL     1     -35.073  16.593  -1.291  1.00 20.00     0.016 C 
HETATM    7  N9  UNL     1     -33.626  15.901  -4.683  1.00 20.00    -0.069 N 
HETATM    8  H27 UNL     1     -32.610  16.056  -4.720  1.00 20.00     0.280 HD
ENDROOT
BRANCH   7   9
HETATM    9  C7  UNL     1     -33.944  14.861  -5.710  1.00 20.00     0.250 C 
BRANCH   9  10
HETATM   10  C8  UNL     1     -35.432  14.859  -6.006  1.00 20.00     0.142 C 
HETATM   11 CL10 UNL     1     -36.306  13.709  -4.965  1.00 20.00    -0.129 Cl
ENDBRANCH   9  10
ENDBRANCH   7   9
TORSDOF 2
ENDMDL
MODEL 4
REMARK VINA RESULT:      -3.7      9.471     10.462
REMARK  2 active torsions:
REMARK  status: ('A' for Active; 'I' for Inactive)
REMARK    1  A    between atoms: C7_7  and  C8_8 
REMARK    2  A    between atoms: C7_7  and  N9_9 
ROOT
HETATM    1  C1  UNL     1     -41.119   6.479  -1.098  1.00 20.00     0.038 C 
HETATM    2  C2  UNL     1     -41.170   4.970  -1.295  1.00 20.00     0.235 C 
HETATM    3  C3  UNL     1     -43.417   5.934  -1.284  1.00 20.00     0.243 C 
HETATM    4  C4  UNL     1     -42.479   6.851  -0.499  1.00 20.00    -0.022 C 
HETATM    5  C5  UNL     1     -42.527   6.553   1.009  1.00 20.00     0.016 C 
HETATM    6  C6  UNL     1     -42.814   8.325  -0.732  1.00 20.00     0.016 C 
HETATM    7  N9  UNL     1     -42.645   4.637  -1.398  1.00 20.00    -0.069 N 
HETATM    8  H27 UNL     1     -42.883   4.073  -0.571  1.00 20.00     0.280 HD
ENDROOT
BRANCH   7   9
HETATM    9  C7  UNL     1     -43.009   3.822  -2.598  1.00 20.00     0.250 C 
BRANCH   9  10
HETATM   10  C8  UNL     1     -41.791   3.076  -3.110  1.00 20.00     0.142 C 
HETATM   11 CL10 UNL     1     -41.934   2.703  -4.846  1.00 20.00    -0.129 Cl
ENDBRANCH   9  10
ENDBRANCH   7   9
TORSDOF 2
ENDMDL
MODEL 5
REMARK VINA RESULT:      -3.6     11.298     12.316
REMARK  2 active torsions:
REMARK  status: ('A' for Active; 'I' for Inactive)
REMARK    1  A    between atoms: C7_7  and  C8_8 
REMARK    2  A    between atoms: C7_7  and  N9_9 
ROOT
HETATM    1  C1  UNL     1     -34.577  14.295  -3.879  1.00 20.00     0.038 C 
HETATM    2  C2  UNL     1     -33.341  15.158  -4.091  1.00 20.00     0.235 C 
HETATM    3  C3  UNL     1     -35.387  16.420  -4.544  1.00 20.00     0.243 C 
HETATM    4  C4  UNL     1     -35.664  14.930  -4.751  1.00 20.00    -0.022 C 
HETATM    5  C5  UNL     1     -35.508  14.525  -6.226  1.00 20.00     0.016 C 
HETATM    6  C6  UNL     1     -37.067  14.552  -4.270  1.00 20.00     0.016 C 
HETATM    7  N9  UNL     1     -33.875  16.507  -4.529  1.00 20.00    -0.069 N 
HETATM    8  H27 UNL     1     -33.573  16.647  -5.503  1.00 20.00     0.280 HD
ENDROOT
BRANCH   7   9
HETATM    9  C7  UNL     1     -33.346  17.664  -3.741  1.00 20.00     0.250 C 
BRANCH   9  10
HETATM   10  C8  UNL     1     -32.926  17.203  -2.358  1.00 20.00     0.142 C 
HETATM   11 CL10 UNL     1     -34.300  17.192  -1.226  1.00 20.00    -0.129 Cl
ENDBRANCH   9  10
ENDBRANCH   7   9
TORSDOF 2
ENDMDL
MODEL 6
REMARK VINA RESULT:      -3.6     11.782     13.042
REMARK  2 active torsions:
REMARK  status: ('A' for Active; 'I' for Inactive)
REMARK    1  A    between atoms: C7_7  and  C8_8 
REMARK    2  A    between atoms: C7_7  and  N9_9 
ROOT
HETATM    1  C1  UNL     1     -34.028  15.903  -2.634  1.00 20.00     0.038 C 
HETATM    2  C2  UNL     1     -33.127  17.104  -2.884  1.00 20.00     0.235 C 
HETATM    3  C3  UNL     1     -34.334  16.470  -4.914  1.00 20.00     0.243 C 
HETATM    4  C4  UNL     1     -34.209  15.246  -4.006  1.00 20.00    -0.022 C 
HETATM    5  C5  UNL     1     -32.992  14.385  -4.380  1.00 20.00     0.016 C 
HETATM    6  C6  UNL     1     -35.472  14.383  -4.055  1.00 20.00     0.016 C 
HETATM    7  N9  UNL     1     -33.323  17.445  -4.348  1.00 20.00    -0.069 N 
HETATM    8  H27 UNL     1     -32.429  17.259  -4.821  1.00 20.00     0.280 HD
ENDROOT
BRANCH   7   9
HETATM    9  C7  UNL     1     -33.660  18.879  -4.606  1.00 20.00     0.250 C 
BRANCH   9  10
HETATM   10  C8  UNL     1     -35.153  19.031  -4.829  1.00 20.00     0.142 C 
HETATM   11 CL10 UNL     1     -36.025  19.263  -3.294  1.00 20.00    -0.129 Cl
ENDBRANCH   9  10
ENDBRANCH   7   9
TORSDOF 2
ENDMDL
MODEL 7
REMARK VINA RESULT:      -3.5     11.132     12.178
REMARK  2 active torsions:
REMARK  status: ('A' for Active; 'I' for Inactive)
REMARK    1  A    between atoms: C7_7  and  C8_8 
REMARK    2  A    between atoms: C7_7  and  N9_9 
ROOT
HETATM    1  C1  UNL     1     -35.141  16.177  -4.855  1.00 20.00     0.038 C 
HETATM    2  C2  UNL     1     -36.328  16.759  -4.101  1.00 20.00     0.235 C 
HETATM    3  C3  UNL     1     -34.783  15.629  -2.579  1.00 20.00     0.243 C 
HETATM    4  C4  UNL     1     -34.631  15.030  -3.977  1.00 20.00    -0.022 C 
HETATM    5  C5  UNL     1     -35.492  13.768  -4.150  1.00 20.00     0.016 C 
HETATM    6  C6  UNL     1     -33.171  14.691  -4.283  1.00 20.00     0.016 C 
HETATM    7  N9  UNL     1     -36.092  16.389  -2.650  1.00 20.00    -0.069 N 
HETATM    8  H27 UNL     1     -36.836  15.730  -2.384  1.00 20.00     0.280 HD
ENDROOT
BRANCH   7   9
HETATM    9  C7  UNL     1     -36.172  17.541  -1.699  1.00 20.00     0.250 C 
BRANCH   9  10
HETATM   10  C8  UNL     1     -35.022  17.481  -0.711  1.00 20.00     0.142 C 
HETATM   11 CL10 UNL     1     -35.599  17.187   0.948  1.00 20.00    -0.129 Cl
ENDBRANCH   9  10
ENDBRANCH   7   9
TORSDOF 2
ENDMDL
MODEL 8
REMARK VINA RESULT:      -3.5     11.224     12.341
REMARK  2 active torsions:
REMARK  status: ('A' for Active; 'I' for Inactive)
REMARK    1  A    between atoms: C7_7  and  C8_8 
REMARK    2  A    between atoms: C7_7  and  N9_9 
ROOT
HETATM    1  C1  UNL     1     -34.539  16.975  -1.379  1.00 20.00     0.038 C 
HETATM    2  C2  UNL     1     -35.379  16.159  -2.352  1.00 20.00     0.235 C 
HETATM    3  C3  UNL     1     -33.077  16.382  -3.147  1.00 20.00     0.243 C 
HETATM    4  C4  UNL     1     -33.401  17.557  -2.224  1.00 20.00    -0.022 C 
HETATM    5  C5  UNL     1     -33.865  18.790  -3.017  1.00 20.00     0.016 C 
HETATM    6  C6  UNL     1     -32.196  17.937  -1.361  1.00 20.00     0.016 C 
HETATM    7  N9  UNL     1     -34.435  15.800  -3.482  1.00 20.00    -0.069 N 
HETATM    8  H27 UNL     1     -34.773  16.290  -4.321  1.00 20.00     0.280 HD
ENDROOT
BRANCH   7   9
HETATM    9  C7  UNL     1     -34.400  14.342  -3.815  1.00 20.00     0.250 C 
BRANCH   9  10
HETATM   10  C8  UNL     1     -35.733  13.908  -4.393  1.00 20.00     0.142 C 
HETATM   11 CL10 UNL     1     -35.883  14.364  -6.108  1.00 20.00    -0.129 Cl
ENDBRANCH   9  10
ENDBRANCH   7   9
TORSDOF 2
ENDMDL
MODEL 9
REMARK VINA RESULT:      -3.5     11.476     12.546
REMARK  2 active torsions:
REMARK  status: ('A' for Active; 'I' for Inactive)
REMARK    1  A    between atoms: C7_7  and  C8_8 
REMARK    2  A    between atoms: C7_7  and  N9_9 
ROOT
HETATM    1  C1  UNL     1     -34.524  16.407  -5.038  1.00 20.00     0.038 C 
HETATM    2  C2  UNL     1     -35.612  15.538  -5.654  1.00 20.00     0.235 C 
HETATM    3  C3  UNL     1     -35.218  14.932  -3.318  1.00 20.00     0.243 C 
HETATM    4  C4  UNL     1     -33.952  15.575  -3.886  1.00 20.00    -0.022 C 
HETATM    5  C5  UNL     1     -32.960  14.517  -4.398  1.00 20.00     0.016 C 
HETATM    6  C6  UNL     1     -33.257  16.454  -2.845  1.00 20.00     0.016 C 
HETATM    7  N9  UNL     1     -36.034  14.592  -4.548  1.00 20.00    -0.069 N 
HETATM    8  H27 UNL     1     -35.756  13.646  -4.840  1.00 20.00     0.280 HD
ENDROOT
BRANCH   7   9
HETATM    9  C7  UNL     1     -37.509  14.555  -4.300  1.00 20.00     0.250 C 
BRANCH   9  10
HETATM   10  C8  UNL     1     -38.149  15.849  -4.765  1.00 20.00     0.142 C 
HETATM   11 CL10 UNL     1     -38.134  17.085  -3.483  1.00 20.00    -0.129 Cl
ENDBRANCH   9  10
ENDBRANCH   7   9
TORSDOF 2
ENDMDL
