MODEL 1
REMARK VINA RESULT:      -4.5      0.000      0.000
REMARK  0 active torsions:
REMARK  status: ('A' for Active; 'I' for Inactive)
ROOT
HETATM    1  C1  UNL     1     -33.538  15.237  -4.199  1.00 20.00    -0.088 C 
HETATM    2  C2  UNL     1     -32.577  14.324  -4.397  1.00 20.00     0.014 C 
HETATM    3  C3  UNL     1     -33.653  16.029  -2.924  1.00 20.00     0.037 C 
HETATM    4  C4  UNL     1     -34.598  15.536  -5.230  1.00 20.00     0.042 C 
HETATM    5  C5  UNL     1     -36.151  16.208  -3.340  1.00 20.00     0.013 C 
HETATM    6  C6  UNL     1     -35.053  15.882  -2.308  1.00 20.00    -0.014 C 
HETATM    7  C7  UNL     1     -36.027  15.393  -4.654  1.00 20.00    -0.044 C 
HETATM    8  C8  UNL     1     -35.193  16.779  -1.078  1.00 20.00     0.010 C 
HETATM    9  C9  UNL     1     -36.362  13.909  -4.405  1.00 20.00     0.015 C 
HETATM   10  C10 UNL     1     -37.037  15.943  -5.679  1.00 20.00     0.015 C 
ENDROOT
TORSDOF 0
ENDMDL
MODEL 2
REMARK VINA RESULT:      -4.4      1.811      3.947
REMARK  0 active torsions:
REMARK  status: ('A' for Active; 'I' for Inactive)
ROOT
HETATM    1  C1  UNL     1     -32.953  17.790  -2.547  1.00 20.00    -0.088 C 
HETATM    2  C2  UNL     1     -32.407  18.864  -3.134  1.00 20.00     0.014 C 
HETATM    3  C3  UNL     1     -33.013  16.443  -3.216  1.00 20.00     0.037 C 
HETATM    4  C4  UNL     1     -33.570  17.843  -1.171  1.00 20.00     0.042 C 
HETATM    5  C5  UNL     1     -35.095  15.935  -1.855  1.00 20.00     0.013 C 
HETATM    6  C6  UNL     1     -34.455  15.912  -3.257  1.00 20.00    -0.014 C 
HETATM    7  C7  UNL     1     -35.027  17.323  -1.166  1.00 20.00    -0.044 C 
HETATM    8  C8  UNL     1     -34.488  14.498  -3.836  1.00 20.00     0.010 C 
HETATM    9  C9  UNL     1     -35.960  18.326  -1.874  1.00 20.00     0.015 C 
HETATM   10  C10 UNL     1     -35.503  17.180   0.292  1.00 20.00     0.015 C 
ENDROOT
TORSDOF 0
ENDMDL
MODEL 3
REMARK VINA RESULT:      -4.4      1.720      3.730
REMARK  0 active torsions:
REMARK  status: ('A' for Active; 'I' for Inactive)
ROOT
HETATM    1  C1  UNL     1     -35.394  17.164  -1.395  1.00 20.00    -0.088 C 
HETATM    2  C2  UNL     1     -36.586  17.755  -1.232  1.00 20.00     0.014 C 
HETATM    3  C3  UNL     1     -34.142  17.668  -0.728  1.00 20.00     0.037 C 
HETATM    4  C4  UNL     1     -35.201  15.953  -2.272  1.00 20.00     0.042 C 
HETATM    5  C5  UNL     1     -32.805  16.693  -2.653  1.00 20.00     0.013 C 
HETATM    6  C6  UNL     1     -33.034  17.929  -1.760  1.00 20.00    -0.014 C 
HETATM    7  C7  UNL     1     -34.097  16.173  -3.334  1.00 20.00    -0.044 C 
HETATM    8  C8  UNL     1     -31.735  18.331  -1.062  1.00 20.00     0.010 C 
HETATM    9  C9  UNL     1     -34.578  17.164  -4.414  1.00 20.00     0.015 C 
HETATM   10  C10 UNL     1     -33.792  14.831  -4.025  1.00 20.00     0.015 C 
ENDROOT
TORSDOF 0
ENDMDL
MODEL 4
REMARK VINA RESULT:      -4.0      1.260      3.110
REMARK  0 active torsions:
REMARK  status: ('A' for Active; 'I' for Inactive)
ROOT
HETATM    1  C1  UNL     1     -34.185  15.541  -3.429  1.00 20.00    -0.088 C 
HETATM    2  C2  UNL     1     -33.596  16.332  -2.521  1.00 20.00     0.014 C 
HETATM    3  C3  UNL     1     -33.516  15.152  -4.720  1.00 20.00     0.037 C 
HETATM    4  C4  UNL     1     -35.575  14.987  -3.242  1.00 20.00     0.042 C 
HETATM    5  C5  UNL     1     -35.818  14.929  -5.767  1.00 20.00     0.013 C 
HETATM    6  C6  UNL     1     -34.399  15.507  -5.927  1.00 20.00    -0.014 C 
HETATM    7  C7  UNL     1     -36.502  15.328  -4.433  1.00 20.00    -0.044 C 
HETATM    8  C8  UNL     1     -33.760  15.006  -7.222  1.00 20.00     0.010 C 
HETATM    9  C9  UNL     1     -36.853  16.830  -4.432  1.00 20.00     0.015 C 
HETATM   10  C10 UNL     1     -37.815  14.534  -4.289  1.00 20.00     0.015 C 
ENDROOT
TORSDOF 0
ENDMDL
MODEL 5
REMARK VINA RESULT:      -4.0      1.613      3.429
REMARK  0 active torsions:
REMARK  status: ('A' for Active; 'I' for Inactive)
ROOT
HETATM    1  C1  UNL     1     -33.994  15.380  -4.117  1.00 20.00    -0.088 C 
HETATM    2  C2  UNL     1     -33.008  14.531  -4.440  1.00 20.00     0.014 C 
HETATM    3  C3  UNL     1     -34.632  16.301  -5.123  1.00 20.00     0.037 C 
HETATM    4  C4  UNL     1     -34.539  15.496  -2.716  1.00 20.00     0.042 C 
HETATM    5  C5  UNL     1     -35.148  17.905  -3.224  1.00 20.00     0.013 C 
HETATM    6  C6  UNL     1     -34.573  17.761  -4.647  1.00 20.00    -0.014 C 
HETATM    7  C7  UNL     1     -34.493  16.951  -2.192  1.00 20.00    -0.044 C 
HETATM    8  C8  UNL     1     -35.322  18.671  -5.621  1.00 20.00     0.010 C 
HETATM    9  C9  UNL     1     -33.038  17.376  -1.908  1.00 20.00     0.015 C 
HETATM   10  C10 UNL     1     -35.277  17.032  -0.869  1.00 20.00     0.015 C 
ENDROOT
TORSDOF 0
ENDMDL
MODEL 6
REMARK VINA RESULT:      -3.9      1.355      3.979
REMARK  0 active torsions:
REMARK  status: ('A' for Active; 'I' for Inactive)
ROOT
HETATM    1  C1  UNL     1     -36.472  17.402  -3.974  1.00 20.00    -0.088 C 
HETATM    2  C2  UNL     1     -37.519  18.219  -3.792  1.00 20.00     0.014 C 
HETATM    3  C3  UNL     1     -36.598  16.057  -4.638  1.00 20.00     0.037 C 
HETATM    4  C4  UNL     1     -35.079  17.754  -3.515  1.00 20.00     0.042 C 
HETATM    5  C5  UNL     1     -34.603  15.274  -3.279  1.00 20.00     0.013 C 
HETATM    6  C6  UNL     1     -36.036  14.944  -3.740  1.00 20.00    -0.014 C 
HETATM    7  C7  UNL     1     -34.474  16.662  -2.600  1.00 20.00    -0.044 C 
HETATM    8  C8  UNL     1     -36.067  13.601  -4.470  1.00 20.00     0.010 C 
HETATM    9  C9  UNL     1     -35.175  16.661  -1.226  1.00 20.00     0.015 C 
HETATM   10  C10 UNL     1     -32.983  16.970  -2.372  1.00 20.00     0.015 C 
ENDROOT
TORSDOF 0
ENDMDL
MODEL 7
REMARK VINA RESULT:      -3.9      1.484      2.471
REMARK  0 active torsions:
REMARK  status: ('A' for Active; 'I' for Inactive)
ROOT
HETATM    1  C1  UNL     1     -34.723  17.394  -4.885  1.00 20.00    -0.088 C 
HETATM    2  C2  UNL     1     -34.182  18.073  -5.906  1.00 20.00     0.014 C 
HETATM    3  C3  UNL     1     -34.801  17.954  -3.490  1.00 20.00     0.037 C 
HETATM    4  C4  UNL     1     -35.287  16.004  -5.043  1.00 20.00     0.042 C 
HETATM    5  C5  UNL     1     -34.733  15.576  -2.605  1.00 20.00     0.013 C 
HETATM    6  C6  UNL     1     -34.153  16.998  -2.476  1.00 20.00    -0.014 C 
HETATM    7  C7  UNL     1     -34.656  15.004  -4.044  1.00 20.00    -0.044 C 
HETATM    8  C8  UNL     1     -34.338  17.524  -1.052  1.00 20.00     0.010 C 
HETATM    9  C9  UNL     1     -33.194  14.704  -4.431  1.00 20.00     0.015 C 
HETATM   10  C10 UNL     1     -35.442  13.680  -4.098  1.00 20.00     0.015 C 
ENDROOT
TORSDOF 0
ENDMDL
MODEL 8
REMARK VINA RESULT:      -3.9      1.310      3.711
REMARK  0 active torsions:
REMARK  status: ('A' for Active; 'I' for Inactive)
ROOT
HETATM    1  C1  UNL     1     -35.951  14.888  -4.374  1.00 20.00    -0.088 C 
HETATM    2  C2  UNL     1     -36.304  13.603  -4.517  1.00 20.00     0.014 C 
HETATM    3  C3  UNL     1     -36.242  15.929  -5.421  1.00 20.00     0.037 C 
HETATM    4  C4  UNL     1     -35.218  15.398  -3.158  1.00 20.00     0.042 C 
HETATM    5  C5  UNL     1     -34.206  17.212  -4.613  1.00 20.00     0.013 C 
HETATM    6  C6  UNL     1     -34.958  16.662  -5.841  1.00 20.00    -0.014 C 
HETATM    7  C7  UNL     1     -33.912  16.138  -3.534  1.00 20.00    -0.044 C 
HETATM    8  C8  UNL     1     -35.282  17.792  -6.819  1.00 20.00     0.010 C 
HETATM    9  C9  UNL     1     -32.852  15.138  -4.039  1.00 20.00     0.015 C 
HETATM   10  C10 UNL     1     -33.351  16.832  -2.279  1.00 20.00     0.015 C 
ENDROOT
TORSDOF 0
ENDMDL
MODEL 9
REMARK VINA RESULT:      -3.9      1.235      3.056
REMARK  0 active torsions:
REMARK  status: ('A' for Active; 'I' for Inactive)
ROOT
HETATM    1  C1  UNL     1     -34.046  14.882  -3.727  1.00 20.00    -0.088 C 
HETATM    2  C2  UNL     1     -32.973  14.510  -4.438  1.00 20.00     0.014 C 
HETATM    3  C3  UNL     1     -35.409  14.281  -3.943  1.00 20.00     0.037 C 
HETATM    4  C4  UNL     1     -33.983  15.945  -2.658  1.00 20.00     0.042 C 
HETATM    5  C5  UNL     1     -36.424  16.459  -3.122  1.00 20.00     0.013 C 
HETATM    6  C6  UNL     1     -36.455  15.374  -4.216  1.00 20.00    -0.014 C 
HETATM    7  C7  UNL     1     -35.017  17.071  -2.898  1.00 20.00    -0.044 C 
HETATM    8  C8  UNL     1     -37.852  14.762  -4.322  1.00 20.00     0.010 C 
HETATM    9  C9  UNL     1     -34.603  17.936  -4.106  1.00 20.00     0.015 C 
HETATM   10  C10 UNL     1     -35.061  17.982  -1.656  1.00 20.00     0.015 C 
ENDROOT
TORSDOF 0
ENDMDL
