MODEL 1
REMARK VINA RESULT:      -4.6      0.000      0.000
REMARK  3 active torsions:
REMARK  status: ('A' for Active; 'I' for Inactive)
REMARK    1  A    between atoms: C3_3  and  C5_5 
REMARK    2  A    between atoms: C5_5  and  C7_7 
REMARK    3  A    between atoms: C6_6  and  C7_7 
ROOT
HETATM    1  C5  UNL     1     -34.391   6.452   3.520  1.00 20.00     0.010 C 
ENDROOT
BRANCH   1   2
HETATM    2  C3  UNL     1     -33.019   6.356   2.919  1.00 20.00    -0.014 A 
HETATM    3  C1  UNL     1     -32.555   7.383   1.923  1.00 20.00     0.005 A 
HETATM    4  C2  UNL     1     -31.955   7.348   3.300  1.00 20.00     0.005 A 
ENDBRANCH   1   2
BRANCH   1   5
HETATM    5  C7  UNL     1     -34.831   5.156   4.229  1.00 20.00    -0.004 C 
HETATM    6  C4  UNL     1     -34.025   3.942   3.752  1.00 20.00     0.011 C 
BRANCH   5   7
HETATM    7  C6  UNL     1     -34.778   5.298   5.759  1.00 20.00     0.119 C 
HETATM    8 CL8  UNL     1     -34.062   6.833   6.310  1.00 20.00    -0.130 Cl
ENDBRANCH   5   7
ENDBRANCH   1   5
TORSDOF 3
ENDMDL
MODEL 2
REMARK VINA RESULT:      -4.3      2.331      4.117
REMARK  3 active torsions:
REMARK  status: ('A' for Active; 'I' for Inactive)
REMARK    1  A    between atoms: C3_3  and  C5_5 
REMARK    2  A    between atoms: C5_5  and  C7_7 
REMARK    3  A    between atoms: C6_6  and  C7_7 
ROOT
HETATM    1  C5  UNL     1     -33.386   5.878   3.133  1.00 20.00     0.010 C 
ENDROOT
BRANCH   1   2
HETATM    2  C3  UNL     1     -34.566   5.894   4.061  1.00 20.00    -0.014 A 
HETATM    3  C1  UNL     1     -34.785   4.764   5.029  1.00 20.00     0.005 A 
HETATM    4  C2  UNL     1     -34.366   6.116   5.534  1.00 20.00     0.005 A 
ENDBRANCH   1   2
BRANCH   1   5
HETATM    5  C7  UNL     1     -32.828   7.285   2.842  1.00 20.00    -0.004 C 
HETATM    6  C4  UNL     1     -31.598   7.601   3.701  1.00 20.00     0.011 C 
BRANCH   5   7
HETATM    7  C6  UNL     1     -32.532   7.480   1.346  1.00 20.00     0.119 C 
HETATM    8 CL8  UNL     1     -32.958   9.099   0.738  1.00 20.00    -0.130 Cl
ENDBRANCH   5   7
ENDBRANCH   1   5
TORSDOF 3
ENDMDL
MODEL 3
REMARK VINA RESULT:      -4.1      1.394      2.036
REMARK  3 active torsions:
REMARK  status: ('A' for Active; 'I' for Inactive)
REMARK    1  A    between atoms: C3_3  and  C5_5 
REMARK    2  A    between atoms: C5_5  and  C7_7 
REMARK    3  A    between atoms: C6_6  and  C7_7 
ROOT
HETATM    1  C5  UNL     1     -32.572   7.268   2.748  1.00 20.00     0.010 C 
ENDROOT
BRANCH   1   2
HETATM    2  C3  UNL     1     -32.976   7.655   1.355  1.00 20.00    -0.014 A 
HETATM    3  C1  UNL     1     -32.899   9.091   0.915  1.00 20.00     0.005 A 
HETATM    4  C2  UNL     1     -31.935   8.082   0.357  1.00 20.00     0.005 A 
ENDBRANCH   1   2
BRANCH   1   5
HETATM    5  C7  UNL     1     -33.691   6.543   3.521  1.00 20.00    -0.004 C 
HETATM    6  C4  UNL     1     -33.750   5.051   3.174  1.00 20.00     0.011 C 
BRANCH   5   7
HETATM    7  C6  UNL     1     -33.566   6.761   5.038  1.00 20.00     0.119 C 
HETATM    8 CL8  UNL     1     -34.616   5.695   6.003  1.00 20.00    -0.130 Cl
ENDBRANCH   5   7
ENDBRANCH   1   5
TORSDOF 3
ENDMDL
MODEL 4
REMARK VINA RESULT:      -3.9      1.730      3.300
REMARK  3 active torsions:
REMARK  status: ('A' for Active; 'I' for Inactive)
REMARK    1  A    between atoms: C3_3  and  C5_5 
REMARK    2  A    between atoms: C5_5  and  C7_7 
REMARK    3  A    between atoms: C6_6  and  C7_7 
ROOT
HETATM    1  C5  UNL     1     -34.794   5.209   3.656  1.00 20.00     0.010 C 
ENDROOT
BRANCH   1   2
HETATM    2  C3  UNL     1     -35.055   5.914   4.955  1.00 20.00    -0.014 A 
HETATM    3  C1  UNL     1     -34.782   5.222   6.262  1.00 20.00     0.005 A 
HETATM    4  C2  UNL     1     -33.907   6.361   5.817  1.00 20.00     0.005 A 
ENDBRANCH   1   2
BRANCH   1   5
HETATM    5  C7  UNL     1     -33.343   5.374   3.161  1.00 20.00    -0.004 C 
HETATM    6  C4  UNL     1     -32.960   4.292   2.145  1.00 20.00     0.011 C 
BRANCH   5   7
HETATM    7  C6  UNL     1     -33.091   6.784   2.602  1.00 20.00     0.119 C 
HETATM    8 CL8  UNL     1     -31.688   7.603   3.333  1.00 20.00    -0.130 Cl
ENDBRANCH   5   7
ENDBRANCH   1   5
TORSDOF 3
ENDMDL
MODEL 5
REMARK VINA RESULT:      -3.8      2.010      3.117
REMARK  3 active torsions:
REMARK  status: ('A' for Active; 'I' for Inactive)
REMARK    1  A    between atoms: C3_3  and  C5_5 
REMARK    2  A    between atoms: C5_5  and  C7_7 
REMARK    3  A    between atoms: C6_6  and  C7_7 
ROOT
HETATM    1  C5  UNL     1     -32.178   7.258   1.928  1.00 20.00     0.010 C 
ENDROOT
BRANCH   1   2
HETATM    2  C3  UNL     1     -33.239   8.124   1.316  1.00 20.00    -0.014 A 
HETATM    3  C1  UNL     1     -32.909   9.518   0.857  1.00 20.00     0.005 A 
HETATM    4  C2  UNL     1     -33.201   8.443  -0.153  1.00 20.00     0.005 A 
ENDBRANCH   1   2
BRANCH   1   5
HETATM    5  C7  UNL     1     -32.706   6.378   3.079  1.00 20.00    -0.004 C 
HETATM    6  C4  UNL     1     -33.644   7.156   4.009  1.00 20.00     0.011 C 
BRANCH   5   7
HETATM    7  C6  UNL     1     -33.373   5.096   2.553  1.00 20.00     0.119 C 
HETATM    8 CL8  UNL     1     -34.305   4.216   3.789  1.00 20.00    -0.130 Cl
ENDBRANCH   5   7
ENDBRANCH   1   5
TORSDOF 3
ENDMDL
MODEL 6
REMARK VINA RESULT:      -3.5     11.965     12.635
REMARK  3 active torsions:
REMARK  status: ('A' for Active; 'I' for Inactive)
REMARK    1  A    between atoms: C3_3  and  C5_5 
REMARK    2  A    between atoms: C5_5  and  C7_7 
REMARK    3  A    between atoms: C6_6  and  C7_7 
ROOT
HETATM    1  C5  UNL     1     -34.788  14.374  -3.803  1.00 20.00     0.010 C 
ENDROOT
BRANCH   1   2
HETATM    2  C3  UNL     1     -34.809  15.803  -3.344  1.00 20.00    -0.014 A 
HETATM    3  C1  UNL     1     -34.946  16.128  -1.882  1.00 20.00     0.005 A 
HETATM    4  C2  UNL     1     -33.640  16.370  -2.586  1.00 20.00     0.005 A 
ENDBRANCH   1   2
BRANCH   1   5
HETATM    5  C7  UNL     1     -35.860  14.067  -4.868  1.00 20.00    -0.004 C 
HETATM    6  C4  UNL     1     -37.275  14.354  -4.354  1.00 20.00     0.011 C 
BRANCH   5   7
HETATM    7  C6  UNL     1     -35.580  14.809  -6.186  1.00 20.00     0.119 C 
HETATM    8 CL8  UNL     1     -33.853  14.872  -6.618  1.00 20.00    -0.130 Cl
ENDBRANCH   5   7
ENDBRANCH   1   5
TORSDOF 3
ENDMDL
MODEL 7
REMARK VINA RESULT:      -3.5      1.923      3.628
REMARK  3 active torsions:
REMARK  status: ('A' for Active; 'I' for Inactive)
REMARK    1  A    between atoms: C3_3  and  C5_5 
REMARK    2  A    between atoms: C5_5  and  C7_7 
REMARK    3  A    between atoms: C6_6  and  C7_7 
ROOT
HETATM    1  C5  UNL     1     -33.038   6.690   4.202  1.00 20.00     0.010 C 
ENDROOT
BRANCH   1   2
HETATM    2  C3  UNL     1     -34.297   6.690   5.017  1.00 20.00    -0.014 A 
HETATM    3  C1  UNL     1     -34.657   5.496   5.858  1.00 20.00     0.005 A 
HETATM    4  C2  UNL     1     -34.227   6.776   6.517  1.00 20.00     0.005 A 
ENDBRANCH   1   2
BRANCH   1   5
HETATM    5  C7  UNL     1     -33.290   6.435   2.702  1.00 20.00    -0.004 C 
HETATM    6  C4  UNL     1     -32.475   7.385   1.817  1.00 20.00     0.011 C 
BRANCH   5   7
HETATM    7  C6  UNL     1     -33.040   4.965   2.326  1.00 20.00     0.119 C 
HETATM    8 CL8  UNL     1     -33.981   3.808   3.300  1.00 20.00    -0.130 Cl
ENDBRANCH   5   7
ENDBRANCH   1   5
TORSDOF 3
ENDMDL
MODEL 8
REMARK VINA RESULT:      -3.4     11.849     12.586
REMARK  3 active torsions:
REMARK  status: ('A' for Active; 'I' for Inactive)
REMARK    1  A    between atoms: C3_3  and  C5_5 
REMARK    2  A    between atoms: C5_5  and  C7_7 
REMARK    3  A    between atoms: C6_6  and  C7_7 
ROOT
HETATM    1  C5  UNL     1     -34.592  15.615  -2.858  1.00 20.00     0.010 C 
ENDROOT
BRANCH   1   2
HETATM    2  C3  UNL     1     -33.313  16.398  -2.832  1.00 20.00    -0.014 A 
HETATM    3  C1  UNL     1     -33.293  17.833  -3.281  1.00 20.00     0.005 A 
HETATM    4  C2  UNL     1     -33.121  17.500  -1.826  1.00 20.00     0.005 A 
ENDBRANCH   1   2
BRANCH   1   5
HETATM    5  C7  UNL     1     -34.500  14.336  -3.714  1.00 20.00    -0.004 C 
HETATM    6  C4  UNL     1     -35.847  13.978  -4.352  1.00 20.00     0.011 C 
BRANCH   5   7
HETATM    7  C6  UNL     1     -33.387  14.439  -4.770  1.00 20.00     0.119 C 
HETATM    8 CL8  UNL     1     -33.954  15.031  -6.351  1.00 20.00    -0.130 Cl
ENDBRANCH   5   7
ENDBRANCH   1   5
TORSDOF 3
ENDMDL
MODEL 9
REMARK VINA RESULT:      -3.4     16.233     17.066
REMARK  3 active torsions:
REMARK  status: ('A' for Active; 'I' for Inactive)
REMARK    1  A    between atoms: C3_3  and  C5_5 
REMARK    2  A    between atoms: C5_5  and  C7_7 
REMARK    3  A    between atoms: C6_6  and  C7_7 
ROOT
HETATM    1  C5  UNL     1     -24.668  18.211  10.370  1.00 20.00     0.010 C 
ENDROOT
BRANCH   1   2
HETATM    2  C3  UNL     1     -25.213  18.388  11.756  1.00 20.00    -0.014 A 
HETATM    3  C1  UNL     1     -26.603  18.925  11.961  1.00 20.00     0.005 A 
HETATM    4  C2  UNL     1     -26.303  17.484  12.261  1.00 20.00     0.005 A 
ENDBRANCH   1   2
BRANCH   1   5
HETATM    5  C7  UNL     1     -23.141  17.994  10.345  1.00 20.00    -0.004 C 
HETATM    6  C4  UNL     1     -22.583  17.705  11.743  1.00 20.00     0.011 C 
BRANCH   5   7
HETATM    7  C6  UNL     1     -22.739  16.899   9.343  1.00 20.00     0.119 C 
HETATM    8 CL8  UNL     1     -21.817  17.511   7.947  1.00 20.00    -0.130 Cl
ENDBRANCH   5   7
ENDBRANCH   1   5
TORSDOF 3
ENDMDL
