MODEL 1
REMARK VINA RESULT:      -3.9      0.000      0.000
REMARK  3 active torsions:
REMARK  status: ('A' for Active; 'I' for Inactive)
REMARK    1  A    between atoms: C1_1  and  C5_5 
REMARK    2  A    between atoms: C1_1  and  C7_7 
REMARK    3  A    between atoms: C6_6  and  C7_7 
ROOT
HETATM    1  C3  UNL     1     -24.316  16.230  11.243  1.00 20.00     0.023 C 
HETATM    2  C4  UNL     1     -22.603  17.776  12.165  1.00 20.00     0.023 C 
HETATM    3  C7  UNL     1     -23.932  17.715  11.390  1.00 20.00     0.014 C 
ENDROOT
BRANCH   3   4
HETATM    4  C1  UNL     1     -23.740  18.342   9.989  1.00 20.00     0.148 C 
HETATM    5  O8  UNL     1     -24.701  18.788   9.358  1.00 20.00    -0.296 OA
BRANCH   4   6
HETATM    6  C5  UNL     1     -22.332  18.380   9.421  1.00 20.00     0.193 C 
HETATM    7 CL9  UNL     1     -22.199  17.292   8.027  1.00 20.00    -0.123 Cl
ENDBRANCH   4   6
ENDBRANCH   3   4
BRANCH   3   8
HETATM    8  C6  UNL     1     -25.017  18.482  12.185  1.00 20.00     0.012 C 
HETATM    9  C2  UNL     1     -26.349  17.754  12.331  1.00 20.00     0.006 C 
ENDBRANCH   3   8
TORSDOF 3
ENDMDL
MODEL 2
REMARK VINA RESULT:      -3.8     18.087     18.717
REMARK  3 active torsions:
REMARK  status: ('A' for Active; 'I' for Inactive)
REMARK    1  A    between atoms: C1_1  and  C5_5 
REMARK    2  A    between atoms: C1_1  and  C7_7 
REMARK    3  A    between atoms: C6_6  and  C7_7 
ROOT
HETATM    1  C3  UNL     1     -32.962  15.372  -3.808  1.00 20.00     0.023 C 
HETATM    2  C4  UNL     1     -34.941  16.542  -4.751  1.00 20.00     0.023 C 
HETATM    3  C7  UNL     1     -34.502  15.427  -3.784  1.00 20.00     0.014 C 
ENDROOT
BRANCH   3   4
HETATM    4  C1  UNL     1     -35.077  14.073  -4.263  1.00 20.00     0.148 C 
HETATM    5  O8  UNL     1     -34.566  13.008  -3.909  1.00 20.00    -0.296 OA
BRANCH   4   6
HETATM    6  C5  UNL     1     -36.282  14.107  -5.186  1.00 20.00     0.193 C 
HETATM    7 CL9  UNL     1     -37.765  14.384  -4.255  1.00 20.00    -0.123 Cl
ENDBRANCH   4   6
ENDBRANCH   3   4
BRANCH   3   8
HETATM    8  C6  UNL     1     -35.013  15.762  -2.361  1.00 20.00     0.012 C 
HETATM    9  C2  UNL     1     -34.318  16.937  -1.683  1.00 20.00     0.006 C 
ENDBRANCH   3   8
TORSDOF 3
ENDMDL
MODEL 3
REMARK VINA RESULT:      -3.7     23.544     24.475
REMARK  3 active torsions:
REMARK  status: ('A' for Active; 'I' for Inactive)
REMARK    1  A    between atoms: C1_1  and  C5_5 
REMARK    2  A    between atoms: C1_1  and  C7_7 
REMARK    3  A    between atoms: C6_6  and  C7_7 
ROOT
HETATM    1  C3  UNL     1     -43.417   7.717  -1.313  1.00 20.00     0.023 C 
HETATM    2  C4  UNL     1     -42.910   6.888   0.974  1.00 20.00     0.023 C 
HETATM    3  C7  UNL     1     -42.313   7.108  -0.428  1.00 20.00     0.014 C 
ENDROOT
BRANCH   3   4
HETATM    4  C1  UNL     1     -41.868   5.748  -1.017  1.00 20.00     0.148 C 
HETATM    5  O8  UNL     1     -40.673   5.481  -1.162  1.00 20.00    -0.296 OA
BRANCH   4   6
HETATM    6  C5  UNL     1     -42.955   4.765  -1.416  1.00 20.00     0.193 C 
HETATM    7 CL9  UNL     1     -42.342   3.627  -2.631  1.00 20.00    -0.123 Cl
ENDBRANCH   4   6
ENDBRANCH   3   4
BRANCH   3   8
HETATM    8  C6  UNL     1     -41.107   8.074  -0.319  1.00 20.00     0.012 C 
HETATM    9  C2  UNL     1     -41.420   9.434   0.294  1.00 20.00     0.006 C 
ENDBRANCH   3   8
TORSDOF 3
ENDMDL
MODEL 4
REMARK VINA RESULT:      -3.7     23.797     24.720
REMARK  3 active torsions:
REMARK  status: ('A' for Active; 'I' for Inactive)
REMARK    1  A    between atoms: C1_1  and  C5_5 
REMARK    2  A    between atoms: C1_1  and  C7_7 
REMARK    3  A    between atoms: C6_6  and  C7_7 
ROOT
HETATM    1  C3  UNL     1     -40.987   5.589  -0.974  1.00 20.00     0.023 C 
HETATM    2  C4  UNL     1     -42.557   5.582   0.953  1.00 20.00     0.023 C 
HETATM    3  C7  UNL     1     -42.445   5.861  -0.557  1.00 20.00     0.014 C 
ENDROOT
BRANCH   3   4
HETATM    4  C1  UNL     1     -42.795   7.343  -0.834  1.00 20.00     0.148 C 
HETATM    5  O8  UNL     1     -43.064   7.728  -1.974  1.00 20.00    -0.296 OA
BRANCH   4   6
HETATM    6  C5  UNL     1     -42.787   8.301   0.345  1.00 20.00     0.193 C 
HETATM    7 CL9  UNL     1     -41.394   9.393   0.242  1.00 20.00    -0.123 Cl
ENDBRANCH   4   6
ENDBRANCH   3   4
BRANCH   3   8
HETATM    8  C6  UNL     1     -43.414   4.923  -1.318  1.00 20.00     0.012 C 
HETATM    9  C2  UNL     1     -42.748   3.955  -2.289  1.00 20.00     0.006 C 
ENDBRANCH   3   8
TORSDOF 3
ENDMDL
MODEL 5
REMARK VINA RESULT:      -3.7      2.393      3.334
REMARK  3 active torsions:
REMARK  status: ('A' for Active; 'I' for Inactive)
REMARK    1  A    between atoms: C1_1  and  C5_5 
REMARK    2  A    between atoms: C1_1  and  C7_7 
REMARK    3  A    between atoms: C6_6  and  C7_7 
ROOT
HETATM    1  C3  UNL     1     -24.276  16.314  10.557  1.00 20.00     0.023 C 
HETATM    2  C4  UNL     1     -22.884  18.248   9.850  1.00 20.00     0.023 C 
HETATM    3  C7  UNL     1     -23.914  17.774  10.893  1.00 20.00     0.014 C 
ENDROOT
BRANCH   3   4
HETATM    4  C1  UNL     1     -25.181  18.656  10.803  1.00 20.00     0.148 C 
HETATM    5  O8  UNL     1     -25.577  19.086   9.717  1.00 20.00    -0.296 OA
BRANCH   4   6
HETATM    6  C5  UNL     1     -25.911  18.974  12.096  1.00 20.00     0.193 C 
HETATM    7 CL9  UNL     1     -27.381  17.993  12.234  1.00 20.00    -0.123 Cl
ENDBRANCH   4   6
ENDBRANCH   3   4
BRANCH   3   8
HETATM    8  C6  UNL     1     -23.284  17.868  12.305  1.00 20.00     0.012 C 
HETATM    9  C2  UNL     1     -21.762  17.934  12.332  1.00 20.00     0.006 C 
ENDBRANCH   3   8
TORSDOF 3
ENDMDL
MODEL 6
REMARK VINA RESULT:      -3.6     18.116     18.685
REMARK  3 active torsions:
REMARK  status: ('A' for Active; 'I' for Inactive)
REMARK    1  A    between atoms: C1_1  and  C5_5 
REMARK    2  A    between atoms: C1_1  and  C7_7 
REMARK    3  A    between atoms: C6_6  and  C7_7 
ROOT
HETATM    1  C3  UNL     1     -35.051  14.048  -3.792  1.00 20.00     0.023 C 
HETATM    2  C4  UNL     1     -32.664  14.434  -4.367  1.00 20.00     0.023 C 
HETATM    3  C7  UNL     1     -33.998  15.141  -4.062  1.00 20.00     0.014 C 
ENDROOT
BRANCH   3   4
HETATM    4  C1  UNL     1     -34.426  15.982  -5.287  1.00 20.00     0.148 C 
HETATM    5  O8  UNL     1     -34.330  17.212  -5.275  1.00 20.00    -0.296 OA
BRANCH   4   6
HETATM    6  C5  UNL     1     -34.974  15.241  -6.494  1.00 20.00     0.193 C 
HETATM    7 CL9  UNL     1     -33.766  15.200  -7.792  1.00 20.00    -0.123 Cl
ENDBRANCH   4   6
ENDBRANCH   3   4
BRANCH   3   8
HETATM    8  C6  UNL     1     -33.818  16.044  -2.817  1.00 20.00     0.012 C 
HETATM    9  C2  UNL     1     -35.046  16.164  -1.921  1.00 20.00     0.006 C 
ENDBRANCH   3   8
TORSDOF 3
ENDMDL
MODEL 7
REMARK VINA RESULT:      -3.6     17.845     18.462
REMARK  3 active torsions:
REMARK  status: ('A' for Active; 'I' for Inactive)
REMARK    1  A    between atoms: C1_1  and  C5_5 
REMARK    2  A    between atoms: C1_1  and  C7_7 
REMARK    3  A    between atoms: C6_6  and  C7_7 
ROOT
HETATM    1  C3  UNL     1     -32.899  16.433  -3.256  1.00 20.00     0.023 C 
HETATM    2  C4  UNL     1     -34.903  17.207  -4.504  1.00 20.00     0.023 C 
HETATM    3  C7  UNL     1     -34.285  16.002  -3.772  1.00 20.00     0.014 C 
ENDROOT
BRANCH   3   4
HETATM    4  C1  UNL     1     -34.126  14.824  -4.763  1.00 20.00     0.148 C 
HETATM    5  O8  UNL     1     -33.410  13.859  -4.489  1.00 20.00    -0.296 OA
BRANCH   4   6
HETATM    6  C5  UNL     1     -34.876  14.907  -6.081  1.00 20.00     0.193 C 
HETATM    7 CL9  UNL     1     -33.738  15.110  -7.426  1.00 20.00    -0.123 Cl
ENDBRANCH   4   6
ENDBRANCH   3   4
BRANCH   3   8
HETATM    8  C6  UNL     1     -35.205  15.600  -2.593  1.00 20.00     0.012 C 
HETATM    9  C2  UNL     1     -35.162  16.535  -1.390  1.00 20.00     0.006 C 
ENDBRANCH   3   8
TORSDOF 3
ENDMDL
MODEL 8
REMARK VINA RESULT:      -3.6     18.396     19.022
REMARK  3 active torsions:
REMARK  status: ('A' for Active; 'I' for Inactive)
REMARK    1  A    between atoms: C1_1  and  C5_5 
REMARK    2  A    between atoms: C1_1  and  C7_7 
REMARK    3  A    between atoms: C6_6  and  C7_7 
ROOT
HETATM    1  C3  UNL     1     -34.943  15.736  -2.399  1.00 20.00     0.023 C 
HETATM    2  C4  UNL     1     -32.963  15.324  -3.844  1.00 20.00     0.023 C 
HETATM    3  C7  UNL     1     -34.500  15.420  -3.841  1.00 20.00     0.014 C 
ENDROOT
BRANCH   3   4
HETATM    4  C1  UNL     1     -35.101  14.064  -4.282  1.00 20.00     0.148 C 
HETATM    5  O8  UNL     1     -34.602  13.000  -3.910  1.00 20.00    -0.296 OA
BRANCH   4   6
HETATM    6  C5  UNL     1     -36.317  14.095  -5.191  1.00 20.00     0.193 C 
HETATM    7 CL9  UNL     1     -37.786  14.402  -4.247  1.00 20.00    -0.123 Cl
ENDBRANCH   4   6
ENDBRANCH   3   4
BRANCH   3   8
HETATM    8  C6  UNL     1     -34.938  16.549  -4.806  1.00 20.00     0.012 C 
HETATM    9  C2  UNL     1     -35.719  17.687  -4.159  1.00 20.00     0.006 C 
ENDBRANCH   3   8
TORSDOF 3
ENDMDL
MODEL 9
REMARK VINA RESULT:      -3.6     18.608     19.289
REMARK  3 active torsions:
REMARK  status: ('A' for Active; 'I' for Inactive)
REMARK    1  A    between atoms: C1_1  and  C5_5 
REMARK    2  A    between atoms: C1_1  and  C7_7 
REMARK    3  A    between atoms: C6_6  and  C7_7 
ROOT
HETATM    1  C3  UNL     1     -35.040  16.699  -5.637  1.00 20.00     0.023 C 
HETATM    2  C4  UNL     1     -33.855  15.075  -7.098  1.00 20.00     0.023 C 
HETATM    3  C7  UNL     1     -34.617  15.223  -5.768  1.00 20.00     0.014 C 
ENDROOT
BRANCH   3   4
HETATM    4  C1  UNL     1     -33.683  14.845  -4.594  1.00 20.00     0.148 C 
HETATM    5  O8  UNL     1     -33.261  13.693  -4.467  1.00 20.00    -0.296 OA
BRANCH   4   6
HETATM    6  C5  UNL     1     -33.316  15.938  -3.606  1.00 20.00     0.193 C 
HETATM    7 CL9  UNL     1     -34.440  15.933  -2.235  1.00 20.00    -0.123 Cl
ENDBRANCH   4   6
ENDBRANCH   3   4
BRANCH   3   8
HETATM    8  C6  UNL     1     -35.861  14.300  -5.793  1.00 20.00     0.012 C 
HETATM    9  C2  UNL     1     -36.698  14.307  -4.519  1.00 20.00     0.006 C 
ENDBRANCH   3   8
TORSDOF 3
ENDMDL
