MODEL 1
REMARK VINA RESULT:      -3.7      0.000      0.000
REMARK  4 active torsions:
REMARK  status: ('A' for Active; 'I' for Inactive)
REMARK    1  A    between atoms: C1_1  and  C6_6 
REMARK    2  A    between atoms: C2_2  and  C7_7 
REMARK    3  A    between atoms: C6_6  and  S9_9 
REMARK    4  A    between atoms: C8_8  and  S9_9 
ROOT
HETATM    1  C6  UNL     1     -34.867  15.902  -2.289  1.00 20.00     0.101 C 
ENDROOT
BRANCH   1   2
HETATM    2  C1  UNL     1     -34.125  17.086  -1.755  1.00 20.00    -0.020 C 
HETATM    3  C2  UNL     1     -32.921  17.474  -2.203  1.00 20.00    -0.015 C 
BRANCH   3   4
HETATM    4  C7  UNL     1     -32.183  18.659  -1.673  1.00 20.00     0.141 C 
HETATM    5 CL10 UNL     1     -31.047  18.148  -0.406  1.00 20.00    -0.126 Cl
ENDBRANCH   3   4
ENDBRANCH   1   2
BRANCH   1   6
HETATM    6  S9  UNL     1     -35.579  16.290  -3.901  1.00 20.00    -0.156 SA
BRANCH   6   7
HETATM    7  C8  UNL     1     -35.035  14.775  -4.782  1.00 20.00    -0.003 C 
HETATM    8  C3  UNL     1     -34.989  15.071  -6.284  1.00 20.00     0.026 C 
HETATM    9  C4  UNL     1     -33.643  14.393  -4.273  1.00 20.00     0.026 C 
HETATM   10  C5  UNL     1     -36.035  13.652  -4.490  1.00 20.00     0.026 C 
ENDBRANCH   6   7
ENDBRANCH   1   6
TORSDOF 4
ENDMDL
MODEL 2
REMARK VINA RESULT:      -3.6      1.440      2.108
REMARK  4 active torsions:
REMARK  status: ('A' for Active; 'I' for Inactive)
REMARK    1  A    between atoms: C1_1  and  C6_6 
REMARK    2  A    between atoms: C2_2  and  C7_7 
REMARK    3  A    between atoms: C6_6  and  S9_9 
REMARK    4  A    between atoms: C8_8  and  S9_9 
ROOT
HETATM    1  C6  UNL     1     -34.876  14.757  -3.428  1.00 20.00     0.101 C 
ENDROOT
BRANCH   1   2
HETATM    2  C1  UNL     1     -34.737  15.849  -2.416  1.00 20.00    -0.020 C 
HETATM    3  C2  UNL     1     -33.668  16.657  -2.334  1.00 20.00    -0.015 C 
BRANCH   3   4
HETATM    4  C7  UNL     1     -33.533  17.751  -1.328  1.00 20.00     0.141 C 
HETATM    5 CL10 UNL     1     -31.820  18.182  -1.128  1.00 20.00    -0.126 Cl
ENDBRANCH   3   4
ENDBRANCH   1   2
BRANCH   1   6
HETATM    6  S9  UNL     1     -33.529  14.843  -4.626  1.00 20.00    -0.156 SA
BRANCH   6   7
HETATM    7  C8  UNL     1     -34.518  15.393  -6.071  1.00 20.00    -0.003 C 
HETATM    8  C3  UNL     1     -33.744  15.063  -7.350  1.00 20.00     0.026 C 
HETATM    9  C4  UNL     1     -35.856  14.649  -6.052  1.00 20.00     0.026 C 
HETATM   10  C5  UNL     1     -34.748  16.904  -5.960  1.00 20.00     0.026 C 
ENDBRANCH   6   7
ENDBRANCH   1   6
TORSDOF 4
ENDMDL
MODEL 3
REMARK VINA RESULT:      -3.6     16.415     17.299
REMARK  4 active torsions:
REMARK  status: ('A' for Active; 'I' for Inactive)
REMARK    1  A    between atoms: C1_1  and  C6_6 
REMARK    2  A    between atoms: C2_2  and  C7_7 
REMARK    3  A    between atoms: C6_6  and  S9_9 
REMARK    4  A    between atoms: C8_8  and  S9_9 
ROOT
HETATM    1  C6  UNL     1     -25.577  18.556  12.115  1.00 20.00     0.101 C 
ENDROOT
BRANCH   1   2
HETATM    2  C1  UNL     1     -27.059  18.731  12.018  1.00 20.00    -0.020 C 
HETATM    3  C2  UNL     1     -27.945  17.773  12.332  1.00 20.00    -0.015 C 
BRANCH   3   4
HETATM    4  C7  UNL     1     -29.424  17.950  12.240  1.00 20.00     0.141 C 
HETATM    5 CL10 UNL     1     -29.865  18.531  10.620  1.00 20.00    -0.126 Cl
ENDBRANCH   3   4
ENDBRANCH   1   2
BRANCH   1   6
HETATM    6  S9  UNL     1     -24.852  18.457  10.466  1.00 20.00    -0.156 SA
BRANCH   6   7
HETATM    7  C8  UNL     1     -23.624  17.139  10.814  1.00 20.00    -0.003 C 
HETATM    8  C3  UNL     1     -22.830  16.858   9.536  1.00 20.00     0.026 C 
HETATM    9  C4  UNL     1     -22.690  17.630  11.924  1.00 20.00     0.026 C 
HETATM   10  C5  UNL     1     -24.371  15.880  11.266  1.00 20.00     0.026 C 
ENDBRANCH   6   7
ENDBRANCH   1   6
TORSDOF 4
ENDMDL
MODEL 4
REMARK VINA RESULT:      -3.5      1.523      2.040
REMARK  4 active torsions:
REMARK  status: ('A' for Active; 'I' for Inactive)
REMARK    1  A    between atoms: C1_1  and  C6_6 
REMARK    2  A    between atoms: C2_2  and  C7_7 
REMARK    3  A    between atoms: C6_6  and  S9_9 
REMARK    4  A    between atoms: C8_8  and  S9_9 
ROOT
HETATM    1  C6  UNL     1     -33.172  16.801  -3.141  1.00 20.00     0.101 C 
ENDROOT
BRANCH   1   2
HETATM    2  C1  UNL     1     -33.723  17.148  -1.795  1.00 20.00    -0.020 C 
HETATM    3  C2  UNL     1     -34.948  16.796  -1.378  1.00 20.00    -0.015 C 
BRANCH   3   4
HETATM    4  C7  UNL     1     -35.495  17.137  -0.031  1.00 20.00     0.141 C 
HETATM    5 CL10 UNL     1     -34.252  17.962   0.935  1.00 20.00    -0.126 Cl
ENDBRANCH   3   4
ENDBRANCH   1   2
BRANCH   1   6
HETATM    6  S9  UNL     1     -34.495  16.782  -4.368  1.00 20.00    -0.156 SA
BRANCH   6   7
HETATM    7  C8  UNL     1     -34.340  15.024  -4.872  1.00 20.00    -0.003 C 
HETATM    8  C3  UNL     1     -34.445  14.940  -6.397  1.00 20.00     0.026 C 
HETATM    9  C4  UNL     1     -32.977  14.506  -4.404  1.00 20.00     0.026 C 
HETATM   10  C5  UNL     1     -35.468  14.224  -4.214  1.00 20.00     0.026 C 
ENDBRANCH   6   7
ENDBRANCH   1   6
TORSDOF 4
ENDMDL
MODEL 5
REMARK VINA RESULT:      -3.5      1.276      1.473
REMARK  4 active torsions:
REMARK  status: ('A' for Active; 'I' for Inactive)
REMARK    1  A    between atoms: C1_1  and  C6_6 
REMARK    2  A    between atoms: C2_2  and  C7_7 
REMARK    3  A    between atoms: C6_6  and  S9_9 
REMARK    4  A    between atoms: C8_8  and  S9_9 
ROOT
HETATM    1  C6  UNL     1     -33.135  16.846  -2.707  1.00 20.00     0.101 C 
ENDROOT
BRANCH   1   2
HETATM    2  C1  UNL     1     -32.990  17.756  -1.529  1.00 20.00    -0.020 C 
HETATM    3  C2  UNL     1     -31.809  18.201  -1.072  1.00 20.00    -0.015 C 
BRANCH   3   4
HETATM    4  C7  UNL     1     -31.665  19.114   0.100  1.00 20.00     0.141 C 
HETATM    5 CL10 UNL     1     -30.444  18.473   1.221  1.00 20.00    -0.126 Cl
ENDBRANCH   3   4
ENDBRANCH   1   2
BRANCH   1   6
HETATM    6  S9  UNL     1     -34.651  15.879  -2.564  1.00 20.00    -0.156 SA
BRANCH   6   7
HETATM    7  C8  UNL     1     -34.560  15.033  -4.190  1.00 20.00    -0.003 C 
HETATM    8  C3  UNL     1     -34.919  16.039  -5.287  1.00 20.00     0.026 C 
HETATM    9  C4  UNL     1     -33.131  14.520  -4.387  1.00 20.00     0.026 C 
HETATM   10  C5  UNL     1     -35.550  13.865  -4.191  1.00 20.00     0.026 C 
ENDBRANCH   6   7
ENDBRANCH   1   6
TORSDOF 4
ENDMDL
MODEL 6
REMARK VINA RESULT:      -3.5      1.134      1.573
REMARK  4 active torsions:
REMARK  status: ('A' for Active; 'I' for Inactive)
REMARK    1  A    between atoms: C1_1  and  C6_6 
REMARK    2  A    between atoms: C2_2  and  C7_7 
REMARK    3  A    between atoms: C6_6  and  S9_9 
REMARK    4  A    between atoms: C8_8  and  S9_9 
ROOT
HETATM    1  C6  UNL     1     -34.056  15.608  -3.026  1.00 20.00     0.101 C 
ENDROOT
BRANCH   1   2
HETATM    2  C1  UNL     1     -33.083  16.722  -2.807  1.00 20.00    -0.020 C 
HETATM    3  C2  UNL     1     -33.145  17.571  -1.770  1.00 20.00    -0.015 C 
BRANCH   3   4
HETATM    4  C7  UNL     1     -32.170  18.679  -1.548  1.00 20.00     0.141 C 
HETATM    5 CL10 UNL     1     -30.988  18.206  -0.307  1.00 20.00    -0.126 Cl
ENDBRANCH   3   4
ENDBRANCH   1   2
BRANCH   1   6
HETATM    6  S9  UNL     1     -33.807  14.876  -4.657  1.00 20.00    -0.156 SA
BRANCH   6   7
HETATM    7  C8  UNL     1     -35.561  14.878  -5.199  1.00 20.00    -0.003 C 
HETATM    8  C3  UNL     1     -35.602  14.761  -6.725  1.00 20.00     0.026 C 
HETATM    9  C4  UNL     1     -36.267  13.682  -4.555  1.00 20.00     0.026 C 
HETATM   10  C5  UNL     1     -36.213  16.188  -4.746  1.00 20.00     0.026 C 
ENDBRANCH   6   7
ENDBRANCH   1   6
TORSDOF 4
ENDMDL
MODEL 7
REMARK VINA RESULT:      -3.5      1.527      2.477
REMARK  4 active torsions:
REMARK  status: ('A' for Active; 'I' for Inactive)
REMARK    1  A    between atoms: C1_1  and  C6_6 
REMARK    2  A    between atoms: C2_2  and  C7_7 
REMARK    3  A    between atoms: C6_6  and  S9_9 
REMARK    4  A    between atoms: C8_8  and  S9_9 
ROOT
HETATM    1  C6  UNL     1     -33.174  16.793  -3.272  1.00 20.00     0.101 C 
ENDROOT
BRANCH   1   2
HETATM    2  C1  UNL     1     -33.753  17.196  -1.953  1.00 20.00    -0.020 C 
HETATM    3  C2  UNL     1     -34.900  16.704  -1.462  1.00 20.00    -0.015 C 
BRANCH   3   4
HETATM    4  C7  UNL     1     -35.475  17.102  -0.143  1.00 20.00     0.141 C 
HETATM    5 CL10 UNL     1     -34.242  17.939   0.826  1.00 20.00    -0.126 Cl
ENDBRANCH   3   4
ENDBRANCH   1   2
BRANCH   1   6
HETATM    6  S9  UNL     1     -34.453  16.805  -4.544  1.00 20.00    -0.156 SA
BRANCH   6   7
HETATM    7  C8  UNL     1     -34.281  15.061  -5.086  1.00 20.00    -0.003 C 
HETATM    8  C3  UNL     1     -33.042  14.459  -4.417  1.00 20.00     0.026 C 
HETATM    9  C4  UNL     1     -35.538  14.297  -4.661  1.00 20.00     0.026 C 
HETATM   10  C5  UNL     1     -34.131  15.033  -6.610  1.00 20.00     0.026 C 
ENDBRANCH   6   7
ENDBRANCH   1   6
TORSDOF 4
ENDMDL
MODEL 8
REMARK VINA RESULT:      -3.4      1.591      2.345
REMARK  4 active torsions:
REMARK  status: ('A' for Active; 'I' for Inactive)
REMARK    1  A    between atoms: C1_1  and  C6_6 
REMARK    2  A    between atoms: C2_2  and  C7_7 
REMARK    3  A    between atoms: C6_6  and  S9_9 
REMARK    4  A    between atoms: C8_8  and  S9_9 
ROOT
HETATM    1  C6  UNL     1     -33.624  16.246  -3.272  1.00 20.00     0.101 C 
ENDROOT
BRANCH   1   2
HETATM    2  C1  UNL     1     -33.970  16.842  -1.945  1.00 20.00    -0.020 C 
HETATM    3  C2  UNL     1     -35.127  16.613  -1.305  1.00 20.00    -0.015 C 
BRANCH   3   4
HETATM    4  C7  UNL     1     -35.469  17.204   0.023  1.00 20.00     0.141 C 
HETATM    5 CL10 UNL     1     -34.059  18.059   0.687  1.00 20.00    -0.126 Cl
ENDBRANCH   3   4
ENDBRANCH   1   2
BRANCH   1   6
HETATM    6  S9  UNL     1     -34.882  16.671  -4.493  1.00 20.00    -0.156 SA
BRANCH   6   7
HETATM    7  C8  UNL     1     -35.571  14.988  -4.735  1.00 20.00    -0.003 C 
HETATM    8  C3  UNL     1     -36.992  14.953  -4.166  1.00 20.00     0.026 C 
HETATM    9  C4  UNL     1     -35.593  14.685  -6.236  1.00 20.00     0.026 C 
HETATM   10  C5  UNL     1     -34.678  13.982  -4.003  1.00 20.00     0.026 C 
ENDBRANCH   6   7
ENDBRANCH   1   6
TORSDOF 4
ENDMDL
MODEL 9
REMARK VINA RESULT:      -3.4     12.621     14.928
REMARK  4 active torsions:
REMARK  status: ('A' for Active; 'I' for Inactive)
REMARK    1  A    between atoms: C1_1  and  C6_6 
REMARK    2  A    between atoms: C2_2  and  C7_7 
REMARK    3  A    between atoms: C6_6  and  S9_9 
REMARK    4  A    between atoms: C8_8  and  S9_9 
ROOT
HETATM    1  C6  UNL     1     -43.397   4.338  -1.243  1.00 20.00     0.101 C 
ENDROOT
BRANCH   1   2
HETATM    2  C1  UNL     1     -43.320   3.522  -2.494  1.00 20.00    -0.020 C 
HETATM    3  C2  UNL     1     -42.175   3.032  -2.994  1.00 20.00    -0.015 C 
BRANCH   3   4
HETATM    4  C7  UNL     1     -42.100   2.213  -4.239  1.00 20.00     0.141 C 
HETATM    5 CL10 UNL     1     -42.749   3.136  -5.612  1.00 20.00    -0.126 Cl
ENDBRANCH   3   4
ENDBRANCH   1   2
BRANCH   1   6
HETATM    6  S9  UNL     1     -43.403   6.097  -1.646  1.00 20.00    -0.156 SA
BRANCH   6   7
HETATM    7  C8  UNL     1     -42.004   6.602  -0.571  1.00 20.00    -0.003 C 
HETATM    8  C3  UNL     1     -40.823   5.663  -0.829  1.00 20.00     0.026 C 
HETATM    9  C4  UNL     1     -41.623   8.043  -0.920  1.00 20.00     0.026 C 
HETATM   10  C5  UNL     1     -42.451   6.509   0.891  1.00 20.00     0.026 C 
ENDBRANCH   6   7
ENDBRANCH   1   6
TORSDOF 4
ENDMDL
