MODEL 1
REMARK VINA RESULT:      -4.4      0.000      0.000
REMARK  2 active torsions:
REMARK  status: ('A' for Active; 'I' for Inactive)
REMARK    1  A    between atoms: C1_1  and  C5_5 
REMARK    2  A    between atoms: C1_1  and  C6_6 
ROOT
HETATM    1  C2  UNL     1     -33.777   5.163   3.374  1.00 20.00     0.023 C 
HETATM    2  C3  UNL     1     -34.880   4.621   4.266  1.00 20.00     0.075 C 
HETATM    3  C4  UNL     1     -33.602   6.804   5.172  1.00 20.00     0.086 C 
HETATM    4  C5  UNL     1     -33.684   6.656   3.660  1.00 20.00     0.066 C 
HETATM    5  S8  UNL     1     -34.695   5.514   5.833  1.00 20.00    -0.168 SA
ENDROOT
BRANCH   4   6
HETATM    6  C1  UNL     1     -32.475   7.238   2.999  1.00 20.00     0.145 C 
HETATM    7  O7  UNL     1     -31.508   7.599   3.667  1.00 20.00    -0.296 OA
BRANCH   6   8
HETATM    8  C6  UNL     1     -32.539   7.347   1.492  1.00 20.00     0.193 C 
HETATM    9 CL9  UNL     1     -32.914   9.004   0.998  1.00 20.00    -0.123 Cl
ENDBRANCH   6   8
ENDBRANCH   4   6
TORSDOF 2
ENDMDL
MODEL 2
REMARK VINA RESULT:      -4.0     11.470     11.995
REMARK  2 active torsions:
REMARK  status: ('A' for Active; 'I' for Inactive)
REMARK    1  A    between atoms: C1_1  and  C5_5 
REMARK    2  A    between atoms: C1_1  and  C6_6 
ROOT
HETATM    1  C2  UNL     1     -34.630  15.192  -3.063  1.00 20.00     0.023 C 
HETATM    2  C3  UNL     1     -34.817  16.330  -2.074  1.00 20.00     0.075 C 
HETATM    3  C4  UNL     1     -36.588  16.225  -4.092  1.00 20.00     0.086 C 
HETATM    4  C5  UNL     1     -36.007  14.892  -3.642  1.00 20.00     0.066 C 
HETATM    5  S8  UNL     1     -36.038  17.425  -2.847  1.00 20.00    -0.168 SA
ENDROOT
BRANCH   4   6
HETATM    6  C1  UNL     1     -35.892  13.942  -4.792  1.00 20.00     0.145 C 
HETATM    7  O7  UNL     1     -35.891  12.727  -4.603  1.00 20.00    -0.296 OA
BRANCH   6   8
HETATM    8  C6  UNL     1     -35.777  14.578  -6.159  1.00 20.00     0.193 C 
HETATM    9 CL9  UNL     1     -34.084  14.908  -6.556  1.00 20.00    -0.123 Cl
ENDBRANCH   6   8
ENDBRANCH   4   6
TORSDOF 2
ENDMDL
MODEL 3
REMARK VINA RESULT:      -3.9     11.204     11.728
REMARK  2 active torsions:
REMARK  status: ('A' for Active; 'I' for Inactive)
REMARK    1  A    between atoms: C1_1  and  C5_5 
REMARK    2  A    between atoms: C1_1  and  C6_6 
ROOT
HETATM    1  C2  UNL     1     -33.770  15.176  -4.385  1.00 20.00     0.023 C 
HETATM    2  C3  UNL     1     -32.883  15.996  -3.464  1.00 20.00     0.075 C 
HETATM    3  C4  UNL     1     -35.439  15.709  -2.686  1.00 20.00     0.086 C 
HETATM    4  C5  UNL     1     -34.859  14.569  -3.510  1.00 20.00     0.066 C 
HETATM    5  S8  UNL     1     -34.023  16.773  -2.288  1.00 20.00    -0.168 SA
ENDROOT
BRANCH   4   6
HETATM    6  C1  UNL     1     -35.913  13.931  -4.359  1.00 20.00     0.145 C 
HETATM    7  O7  UNL     1     -35.911  12.716  -4.553  1.00 20.00    -0.296 OA
BRANCH   6   8
HETATM    8  C6  UNL     1     -36.943  14.871  -4.942  1.00 20.00     0.193 C 
HETATM    9 CL9  UNL     1     -38.536  14.573  -4.231  1.00 20.00    -0.123 Cl
ENDBRANCH   6   8
ENDBRANCH   4   6
TORSDOF 2
ENDMDL
MODEL 4
REMARK VINA RESULT:      -3.9     11.311     11.834
REMARK  2 active torsions:
REMARK  status: ('A' for Active; 'I' for Inactive)
REMARK    1  A    between atoms: C1_1  and  C5_5 
REMARK    2  A    between atoms: C1_1  and  C6_6 
ROOT
HETATM    1  C2  UNL     1     -33.660  15.305  -4.251  1.00 20.00     0.023 C 
HETATM    2  C3  UNL     1     -32.936  16.155  -3.221  1.00 20.00     0.075 C 
HETATM    3  C4  UNL     1     -35.551  15.733  -2.767  1.00 20.00     0.086 C 
HETATM    4  C5  UNL     1     -34.817  14.633  -3.522  1.00 20.00     0.066 C 
HETATM    5  S8  UNL     1     -34.250  16.860  -2.190  1.00 20.00    -0.168 SA
ENDROOT
BRANCH   4   6
HETATM    6  C1  UNL     1     -35.725  13.956  -4.498  1.00 20.00     0.145 C 
HETATM    7  O7  UNL     1     -35.854  12.733  -4.489  1.00 20.00    -0.296 OA
BRANCH   6   8
HETATM    8  C6  UNL     1     -36.443  14.866  -5.468  1.00 20.00     0.193 C 
HETATM    9 CL9  UNL     1     -35.743  14.734  -7.088  1.00 20.00    -0.123 Cl
ENDBRANCH   6   8
ENDBRANCH   4   6
TORSDOF 2
ENDMDL
MODEL 5
REMARK VINA RESULT:      -3.8     16.405     16.787
REMARK  2 active torsions:
REMARK  status: ('A' for Active; 'I' for Inactive)
REMARK    1  A    between atoms: C1_1  and  C5_5 
REMARK    2  A    between atoms: C1_1  and  C6_6 
ROOT
HETATM    1  C2  UNL     1     -22.306  17.205   9.291  1.00 20.00     0.023 C 
HETATM    2  C3  UNL     1     -22.478  17.756   7.886  1.00 20.00     0.075 C 
HETATM    3  C4  UNL     1     -24.218  18.659   9.724  1.00 20.00     0.086 C 
HETATM    4  C5  UNL     1     -22.841  18.268  10.242  1.00 20.00     0.066 C 
HETATM    5  S8  UNL     1     -24.072  18.620   7.915  1.00 20.00    -0.168 SA
ENDROOT
BRANCH   4   6
HETATM    6  C1  UNL     1     -22.926  17.726  11.634  1.00 20.00     0.145 C 
HETATM    7  O7  UNL     1     -21.916  17.625  12.329  1.00 20.00    -0.296 OA
BRANCH   6   8
HETATM    8  C6  UNL     1     -24.307  17.324  12.098  1.00 20.00     0.193 C 
HETATM    9 CL9  UNL     1     -24.614  15.617  11.746  1.00 20.00    -0.123 Cl
ENDBRANCH   6   8
ENDBRANCH   4   6
TORSDOF 2
ENDMDL
MODEL 6
REMARK VINA RESULT:      -3.7     11.962     13.120
REMARK  2 active torsions:
REMARK  status: ('A' for Active; 'I' for Inactive)
REMARK    1  A    between atoms: C1_1  and  C5_5 
REMARK    2  A    between atoms: C1_1  and  C6_6 
ROOT
HETATM    1  C2  UNL     1     -36.547  15.782  -6.402  1.00 20.00     0.023 C 
HETATM    2  C3  UNL     1     -36.076  16.380  -7.717  1.00 20.00     0.075 C 
HETATM    3  C4  UNL     1     -34.260  14.927  -6.370  1.00 20.00     0.086 C 
HETATM    4  C5  UNL     1     -35.716  14.526  -6.176  1.00 20.00     0.066 C 
HETATM    5  S8  UNL     1     -34.280  16.135  -7.725  1.00 20.00    -0.168 SA
ENDROOT
BRANCH   4   6
HETATM    6  C1  UNL     1     -35.945  13.991  -4.798  1.00 20.00     0.145 C 
HETATM    7  O7  UNL     1     -35.916  12.781  -4.583  1.00 20.00    -0.296 OA
BRANCH   6   8
HETATM    8  C6  UNL     1     -36.209  15.026  -3.728  1.00 20.00     0.193 C 
HETATM    9 CL9  UNL     1     -34.736  15.366  -2.808  1.00 20.00    -0.123 Cl
ENDBRANCH   6   8
ENDBRANCH   4   6
TORSDOF 2
ENDMDL
MODEL 7
REMARK VINA RESULT:      -3.5     11.469     11.902
REMARK  2 active torsions:
REMARK  status: ('A' for Active; 'I' for Inactive)
REMARK    1  A    between atoms: C1_1  and  C5_5 
REMARK    2  A    between atoms: C1_1  and  C6_6 
ROOT
HETATM    1  C2  UNL     1     -35.276  15.365  -2.646  1.00 20.00     0.023 C 
HETATM    2  C3  UNL     1     -34.097  16.309  -2.491  1.00 20.00     0.075 C 
HETATM    3  C4  UNL     1     -34.039  14.700  -4.642  1.00 20.00     0.086 C 
HETATM    4  C5  UNL     1     -35.420  15.093  -4.138  1.00 20.00     0.066 C 
HETATM    5  S8  UNL     1     -32.881  15.742  -3.710  1.00 20.00    -0.168 SA
ENDROOT
BRANCH   4   6
HETATM    6  C1  UNL     1     -36.409  13.996  -4.374  1.00 20.00     0.145 C 
HETATM    7  O7  UNL     1     -36.030  12.844  -4.583  1.00 20.00    -0.296 OA
BRANCH   6   8
HETATM    8  C6  UNL     1     -37.864  14.405  -4.340  1.00 20.00     0.193 C 
HETATM    9 CL9  UNL     1     -38.095  15.965  -5.143  1.00 20.00    -0.123 Cl
ENDBRANCH   6   8
ENDBRANCH   4   6
TORSDOF 2
ENDMDL
MODEL 8
REMARK VINA RESULT:      -3.5     11.458     12.019
REMARK  2 active torsions:
REMARK  status: ('A' for Active; 'I' for Inactive)
REMARK    1  A    between atoms: C1_1  and  C5_5 
REMARK    2  A    between atoms: C1_1  and  C6_6 
ROOT
HETATM    1  C2  UNL     1     -35.048  15.474  -2.592  1.00 20.00     0.023 C 
HETATM    2  C3  UNL     1     -35.057  16.626  -1.602  1.00 20.00     0.075 C 
HETATM    3  C4  UNL     1     -33.053  16.631  -3.392  1.00 20.00     0.086 C 
HETATM    4  C5  UNL     1     -34.355  15.988  -3.848  1.00 20.00     0.066 C 
HETATM    5  S8  UNL     1     -33.450  17.438  -1.816  1.00 20.00    -0.168 SA
ENDROOT
BRANCH   4   6
HETATM    6  C1  UNL     1     -34.093  14.861  -4.796  1.00 20.00     0.145 C 
HETATM    7  O7  UNL     1     -33.308  13.962  -4.499  1.00 20.00    -0.296 OA
BRANCH   6   8
HETATM    8  C6  UNL     1     -34.844  14.918  -6.107  1.00 20.00     0.193 C 
HETATM    9 CL9  UNL     1     -33.723  15.106  -7.464  1.00 20.00    -0.123 Cl
ENDBRANCH   6   8
ENDBRANCH   4   6
TORSDOF 2
ENDMDL
MODEL 9
REMARK VINA RESULT:      -3.4     11.583     11.886
REMARK  2 active torsions:
REMARK  status: ('A' for Active; 'I' for Inactive)
REMARK    1  A    between atoms: C1_1  and  C5_5 
REMARK    2  A    between atoms: C1_1  and  C6_6 
ROOT
HETATM    1  C2  UNL     1     -35.956  14.695  -3.642  1.00 20.00     0.023 C 
HETATM    2  C3  UNL     1     -36.391  13.913  -4.869  1.00 20.00     0.075 C 
HETATM    3  C4  UNL     1     -34.349  15.622  -5.228  1.00 20.00     0.086 C 
HETATM    4  C5  UNL     1     -34.481  15.020  -3.836  1.00 20.00     0.066 C 
HETATM    5  S8  UNL     1     -35.528  14.701  -6.255  1.00 20.00    -0.168 SA
ENDROOT
BRANCH   4   6
HETATM    6  C1  UNL     1     -34.017  15.983  -2.789  1.00 20.00     0.145 C 
HETATM    7  O7  UNL     1     -32.877  16.444  -2.823  1.00 20.00    -0.296 OA
BRANCH   6   8
HETATM    8  C6  UNL     1     -35.030  16.328  -1.721  1.00 20.00     0.193 C 
HETATM    9 CL9  UNL     1     -34.397  17.578  -0.639  1.00 20.00    -0.123 Cl
ENDBRANCH   6   8
ENDBRANCH   4   6
TORSDOF 2
ENDMDL
