MODEL 1
REMARK VINA RESULT:      -4.9      0.000      0.000
REMARK  4 active torsions:
REMARK  status: ('A' for Active; 'I' for Inactive)
REMARK    1  A    between atoms: C4_4  and  C5_5 
REMARK    2  A    between atoms: C5_5  and  C6_6 
REMARK    3  A    between atoms: C6_6  and  C8_8 
REMARK    4  A    between atoms: C7_7  and  C8_8 
ROOT
HETATM    1  C1  UNL     1     -32.571   8.444   0.782  1.00 20.00     0.012 C 
HETATM    2  C2  UNL     1     -32.574   7.633   1.668  1.00 20.00    -0.117 C 
HETATM    3  C4  UNL     1     -32.576   6.644   2.754  1.00 20.00     0.093 C 
ENDROOT
BRANCH   3   4
HETATM    4  C5  UNL     1     -33.553   5.495   2.491  1.00 20.00     0.012 C 
BRANCH   4   5
HETATM    5  C6  UNL     1     -33.634   4.505   3.659  1.00 20.00     0.006 C 
BRANCH   5   6
HETATM    6  C8  UNL     1     -34.862   4.723   4.567  1.00 20.00    -0.005 C 
HETATM    7  C3  UNL     1     -35.834   5.701   3.896  1.00 20.00     0.011 C 
BRANCH   6   8
HETATM    8  C7  UNL     1     -34.528   5.166   6.000  1.00 20.00     0.119 C 
HETATM    9 CL9  UNL     1     -33.948   6.846   6.111  1.00 20.00    -0.130 Cl
ENDBRANCH   6   8
ENDBRANCH   5   6
ENDBRANCH   4   5
ENDBRANCH   3   4
TORSDOF 4
ENDMDL
MODEL 2
REMARK VINA RESULT:      -4.7      2.029      4.010
REMARK  4 active torsions:
REMARK  status: ('A' for Active; 'I' for Inactive)
REMARK    1  A    between atoms: C4_4  and  C5_5 
REMARK    2  A    between atoms: C5_5  and  C6_6 
REMARK    3  A    between atoms: C6_6  and  C8_8 
REMARK    4  A    between atoms: C7_7  and  C8_8 
ROOT
HETATM    1  C1  UNL     1     -33.644   7.407   6.212  1.00 20.00     0.012 C 
HETATM    2  C2  UNL     1     -34.166   6.335   6.071  1.00 20.00    -0.117 C 
HETATM    3  C4  UNL     1     -34.807   5.023   5.901  1.00 20.00     0.093 C 
ENDROOT
BRANCH   3   4
HETATM    4  C5  UNL     1     -34.812   4.565   4.441  1.00 20.00     0.012 C 
BRANCH   4   5
HETATM    5  C6  UNL     1     -34.807   5.737   3.451  1.00 20.00     0.006 C 
BRANCH   5   6
HETATM    6  C8  UNL     1     -33.616   5.710   2.470  1.00 20.00    -0.005 C 
HETATM    7  C3  UNL     1     -32.936   4.337   2.521  1.00 20.00     0.011 C 
BRANCH   6   8
HETATM    8  C7  UNL     1     -32.598   6.843   2.668  1.00 20.00     0.119 C 
HETATM    9 CL9  UNL     1     -32.586   8.030   1.341  1.00 20.00    -0.130 Cl
ENDBRANCH   6   8
ENDBRANCH   5   6
ENDBRANCH   4   5
ENDBRANCH   3   4
TORSDOF 4
ENDMDL
MODEL 3
REMARK VINA RESULT:      -4.7      2.371      4.620
REMARK  4 active torsions:
REMARK  status: ('A' for Active; 'I' for Inactive)
REMARK    1  A    between atoms: C4_4  and  C5_5 
REMARK    2  A    between atoms: C5_5  and  C6_6 
REMARK    3  A    between atoms: C6_6  and  C8_8 
REMARK    4  A    between atoms: C7_7  and  C8_8 
ROOT
HETATM    1  C1  UNL     1     -34.731   5.695   5.962  1.00 20.00     0.012 C 
HETATM    2  C2  UNL     1     -34.539   5.045   4.970  1.00 20.00    -0.117 C 
HETATM    3  C4  UNL     1     -34.307   4.251   3.756  1.00 20.00     0.093 C 
ENDROOT
BRANCH   3   4
HETATM    4  C5  UNL     1     -33.243   4.874   2.848  1.00 20.00     0.012 C 
BRANCH   4   5
HETATM    5  C6  UNL     1     -33.659   6.247   2.304  1.00 20.00     0.006 C 
BRANCH   5   6
HETATM    6  C8  UNL     1     -32.478   7.227   2.142  1.00 20.00    -0.005 C 
HETATM    7  C3  UNL     1     -31.845   7.505   3.510  1.00 20.00     0.011 C 
BRANCH   6   8
HETATM    8  C7  UNL     1     -32.827   8.534   1.414  1.00 20.00     0.119 C 
HETATM    9 CL9  UNL     1     -33.211   8.310  -0.311  1.00 20.00    -0.130 Cl
ENDBRANCH   6   8
ENDBRANCH   5   6
ENDBRANCH   4   5
ENDBRANCH   3   4
TORSDOF 4
ENDMDL
MODEL 4
REMARK VINA RESULT:      -4.7      1.594      2.151
REMARK  4 active torsions:
REMARK  status: ('A' for Active; 'I' for Inactive)
REMARK    1  A    between atoms: C4_4  and  C5_5 
REMARK    2  A    between atoms: C5_5  and  C6_6 
REMARK    3  A    between atoms: C6_6  and  C8_8 
REMARK    4  A    between atoms: C7_7  and  C8_8 
ROOT
HETATM    1  C1  UNL     1     -33.312   8.913  -0.074  1.00 20.00     0.012 C 
HETATM    2  C2  UNL     1     -32.763   8.329   0.821  1.00 20.00    -0.117 C 
HETATM    3  C4  UNL     1     -32.090   7.617   1.916  1.00 20.00     0.093 C 
ENDROOT
BRANCH   3   4
HETATM    4  C5  UNL     1     -33.027   6.645   2.639  1.00 20.00     0.012 C 
BRANCH   4   5
HETATM    5  C6  UNL     1     -33.080   6.888   4.152  1.00 20.00     0.006 C 
BRANCH   5   6
HETATM    6  C8  UNL     1     -34.434   6.510   4.789  1.00 20.00    -0.005 C 
HETATM    7  C3  UNL     1     -34.253   6.281   6.293  1.00 20.00     0.011 C 
BRANCH   6   8
HETATM    8  C7  UNL     1     -35.143   5.319   4.125  1.00 20.00     0.119 C 
HETATM    9 CL9  UNL     1     -34.154   3.839   4.075  1.00 20.00    -0.130 Cl
ENDBRANCH   6   8
ENDBRANCH   5   6
ENDBRANCH   4   5
ENDBRANCH   3   4
TORSDOF 4
ENDMDL
MODEL 5
REMARK VINA RESULT:      -4.4      1.079      1.975
REMARK  4 active torsions:
REMARK  status: ('A' for Active; 'I' for Inactive)
REMARK    1  A    between atoms: C4_4  and  C5_5 
REMARK    2  A    between atoms: C5_5  and  C6_6 
REMARK    3  A    between atoms: C6_6  and  C8_8 
REMARK    4  A    between atoms: C7_7  and  C8_8 
ROOT
HETATM    1  C1  UNL     1     -33.436   8.727  -0.513  1.00 20.00     0.012 C 
HETATM    2  C2  UNL     1     -32.919   8.594   0.564  1.00 20.00    -0.117 C 
HETATM    3  C4  UNL     1     -32.289   8.432   1.881  1.00 20.00     0.093 C 
ENDROOT
BRANCH   3   4
HETATM    4  C5  UNL     1     -32.292   6.975   2.351  1.00 20.00     0.012 C 
BRANCH   4   5
HETATM    5  C6  UNL     1     -33.261   6.729   3.514  1.00 20.00     0.006 C 
BRANCH   5   6
HETATM    6  C8  UNL     1     -33.663   5.248   3.677  1.00 20.00    -0.005 C 
HETATM    7  C3  UNL     1     -33.628   4.550   2.313  1.00 20.00     0.011 C 
BRANCH   6   8
HETATM    8  C7  UNL     1     -35.010   5.025   4.381  1.00 20.00     0.119 C 
HETATM    9 CL9  UNL     1     -34.959   5.339   6.134  1.00 20.00    -0.130 Cl
ENDBRANCH   6   8
ENDBRANCH   5   6
ENDBRANCH   4   5
ENDBRANCH   3   4
TORSDOF 4
ENDMDL
MODEL 6
REMARK VINA RESULT:      -4.2      2.275      4.517
REMARK  4 active torsions:
REMARK  status: ('A' for Active; 'I' for Inactive)
REMARK    1  A    between atoms: C4_4  and  C5_5 
REMARK    2  A    between atoms: C5_5  and  C6_6 
REMARK    3  A    between atoms: C6_6  and  C8_8 
REMARK    4  A    between atoms: C7_7  and  C8_8 
ROOT
HETATM    1  C1  UNL     1     -35.275   4.763   5.162  1.00 20.00     0.012 C 
HETATM    2  C2  UNL     1     -34.585   5.664   5.557  1.00 20.00    -0.117 C 
HETATM    3  C4  UNL     1     -33.740   6.763   6.043  1.00 20.00     0.093 C 
ENDROOT
BRANCH   3   4
HETATM    4  C5  UNL     1     -33.368   7.745   4.928  1.00 20.00     0.012 C 
BRANCH   4   5
HETATM    5  C6  UNL     1     -32.369   7.154   3.926  1.00 20.00     0.006 C 
BRANCH   5   6
HETATM    6  C8  UNL     1     -32.978   6.888   2.534  1.00 20.00    -0.005 C 
HETATM    7  C3  UNL     1     -33.064   5.378   2.286  1.00 20.00     0.011 C 
BRANCH   6   8
HETATM    8  C7  UNL     1     -32.265   7.603   1.376  1.00 20.00     0.119 C 
HETATM    9 CL9  UNL     1     -33.070   9.106   0.861  1.00 20.00    -0.130 Cl
ENDBRANCH   6   8
ENDBRANCH   5   6
ENDBRANCH   4   5
ENDBRANCH   3   4
TORSDOF 4
ENDMDL
MODEL 7
REMARK VINA RESULT:      -4.0      1.041      3.941
REMARK  4 active torsions:
REMARK  status: ('A' for Active; 'I' for Inactive)
REMARK    1  A    between atoms: C4_4  and  C5_5 
REMARK    2  A    between atoms: C5_5  and  C6_6 
REMARK    3  A    between atoms: C6_6  and  C8_8 
REMARK    4  A    between atoms: C7_7  and  C8_8 
ROOT
HETATM    1  C1  UNL     1     -34.802   5.344   6.318  1.00 20.00     0.012 C 
HETATM    2  C2  UNL     1     -34.823   5.337   5.117  1.00 20.00    -0.117 C 
HETATM    3  C4  UNL     1     -34.850   5.330   3.648  1.00 20.00     0.093 C 
ENDROOT
BRANCH   3   4
HETATM    4  C5  UNL     1     -33.591   4.699   3.047  1.00 20.00     0.012 C 
BRANCH   4   5
HETATM    5  C6  UNL     1     -32.906   5.607   2.018  1.00 20.00     0.006 C 
BRANCH   5   6
HETATM    6  C8  UNL     1     -32.861   7.091   2.441  1.00 20.00    -0.005 C 
HETATM    7  C3  UNL     1     -32.693   7.977   1.202  1.00 20.00     0.011 C 
BRANCH   6   8
HETATM    8  C7  UNL     1     -31.806   7.420   3.508  1.00 20.00     0.119 C 
HETATM    9 CL9  UNL     1     -32.502   7.845   5.092  1.00 20.00    -0.130 Cl
ENDBRANCH   6   8
ENDBRANCH   5   6
ENDBRANCH   4   5
ENDBRANCH   3   4
TORSDOF 4
ENDMDL
MODEL 8
REMARK VINA RESULT:      -3.9     11.451     12.237
REMARK  4 active torsions:
REMARK  status: ('A' for Active; 'I' for Inactive)
REMARK    1  A    between atoms: C4_4  and  C5_5 
REMARK    2  A    between atoms: C5_5  and  C6_6 
REMARK    3  A    between atoms: C6_6  and  C8_8 
REMARK    4  A    between atoms: C7_7  and  C8_8 
ROOT
HETATM    1  C1  UNL     1     -35.148  16.505  -1.553  1.00 20.00     0.012 C 
HETATM    2  C2  UNL     1     -34.285  16.225  -2.340  1.00 20.00    -0.117 C 
HETATM    3  C4  UNL     1     -33.226  15.883  -3.300  1.00 20.00     0.093 C 
ENDROOT
BRANCH   3   4
HETATM    4  C5  UNL     1     -33.732  14.969  -4.420  1.00 20.00     0.012 C 
BRANCH   4   5
HETATM    5  C6  UNL     1     -34.793  13.972  -3.937  1.00 20.00     0.006 C 
BRANCH   5   6
HETATM    6  C8  UNL     1     -36.050  13.931  -4.831  1.00 20.00    -0.005 C 
HETATM    7  C3  UNL     1     -35.728  14.530  -6.205  1.00 20.00     0.011 C 
BRANCH   6   8
HETATM    8  C7  UNL     1     -37.295  14.587  -4.215  1.00 20.00     0.119 C 
HETATM    9 CL9  UNL     1     -37.373  16.348  -4.469  1.00 20.00    -0.130 Cl
ENDBRANCH   6   8
ENDBRANCH   5   6
ENDBRANCH   4   5
ENDBRANCH   3   4
TORSDOF 4
ENDMDL
MODEL 9
REMARK VINA RESULT:      -3.8     11.560     12.522
REMARK  4 active torsions:
REMARK  status: ('A' for Active; 'I' for Inactive)
REMARK    1  A    between atoms: C4_4  and  C5_5 
REMARK    2  A    between atoms: C5_5  and  C6_6 
REMARK    3  A    between atoms: C6_6  and  C8_8 
REMARK    4  A    between atoms: C7_7  and  C8_8 
ROOT
HETATM    1  C1  UNL     1     -31.014  18.373   0.052  1.00 20.00     0.012 C 
HETATM    2  C2  UNL     1     -31.825  18.393  -0.833  1.00 20.00    -0.117 C 
HETATM    3  C4  UNL     1     -32.816  18.419  -1.918  1.00 20.00     0.093 C 
ENDROOT
BRANCH   3   4
HETATM    4  C5  UNL     1     -32.939  17.067  -2.625  1.00 20.00     0.012 C 
BRANCH   4   5
HETATM    5  C6  UNL     1     -34.228  16.322  -2.257  1.00 20.00     0.006 C 
BRANCH   5   6
HETATM    6  C8  UNL     1     -34.530  15.122  -3.180  1.00 20.00    -0.005 C 
HETATM    7  C3  UNL     1     -33.375  14.927  -4.169  1.00 20.00     0.011 C 
BRANCH   6   8
HETATM    8  C7  UNL     1     -35.880  15.199  -3.909  1.00 20.00     0.119 C 
HETATM    9 CL9  UNL     1     -36.431  13.634  -4.557  1.00 20.00    -0.130 Cl
ENDBRANCH   6   8
ENDBRANCH   5   6
ENDBRANCH   4   5
ENDBRANCH   3   4
TORSDOF 4
ENDMDL
