MODEL 1
REMARK VINA RESULT:      -4.2      0.000      0.000
REMARK  1 active torsions:
REMARK  status: ('A' for Active; 'I' for Inactive)
REMARK    1  A    between atoms: C6_6  and  N8_8 
ROOT
HETATM    1  C1  UNL     1     -23.926  18.721   9.084  1.00 20.00     0.158 C 
HETATM    2  N8  UNL     1     -23.115  18.550   9.913  1.00 20.00    -0.265 NA
HETATM    3  S9  UNL     1     -25.004  18.972   7.939  1.00 20.00    -0.055 SA
ENDROOT
BRANCH   2   4
HETATM    4  C6  UNL     1     -23.576  17.775  11.068  1.00 20.00     0.051 C 
HETATM    5  C4  UNL     1     -24.000  16.373  10.632  1.00 20.00     0.033 C 
HETATM    6  C2  UNL     1     -24.993  15.919  11.698  1.00 20.00     0.002 C 
HETATM    7  C3  UNL     1     -25.555  17.193  12.331  1.00 20.00     0.002 C 
HETATM    8  C5  UNL     1     -24.875  18.359  11.616  1.00 20.00     0.033 C 
HETATM    9  C7  UNL     1     -22.456  17.752  12.107  1.00 20.00     0.041 C 
ENDBRANCH   2   4
TORSDOF 1
ENDMDL
MODEL 2
REMARK VINA RESULT:      -4.1      1.716      2.046
REMARK  1 active torsions:
REMARK  status: ('A' for Active; 'I' for Inactive)
REMARK    1  A    between atoms: C6_6  and  N8_8 
ROOT
HETATM    1  C1  UNL     1     -22.807  17.012   9.503  1.00 20.00     0.158 C 
HETATM    2  N8  UNL     1     -23.624  16.489  10.161  1.00 20.00    -0.265 NA
HETATM    3  S9  UNL     1     -21.693  17.693   8.592  1.00 20.00    -0.055 SA
ENDROOT
BRANCH   2   4
HETATM    4  C6  UNL     1     -24.259  17.359  11.154  1.00 20.00     0.051 C 
HETATM    5  C4  UNL     1     -25.411  16.629  11.842  1.00 20.00     0.033 C 
HETATM    6  C2  UNL     1     -26.337  17.738  12.332  1.00 20.00     0.002 C 
HETATM    7  C3  UNL     1     -26.054  18.954  11.448  1.00 20.00     0.002 C 
HETATM    8  C5  UNL     1     -24.969  18.522  10.464  1.00 20.00     0.033 C 
HETATM    9  C7  UNL     1     -23.188  17.825  12.138  1.00 20.00     0.041 C 
ENDBRANCH   2   4
TORSDOF 1
ENDMDL
MODEL 3
REMARK VINA RESULT:      -3.8     18.867     19.863
REMARK  1 active torsions:
REMARK  status: ('A' for Active; 'I' for Inactive)
REMARK    1  A    between atoms: C6_6  and  N8_8 
ROOT
HETATM    1  C1  UNL     1     -38.699  14.761  -4.270  1.00 20.00     0.158 C 
HETATM    2  N8  UNL     1     -37.823  13.985  -4.342  1.00 20.00    -0.265 NA
HETATM    3  S9  UNL     1     -39.911  15.788  -4.170  1.00 20.00    -0.055 SA
ENDROOT
BRANCH   2   4
HETATM    4  C6  UNL     1     -36.490  14.578  -4.480  1.00 20.00     0.051 C 
HETATM    5  C4  UNL     1     -35.413  13.506  -4.328  1.00 20.00     0.033 C 
HETATM    6  C2  UNL     1     -34.172  14.264  -3.867  1.00 20.00     0.002 C 
HETATM    7  C3  UNL     1     -34.675  15.552  -3.211  1.00 20.00     0.002 C 
HETATM    8  C5  UNL     1     -36.199  15.509  -3.305  1.00 20.00     0.033 C 
HETATM    9  C7  UNL     1     -36.421  15.293  -5.828  1.00 20.00     0.041 C 
ENDBRANCH   2   4
TORSDOF 1
ENDMDL
MODEL 4
REMARK VINA RESULT:      -3.8      2.113      3.243
REMARK  1 active torsions:
REMARK  status: ('A' for Active; 'I' for Inactive)
REMARK    1  A    between atoms: C6_6  and  N8_8 
ROOT
HETATM    1  C1  UNL     1     -25.860  18.324  12.124  1.00 20.00     0.158 C 
HETATM    2  N8  UNL     1     -24.689  18.317  12.181  1.00 20.00    -0.265 NA
HETATM    3  S9  UNL     1     -27.451  18.350  12.076  1.00 20.00    -0.055 SA
ENDROOT
BRANCH   2   4
HETATM    4  C6  UNL     1     -24.026  17.638  11.065  1.00 20.00     0.051 C 
HETATM    5  C4  UNL     1     -22.513  17.825  11.152  1.00 20.00     0.033 C 
HETATM    6  C2  UNL     1     -22.018  17.660   9.718  1.00 20.00     0.002 C 
HETATM    7  C3  UNL     1     -23.210  17.980   8.814  1.00 20.00     0.002 C 
HETATM    8  C5  UNL     1     -24.370  18.324   9.745  1.00 20.00     0.033 C 
HETATM    9  C7  UNL     1     -24.437  16.166  11.088  1.00 20.00     0.041 C 
ENDBRANCH   2   4
TORSDOF 1
ENDMDL
MODEL 5
REMARK VINA RESULT:      -3.8      1.240      2.124
REMARK  1 active torsions:
REMARK  status: ('A' for Active; 'I' for Inactive)
REMARK    1  A    between atoms: C6_6  and  N8_8 
ROOT
HETATM    1  C1  UNL     1     -24.027  18.969   8.194  1.00 20.00     0.158 C 
HETATM    2  N8  UNL     1     -23.080  18.883   8.881  1.00 20.00    -0.265 NA
HETATM    3  S9  UNL     1     -25.295  19.109   7.242  1.00 20.00    -0.055 SA
ENDROOT
BRANCH   2   4
HETATM    4  C6  UNL     1     -23.228  17.968  10.015  1.00 20.00     0.051 C 
HETATM    5  C4  UNL     1     -24.376  18.421  10.917  1.00 20.00     0.033 C 
HETATM    6  C2  UNL     1     -24.046  17.838  12.288  1.00 20.00     0.002 C 
HETATM    7  C3  UNL     1     -22.533  17.611  12.305  1.00 20.00     0.002 C 
HETATM    8  C5  UNL     1     -22.019  18.070  10.942  1.00 20.00     0.033 C 
HETATM    9  C7  UNL     1     -23.434  16.556   9.469  1.00 20.00     0.041 C 
ENDBRANCH   2   4
TORSDOF 1
ENDMDL
MODEL 6
REMARK VINA RESULT:      -3.7     17.458     18.546
REMARK  1 active torsions:
REMARK  status: ('A' for Active; 'I' for Inactive)
REMARK    1  A    between atoms: C6_6  and  N8_8 
ROOT
HETATM    1  C1  UNL     1     -34.226  14.960  -6.415  1.00 20.00     0.158 C 
HETATM    2  N8  UNL     1     -34.407  14.594  -5.316  1.00 20.00    -0.265 NA
HETATM    3  S9  UNL     1     -33.978  15.424  -7.917  1.00 20.00    -0.055 SA
ENDROOT
BRANCH   2   4
HETATM    4  C6  UNL     1     -34.574  15.667  -4.333  1.00 20.00     0.051 C 
HETATM    5  C4  UNL     1     -33.228  16.031  -3.709  1.00 20.00     0.033 C 
HETATM    6  C2  UNL     1     -33.580  16.635  -2.352  1.00 20.00     0.002 C 
HETATM    7  C3  UNL     1     -34.957  16.082  -1.981  1.00 20.00     0.002 C 
HETATM    8  C5  UNL     1     -35.373  15.168  -3.131  1.00 20.00     0.033 C 
HETATM    9  C7  UNL     1     -35.238  16.854  -5.029  1.00 20.00     0.041 C 
ENDBRANCH   2   4
TORSDOF 1
ENDMDL
MODEL 7
REMARK VINA RESULT:      -3.7     23.758     24.571
REMARK  1 active torsions:
REMARK  status: ('A' for Active; 'I' for Inactive)
REMARK    1  A    between atoms: C6_6  and  N8_8 
ROOT
HETATM    1  C1  UNL     1     -43.132   4.410  -1.735  1.00 20.00     0.158 C 
HETATM    2  N8  UNL     1     -43.333   5.241  -0.933  1.00 20.00    -0.265 NA
HETATM    3  S9  UNL     1     -42.893   3.271  -2.821  1.00 20.00    -0.055 SA
ENDROOT
BRANCH   2   4
HETATM    4  C6  UNL     1     -42.189   6.113  -0.657  1.00 20.00     0.051 C 
HETATM    5  C4  UNL     1     -42.214   6.580   0.798  1.00 20.00     0.033 C 
HETATM    6  C2  UNL     1     -41.429   7.889   0.800  1.00 20.00     0.002 C 
HETATM    7  C3  UNL     1     -41.497   8.432  -0.629  1.00 20.00     0.002 C 
HETATM    8  C5  UNL     1     -42.322   7.425  -1.428  1.00 20.00     0.033 C 
HETATM    9  C7  UNL     1     -40.911   5.353  -1.007  1.00 20.00     0.041 C 
ENDBRANCH   2   4
TORSDOF 1
ENDMDL
MODEL 8
REMARK VINA RESULT:      -3.6     16.251     17.365
REMARK  1 active torsions:
REMARK  status: ('A' for Active; 'I' for Inactive)
REMARK    1  A    between atoms: C6_6  and  N8_8 
ROOT
HETATM    1  C1  UNL     1     -34.995  14.596  -4.127  1.00 20.00     0.158 C 
HETATM    2  N8  UNL     1     -34.020  15.096  -3.709  1.00 20.00    -0.265 NA
HETATM    3  S9  UNL     1     -36.299  13.891  -4.707  1.00 20.00    -0.055 SA
ENDROOT
BRANCH   2   4
HETATM    4  C6  UNL     1     -34.232  16.380  -3.038  1.00 20.00     0.051 C 
HETATM    5  C4  UNL     1     -32.909  16.923  -2.498  1.00 20.00     0.033 C 
HETATM    6  C2  UNL     1     -33.306  17.845  -1.349  1.00 20.00     0.002 C 
HETATM    7  C3  UNL     1     -34.684  17.374  -0.878  1.00 20.00     0.002 C 
HETATM    8  C5  UNL     1     -35.054  16.187  -1.765  1.00 20.00     0.033 C 
HETATM    9  C7  UNL     1     -34.896  17.335  -4.028  1.00 20.00     0.041 C 
ENDBRANCH   2   4
TORSDOF 1
ENDMDL
MODEL 9
REMARK VINA RESULT:      -3.6     14.550     15.803
REMARK  1 active torsions:
REMARK  status: ('A' for Active; 'I' for Inactive)
REMARK    1  A    between atoms: C6_6  and  N8_8 
ROOT
HETATM    1  C1  UNL     1     -31.672  18.575  -1.110  1.00 20.00     0.158 C 
HETATM    2  N8  UNL     1     -32.109  18.765  -2.181  1.00 20.00    -0.265 NA
HETATM    3  S9  UNL     1     -31.052  18.339   0.337  1.00 20.00    -0.055 SA
ENDROOT
BRANCH   2   4
HETATM    4  C6  UNL     1     -33.350  18.043  -2.472  1.00 20.00     0.051 C 
HETATM    5  C4  UNL     1     -34.157  17.835  -1.192  1.00 20.00     0.033 C 
HETATM    6  C2  UNL     1     -35.023  16.610  -1.472  1.00 20.00     0.002 C 
HETATM    7  C3  UNL     1     -34.309  15.824  -2.573  1.00 20.00     0.002 C 
HETATM    8  C5  UNL     1     -33.043  16.611  -2.906  1.00 20.00     0.033 C 
HETATM    9  C7  UNL     1     -34.123  18.826  -3.532  1.00 20.00     0.041 C 
ENDBRANCH   2   4
TORSDOF 1
ENDMDL
