MODEL 1
REMARK VINA RESULT:      -4.3      0.000      0.000
REMARK  5 active torsions:
REMARK  status: ('A' for Active; 'I' for Inactive)
REMARK    1  A    between atoms: C4_4  and  C5_5 
REMARK    2  A    between atoms: C4_4  and  C6_6 
REMARK    3  A    between atoms: C5_5  and  C8_8 
REMARK    4  A    between atoms: C6_6  and  C9_9 
REMARK    5  A    between atoms: C7_7  and  C9_9 
ROOT
HETATM    1  C4  UNL     1     -33.826   4.813   2.491  1.00 20.00     0.001 C 
ENDROOT
BRANCH   1   2
HETATM    2  C5  UNL     1     -32.521   5.611   2.397  1.00 20.00     0.004 C 
BRANCH   2   3
HETATM    3  C8  UNL     1     -32.715   7.127   2.585  1.00 20.00    -0.023 C 
HETATM    4  C1  UNL     1     -32.559   7.904   1.277  1.00 20.00     0.009 C 
HETATM    5  C2  UNL     1     -31.719   7.653   3.621  1.00 20.00     0.009 C 
ENDBRANCH   2   3
ENDBRANCH   1   2
BRANCH   1   6
HETATM    6  C6  UNL     1     -33.959   4.131   3.857  1.00 20.00     0.005 C 
BRANCH   6   7
HETATM    7  C9  UNL     1     -35.059   4.741   4.748  1.00 20.00    -0.005 C 
HETATM    8  C3  UNL     1     -35.803   5.838   3.977  1.00 20.00     0.011 C 
BRANCH   7   9
HETATM    9  C7  UNL     1     -34.562   5.251   6.110  1.00 20.00     0.119 C 
HETATM   10 CL10 UNL     1     -33.993   6.938   6.076  1.00 20.00    -0.130 Cl
ENDBRANCH   7   9
ENDBRANCH   6   7
ENDBRANCH   1   6
TORSDOF 5
ENDMDL
MODEL 2
REMARK VINA RESULT:      -4.1      1.600      2.478
REMARK  5 active torsions:
REMARK  status: ('A' for Active; 'I' for Inactive)
REMARK    1  A    between atoms: C4_4  and  C5_5 
REMARK    2  A    between atoms: C4_4  and  C6_6 
REMARK    3  A    between atoms: C5_5  and  C8_8 
REMARK    4  A    between atoms: C6_6  and  C9_9 
REMARK    5  A    between atoms: C7_7  and  C9_9 
ROOT
HETATM    1  C4  UNL     1     -32.139   7.240   2.809  1.00 20.00     0.001 C 
ENDROOT
BRANCH   1   2
HETATM    2  C5  UNL     1     -32.089   7.608   1.322  1.00 20.00     0.004 C 
BRANCH   2   3
HETATM    3  C8  UNL     1     -33.199   8.586   0.895  1.00 20.00    -0.023 C 
HETATM    4  C1  UNL     1     -33.379   8.642  -0.622  1.00 20.00     0.009 C 
HETATM    5  C2  UNL     1     -32.892   9.987   1.431  1.00 20.00     0.009 C 
ENDBRANCH   2   3
ENDBRANCH   1   2
BRANCH   1   6
HETATM    6  C6  UNL     1     -33.120   6.091   3.060  1.00 20.00     0.005 C 
BRANCH   6   7
HETATM    7  C9  UNL     1     -34.178   6.405   4.136  1.00 20.00    -0.005 C 
HETATM    8  C3  UNL     1     -33.513   7.091   5.335  1.00 20.00     0.011 C 
BRANCH   7   9
HETATM    9  C7  UNL     1     -35.015   5.194   4.577  1.00 20.00     0.119 C 
HETATM   10 CL10 UNL     1     -34.916   4.855   6.321  1.00 20.00    -0.130 Cl
ENDBRANCH   7   9
ENDBRANCH   6   7
ENDBRANCH   1   6
TORSDOF 5
ENDMDL
MODEL 3
REMARK VINA RESULT:      -4.1      1.604      2.704
REMARK  5 active torsions:
REMARK  status: ('A' for Active; 'I' for Inactive)
REMARK    1  A    between atoms: C4_4  and  C5_5 
REMARK    2  A    between atoms: C4_4  and  C6_6 
REMARK    3  A    between atoms: C5_5  and  C8_8 
REMARK    4  A    between atoms: C6_6  and  C9_9 
REMARK    5  A    between atoms: C7_7  and  C9_9 
ROOT
HETATM    1  C4  UNL     1     -32.257   7.286   2.559  1.00 20.00     0.001 C 
ENDROOT
BRANCH   1   2
HETATM    2  C5  UNL     1     -32.181   7.428   1.035  1.00 20.00     0.004 C 
BRANCH   2   3
HETATM    3  C8  UNL     1     -32.583   8.826   0.529  1.00 20.00    -0.023 C 
HETATM    4  C1  UNL     1     -33.180   9.699   1.634  1.00 20.00     0.009 C 
HETATM    5  C2  UNL     1     -33.584   8.693  -0.621  1.00 20.00     0.009 C 
ENDBRANCH   2   3
ENDBRANCH   1   2
BRANCH   1   6
HETATM    6  C6  UNL     1     -33.148   6.106   2.959  1.00 20.00     0.005 C 
BRANCH   6   7
HETATM    7  C9  UNL     1     -34.155   6.443   4.076  1.00 20.00    -0.005 C 
HETATM    8  C3  UNL     1     -33.427   7.106   5.251  1.00 20.00     0.011 C 
BRANCH   7   9
HETATM    9  C7  UNL     1     -35.007   5.252   4.545  1.00 20.00     0.119 C 
HETATM   10 CL10 UNL     1     -34.930   4.967   6.300  1.00 20.00    -0.130 Cl
ENDBRANCH   7   9
ENDBRANCH   6   7
ENDBRANCH   1   6
TORSDOF 5
ENDMDL
MODEL 4
REMARK VINA RESULT:      -4.1      2.337      4.508
REMARK  5 active torsions:
REMARK  status: ('A' for Active; 'I' for Inactive)
REMARK    1  A    between atoms: C4_4  and  C5_5 
REMARK    2  A    between atoms: C4_4  and  C6_6 
REMARK    3  A    between atoms: C5_5  and  C8_8 
REMARK    4  A    between atoms: C6_6  and  C9_9 
REMARK    5  A    between atoms: C7_7  and  C9_9 
ROOT
HETATM    1  C4  UNL     1     -33.406   5.513   3.320  1.00 20.00     0.001 C 
ENDROOT
BRANCH   1   2
HETATM    2  C5  UNL     1     -34.825   5.653   3.882  1.00 20.00     0.004 C 
BRANCH   2   3
HETATM    3  C8  UNL     1     -34.860   5.920   5.398  1.00 20.00    -0.023 C 
HETATM    4  C1  UNL     1     -33.831   6.963   5.834  1.00 20.00     0.009 C 
HETATM    5  C2  UNL     1     -34.624   4.613   6.161  1.00 20.00     0.009 C 
ENDBRANCH   2   3
ENDBRANCH   1   2
BRANCH   1   6
HETATM    6  C6  UNL     1     -33.293   6.163   1.938  1.00 20.00     0.005 C 
BRANCH   6   7
HETATM    7  C9  UNL     1     -32.310   7.350   1.892  1.00 20.00    -0.005 C 
HETATM    8  C3  UNL     1     -31.709   7.582   3.283  1.00 20.00     0.011 C 
BRANCH   7   9
HETATM    9  C7  UNL     1     -32.905   8.645   1.315  1.00 20.00     0.119 C 
HETATM   10 CL10 UNL     1     -33.388   8.509  -0.393  1.00 20.00    -0.130 Cl
ENDBRANCH   7   9
ENDBRANCH   6   7
ENDBRANCH   1   6
TORSDOF 5
ENDMDL
MODEL 5
REMARK VINA RESULT:      -3.7     11.890     12.746
REMARK  5 active torsions:
REMARK  status: ('A' for Active; 'I' for Inactive)
REMARK    1  A    between atoms: C4_4  and  C5_5 
REMARK    2  A    between atoms: C4_4  and  C6_6 
REMARK    3  A    between atoms: C5_5  and  C8_8 
REMARK    4  A    between atoms: C6_6  and  C9_9 
REMARK    5  A    between atoms: C7_7  and  C9_9 
ROOT
HETATM    1  C4  UNL     1     -33.767  14.787  -4.043  1.00 20.00     0.001 C 
ENDROOT
BRANCH   1   2
HETATM    2  C5  UNL     1     -33.061  16.027  -3.487  1.00 20.00     0.004 C 
BRANCH   2   3
HETATM    3  C8  UNL     1     -33.975  16.918  -2.626  1.00 20.00    -0.023 C 
HETATM    4  C1  UNL     1     -33.209  17.658  -1.529  1.00 20.00     0.009 C 
HETATM    5  C2  UNL     1     -35.085  16.071  -1.999  1.00 20.00     0.009 C 
ENDBRANCH   2   3
ENDBRANCH   1   2
BRANCH   1   6
HETATM    6  C6  UNL     1     -34.097  14.959  -5.529  1.00 20.00     0.005 C 
BRANCH   6   7
HETATM    7  C9  UNL     1     -35.576  14.689  -5.869  1.00 20.00    -0.005 C 
HETATM    8  C3  UNL     1     -36.311  16.017  -6.088  1.00 20.00     0.011 C 
BRANCH   7   9
HETATM    9  C7  UNL     1     -36.311  13.804  -4.850  1.00 20.00     0.119 C 
HETATM   10 CL10 UNL     1     -37.809  14.531  -4.222  1.00 20.00    -0.130 Cl
ENDBRANCH   7   9
ENDBRANCH   6   7
ENDBRANCH   1   6
TORSDOF 5
ENDMDL
MODEL 6
REMARK VINA RESULT:      -3.7     11.815     12.616
REMARK  5 active torsions:
REMARK  status: ('A' for Active; 'I' for Inactive)
REMARK    1  A    between atoms: C4_4  and  C5_5 
REMARK    2  A    between atoms: C4_4  and  C6_6 
REMARK    3  A    between atoms: C5_5  and  C8_8 
REMARK    4  A    between atoms: C6_6  and  C9_9 
REMARK    5  A    between atoms: C7_7  and  C9_9 
ROOT
HETATM    1  C4  UNL     1     -33.687  17.576  -1.374  1.00 20.00     0.001 C 
ENDROOT
BRANCH   1   2
HETATM    2  C5  UNL     1     -33.746  18.197   0.026  1.00 20.00     0.004 C 
BRANCH   2   3
HETATM    3  C8  UNL     1     -32.392  18.747   0.509  1.00 20.00    -0.023 C 
HETATM    4  C1  UNL     1     -31.233  18.334  -0.399  1.00 20.00     0.009 C 
HETATM    5  C2  UNL     1     -32.121  18.275   1.940  1.00 20.00     0.009 C 
ENDBRANCH   2   3
ENDBRANCH   1   2
BRANCH   1   6
HETATM    6  C6  UNL     1     -34.883  16.650  -1.618  1.00 20.00     0.005 C 
BRANCH   6   7
HETATM    7  C9  UNL     1     -34.624  15.578  -2.696  1.00 20.00    -0.005 C 
HETATM    8  C3  UNL     1     -33.320  15.891  -3.439  1.00 20.00     0.011 C 
BRANCH   7   9
HETATM    9  C7  UNL     1     -35.791  15.368  -3.675  1.00 20.00     0.119 C 
HETATM   10 CL10 UNL     1     -35.902  13.708  -4.306  1.00 20.00    -0.130 Cl
ENDBRANCH   7   9
ENDBRANCH   6   7
ENDBRANCH   1   6
TORSDOF 5
ENDMDL
MODEL 7
REMARK VINA RESULT:      -3.7     11.749     13.174
REMARK  5 active torsions:
REMARK  status: ('A' for Active; 'I' for Inactive)
REMARK    1  A    between atoms: C4_4  and  C5_5 
REMARK    2  A    between atoms: C4_4  and  C6_6 
REMARK    3  A    between atoms: C5_5  and  C8_8 
REMARK    4  A    between atoms: C6_6  and  C9_9 
REMARK    5  A    between atoms: C7_7  and  C9_9 
ROOT
HETATM    1  C4  UNL     1     -34.978  13.946  -3.834  1.00 20.00     0.001 C 
ENDROOT
BRANCH   1   2
HETATM    2  C5  UNL     1     -33.801  14.906  -4.038  1.00 20.00     0.004 C 
BRANCH   2   3
HETATM    3  C8  UNL     1     -33.675  15.966  -2.928  1.00 20.00    -0.023 C 
HETATM    4  C1  UNL     1     -34.933  16.061  -2.064  1.00 20.00     0.009 C 
HETATM    5  C2  UNL     1     -33.370  17.332  -3.548  1.00 20.00     0.009 C 
ENDBRANCH   2   3
ENDBRANCH   1   2
BRANCH   1   6
HETATM    6  C6  UNL     1     -35.950  14.005  -5.016  1.00 20.00     0.005 C 
BRANCH   6   7
HETATM    7  C9  UNL     1     -35.844  15.305  -5.839  1.00 20.00    -0.005 C 
HETATM    8  C3  UNL     1     -37.119  16.138  -5.661  1.00 20.00     0.011 C 
BRANCH   7   9
HETATM    9  C7  UNL     1     -35.517  15.091  -7.325  1.00 20.00     0.119 C 
HETATM   10 CL10 UNL     1     -33.777  15.168  -7.691  1.00 20.00    -0.130 Cl
ENDBRANCH   7   9
ENDBRANCH   6   7
ENDBRANCH   1   6
TORSDOF 5
ENDMDL
MODEL 8
REMARK VINA RESULT:      -3.7     11.620     12.623
REMARK  5 active torsions:
REMARK  status: ('A' for Active; 'I' for Inactive)
REMARK    1  A    between atoms: C4_4  and  C5_5 
REMARK    2  A    between atoms: C4_4  and  C6_6 
REMARK    3  A    between atoms: C5_5  and  C8_8 
REMARK    4  A    between atoms: C6_6  and  C9_9 
REMARK    5  A    between atoms: C7_7  and  C9_9 
ROOT
HETATM    1  C4  UNL     1     -34.073  17.796  -1.415  1.00 20.00     0.001 C 
ENDROOT
BRANCH   1   2
HETATM    2  C5  UNL     1     -35.010  16.597  -1.597  1.00 20.00     0.004 C 
BRANCH   2   3
HETATM    3  C8  UNL     1     -34.487  15.559  -2.607  1.00 20.00    -0.023 C 
HETATM    4  C1  UNL     1     -33.264  16.055  -3.378  1.00 20.00     0.009 C 
HETATM    5  C2  UNL     1     -35.600  15.184  -3.590  1.00 20.00     0.009 C 
ENDBRANCH   2   3
ENDBRANCH   1   2
BRANCH   1   6
HETATM    6  C6  UNL     1     -33.811  18.071   0.069  1.00 20.00     0.005 C 
BRANCH   6   7
HETATM    7  C9  UNL     1     -32.430  18.698   0.346  1.00 20.00    -0.005 C 
HETATM    8  C3  UNL     1     -31.462  18.349  -0.790  1.00 20.00     0.011 C 
BRANCH   7   9
HETATM    9  C7  UNL     1     -31.835  18.342   1.718  1.00 20.00     0.119 C 
HETATM   10 CL10 UNL     1     -33.032  17.704   2.871  1.00 20.00    -0.130 Cl
ENDBRANCH   7   9
ENDBRANCH   6   7
ENDBRANCH   1   6
TORSDOF 5
ENDMDL
MODEL 9
REMARK VINA RESULT:      -3.6      2.222      4.634
REMARK  5 active torsions:
REMARK  status: ('A' for Active; 'I' for Inactive)
REMARK    1  A    between atoms: C4_4  and  C5_5 
REMARK    2  A    between atoms: C4_4  and  C6_6 
REMARK    3  A    between atoms: C5_5  and  C8_8 
REMARK    4  A    between atoms: C6_6  and  C9_9 
REMARK    5  A    between atoms: C7_7  and  C9_9 
ROOT
HETATM    1  C4  UNL     1     -33.160   7.109   4.752  1.00 20.00     0.001 C 
ENDROOT
BRANCH   1   2
HETATM    2  C5  UNL     1     -34.532   6.674   4.227  1.00 20.00     0.004 C 
BRANCH   2   3
HETATM    3  C8  UNL     1     -35.017   5.336   4.814  1.00 20.00    -0.023 C 
HETATM    4  C1  UNL     1     -34.736   5.216   6.312  1.00 20.00     0.009 C 
HETATM    5  C2  UNL     1     -34.356   4.173   4.070  1.00 20.00     0.009 C 
ENDBRANCH   2   3
ENDBRANCH   1   2
BRANCH   1   6
HETATM    6  C6  UNL     1     -32.175   7.333   3.600  1.00 20.00     0.005 C 
BRANCH   6   7
HETATM    7  C9  UNL     1     -32.819   7.219   2.205  1.00 20.00    -0.005 C 
HETATM    8  C3  UNL     1     -32.781   5.761   1.731  1.00 20.00     0.011 C 
BRANCH   7   9
HETATM    9  C7  UNL     1     -32.223   8.166   1.151  1.00 20.00     0.119 C 
HETATM   10 CL10 UNL     1     -33.387   8.664  -0.101  1.00 20.00    -0.130 Cl
ENDBRANCH   7   9
ENDBRANCH   6   7
ENDBRANCH   1   6
TORSDOF 5
ENDMDL
