MODEL 1
REMARK VINA RESULT:      -3.7      0.000      0.000
REMARK  2 active torsions:
REMARK  status: ('A' for Active; 'I' for Inactive)
REMARK    1  A    between atoms: C5_5  and  C7_7 
REMARK    2  A    between atoms: C6_6  and  C7_7 
ROOT
HETATM    1  C3  UNL     1     -24.642  16.168  11.496  1.00 20.00     0.016 C 
HETATM    2  C4  UNL     1     -22.796  17.754  12.029  1.00 20.00     0.016 C 
HETATM    3  C7  UNL     1     -24.177  17.634  11.341  1.00 20.00    -0.032 C 
ENDROOT
BRANCH   3   4
HETATM    4  C5  UNL     1     -25.199  18.511  12.120  1.00 20.00     0.123 C 
HETATM    5 CL8  UNL     1     -26.799  17.754  12.330  1.00 20.00    -0.130 Cl
ENDBRANCH   3   4
BRANCH   3   6
HETATM    6  C6  UNL     1     -24.062  18.050   9.826  1.00 20.00    -0.014 C 
HETATM    7  C1  UNL     1     -22.655  18.506   9.411  1.00 20.00     0.010 C 
HETATM    8  C2  UNL     1     -25.065  19.134   9.397  1.00 20.00     0.010 C 
ENDBRANCH   3   6
TORSDOF 2
ENDMDL
MODEL 2
REMARK VINA RESULT:      -3.6     16.917     18.250
REMARK  2 active torsions:
REMARK  status: ('A' for Active; 'I' for Inactive)
REMARK    1  A    between atoms: C5_5  and  C7_7 
REMARK    2  A    between atoms: C6_6  and  C7_7 
ROOT
HETATM    1  C3  UNL     1     -32.896  14.421  -4.426  1.00 20.00     0.016 C 
HETATM    2  C4  UNL     1     -35.326  14.236  -3.911  1.00 20.00     0.016 C 
HETATM    3  C7  UNL     1     -34.144  15.229  -4.003  1.00 20.00    -0.032 C 
ENDROOT
BRANCH   3   4
HETATM    4  C5  UNL     1     -34.432  16.240  -5.151  1.00 20.00     0.123 C 
HETATM    5 CL8  UNL     1     -34.235  15.561  -6.787  1.00 20.00    -0.130 Cl
ENDBRANCH   3   4
BRANCH   3   6
HETATM    6  C6  UNL     1     -33.930  15.944  -2.616  1.00 20.00    -0.014 C 
HETATM    7  C1  UNL     1     -35.238  16.298  -1.890  1.00 20.00     0.010 C 
HETATM    8  C2  UNL     1     -33.065  17.213  -2.692  1.00 20.00     0.010 C 
ENDBRANCH   3   6
TORSDOF 2
ENDMDL
MODEL 3
REMARK VINA RESULT:      -3.6     16.635     18.043
REMARK  2 active torsions:
REMARK  status: ('A' for Active; 'I' for Inactive)
REMARK    1  A    between atoms: C5_5  and  C7_7 
REMARK    2  A    between atoms: C6_6  and  C7_7 
ROOT
HETATM    1  C3  UNL     1     -34.491  16.762  -4.845  1.00 20.00     0.016 C 
HETATM    2  C4  UNL     1     -33.560  14.512  -4.317  1.00 20.00     0.016 C 
HETATM    3  C7  UNL     1     -34.503  15.624  -3.799  1.00 20.00    -0.032 C 
ENDROOT
BRANCH   3   4
HETATM    4  C5  UNL     1     -35.956  15.069  -3.761  1.00 20.00     0.123 C 
HETATM    5 CL8  UNL     1     -36.147  13.474  -4.533  1.00 20.00    -0.130 Cl
ENDBRANCH   3   4
BRANCH   3   6
HETATM    6  C6  UNL     1     -34.017  16.129  -2.388  1.00 20.00    -0.014 C 
HETATM    7  C1  UNL     1     -35.157  16.591  -1.466  1.00 20.00     0.010 C 
HETATM    8  C2  UNL     1     -32.968  17.250  -2.452  1.00 20.00     0.010 C 
ENDBRANCH   3   6
TORSDOF 2
ENDMDL
MODEL 4
REMARK VINA RESULT:      -3.5     15.455     16.634
REMARK  2 active torsions:
REMARK  status: ('A' for Active; 'I' for Inactive)
REMARK    1  A    between atoms: C5_5  and  C7_7 
REMARK    2  A    between atoms: C6_6  and  C7_7 
ROOT
HETATM    1  C3  UNL     1     -31.812   7.236   3.630  1.00 20.00     0.016 C 
HETATM    2  C4  UNL     1     -32.844   5.242   2.550  1.00 20.00     0.016 C 
HETATM    3  C7  UNL     1     -33.146   6.653   3.108  1.00 20.00    -0.032 C 
ENDROOT
BRANCH   3   4
HETATM    4  C5  UNL     1     -33.602   7.566   1.934  1.00 20.00     0.123 C 
HETATM    5 CL8  UNL     1     -32.282   8.074   0.849  1.00 20.00    -0.130 Cl
ENDBRANCH   3   4
BRANCH   3   6
HETATM    6  C6  UNL     1     -34.226   6.562   4.251  1.00 20.00    -0.014 C 
HETATM    7  C1  UNL     1     -33.679   6.883   5.651  1.00 20.00     0.010 C 
HETATM    8  C2  UNL     1     -34.952   5.208   4.318  1.00 20.00     0.010 C 
ENDBRANCH   3   6
TORSDOF 2
ENDMDL
MODEL 5
REMARK VINA RESULT:      -3.5     16.743     17.935
REMARK  2 active torsions:
REMARK  status: ('A' for Active; 'I' for Inactive)
REMARK    1  A    between atoms: C5_5  and  C7_7 
REMARK    2  A    between atoms: C6_6  and  C7_7 
ROOT
HETATM    1  C3  UNL     1     -35.159  16.323  -1.589  1.00 20.00     0.016 C 
HETATM    2  C4  UNL     1     -33.029  16.835  -2.775  1.00 20.00     0.016 C 
HETATM    3  C7  UNL     1     -34.449  16.251  -2.960  1.00 20.00    -0.032 C 
ENDROOT
BRANCH   3   4
HETATM    4  C5  UNL     1     -35.247  17.174  -3.926  1.00 20.00     0.123 C 
HETATM    5 CL8  UNL     1     -34.254  17.929  -5.199  1.00 20.00    -0.130 Cl
ENDBRANCH   3   4
BRANCH   3   6
HETATM    6  C6  UNL     1     -34.358  14.769  -3.488  1.00 20.00    -0.014 C 
HETATM    7  C1  UNL     1     -33.167  14.516  -4.427  1.00 20.00     0.010 C 
HETATM    8  C2  UNL     1     -35.634  14.274  -4.188  1.00 20.00     0.010 C 
ENDBRANCH   3   6
TORSDOF 2
ENDMDL
MODEL 6
REMARK VINA RESULT:      -3.5     17.365     18.429
REMARK  2 active torsions:
REMARK  status: ('A' for Active; 'I' for Inactive)
REMARK    1  A    between atoms: C5_5  and  C7_7 
REMARK    2  A    between atoms: C6_6  and  C7_7 
ROOT
HETATM    1  C3  UNL     1     -32.981  16.906  -3.419  1.00 20.00     0.016 C 
HETATM    2  C4  UNL     1     -32.796  14.583  -4.299  1.00 20.00     0.016 C 
HETATM    3  C7  UNL     1     -33.792  15.732  -4.014  1.00 20.00    -0.032 C 
ENDROOT
BRANCH   3   4
HETATM    4  C5  UNL     1     -34.376  16.233  -5.366  1.00 20.00     0.123 C 
HETATM    5 CL8  UNL     1     -34.121  15.114  -6.730  1.00 20.00    -0.130 Cl
ENDBRANCH   3   4
BRANCH   3   6
HETATM    6  C6  UNL     1     -34.913  15.240  -3.023  1.00 20.00    -0.014 C 
HETATM    7  C1  UNL     1     -36.265  14.967  -3.700  1.00 20.00     0.010 C 
HETATM    8  C2  UNL     1     -35.154  16.184  -1.833  1.00 20.00     0.010 C 
ENDBRANCH   3   6
TORSDOF 2
ENDMDL
MODEL 7
REMARK VINA RESULT:      -3.4     16.211     17.460
REMARK  2 active torsions:
REMARK  status: ('A' for Active; 'I' for Inactive)
REMARK    1  A    between atoms: C5_5  and  C7_7 
REMARK    2  A    between atoms: C6_6  and  C7_7 
ROOT
HETATM    1  C3  UNL     1     -35.172  17.182  -3.954  1.00 20.00     0.016 C 
HETATM    2  C4  UNL     1     -35.109  16.346  -1.608  1.00 20.00     0.016 C 
HETATM    3  C7  UNL     1     -34.387  16.280  -2.975  1.00 20.00    -0.032 C 
ENDROOT
BRANCH   3   4
HETATM    4  C5  UNL     1     -32.973  16.912  -2.822  1.00 20.00     0.123 C 
HETATM    5 CL8  UNL     1     -32.746  17.835  -1.315  1.00 20.00    -0.130 Cl
ENDBRANCH   3   4
BRANCH   3   6
HETATM    6  C6  UNL     1     -34.326  14.789  -3.481  1.00 20.00    -0.014 C 
HETATM    7  C1  UNL     1     -33.173  14.512  -4.458  1.00 20.00     0.010 C 
HETATM    8  C2  UNL     1     -35.631  14.294  -4.124  1.00 20.00     0.010 C 
ENDBRANCH   3   6
TORSDOF 2
ENDMDL
MODEL 8
REMARK VINA RESULT:      -3.4     23.676     24.469
REMARK  2 active torsions:
REMARK  status: ('A' for Active; 'I' for Inactive)
REMARK    1  A    between atoms: C5_5  and  C7_7 
REMARK    2  A    between atoms: C6_6  and  C7_7 
ROOT
HETATM    1  C3  UNL     1     -40.806   5.384  -1.047  1.00 20.00     0.016 C 
HETATM    2  C4  UNL     1     -42.372   5.779   0.850  1.00 20.00     0.016 C 
HETATM    3  C7  UNL     1     -42.132   6.071  -0.651  1.00 20.00    -0.032 C 
ENDROOT
BRANCH   3   4
HETATM    4  C5  UNL     1     -43.256   5.384  -1.478  1.00 20.00     0.123 C 
HETATM    5 CL8  UNL     1     -42.745   3.886  -2.298  1.00 20.00    -0.130 Cl
ENDBRANCH   3   4
BRANCH   3   6
HETATM    6  C6  UNL     1     -42.076   7.627  -0.894  1.00 20.00    -0.014 C 
HETATM    7  C1  UNL     1     -41.543   8.425   0.307  1.00 20.00     0.010 C 
HETATM    8  C2  UNL     1     -43.417   8.242  -1.322  1.00 20.00     0.010 C 
ENDBRANCH   3   6
TORSDOF 2
ENDMDL
MODEL 9
REMARK VINA RESULT:      -3.4     17.512     18.880
REMARK  2 active torsions:
REMARK  status: ('A' for Active; 'I' for Inactive)
REMARK    1  A    between atoms: C5_5  and  C7_7 
REMARK    2  A    between atoms: C6_6  and  C7_7 
ROOT
HETATM    1  C3  UNL     1     -34.993  15.706  -5.493  1.00 20.00     0.016 C 
HETATM    2  C4  UNL     1     -35.767  13.624  -4.365  1.00 20.00     0.016 C 
HETATM    3  C7  UNL     1     -35.544  15.142  -4.164  1.00 20.00    -0.032 C 
ENDROOT
BRANCH   3   4
HETATM    4  C5  UNL     1     -36.924  15.821  -3.928  1.00 20.00     0.123 C 
HETATM    5 CL8  UNL     1     -38.322  14.756  -4.224  1.00 20.00    -0.130 Cl
ENDBRANCH   3   4
BRANCH   3   6
HETATM    6  C6  UNL     1     -34.545  15.386  -2.971  1.00 20.00    -0.014 C 
HETATM    7  C1  UNL     1     -35.117  16.269  -1.851  1.00 20.00     0.010 C 
HETATM    8  C2  UNL     1     -33.190  15.971  -3.400  1.00 20.00     0.010 C 
ENDBRANCH   3   6
TORSDOF 2
ENDMDL
