MODEL 1
REMARK VINA RESULT:      -5.0      0.000      0.000
REMARK  0 active torsions:
REMARK  status: ('A' for Active; 'I' for Inactive)
ROOT
HETATM    1  C1  UNL     1     -33.916   5.472   3.490  1.00 20.00    -0.066 C 
HETATM    2  C2  UNL     1     -33.350   4.741   2.520  1.00 20.00     0.016 C 
HETATM    3  C3  UNL     1     -35.033   4.953   4.354  1.00 20.00     0.037 C 
HETATM    4  C4  UNL     1     -33.470   6.868   3.823  1.00 20.00     0.201 C 
HETATM    5  C5  UNL     1     -34.708   5.204   5.826  1.00 20.00     0.030 C 
HETATM    6  C6  UNL     1     -34.268   6.649   6.051  1.00 20.00     0.168 C 
HETATM    7  O7  UNL     1     -33.152   6.966   5.215  1.00 20.00    -0.387 OA
ENDROOT
TORSDOF 0
ENDMDL
MODEL 2
REMARK VINA RESULT:      -4.6      1.473      3.242
REMARK  0 active torsions:
REMARK  status: ('A' for Active; 'I' for Inactive)
ROOT
HETATM    1  C1  UNL     1     -34.245   6.198   4.855  1.00 20.00    -0.066 C 
HETATM    2  C2  UNL     1     -34.149   6.615   6.125  1.00 20.00     0.016 C 
HETATM    3  C3  UNL     1     -33.621   6.942   3.706  1.00 20.00     0.037 C 
HETATM    4  C4  UNL     1     -34.959   4.935   4.464  1.00 20.00     0.201 C 
HETATM    5  C5  UNL     1     -32.816   5.974   2.839  1.00 20.00     0.030 C 
HETATM    6  C6  UNL     1     -33.635   4.731   2.501  1.00 20.00     0.168 C 
HETATM    7  O7  UNL     1     -34.091   4.094   3.698  1.00 20.00    -0.387 OA
ENDROOT
TORSDOF 0
ENDMDL
MODEL 3
REMARK VINA RESULT:      -4.1      1.414      2.202
REMARK  0 active torsions:
REMARK  status: ('A' for Active; 'I' for Inactive)
ROOT
HETATM    1  C1  UNL     1     -33.149   6.482   3.372  1.00 20.00    -0.066 C 
HETATM    2  C2  UNL     1     -32.791   7.235   2.324  1.00 20.00     0.016 C 
HETATM    3  C3  UNL     1     -33.013   6.951   4.795  1.00 20.00     0.037 C 
HETATM    4  C4  UNL     1     -33.747   5.111   3.224  1.00 20.00     0.201 C 
HETATM    5  C5  UNL     1     -34.326   6.723   5.544  1.00 20.00     0.030 C 
HETATM    6  C6  UNL     1     -34.841   5.302   5.325  1.00 20.00     0.168 C 
HETATM    7  O7  UNL     1     -34.990   5.035   3.928  1.00 20.00    -0.387 OA
ENDROOT
TORSDOF 0
ENDMDL
MODEL 4
REMARK VINA RESULT:      -3.8      8.993      9.604
REMARK  0 active torsions:
REMARK  status: ('A' for Active; 'I' for Inactive)
ROOT
HETATM    1  C1  UNL     1     -41.875   8.264  -0.018  1.00 20.00    -0.066 C 
HETATM    2  C2  UNL     1     -41.360   9.454   0.318  1.00 20.00     0.016 C 
HETATM    3  C3  UNL     1     -41.339   7.436  -1.153  1.00 20.00     0.037 C 
HETATM    4  C4  UNL     1     -43.019   7.632   0.727  1.00 20.00     0.201 C 
HETATM    5  C5  UNL     1     -41.102   6.001  -0.681  1.00 20.00     0.030 C 
HETATM    6  C6  UNL     1     -42.324   5.460   0.059  1.00 20.00     0.168 C 
HETATM    7  O7  UNL     1     -42.662   6.314   1.155  1.00 20.00    -0.387 OA
ENDROOT
TORSDOF 0
ENDMDL
MODEL 5
REMARK VINA RESULT:      -3.7      9.509     10.040
REMARK  0 active torsions:
REMARK  status: ('A' for Active; 'I' for Inactive)
ROOT
HETATM    1  C1  UNL     1     -41.769   6.393  -0.618  1.00 20.00    -0.066 C 
HETATM    2  C2  UNL     1     -40.881   5.461  -0.990  1.00 20.00     0.016 C 
HETATM    3  C3  UNL     1     -41.525   7.339   0.525  1.00 20.00     0.037 C 
HETATM    4  C4  UNL     1     -43.078   6.599  -1.328  1.00 20.00     0.201 C 
HETATM    5  C5  UNL     1     -41.813   8.773   0.081  1.00 20.00     0.030 C 
HETATM    6  C6  UNL     1     -43.164   8.867  -0.625  1.00 20.00     0.168 C 
HETATM    7  O7  UNL     1     -43.211   7.965  -1.733  1.00 20.00    -0.387 OA
ENDROOT
TORSDOF 0
ENDMDL
MODEL 6
REMARK VINA RESULT:      -3.7     16.674     17.523
REMARK  0 active torsions:
REMARK  status: ('A' for Active; 'I' for Inactive)
ROOT
HETATM    1  C1  UNL     1     -22.792  17.720  10.903  1.00 20.00    -0.066 C 
HETATM    2  C2  UNL     1     -22.386  17.712  12.180  1.00 20.00     0.016 C 
HETATM    3  C3  UNL     1     -24.218  17.463  10.501  1.00 20.00     0.037 C 
HETATM    4  C4  UNL     1     -21.866  18.015   9.757  1.00 20.00     0.201 C 
HETATM    5  C5  UNL     1     -24.691  18.554   9.541  1.00 20.00     0.030 C 
HETATM    6  C6  UNL     1     -23.679  18.770   8.418  1.00 20.00     0.168 C 
HETATM    7  O7  UNL     1     -22.392  19.080   8.959  1.00 20.00    -0.387 OA
ENDROOT
TORSDOF 0
ENDMDL
MODEL 7
REMARK VINA RESULT:      -3.6     12.297     12.734
REMARK  0 active torsions:
REMARK  status: ('A' for Active; 'I' for Inactive)
ROOT
HETATM    1  C1  UNL     1     -33.786  15.659  -3.361  1.00 20.00    -0.066 C 
HETATM    2  C2  UNL     1     -32.993  16.727  -3.201  1.00 20.00     0.016 C 
HETATM    3  C3  UNL     1     -35.107  15.513  -2.656  1.00 20.00     0.037 C 
HETATM    4  C4  UNL     1     -33.443  14.521  -4.282  1.00 20.00     0.201 C 
HETATM    5  C5  UNL     1     -36.192  15.135  -3.664  1.00 20.00     0.030 C 
HETATM    6  C6  UNL     1     -35.740  13.971  -4.543  1.00 20.00     0.168 C 
HETATM    7  O7  UNL     1     -34.513  14.292  -5.203  1.00 20.00    -0.387 OA
ENDROOT
TORSDOF 0
ENDMDL
MODEL 8
REMARK VINA RESULT:      -3.6      9.265      9.879
REMARK  0 active torsions:
REMARK  status: ('A' for Active; 'I' for Inactive)
ROOT
HETATM    1  C1  UNL     1     -41.508   8.195  -0.190  1.00 20.00    -0.066 C 
HETATM    2  C2  UNL     1     -41.429   9.428   0.329  1.00 20.00     0.016 C 
HETATM    3  C3  UNL     1     -41.207   6.955   0.606  1.00 20.00     0.037 C 
HETATM    4  C4  UNL     1     -41.931   7.936  -1.609  1.00 20.00     0.201 C 
HETATM    5  C5  UNL     1     -42.339   5.942   0.434  1.00 20.00     0.030 C 
HETATM    6  C6  UNL     1     -42.686   5.755  -1.041  1.00 20.00     0.168 C 
HETATM    7  O7  UNL     1     -43.022   7.010  -1.638  1.00 20.00    -0.387 OA
ENDROOT
TORSDOF 0
ENDMDL
MODEL 9
REMARK VINA RESULT:      -3.5     12.092     12.561
REMARK  0 active torsions:
REMARK  status: ('A' for Active; 'I' for Inactive)
ROOT
HETATM    1  C1  UNL     1     -35.260  14.643  -4.222  1.00 20.00    -0.066 C 
HETATM    2  C2  UNL     1     -36.008  13.555  -4.449  1.00 20.00     0.016 C 
HETATM    3  C3  UNL     1     -35.640  15.699  -3.221  1.00 20.00     0.037 C 
HETATM    4  C4  UNL     1     -33.956  14.895  -4.927  1.00 20.00     0.201 C 
HETATM    5  C5  UNL     1     -34.450  16.002  -2.311  1.00 20.00     0.030 C 
HETATM    6  C6  UNL     1     -33.183  16.242  -3.129  1.00 20.00     0.168 C 
HETATM    7  O7  UNL     1     -32.914  15.120  -3.973  1.00 20.00    -0.387 OA
ENDROOT
TORSDOF 0
ENDMDL
