MODEL 1
REMARK VINA RESULT:      -5.0      0.000      0.000
REMARK  4 active torsions:
REMARK  status: ('A' for Active; 'I' for Inactive)
REMARK    1  A    between atoms: C5_5  and  C8_8 
REMARK    2  A    between atoms: C6_6  and  C9_9 
REMARK    3  A    between atoms: C9_9  and  C10_10 
REMARK    4  A    between atoms: C10_10  and  O11_11 
ROOT
HETATM    1  C1  UNL     1     -32.820  16.983  -2.351  1.00 20.00     0.005 C 
HETATM    2  C2  UNL     1     -35.098  16.563  -1.345  1.00 20.00     0.005 C 
HETATM    3  C3  UNL     1     -33.251  16.261  -3.627  1.00 20.00     0.005 C 
HETATM    4  C4  UNL     1     -35.529  15.841  -2.620  1.00 20.00     0.005 C 
HETATM    5  C5  UNL     1     -34.015  17.613  -1.625  1.00 20.00    -0.015 C 
HETATM    6  C6  UNL     1     -34.334  15.211  -3.346  1.00 20.00    -0.013 C 
ENDROOT
BRANCH   6   7
HETATM    7  C9  UNL     1     -34.782  14.540  -4.643  1.00 20.00     0.030 C 
BRANCH   7   8
HETATM    8  C10 UNL     1     -36.076  13.769  -4.451  1.00 20.00     0.164 C 
BRANCH   8   9
HETATM    9  O11 UNL     1     -35.763  12.391  -4.308  1.00 20.00    -0.401 OA
HETATM   10  H31 UNL     1     -36.542  11.965  -3.913  1.00 20.00     0.209 HD
ENDBRANCH   8   9
ENDBRANCH   7   8
ENDBRANCH   6   7
BRANCH   5  11
HETATM   11  C8  UNL     1     -33.566  18.284  -0.328  1.00 20.00     0.000 C 
HETATM   12  C7  UNL     1     -32.081  18.428  -0.268  1.00 20.00     0.005 C 
ENDBRANCH   5  11
TORSDOF 4
ENDMDL
MODEL 2
REMARK VINA RESULT:      -4.7      0.532      1.613
REMARK  4 active torsions:
REMARK  status: ('A' for Active; 'I' for Inactive)
REMARK    1  A    between atoms: C5_5  and  C8_8 
REMARK    2  A    between atoms: C6_6  and  C9_9 
REMARK    3  A    between atoms: C9_9  and  C10_10 
REMARK    4  A    between atoms: C10_10  and  O11_11 
ROOT
HETATM    1  C1  UNL     1     -35.196  16.993  -1.507  1.00 20.00     0.005 C 
HETATM    2  C2  UNL     1     -32.945  17.472  -2.547  1.00 20.00     0.005 C 
HETATM    3  C3  UNL     1     -35.257  15.661  -2.251  1.00 20.00     0.005 C 
HETATM    4  C4  UNL     1     -33.006  16.139  -3.291  1.00 20.00     0.005 C 
HETATM    5  C5  UNL     1     -33.750  17.430  -1.242  1.00 20.00    -0.015 C 
HETATM    6  C6  UNL     1     -34.452  15.703  -3.557  1.00 20.00    -0.013 C 
ENDROOT
BRANCH   6   7
HETATM    7  C9  UNL     1     -34.488  14.345  -4.255  1.00 20.00     0.030 C 
BRANCH   7   8
HETATM    8  C10 UNL     1     -35.910  13.838  -4.411  1.00 20.00     0.164 C 
BRANCH   8   9
HETATM    9  O11 UNL     1     -35.905  12.426  -4.259  1.00 20.00    -0.401 OA
HETATM   10  H31 UNL     1     -36.028  12.245  -3.312  1.00 20.00     0.209 HD
ENDBRANCH   8   9
ENDBRANCH   7   8
ENDBRANCH   6   7
BRANCH   5  11
HETATM   11  C8  UNL     1     -33.715  18.788  -0.543  1.00 20.00     0.000 C 
HETATM   12  C7  UNL     1     -32.596  18.873   0.442  1.00 20.00     0.005 C 
ENDBRANCH   5  11
TORSDOF 4
ENDMDL
MODEL 3
REMARK VINA RESULT:      -4.7      1.459      1.681
REMARK  4 active torsions:
REMARK  status: ('A' for Active; 'I' for Inactive)
REMARK    1  A    between atoms: C5_5  and  C8_8 
REMARK    2  A    between atoms: C6_6  and  C9_9 
REMARK    3  A    between atoms: C9_9  and  C10_10 
REMARK    4  A    between atoms: C10_10  and  O11_11 
ROOT
HETATM    1  C1  UNL     1     -32.822  17.413  -2.117  1.00 20.00     0.005 C 
HETATM    2  C2  UNL     1     -35.069  16.819  -1.130  1.00 20.00     0.005 C 
HETATM    3  C3  UNL     1     -33.127  16.544  -3.335  1.00 20.00     0.005 C 
HETATM    4  C4  UNL     1     -35.375  15.950  -2.349  1.00 20.00     0.005 C 
HETATM    5  C5  UNL     1     -34.103  17.959  -1.474  1.00 20.00    -0.015 C 
HETATM    6  C6  UNL     1     -34.094  15.403  -2.991  1.00 20.00    -0.013 C 
ENDROOT
BRANCH   6   7
HETATM    7  C9  UNL     1     -34.421  14.580  -4.236  1.00 20.00     0.030 C 
BRANCH   7   8
HETATM    8  C10 UNL     1     -34.061  15.329  -5.507  1.00 20.00     0.164 C 
BRANCH   8   9
HETATM    9  O11 UNL     1     -33.121  14.552  -6.236  1.00 20.00    -0.401 OA
HETATM   10  H31 UNL     1     -33.209  14.809  -7.169  1.00 20.00     0.209 HD
ENDBRANCH   8   9
ENDBRANCH   7   8
ENDBRANCH   6   7
BRANCH   5  11
HETATM   11  C8  UNL     1     -33.774  18.782  -0.229  1.00 20.00     0.000 C 
HETATM   12  C7  UNL     1     -34.263  18.117   1.015  1.00 20.00     0.005 C 
ENDBRANCH   5  11
TORSDOF 4
ENDMDL
MODEL 4
REMARK VINA RESULT:      -4.7     10.639     11.452
REMARK  4 active torsions:
REMARK  status: ('A' for Active; 'I' for Inactive)
REMARK    1  A    between atoms: C5_5  and  C8_8 
REMARK    2  A    between atoms: C6_6  and  C9_9 
REMARK    3  A    between atoms: C9_9  and  C10_10 
REMARK    4  A    between atoms: C10_10  and  O11_11 
ROOT
HETATM    1  C1  UNL     1     -33.703   6.807   4.314  1.00 20.00     0.005 C 
HETATM    2  C2  UNL     1     -33.528   4.810   2.777  1.00 20.00     0.005 C 
HETATM    3  C3  UNL     1     -33.246   7.721   3.178  1.00 20.00     0.005 C 
HETATM    4  C4  UNL     1     -33.071   5.724   1.641  1.00 20.00     0.005 C 
HETATM    5  C5  UNL     1     -34.413   5.555   3.783  1.00 20.00    -0.015 C 
HETATM    6  C6  UNL     1     -32.360   6.976   2.171  1.00 20.00    -0.013 C 
ENDROOT
BRANCH   6   7
HETATM    7  C9  UNL     1     -31.959   7.897   1.021  1.00 20.00     0.030 C 
BRANCH   7   8
HETATM    8  C10 UNL     1     -33.030   8.936   0.743  1.00 20.00     0.164 C 
BRANCH   8   9
HETATM    9  O11 UNL     1     -33.665   8.612  -0.486  1.00 20.00    -0.401 OA
HETATM   10  H31 UNL     1     -33.253   9.167  -1.169  1.00 20.00     0.209 HD
ENDBRANCH   8   9
ENDBRANCH   7   8
ENDBRANCH   6   7
BRANCH   5  11
HETATM   11  C8  UNL     1     -34.814   4.634   4.934  1.00 20.00     0.000 C 
HETATM   12  C7  UNL     1     -34.762   5.340   6.249  1.00 20.00     0.005 C 
ENDBRANCH   5  11
TORSDOF 4
ENDMDL
MODEL 5
REMARK VINA RESULT:      -4.7     16.083     17.132
REMARK  4 active torsions:
REMARK  status: ('A' for Active; 'I' for Inactive)
REMARK    1  A    between atoms: C5_5  and  C8_8 
REMARK    2  A    between atoms: C6_6  and  C9_9 
REMARK    3  A    between atoms: C9_9  and  C10_10 
REMARK    4  A    between atoms: C10_10  and  O11_11 
ROOT
HETATM    1  C1  UNL     1     -23.833  18.162   9.188  1.00 20.00     0.005 C 
HETATM    2  C2  UNL     1     -22.824  17.475  11.398  1.00 20.00     0.005 C 
HETATM    3  C3  UNL     1     -24.991  18.832   9.925  1.00 20.00     0.005 C 
HETATM    4  C4  UNL     1     -23.981  18.145  12.136  1.00 20.00     0.005 C 
HETATM    5  C5  UNL     1     -22.558  18.136  10.040  1.00 20.00    -0.015 C 
HETATM    6  C6  UNL     1     -25.257  18.171  11.284  1.00 20.00    -0.013 C 
ENDROOT
BRANCH   6   7
HETATM    7  C9  UNL     1     -26.385  18.891  12.022  1.00 20.00     0.030 C 
BRANCH   7   8
HETATM    8  C10 UNL     1     -27.534  17.949  12.332  1.00 20.00     0.164 C 
BRANCH   8   9
HETATM    9  O11 UNL     1     -27.153  16.633  11.957  1.00 20.00    -0.401 OA
HETATM   10  H31 UNL     1     -27.817  16.031  12.333  1.00 20.00     0.209 HD
ENDBRANCH   8   9
ENDBRANCH   7   8
ENDBRANCH   6   7
BRANCH   5  11
HETATM   11  C8  UNL     1     -21.431  17.416   9.301  1.00 20.00     0.000 C 
HETATM   12  C7  UNL     1     -21.668  17.387   7.827  1.00 20.00     0.005 C 
ENDBRANCH   5  11
TORSDOF 4
ENDMDL
MODEL 6
REMARK VINA RESULT:      -4.5      2.762      5.323
REMARK  4 active torsions:
REMARK  status: ('A' for Active; 'I' for Inactive)
REMARK    1  A    between atoms: C5_5  and  C8_8 
REMARK    2  A    between atoms: C6_6  and  C9_9 
REMARK    3  A    between atoms: C9_9  and  C10_10 
REMARK    4  A    between atoms: C10_10  and  O11_11 
ROOT
HETATM    1  C1  UNL     1     -35.086  15.922  -1.944  1.00 20.00     0.005 C 
HETATM    2  C2  UNL     1     -33.157  15.848  -3.573  1.00 20.00     0.005 C 
HETATM    3  C3  UNL     1     -34.664  17.324  -1.508  1.00 20.00     0.005 C 
HETATM    4  C4  UNL     1     -32.735  17.250  -3.137  1.00 20.00     0.005 C 
HETATM    5  C5  UNL     1     -34.663  15.626  -3.389  1.00 20.00    -0.015 C 
HETATM    6  C6  UNL     1     -33.156  17.545  -1.692  1.00 20.00    -0.013 C 
ENDROOT
BRANCH   6   7
HETATM    7  C9  UNL     1     -32.769  18.969  -1.296  1.00 20.00     0.030 C 
BRANCH   7   8
HETATM    8  C10 UNL     1     -31.799  18.976  -0.128  1.00 20.00     0.164 C 
BRANCH   8   9
HETATM    9  O11 UNL     1     -30.571  18.406  -0.557  1.00 20.00    -0.401 OA
HETATM   10  H31 UNL     1     -30.024  19.138  -0.890  1.00 20.00     0.209 HD
ENDBRANCH   8   9
ENDBRANCH   7   8
ENDBRANCH   6   7
BRANCH   5  11
HETATM   11  C8  UNL     1     -35.051  14.202  -3.784  1.00 20.00     0.000 C 
HETATM   12  C7  UNL     1     -36.372  14.164  -4.480  1.00 20.00     0.005 C 
ENDBRANCH   5  11
TORSDOF 4
ENDMDL
MODEL 7
REMARK VINA RESULT:      -4.5      1.581      2.309
REMARK  4 active torsions:
REMARK  status: ('A' for Active; 'I' for Inactive)
REMARK    1  A    between atoms: C5_5  and  C8_8 
REMARK    2  A    between atoms: C6_6  and  C9_9 
REMARK    3  A    between atoms: C9_9  and  C10_10 
REMARK    4  A    between atoms: C10_10  and  O11_11 
ROOT
HETATM    1  C1  UNL     1     -35.148  16.993  -1.344  1.00 20.00     0.005 C 
HETATM    2  C2  UNL     1     -32.916  17.730  -2.267  1.00 20.00     0.005 C 
HETATM    3  C3  UNL     1     -35.108  15.753  -2.235  1.00 20.00     0.005 C 
HETATM    4  C4  UNL     1     -32.876  16.491  -3.159  1.00 20.00     0.005 C 
HETATM    5  C5  UNL     1     -33.739  17.487  -0.996  1.00 20.00    -0.015 C 
HETATM    6  C6  UNL     1     -34.285  15.997  -3.508  1.00 20.00    -0.013 C 
ENDROOT
BRANCH   6   7
HETATM    7  C9  UNL     1     -34.219  14.729  -4.357  1.00 20.00     0.030 C 
BRANCH   7   8
HETATM    8  C10 UNL     1     -34.210  15.054  -5.840  1.00 20.00     0.164 C 
BRANCH   8   9
HETATM    9  O11 UNL     1     -33.010  14.545  -6.406  1.00 20.00    -0.401 OA
HETATM   10  H31 UNL     1     -32.958  13.608  -6.157  1.00 20.00     0.209 HD
ENDBRANCH   8   9
ENDBRANCH   7   8
ENDBRANCH   6   7
BRANCH   5  11
HETATM   11  C8  UNL     1     -33.806  18.755  -0.146  1.00 20.00     0.000 C 
HETATM   12  C7  UNL     1     -34.035  18.441   1.296  1.00 20.00     0.005 C 
ENDBRANCH   5  11
TORSDOF 4
ENDMDL
MODEL 8
REMARK VINA RESULT:      -4.4      2.830      4.992
REMARK  4 active torsions:
REMARK  status: ('A' for Active; 'I' for Inactive)
REMARK    1  A    between atoms: C5_5  and  C8_8 
REMARK    2  A    between atoms: C6_6  and  C9_9 
REMARK    3  A    between atoms: C9_9  and  C10_10 
REMARK    4  A    between atoms: C10_10  and  O11_11 
ROOT
HETATM    1  C1  UNL     1     -33.023  17.088  -2.794  1.00 20.00     0.005 C 
HETATM    2  C2  UNL     1     -35.280  16.159  -2.148  1.00 20.00     0.005 C 
HETATM    3  C3  UNL     1     -32.944  17.825  -1.458  1.00 20.00     0.005 C 
HETATM    4  C4  UNL     1     -35.202  16.896  -0.812  1.00 20.00     0.005 C 
HETATM    5  C5  UNL     1     -33.887  15.825  -2.694  1.00 20.00    -0.015 C 
HETATM    6  C6  UNL     1     -34.338  18.160  -0.912  1.00 20.00    -0.013 C 
ENDROOT
BRANCH   6   7
HETATM    7  C9  UNL     1     -34.232  18.851   0.447  1.00 20.00     0.030 C 
BRANCH   7   8
HETATM    8  C10 UNL     1     -34.869  18.018   1.544  1.00 20.00     0.164 C 
BRANCH   8   9
HETATM    9  O11 UNL     1     -33.848  17.585   2.432  1.00 20.00    -0.401 OA
HETATM   10  H31 UNL     1     -33.193  17.108   1.894  1.00 20.00     0.209 HD
ENDBRANCH   8   9
ENDBRANCH   7   8
ENDBRANCH   6   7
BRANCH   5  11
HETATM   11  C8  UNL     1     -33.992  15.134  -4.053  1.00 20.00     0.000 C 
HETATM   12  C7  UNL     1     -35.098  14.132  -4.078  1.00 20.00     0.005 C 
ENDBRANCH   5  11
TORSDOF 4
ENDMDL
MODEL 9
REMARK VINA RESULT:      -4.2     15.739     16.705
REMARK  4 active torsions:
REMARK  status: ('A' for Active; 'I' for Inactive)
REMARK    1  A    between atoms: C5_5  and  C8_8 
REMARK    2  A    between atoms: C6_6  and  C9_9 
REMARK    3  A    between atoms: C9_9  and  C10_10 
REMARK    4  A    between atoms: C10_10  and  O11_11 
ROOT
HETATM    1  C1  UNL     1     -23.682  16.641  10.996  1.00 20.00     0.005 C 
HETATM    2  C2  UNL     1     -24.073  18.647   9.512  1.00 20.00     0.005 C 
HETATM    3  C3  UNL     1     -25.050  16.853  11.642  1.00 20.00     0.005 C 
HETATM    4  C4  UNL     1     -25.441  18.858  10.158  1.00 20.00     0.005 C 
HETATM    5  C5  UNL     1     -23.646  17.175   9.558  1.00 20.00    -0.015 C 
HETATM    6  C6  UNL     1     -25.478  18.325  11.595  1.00 20.00    -0.013 C 
ENDROOT
BRANCH   6   7
HETATM    7  C9  UNL     1     -26.869  18.502  12.202  1.00 20.00     0.030 C 
BRANCH   7   8
HETATM    8  C10 UNL     1     -27.818  19.175  11.228  1.00 20.00     0.164 C 
BRANCH   8   9
HETATM    9  O11 UNL     1     -28.830  18.246  10.868  1.00 20.00    -0.401 OA
HETATM   10  H31 UNL     1     -29.357  18.081  11.668  1.00 20.00     0.209 HD
ENDBRANCH   8   9
ENDBRANCH   7   8
ENDBRANCH   6   7
BRANCH   5  11
HETATM   11  C8  UNL     1     -22.254  16.998   8.952  1.00 20.00     0.000 C 
HETATM   12  C7  UNL     1     -21.293  18.014   9.474  1.00 20.00     0.005 C 
ENDBRANCH   5  11
TORSDOF 4
ENDMDL
