MODEL 1
REMARK VINA RESULT:      -5.1      0.000      0.000
REMARK  0 active torsions:
REMARK  status: ('A' for Active; 'I' for Inactive)
ROOT
HETATM    1  C1  UNL     1     -35.261  13.608  -4.214  1.00 20.00     0.088 C 
HETATM    2  C2  UNL     1     -34.412  15.763  -3.554  1.00 20.00    -0.070 C 
HETATM    3  C3  UNL     1     -34.200  14.530  -4.036  1.00 20.00     0.096 C 
HETATM    4  C4  UNL     1     -35.786  16.248  -3.174  1.00 20.00     0.035 C 
HETATM    5  C5  UNL     1     -33.297  16.741  -3.314  1.00 20.00     0.039 C 
HETATM    6  C6  UNL     1     -35.741  17.340  -2.094  1.00 20.00     0.009 C 
HETATM    7  C7  UNL     1     -33.206  17.156  -1.827  1.00 20.00    -0.011 C 
HETATM    8  C8  UNL     1     -34.588  17.109  -1.106  1.00 20.00    -0.014 C 
HETATM    9  C9  UNL     1     -32.485  18.506  -1.740  1.00 20.00     0.010 C 
HETATM   10  C10 UNL     1     -34.709  18.043   0.099  1.00 20.00     0.010 C 
HETATM   11  N11 UNL     1     -36.125  12.848  -4.363  1.00 20.00    -0.192 NA
ENDROOT
TORSDOF 0
ENDMDL
MODEL 2
REMARK VINA RESULT:      -5.1      1.166      2.303
REMARK  0 active torsions:
REMARK  status: ('A' for Active; 'I' for Inactive)
ROOT
HETATM    1  C1  UNL     1     -36.079  14.396  -5.016  1.00 20.00     0.088 C 
HETATM    2  C2  UNL     1     -35.074  15.438  -3.090  1.00 20.00    -0.070 C 
HETATM    3  C3  UNL     1     -36.164  14.993  -3.733  1.00 20.00     0.096 C 
HETATM    4  C4  UNL     1     -33.695  15.333  -3.686  1.00 20.00     0.035 C 
HETATM    5  C5  UNL     1     -35.145  16.115  -1.751  1.00 20.00     0.039 C 
HETATM    6  C6  UNL     1     -32.746  16.419  -3.157  1.00 20.00     0.009 C 
HETATM    7  C7  UNL     1     -34.593  17.559  -1.806  1.00 20.00    -0.011 C 
HETATM    8  C8  UNL     1     -33.490  17.738  -2.894  1.00 20.00    -0.014 C 
HETATM    9  C9  UNL     1     -34.171  17.975  -0.392  1.00 20.00     0.010 C 
HETATM   10  C10 UNL     1     -32.503  18.873  -2.618  1.00 20.00     0.010 C 
HETATM   11  N11 UNL     1     -36.017  13.906  -6.066  1.00 20.00    -0.192 NA
ENDROOT
TORSDOF 0
ENDMDL
MODEL 3
REMARK VINA RESULT:      -5.0     10.565     11.786
REMARK  0 active torsions:
REMARK  status: ('A' for Active; 'I' for Inactive)
ROOT
HETATM    1  C1  UNL     1     -32.804   8.732   0.896  1.00 20.00     0.088 C 
HETATM    2  C2  UNL     1     -32.836   6.775   2.299  1.00 20.00    -0.070 C 
HETATM    3  C3  UNL     1     -32.989   7.341   1.093  1.00 20.00     0.096 C 
HETATM    4  C4  UNL     1     -32.459   7.576   3.517  1.00 20.00     0.035 C 
HETATM    5  C5  UNL     1     -33.072   5.311   2.541  1.00 20.00     0.039 C 
HETATM    6  C6  UNL     1     -32.960   6.931   4.818  1.00 20.00     0.009 C 
HETATM    7  C7  UNL     1     -34.198   5.072   3.574  1.00 20.00    -0.011 C 
HETATM    8  C8  UNL     1     -34.312   6.229   4.614  1.00 20.00    -0.014 C 
HETATM    9  C9  UNL     1     -34.013   3.678   4.184  1.00 20.00     0.010 C 
HETATM   10  C10 UNL     1     -34.919   5.819   5.956  1.00 20.00     0.010 C 
HETATM   11  N11 UNL     1     -32.653   9.870   0.726  1.00 20.00    -0.192 NA
ENDROOT
TORSDOF 0
ENDMDL
MODEL 4
REMARK VINA RESULT:      -4.8      2.814      4.809
REMARK  0 active torsions:
REMARK  status: ('A' for Active; 'I' for Inactive)
ROOT
HETATM    1  C1  UNL     1     -31.734  18.295  -0.590  1.00 20.00     0.088 C 
HETATM    2  C2  UNL     1     -33.608  17.754  -2.003  1.00 20.00    -0.070 C 
HETATM    3  C3  UNL     1     -33.125  18.257  -0.858  1.00 20.00     0.096 C 
HETATM    4  C4  UNL     1     -32.707  17.199  -3.076  1.00 20.00     0.035 C 
HETATM    5  C5  UNL     1     -35.079  17.661  -2.289  1.00 20.00     0.039 C 
HETATM    6  C6  UNL     1     -33.409  16.136  -3.934  1.00 20.00     0.009 C 
HETATM    7  C7  UNL     1     -35.532  16.198  -2.511  1.00 20.00    -0.011 C 
HETATM    8  C8  UNL     1     -34.399  15.305  -3.104  1.00 20.00    -0.014 C 
HETATM    9  C9  UNL     1     -36.832  16.207  -3.324  1.00 20.00     0.010 C 
HETATM   10  C10 UNL     1     -34.894  14.095  -3.899  1.00 20.00     0.010 C 
HETATM   11  N11 UNL     1     -30.596  18.331  -0.364  1.00 20.00    -0.192 NA
ENDROOT
TORSDOF 0
ENDMDL
MODEL 5
REMARK VINA RESULT:      -4.8      3.208      5.189
REMARK  0 active torsions:
REMARK  status: ('A' for Active; 'I' for Inactive)
ROOT
HETATM    1  C1  UNL     1     -31.418  18.590   0.597  1.00 20.00     0.088 C 
HETATM    2  C2  UNL     1     -33.246  18.078  -0.885  1.00 20.00    -0.070 C 
HETATM    3  C3  UNL     1     -32.764  18.218   0.359  1.00 20.00     0.096 C 
HETATM    4  C4  UNL     1     -32.392  18.306  -2.105  1.00 20.00     0.035 C 
HETATM    5  C5  UNL     1     -34.656  17.640  -1.162  1.00 20.00     0.039 C 
HETATM    6  C6  UNL     1     -32.881  17.500  -3.318  1.00 20.00     0.009 C 
HETATM    7  C7  UNL     1     -34.703  16.321  -1.967  1.00 20.00    -0.011 C 
HETATM    8  C8  UNL     1     -33.462  16.142  -2.896  1.00 20.00    -0.014 C 
HETATM    9  C9  UNL     1     -36.055  16.232  -2.682  1.00 20.00     0.010 C 
HETATM   10  C10 UNL     1     -33.704  15.252  -4.115  1.00 20.00     0.010 C 
HETATM   11  N11 UNL     1     -30.317  18.895   0.800  1.00 20.00    -0.192 NA
ENDROOT
TORSDOF 0
ENDMDL
MODEL 6
REMARK VINA RESULT:      -4.7      1.169      1.240
REMARK  0 active torsions:
REMARK  status: ('A' for Active; 'I' for Inactive)
ROOT
HETATM    1  C1  UNL     1     -37.107  14.349  -4.345  1.00 20.00     0.088 C 
HETATM    2  C2  UNL     1     -35.527  16.021  -3.634  1.00 20.00    -0.070 C 
HETATM    3  C3  UNL     1     -35.788  14.854  -4.241  1.00 20.00     0.096 C 
HETATM    4  C4  UNL     1     -36.614  16.868  -3.027  1.00 20.00     0.035 C 
HETATM    5  C5  UNL     1     -34.132  16.554  -3.471  1.00 20.00     0.039 C 
HETATM    6  C6  UNL     1     -36.097  17.746  -1.878  1.00 20.00     0.009 C 
HETATM    7  C7  UNL     1     -33.753  16.731  -1.982  1.00 20.00    -0.011 C 
HETATM    8  C8  UNL     1     -34.990  17.038  -1.082  1.00 20.00    -0.014 C 
HETATM    9  C9  UNL     1     -32.620  17.758  -1.884  1.00 20.00     0.010 C 
HETATM   10  C10 UNL     1     -34.667  17.805   0.201  1.00 20.00     0.010 C 
HETATM   11  N11 UNL     1     -38.185  13.929  -4.436  1.00 20.00    -0.192 NA
ENDROOT
TORSDOF 0
ENDMDL
MODEL 7
REMARK VINA RESULT:      -4.6      2.758      4.791
REMARK  0 active torsions:
REMARK  status: ('A' for Active; 'I' for Inactive)
ROOT
HETATM    1  C1  UNL     1     -34.418  17.765   1.060  1.00 20.00     0.088 C 
HETATM    2  C2  UNL     1     -34.933  17.262  -1.238  1.00 20.00    -0.070 C 
HETATM    3  C3  UNL     1     -35.302  17.310   0.050  1.00 20.00     0.096 C 
HETATM    4  C4  UNL     1     -33.562  17.686  -1.695  1.00 20.00     0.035 C 
HETATM    5  C5  UNL     1     -35.836  16.740  -2.319  1.00 20.00     0.039 C 
HETATM    6  C6  UNL     1     -33.131  16.974  -2.986  1.00 20.00     0.009 C 
HETATM    7  C7  UNL     1     -35.227  15.513  -3.037  1.00 20.00    -0.011 C 
HETATM    8  C8  UNL     1     -33.668  15.536  -3.043  1.00 20.00    -0.014 C 
HETATM    9  C9  UNL     1     -35.871  15.387  -4.422  1.00 20.00     0.010 C 
HETATM   10  C10 UNL     1     -33.025  14.761  -4.194  1.00 20.00     0.010 C 
HETATM   11  N11 UNL     1     -33.700  18.137   1.893  1.00 20.00    -0.192 NA
ENDROOT
TORSDOF 0
ENDMDL
MODEL 8
REMARK VINA RESULT:      -4.6      2.780      4.904
REMARK  0 active torsions:
REMARK  status: ('A' for Active; 'I' for Inactive)
ROOT
HETATM    1  C1  UNL     1     -32.431  18.301  -1.842  1.00 20.00     0.088 C 
HETATM    2  C2  UNL     1     -34.091  16.836  -2.789  1.00 20.00    -0.070 C 
HETATM    3  C3  UNL     1     -33.220  17.125  -1.812  1.00 20.00     0.096 C 
HETATM    4  C4  UNL     1     -34.289  17.740  -3.978  1.00 20.00     0.035 C 
HETATM    5  C5  UNL     1     -34.904  15.573  -2.801  1.00 20.00     0.039 C 
HETATM    6  C6  UNL     1     -34.775  16.974  -5.218  1.00 20.00     0.009 C 
HETATM    7  C7  UNL     1     -34.607  14.707  -4.048  1.00 20.00    -0.011 C 
HETATM    8  C8  UNL     1     -34.175  15.561  -5.280  1.00 20.00    -0.014 C 
HETATM    9  C9  UNL     1     -35.802  13.782  -4.298  1.00 20.00     0.010 C 
HETATM   10  C10 UNL     1     -34.457  14.910  -6.635  1.00 20.00     0.010 C 
HETATM   11  N11 UNL     1     -31.782  19.263  -1.860  1.00 20.00    -0.192 NA
ENDROOT
TORSDOF 0
ENDMDL
MODEL 9
REMARK VINA RESULT:      -4.5      2.693      4.462
REMARK  0 active torsions:
REMARK  status: ('A' for Active; 'I' for Inactive)
ROOT
HETATM    1  C1  UNL     1     -33.395  17.897  -0.923  1.00 20.00     0.088 C 
HETATM    2  C2  UNL     1     -33.663  16.351  -2.750  1.00 20.00    -0.070 C 
HETATM    3  C3  UNL     1     -32.939  17.286  -2.117  1.00 20.00     0.096 C 
HETATM    4  C4  UNL     1     -35.001  15.890  -2.234  1.00 20.00     0.035 C 
HETATM    5  C5  UNL     1     -33.222  15.723  -4.042  1.00 20.00     0.039 C 
HETATM    6  C6  UNL     1     -35.910  15.366  -3.357  1.00 20.00     0.009 C 
HETATM    7  C7  UNL     1     -34.232  15.984  -5.184  1.00 20.00    -0.011 C 
HETATM    8  C8  UNL     1     -35.695  16.143  -4.665  1.00 20.00    -0.014 C 
HETATM    9  C9  UNL     1     -34.047  14.905  -6.256  1.00 20.00     0.010 C 
HETATM   10  C10 UNL     1     -36.774  15.792  -5.690  1.00 20.00     0.010 C 
HETATM   11  N11 UNL     1     -33.761  18.401   0.056  1.00 20.00    -0.192 NA
ENDROOT
TORSDOF 0
ENDMDL
