MODEL 1
REMARK VINA RESULT:      -4.2      0.000      0.000
REMARK  3 active torsions:
REMARK  status: ('A' for Active; 'I' for Inactive)
REMARK    1  A    between atoms: C2_2  and  C3_3 
REMARK    2  A    between atoms: C2_2  and  S8_8 
REMARK    3  A    between atoms: C3_3  and  C4_4 
ROOT
HETATM    1  C3  UNL     1     -34.235   6.278   4.097  1.00 20.00     0.174 C 
HETATM    2 BR9  UNL     1     -33.445   7.040   5.736  1.00 20.00    -0.081 Br
ENDROOT
BRANCH   1   3
HETATM    3  C2  UNL     1     -33.097   6.043   3.104  1.00 20.00     0.098 C 
BRANCH   3   4
HETATM    4  S8  UNL     1     -32.011   7.489   2.921  1.00 20.00    -0.172 SA
HETATM    5  C1  UNL     1     -32.580   8.038   1.297  1.00 20.00     0.089 C 
ENDBRANCH   3   4
ENDBRANCH   1   3
BRANCH   1   6
HETATM    6  C4  UNL     1     -35.006   5.031   4.497  1.00 20.00     0.401 C 
HETATM    7  F5  UNL     1     -35.073   4.889   5.839  1.00 20.00    -0.170 F 
HETATM    8  F6  UNL     1     -34.431   3.915   3.992  1.00 20.00    -0.170 F 
HETATM    9  F7  UNL     1     -36.273   5.061   4.030  1.00 20.00    -0.170 F 
ENDBRANCH   1   6
TORSDOF 3
ENDMDL
MODEL 2
REMARK VINA RESULT:      -4.2      0.011      1.257
REMARK  3 active torsions:
REMARK  status: ('A' for Active; 'I' for Inactive)
REMARK    1  A    between atoms: C2_2  and  C3_3 
REMARK    2  A    between atoms: C2_2  and  S8_8 
REMARK    3  A    between atoms: C3_3  and  C4_4 
ROOT
HETATM    1  C3  UNL     1     -34.239   6.274   4.092  1.00 20.00     0.174 C 
HETATM    2 BR9  UNL     1     -33.457   7.032   5.736  1.00 20.00    -0.081 Br
ENDROOT
BRANCH   1   3
HETATM    3  C2  UNL     1     -33.097   6.045   3.102  1.00 20.00     0.098 C 
BRANCH   3   4
HETATM    4  S8  UNL     1     -32.018   7.498   2.923  1.00 20.00    -0.172 SA
HETATM    5  C1  UNL     1     -32.581   8.040   1.294  1.00 20.00     0.089 C 
ENDBRANCH   3   4
ENDBRANCH   1   3
BRANCH   1   6
HETATM    6  C4  UNL     1     -35.009   5.023   4.485  1.00 20.00     0.401 C 
HETATM    7  F5  UNL     1     -34.433   3.904   3.995  1.00 20.00    -0.170 F 
HETATM    8  F6  UNL     1     -36.281   5.067   4.030  1.00 20.00    -0.170 F 
HETATM    9  F7  UNL     1     -35.079   4.888   5.827  1.00 20.00    -0.170 F 
ENDBRANCH   1   6
TORSDOF 3
ENDMDL
MODEL 3
REMARK VINA RESULT:      -3.6     12.077     12.684
REMARK  3 active torsions:
REMARK  status: ('A' for Active; 'I' for Inactive)
REMARK    1  A    between atoms: C2_2  and  C3_3 
REMARK    2  A    between atoms: C2_2  and  S8_8 
REMARK    3  A    between atoms: C3_3  and  C4_4 
ROOT
HETATM    1  C3  UNL     1     -34.802  15.503  -2.736  1.00 20.00     0.174 C 
HETATM    2 BR9  UNL     1     -35.143  16.826  -1.312  1.00 20.00    -0.081 Br
ENDROOT
BRANCH   1   3
HETATM    3  C2  UNL     1     -36.031  15.479  -3.644  1.00 20.00     0.098 C 
BRANCH   3   4
HETATM    4  S8  UNL     1     -36.189  13.925  -4.575  1.00 20.00    -0.172 SA
HETATM    5  C1  UNL     1     -35.707  14.548  -6.202  1.00 20.00     0.089 C 
ENDBRANCH   3   4
ENDBRANCH   1   3
BRANCH   1   6
HETATM    6  C4  UNL     1     -33.504  15.894  -3.423  1.00 20.00     0.401 C 
HETATM    7  F5  UNL     1     -32.661  16.530  -2.581  1.00 20.00    -0.170 F 
HETATM    8  F6  UNL     1     -33.733  16.713  -4.475  1.00 20.00    -0.170 F 
HETATM    9  F7  UNL     1     -32.855  14.812  -3.905  1.00 20.00    -0.170 F 
ENDBRANCH   1   6
TORSDOF 3
ENDMDL
MODEL 4
REMARK VINA RESULT:      -3.4      1.669      2.117
REMARK  3 active torsions:
REMARK  status: ('A' for Active; 'I' for Inactive)
REMARK    1  A    between atoms: C2_2  and  C3_3 
REMARK    2  A    between atoms: C2_2  and  S8_8 
REMARK    3  A    between atoms: C3_3  and  C4_4 
ROOT
HETATM    1  C3  UNL     1     -33.480   5.857   3.973  1.00 20.00     0.174 C 
HETATM    2 BR9  UNL     1     -33.517   4.550   2.495  1.00 20.00    -0.081 Br
ENDROOT
BRANCH   1   3
HETATM    3  C2  UNL     1     -33.454   7.253   3.351  1.00 20.00     0.098 C 
BRANCH   3   4
HETATM    4  S8  UNL     1     -32.230   7.408   2.016  1.00 20.00    -0.172 SA
HETATM    5  C1  UNL     1     -33.067   8.679   1.042  1.00 20.00     0.089 C 
ENDBRANCH   3   4
ENDBRANCH   1   3
BRANCH   1   6
HETATM    6  C4  UNL     1     -34.676   5.573   4.866  1.00 20.00     0.401 C 
HETATM    7  F5  UNL     1     -35.843   5.686   4.194  1.00 20.00    -0.170 F 
HETATM    8  F6  UNL     1     -34.719   6.425   5.915  1.00 20.00    -0.170 F 
HETATM    9  F7  UNL     1     -34.624   4.325   5.380  1.00 20.00    -0.170 F 
ENDBRANCH   1   6
TORSDOF 3
ENDMDL
MODEL 5
REMARK VINA RESULT:      -3.4      1.687      1.727
REMARK  3 active torsions:
REMARK  status: ('A' for Active; 'I' for Inactive)
REMARK    1  A    between atoms: C2_2  and  C3_3 
REMARK    2  A    between atoms: C2_2  and  S8_8 
REMARK    3  A    between atoms: C3_3  and  C4_4 
ROOT
HETATM    1  C3  UNL     1     -33.469   5.893   3.941  1.00 20.00     0.174 C 
HETATM    2 BR9  UNL     1     -33.512   4.584   2.465  1.00 20.00    -0.081 Br
ENDROOT
BRANCH   1   3
HETATM    3  C2  UNL     1     -33.451   7.288   3.316  1.00 20.00     0.098 C 
BRANCH   3   4
HETATM    4  S8  UNL     1     -32.251   7.438   1.959  1.00 20.00    -0.172 SA
HETATM    5  C1  UNL     1     -33.084   8.736   1.018  1.00 20.00     0.089 C 
ENDBRANCH   3   4
ENDBRANCH   1   3
BRANCH   1   6
HETATM    6  C4  UNL     1     -34.659   5.608   4.841  1.00 20.00     0.401 C 
HETATM    7  F5  UNL     1     -34.710   6.456   5.892  1.00 20.00    -0.170 F 
HETATM    8  F6  UNL     1     -34.614   4.347   5.329  1.00 20.00    -0.170 F 
HETATM    9  F7  UNL     1     -35.826   5.724   4.170  1.00 20.00    -0.170 F 
ENDBRANCH   1   6
TORSDOF 3
ENDMDL
MODEL 6
REMARK VINA RESULT:      -3.4      2.419      3.510
REMARK  3 active torsions:
REMARK  status: ('A' for Active; 'I' for Inactive)
REMARK    1  A    between atoms: C2_2  and  C3_3 
REMARK    2  A    between atoms: C2_2  and  S8_8 
REMARK    3  A    between atoms: C3_3  and  C4_4 
ROOT
HETATM    1  C3  UNL     1     -32.990   6.260   3.252  1.00 20.00     0.174 C 
HETATM    2 BR9  UNL     1     -32.487   7.528   1.826  1.00 20.00    -0.081 Br
ENDROOT
BRANCH   1   3
HETATM    3  C2  UNL     1     -34.074   6.927   4.099  1.00 20.00     0.098 C 
BRANCH   3   4
HETATM    4  S8  UNL     1     -33.797   6.725   5.884  1.00 20.00    -0.172 SA
HETATM    5  C1  UNL     1     -34.802   5.245   6.138  1.00 20.00     0.089 C 
ENDBRANCH   3   4
ENDBRANCH   1   3
BRANCH   1   6
HETATM    6  C4  UNL     1     -33.406   4.960   2.583  1.00 20.00     0.401 C 
HETATM    7  F5  UNL     1     -32.339   4.207   2.239  1.00 20.00    -0.170 F 
HETATM    8  F6  UNL     1     -34.126   5.193   1.463  1.00 20.00    -0.170 F 
HETATM    9  F7  UNL     1     -34.183   4.212   3.397  1.00 20.00    -0.170 F 
ENDBRANCH   1   6
TORSDOF 3
ENDMDL
MODEL 7
REMARK VINA RESULT:      -3.4     12.277     12.889
REMARK  3 active torsions:
REMARK  status: ('A' for Active; 'I' for Inactive)
REMARK    1  A    between atoms: C2_2  and  C3_3 
REMARK    2  A    between atoms: C2_2  and  S8_8 
REMARK    3  A    between atoms: C3_3  and  C4_4 
ROOT
HETATM    1  C3  UNL     1     -34.725  16.102  -4.563  1.00 20.00     0.174 C 
HETATM    2 BR9  UNL     1     -34.397  15.173  -6.272  1.00 20.00    -0.081 Br
ENDROOT
BRANCH   1   3
HETATM    3  C2  UNL     1     -36.233  16.091  -4.315  1.00 20.00     0.098 C 
BRANCH   3   4
HETATM    4  S8  UNL     1     -36.965  14.437  -4.497  1.00 20.00    -0.172 SA
HETATM    5  C1  UNL     1     -38.694  14.886  -4.222  1.00 20.00     0.089 C 
ENDBRANCH   3   4
ENDBRANCH   1   3
BRANCH   1   6
HETATM    6  C4  UNL     1     -33.894  15.407  -3.497  1.00 20.00     0.401 C 
HETATM    7  F5  UNL     1     -34.527  15.379  -2.304  1.00 20.00    -0.170 F 
HETATM    8  F6  UNL     1     -32.705  16.028  -3.319  1.00 20.00    -0.170 F 
HETATM    9  F7  UNL     1     -33.619  14.130  -3.840  1.00 20.00    -0.170 F 
ENDBRANCH   1   6
TORSDOF 3
ENDMDL
MODEL 8
REMARK VINA RESULT:      -3.3     12.028     12.877
REMARK  3 active torsions:
REMARK  status: ('A' for Active; 'I' for Inactive)
REMARK    1  A    between atoms: C2_2  and  C3_3 
REMARK    2  A    between atoms: C2_2  and  S8_8 
REMARK    3  A    between atoms: C3_3  and  C4_4 
ROOT
HETATM    1  C3  UNL     1     -34.426  14.622  -3.906  1.00 20.00     0.174 C 
HETATM    2 BR9  UNL     1     -36.304  14.170  -4.312  1.00 20.00    -0.081 Br
ENDROOT
BRANCH   1   3
HETATM    3  C2  UNL     1     -33.713  14.858  -5.237  1.00 20.00     0.098 C 
BRANCH   3   4
HETATM    4  S8  UNL     1     -34.866  15.115  -6.620  1.00 20.00    -0.172 SA
HETATM    5  C1  UNL     1     -34.501  16.855  -6.942  1.00 20.00     0.089 C 
ENDBRANCH   3   4
ENDBRANCH   1   3
BRANCH   1   6
HETATM    6  C4  UNL     1     -34.436  15.814  -2.963  1.00 20.00     0.401 C 
HETATM    7  F5  UNL     1     -34.954  16.915  -3.549  1.00 20.00    -0.170 F 
HETATM    8  F6  UNL     1     -33.187  16.118  -2.544  1.00 20.00    -0.170 F 
HETATM    9  F7  UNL     1     -35.168  15.562  -1.856  1.00 20.00    -0.170 F 
ENDBRANCH   1   6
TORSDOF 3
ENDMDL
MODEL 9
REMARK VINA RESULT:      -3.3      9.000      9.631
REMARK  3 active torsions:
REMARK  status: ('A' for Active; 'I' for Inactive)
REMARK    1  A    between atoms: C2_2  and  C3_3 
REMARK    2  A    between atoms: C2_2  and  S8_8 
REMARK    3  A    between atoms: C3_3  and  C4_4 
ROOT
HETATM    1  C3  UNL     1     -42.711   7.714   0.368  1.00 20.00     0.174 C 
HETATM    2 BR9  UNL     1     -43.415   8.105  -1.433  1.00 20.00    -0.081 Br
ENDROOT
BRANCH   1   3
HETATM    3  C2  UNL     1     -42.863   6.212   0.605  1.00 20.00     0.098 C 
BRANCH   3   4
HETATM    4  S8  UNL     1     -42.954   5.260  -0.942  1.00 20.00    -0.172 SA
HETATM    5  C1  UNL     1     -41.183   5.013  -1.200  1.00 20.00     0.089 C 
ENDBRANCH   3   4
ENDBRANCH   1   3
BRANCH   1   6
HETATM    6  C4  UNL     1     -41.283   8.232   0.424  1.00 20.00     0.401 C 
HETATM    7  F5  UNL     1     -40.762   8.406  -0.809  1.00 20.00    -0.170 F 
HETATM    8  F6  UNL     1     -40.478   7.379   1.097  1.00 20.00    -0.170 F 
HETATM    9  F7  UNL     1     -41.213   9.420   1.065  1.00 20.00    -0.170 F 
ENDBRANCH   1   6
TORSDOF 3
ENDMDL
