MODEL 1
REMARK VINA RESULT:      -5.2      0.000      0.000
REMARK  1 active torsions:
REMARK  status: ('A' for Active; 'I' for Inactive)
REMARK    1  A    between atoms: C6_6  and  C8_8 
ROOT
HETATM    1  C1  UNL     1     -33.043   7.354   4.643  1.00 20.00     0.016 C 
HETATM    2  C2  UNL     1     -34.065   5.510   3.236  1.00 20.00     0.016 C 
HETATM    3  C3  UNL     1     -32.012   7.624   3.547  1.00 20.00     0.041 C 
HETATM    4  C4  UNL     1     -33.036   5.775   2.137  1.00 20.00     0.041 C 
HETATM    5  C5  UNL     1     -33.032   8.219   1.219  1.00 20.00     0.207 A 
HETATM    6  C6  UNL     1     -33.517   5.890   4.624  1.00 20.00     0.093 C 
HETATM    7  C7  UNL     1     -32.552   7.192   2.217  1.00 20.00     0.082 A 
HETATM    8  O9  UNL     1     -31.744   7.596   1.102  1.00 20.00    -0.375 OA
ENDROOT
BRANCH   6   9
HETATM    9  C8  UNL     1     -34.574   5.653   5.702  1.00 20.00     0.391 C 
HETATM   10  F10 UNL     1     -34.677   6.734   6.489  1.00 20.00    -0.171 F 
HETATM   11  F11 UNL     1     -35.765   5.414   5.132  1.00 20.00    -0.171 F 
HETATM   12  F12 UNL     1     -34.232   4.597   6.455  1.00 20.00    -0.171 F 
ENDBRANCH   6   9
TORSDOF 1
ENDMDL
MODEL 2
REMARK VINA RESULT:      -5.0     11.668     12.328
REMARK  1 active torsions:
REMARK  status: ('A' for Active; 'I' for Inactive)
REMARK    1  A    between atoms: C6_6  and  C8_8 
ROOT
HETATM    1  C1  UNL     1     -33.298  15.633  -3.626  1.00 20.00     0.016 C 
HETATM    2  C2  UNL     1     -35.667  16.226  -2.947  1.00 20.00     0.016 C 
HETATM    3  C3  UNL     1     -33.810  14.381  -4.336  1.00 20.00     0.041 C 
HETATM    4  C4  UNL     1     -36.185  14.974  -3.655  1.00 20.00     0.041 C 
HETATM    5  C5  UNL     1     -35.589  14.836  -6.193  1.00 20.00     0.207 A 
HETATM    6  C6  UNL     1     -34.218  16.039  -2.461  1.00 20.00     0.093 C 
HETATM    7  C7  UNL     1     -35.240  14.573  -4.747  1.00 20.00     0.082 A 
HETATM    8  O9  UNL     1     -35.743  13.537  -5.602  1.00 20.00    -0.375 OA
ENDROOT
BRANCH   6   9
HETATM    9  C8  UNL     1     -33.707  17.314  -1.791  1.00 20.00     0.391 C 
HETATM   10  F10 UNL     1     -34.172  17.390  -0.535  1.00 20.00    -0.171 F 
HETATM   11  F11 UNL     1     -32.366  17.309  -1.759  1.00 20.00    -0.171 F 
HETATM   12  F12 UNL     1     -34.122  18.390  -2.475  1.00 20.00    -0.171 F 
ENDBRANCH   6   9
TORSDOF 1
ENDMDL
MODEL 3
REMARK VINA RESULT:      -5.0     11.661     12.302
REMARK  1 active torsions:
REMARK  status: ('A' for Active; 'I' for Inactive)
REMARK    1  A    between atoms: C6_6  and  C8_8 
ROOT
HETATM    1  C1  UNL     1     -33.304  15.627  -3.617  1.00 20.00     0.016 C 
HETATM    2  C2  UNL     1     -35.677  16.226  -2.956  1.00 20.00     0.016 C 
HETATM    3  C3  UNL     1     -33.815  14.376  -4.332  1.00 20.00     0.041 C 
HETATM    4  C4  UNL     1     -36.194  14.976  -3.669  1.00 20.00     0.041 C 
HETATM    5  C5  UNL     1     -35.578  14.837  -6.203  1.00 20.00     0.207 A 
HETATM    6  C6  UNL     1     -34.232  16.034  -2.459  1.00 20.00     0.093 C 
HETATM    7  C7  UNL     1     -35.241  14.572  -4.754  1.00 20.00     0.082 A 
HETATM    8  O9  UNL     1     -35.741  13.538  -5.614  1.00 20.00    -0.375 OA
ENDROOT
BRANCH   6   9
HETATM    9  C8  UNL     1     -33.724  17.307  -1.784  1.00 20.00     0.391 C 
HETATM   10  F10 UNL     1     -34.140  18.385  -2.464  1.00 20.00    -0.171 F 
HETATM   11  F11 UNL     1     -34.189  17.377  -0.528  1.00 20.00    -0.171 F 
HETATM   12  F12 UNL     1     -32.383  17.304  -1.751  1.00 20.00    -0.171 F 
ENDBRANCH   6   9
TORSDOF 1
ENDMDL
MODEL 4
REMARK VINA RESULT:      -4.9     11.463     12.113
REMARK  1 active torsions:
REMARK  status: ('A' for Active; 'I' for Inactive)
REMARK    1  A    between atoms: C6_6  and  C8_8 
ROOT
HETATM    1  C1  UNL     1     -33.338  16.363  -2.912  1.00 20.00     0.016 C 
HETATM    2  C2  UNL     1     -35.832  15.915  -3.002  1.00 20.00     0.016 C 
HETATM    3  C3  UNL     1     -33.106  15.305  -3.990  1.00 20.00     0.041 C 
HETATM    4  C4  UNL     1     -35.605  14.854  -4.079  1.00 20.00     0.041 C 
HETATM    5  C5  UNL     1     -34.393  15.725  -6.222  1.00 20.00     0.207 A 
HETATM    6  C6  UNL     1     -34.602  16.061  -2.086  1.00 20.00     0.093 C 
HETATM    7  C7  UNL     1     -34.339  15.145  -4.828  1.00 20.00     0.082 A 
HETATM    8  O9  UNL     1     -34.149  14.329  -5.993  1.00 20.00    -0.375 OA
ENDROOT
BRANCH   6   9
HETATM    9  C8  UNL     1     -34.836  17.150  -1.042  1.00 20.00     0.391 C 
HETATM   10  F10 UNL     1     -35.561  18.146  -1.572  1.00 20.00    -0.171 F 
HETATM   11  F11 UNL     1     -35.495  16.643   0.010  1.00 20.00    -0.171 F 
HETATM   12  F12 UNL     1     -33.661  17.644  -0.622  1.00 20.00    -0.171 F 
ENDBRANCH   6   9
TORSDOF 1
ENDMDL
MODEL 5
REMARK VINA RESULT:      -4.8     11.343     12.135
REMARK  1 active torsions:
REMARK  status: ('A' for Active; 'I' for Inactive)
REMARK    1  A    between atoms: C6_6  and  C8_8 
ROOT
HETATM    1  C1  UNL     1     -35.632  15.846  -2.743  1.00 20.00     0.016 C 
HETATM    2  C2  UNL     1     -33.814  15.095  -4.342  1.00 20.00     0.016 C 
HETATM    3  C3  UNL     1     -34.585  16.544  -1.875  1.00 20.00     0.041 C 
HETATM    4  C4  UNL     1     -32.763  15.791  -3.477  1.00 20.00     0.041 C 
HETATM    5  C5  UNL     1     -33.165  18.346  -3.121  1.00 20.00     0.207 A 
HETATM    6  C6  UNL     1     -35.029  14.653  -3.506  1.00 20.00     0.093 C 
HETATM    7  C7  UNL     1     -33.391  16.911  -2.705  1.00 20.00     0.082 A 
HETATM    8  O9  UNL     1     -32.448  17.753  -2.027  1.00 20.00    -0.375 OA
ENDROOT
BRANCH   6   9
HETATM    9  C8  UNL     1     -36.083  13.995  -4.395  1.00 20.00     0.391 C 
HETATM   10  F10 UNL     1     -35.924  14.393  -5.666  1.00 20.00    -0.171 F 
HETATM   11  F11 UNL     1     -35.963  12.660  -4.338  1.00 20.00    -0.171 F 
HETATM   12  F12 UNL     1     -37.312  14.340  -3.982  1.00 20.00    -0.171 F 
ENDBRANCH   6   9
TORSDOF 1
ENDMDL
MODEL 6
REMARK VINA RESULT:      -4.7     11.656     12.533
REMARK  1 active torsions:
REMARK  status: ('A' for Active; 'I' for Inactive)
REMARK    1  A    between atoms: C6_6  and  C8_8 
ROOT
HETATM    1  C1  UNL     1     -35.259  15.832  -2.440  1.00 20.00     0.016 C 
HETATM    2  C2  UNL     1     -33.025  16.736  -3.227  1.00 20.00     0.016 C 
HETATM    3  C3  UNL     1     -35.172  16.701  -1.185  1.00 20.00     0.041 C 
HETATM    4  C4  UNL     1     -32.933  17.606  -1.973  1.00 20.00     0.041 C 
HETATM    5  C5  UNL     1     -34.929  19.258  -1.649  1.00 20.00     0.207 A 
HETATM    6  C6  UNL     1     -33.861  15.468  -2.973  1.00 20.00     0.093 C 
HETATM    7  C7  UNL     1     -34.306  17.897  -1.447  1.00 20.00     0.082 A 
HETATM    8  O9  UNL     1     -34.335  18.876  -0.399  1.00 20.00    -0.375 OA
ENDROOT
BRANCH   6   9
HETATM    9  C8  UNL     1     -33.971  14.633  -4.247  1.00 20.00     0.391 C 
HETATM   10  F10 UNL     1     -32.843  13.933  -4.436  1.00 20.00    -0.171 F 
HETATM   11  F11 UNL     1     -35.002  13.780  -4.148  1.00 20.00    -0.171 F 
HETATM   12  F12 UNL     1     -34.170  15.434  -5.305  1.00 20.00    -0.171 F 
ENDBRANCH   6   9
TORSDOF 1
ENDMDL
MODEL 7
REMARK VINA RESULT:      -4.7     16.133     16.884
REMARK  1 active torsions:
REMARK  status: ('A' for Active; 'I' for Inactive)
REMARK    1  A    between atoms: C6_6  and  C8_8 
ROOT
HETATM    1  C1  UNL     1     -23.970  19.124   9.149  1.00 20.00     0.016 C 
HETATM    2  C2  UNL     1     -23.432  17.027  10.467  1.00 20.00     0.016 C 
HETATM    3  C3  UNL     1     -25.389  19.122   9.719  1.00 20.00     0.041 C 
HETATM    4  C4  UNL     1     -24.850  17.020  11.039  1.00 20.00     0.041 C 
HETATM    5  C5  UNL     1     -25.513  19.193  12.326  1.00 20.00     0.207 A 
HETATM    6  C6  UNL     1     -23.386  17.701   9.084  1.00 20.00     0.093 C 
HETATM    7  C7  UNL     1     -25.412  18.409  11.038  1.00 20.00     0.082 A 
HETATM    8  O9  UNL     1     -26.652  18.538  11.747  1.00 20.00    -0.375 OA
ENDROOT
BRANCH   6   9
HETATM    9  C8  UNL     1     -21.956  17.732   8.548  1.00 20.00     0.391 C 
HETATM   10  F10 UNL     1     -21.969  17.768   7.207  1.00 20.00    -0.171 F 
HETATM   11  F11 UNL     1     -21.317  18.818   9.007  1.00 20.00    -0.171 F 
HETATM   12  F12 UNL     1     -21.293  16.636   8.948  1.00 20.00    -0.171 F 
ENDBRANCH   6   9
TORSDOF 1
ENDMDL
MODEL 8
REMARK VINA RESULT:      -4.6     11.640     12.431
REMARK  1 active torsions:
REMARK  status: ('A' for Active; 'I' for Inactive)
REMARK    1  A    between atoms: C6_6  and  C8_8 
ROOT
HETATM    1  C1  UNL     1     -33.085  16.522  -2.693  1.00 20.00     0.016 C 
HETATM    2  C2  UNL     1     -35.397  15.588  -3.148  1.00 20.00     0.016 C 
HETATM    3  C3  UNL     1     -33.708  17.747  -2.025  1.00 20.00     0.041 C 
HETATM    4  C4  UNL     1     -36.026  16.812  -2.482  1.00 20.00     0.041 C 
HETATM    5  C5  UNL     1     -35.280  17.207  -0.011  1.00 20.00     0.207 A 
HETATM    6  C6  UNL     1     -34.022  15.920  -3.756  1.00 20.00     0.093 C 
HETATM    7  C7  UNL     1     -35.069  17.407  -1.494  1.00 20.00     0.082 A 
HETATM    8  O9  UNL     1     -35.644  18.430  -0.668  1.00 20.00    -0.375 OA
ENDROOT
BRANCH   6   9
HETATM    9  C8  UNL     1     -33.396  14.676  -4.382  1.00 20.00     0.391 C 
HETATM   10  F10 UNL     1     -33.993  13.573  -3.907  1.00 20.00    -0.171 F 
HETATM   11  F11 UNL     1     -33.543  14.710  -5.715  1.00 20.00    -0.171 F 
HETATM   12  F12 UNL     1     -32.088  14.623  -4.090  1.00 20.00    -0.171 F 
ENDBRANCH   6   9
TORSDOF 1
ENDMDL
MODEL 9
REMARK VINA RESULT:      -4.4     11.565     12.715
REMARK  1 active torsions:
REMARK  status: ('A' for Active; 'I' for Inactive)
REMARK    1  A    between atoms: C6_6  and  C8_8 
ROOT
HETATM    1  C1  UNL     1     -34.011  17.163  -4.439  1.00 20.00     0.016 C 
HETATM    2  C2  UNL     1     -34.560  15.395  -2.707  1.00 20.00     0.016 C 
HETATM    3  C3  UNL     1     -34.219  16.139  -5.555  1.00 20.00     0.041 C 
HETATM    4  C4  UNL     1     -34.769  14.367  -3.819  1.00 20.00     0.041 C 
HETATM    5  C5  UNL     1     -36.580  15.025  -5.581  1.00 20.00     0.207 A 
HETATM    6  C6  UNL     1     -33.562  16.488  -3.130  1.00 20.00     0.093 C 
HETATM    7  C7  UNL     1     -35.151  15.058  -5.093  1.00 20.00     0.082 A 
HETATM    8  O9  UNL     1     -35.571  14.168  -6.137  1.00 20.00    -0.375 OA
ENDROOT
BRANCH   6   9
HETATM    9  C8  UNL     1     -33.397  17.524  -2.020  1.00 20.00     0.391 C 
HETATM   10  F10 UNL     1     -32.115  17.582  -1.632  1.00 20.00    -0.171 F 
HETATM   11  F11 UNL     1     -33.773  18.734  -2.462  1.00 20.00    -0.171 F 
HETATM   12  F12 UNL     1     -34.156  17.192  -0.965  1.00 20.00    -0.171 F 
ENDBRANCH   6   9
TORSDOF 1
ENDMDL
