MODEL 1
REMARK VINA RESULT:      -5.1      0.000      0.000
REMARK  1 active torsions:
REMARK  status: ('A' for Active; 'I' for Inactive)
REMARK    1  A    between atoms: C7_7  and  C8_8 
ROOT
HETATM    1  C1  UNL     1     -37.571  14.909  -4.391  1.00 20.00     0.064 C 
HETATM    2  C2  UNL     1     -34.605  14.764  -5.281  1.00 20.00     0.002 C 
HETATM    3  C3  UNL     1     -35.604  15.902  -5.517  1.00 20.00     0.019 C 
HETATM    4  C4  UNL     1     -34.452  14.362  -3.815  1.00 20.00     0.013 C 
HETATM    5  C5  UNL     1     -35.977  16.249  -3.028  1.00 20.00     0.032 C 
HETATM    6  C6  UNL     1     -36.640  16.054  -4.404  1.00 20.00     0.093 C 
HETATM    7  C7  UNL     1     -34.625  15.528  -2.840  1.00 20.00     0.095 C 
HETATM    8  N9  UNL     1     -38.304  14.009  -4.383  1.00 20.00    -0.197 NA
ENDROOT
BRANCH   7   9
HETATM    9  C8  UNL     1     -33.450  16.508  -2.931  1.00 20.00     0.391 C 
HETATM   10  F10 UNL     1     -32.384  15.893  -3.464  1.00 20.00    -0.171 F 
HETATM   11  F11 UNL     1     -33.786  17.552  -3.701  1.00 20.00    -0.171 F 
HETATM   12  F12 UNL     1     -33.132  16.952  -1.707  1.00 20.00    -0.171 F 
ENDBRANCH   7   9
TORSDOF 1
ENDMDL
MODEL 2
REMARK VINA RESULT:      -4.9      1.403      1.642
REMARK  1 active torsions:
REMARK  status: ('A' for Active; 'I' for Inactive)
REMARK    1  A    between atoms: C7_7  and  C8_8 
ROOT
HETATM    1  C1  UNL     1     -36.108  13.986  -4.177  1.00 20.00     0.064 C 
HETATM    2  C2  UNL     1     -34.104  16.072  -5.291  1.00 20.00     0.002 C 
HETATM    3  C3  UNL     1     -35.580  16.281  -4.938  1.00 20.00     0.019 C 
HETATM    4  C4  UNL     1     -33.264  15.495  -4.153  1.00 20.00     0.013 C 
HETATM    5  C5  UNL     1     -35.217  15.610  -2.515  1.00 20.00     0.032 C 
HETATM    6  C6  UNL     1     -36.067  15.407  -3.782  1.00 20.00     0.093 C 
HETATM    7  C7  UNL     1     -33.729  15.940  -2.764  1.00 20.00     0.095 C 
HETATM    8  N9  UNL     1     -36.141  12.868  -4.488  1.00 20.00    -0.197 NA
ENDROOT
BRANCH   7   9
HETATM    9  C8  UNL     1     -33.438  17.426  -2.531  1.00 20.00     0.391 C 
HETATM   10  F10 UNL     1     -32.901  17.600  -1.315  1.00 20.00    -0.171 F 
HETATM   11  F11 UNL     1     -32.580  17.874  -3.458  1.00 20.00    -0.171 F 
HETATM   12  F12 UNL     1     -34.576  18.131  -2.611  1.00 20.00    -0.171 F 
ENDBRANCH   7   9
TORSDOF 1
ENDMDL
MODEL 3
REMARK VINA RESULT:      -4.6      3.312      4.181
REMARK  1 active torsions:
REMARK  status: ('A' for Active; 'I' for Inactive)
REMARK    1  A    between atoms: C7_7  and  C8_8 
ROOT
HETATM    1  C1  UNL     1     -33.209  16.994  -3.207  1.00 20.00     0.064 C 
HETATM    2  C2  UNL     1     -33.640  15.171  -5.678  1.00 20.00     0.002 C 
HETATM    3  C3  UNL     1     -33.102  14.776  -4.299  1.00 20.00     0.019 C 
HETATM    4  C4  UNL     1     -34.995  15.876  -5.640  1.00 20.00     0.013 C 
HETATM    5  C5  UNL     1     -35.222  15.533  -3.122  1.00 20.00     0.032 C 
HETATM    6  C6  UNL     1     -33.684  15.598  -3.150  1.00 20.00     0.093 C 
HETATM    7  C7  UNL     1     -35.901  15.399  -4.503  1.00 20.00     0.095 C 
HETATM    8  N9  UNL     1     -32.833  18.091  -3.252  1.00 20.00    -0.197 NA
ENDROOT
BRANCH   7   9
HETATM    9  C8  UNL     1     -36.394  13.969  -4.747  1.00 20.00     0.391 C 
HETATM   10  F10 UNL     1     -37.697  13.877  -4.443  1.00 20.00    -0.171 F 
HETATM   11  F11 UNL     1     -36.221  13.641  -6.036  1.00 20.00    -0.171 F 
HETATM   12  F12 UNL     1     -35.704  13.112  -3.981  1.00 20.00    -0.171 F 
ENDBRANCH   7   9
TORSDOF 1
ENDMDL
MODEL 4
REMARK VINA RESULT:      -4.6     11.251     12.353
REMARK  1 active torsions:
REMARK  status: ('A' for Active; 'I' for Inactive)
REMARK    1  A    between atoms: C7_7  and  C8_8 
ROOT
HETATM    1  C1  UNL     1     -41.622   9.512   0.074  1.00 20.00     0.064 C 
HETATM    2  C2  UNL     1     -42.743   6.841   1.179  1.00 20.00     0.002 C 
HETATM    3  C3  UNL     1     -43.417   7.814   0.207  1.00 20.00     0.019 C 
HETATM    4  C4  UNL     1     -41.359   6.372   0.735  1.00 20.00     0.013 C 
HETATM    5  C5  UNL     1     -41.550   7.586  -1.501  1.00 20.00     0.032 C 
HETATM    6  C6  UNL     1     -42.437   8.557  -0.701  1.00 20.00     0.093 C 
HETATM    7  C7  UNL     1     -41.209   6.261  -0.784  1.00 20.00     0.095 C 
HETATM    8  N9  UNL     1     -40.981  10.263   0.685  1.00 20.00    -0.197 NA
ENDROOT
BRANCH   7   9
HETATM    9  C8  UNL     1     -42.034   5.095  -1.340  1.00 20.00     0.391 C 
HETATM   10  F10 UNL     1     -42.955   5.557  -2.198  1.00 20.00    -0.171 F 
HETATM   11  F11 UNL     1     -41.231   4.233  -1.980  1.00 20.00    -0.171 F 
HETATM   12  F12 UNL     1     -42.651   4.456  -0.337  1.00 20.00    -0.171 F 
ENDBRANCH   7   9
TORSDOF 1
ENDMDL
MODEL 5
REMARK VINA RESULT:      -4.5      3.263      4.358
REMARK  1 active torsions:
REMARK  status: ('A' for Active; 'I' for Inactive)
REMARK    1  A    between atoms: C7_7  and  C8_8 
ROOT
HETATM    1  C1  UNL     1     -32.419  18.339  -2.371  1.00 20.00     0.064 C 
HETATM    2  C2  UNL     1     -35.466  17.770  -2.461  1.00 20.00     0.002 C 
HETATM    3  C3  UNL     1     -34.563  18.246  -3.604  1.00 20.00     0.019 C 
HETATM    4  C4  UNL     1     -34.987  16.490  -1.779  1.00 20.00     0.013 C 
HETATM    5  C5  UNL     1     -33.077  16.192  -3.444  1.00 20.00     0.032 C 
HETATM    6  C6  UNL     1     -33.127  17.729  -3.513  1.00 20.00     0.093 C 
HETATM    7  C7  UNL     1     -34.269  15.524  -2.725  1.00 20.00     0.095 C 
HETATM    8  N9  UNL     1     -31.863  18.820  -1.473  1.00 20.00    -0.197 NA
ENDROOT
BRANCH   7   9
HETATM    9  C8  UNL     1     -35.247  14.898  -3.725  1.00 20.00     0.391 C 
HETATM   10  F10 UNL     1     -35.100  15.473  -4.927  1.00 20.00    -0.171 F 
HETATM   11  F11 UNL     1     -35.007  13.583  -3.835  1.00 20.00    -0.171 F 
HETATM   12  F12 UNL     1     -36.507  15.078  -3.305  1.00 20.00    -0.171 F 
ENDBRANCH   7   9
TORSDOF 1
ENDMDL
MODEL 6
REMARK VINA RESULT:      -4.5     10.938     12.116
REMARK  1 active torsions:
REMARK  status: ('A' for Active; 'I' for Inactive)
REMARK    1  A    between atoms: C7_7  and  C8_8 
ROOT
HETATM    1  C1  UNL     1     -41.585   4.542  -1.771  1.00 20.00     0.064 C 
HETATM    2  C2  UNL     1     -43.417   5.963   0.287  1.00 20.00     0.002 C 
HETATM    3  C3  UNL     1     -42.056   5.307   0.535  1.00 20.00     0.019 C 
HETATM    4  C4  UNL     1     -43.411   7.017  -0.820  1.00 20.00     0.013 C 
HETATM    5  C5  UNL     1     -40.883   6.839  -1.118  1.00 20.00     0.032 C 
HETATM    6  C6  UNL     1     -41.105   5.386  -0.660  1.00 20.00     0.093 C 
HETATM    7  C7  UNL     1     -42.090   7.783  -0.926  1.00 20.00     0.095 C 
HETATM    8  N9  UNL     1     -41.962   3.877  -2.645  1.00 20.00    -0.197 NA
ENDROOT
BRANCH   7   9
HETATM    9  C8  UNL     1     -41.888   8.712   0.275  1.00 20.00     0.391 C 
HETATM   10  F10 UNL     1     -43.078   9.074   0.777  1.00 20.00    -0.171 F 
HETATM   11  F11 UNL     1     -41.185   8.082   1.227  1.00 20.00    -0.171 F 
HETATM   12  F12 UNL     1     -41.222   9.811  -0.106  1.00 20.00    -0.171 F 
ENDBRANCH   7   9
TORSDOF 1
ENDMDL
MODEL 7
REMARK VINA RESULT:      -4.5      1.502      2.114
REMARK  1 active torsions:
REMARK  status: ('A' for Active; 'I' for Inactive)
REMARK    1  A    between atoms: C7_7  and  C8_8 
ROOT
HETATM    1  C1  UNL     1     -35.904  14.368  -5.272  1.00 20.00     0.064 C 
HETATM    2  C2  UNL     1     -35.945  17.349  -4.421  1.00 20.00     0.002 C 
HETATM    3  C3  UNL     1     -36.600  16.160  -3.713  1.00 20.00     0.019 C 
HETATM    4  C4  UNL     1     -34.448  17.177  -4.677  1.00 20.00     0.013 C 
HETATM    5  C5  UNL     1     -34.377  14.970  -3.400  1.00 20.00     0.032 C 
HETATM    6  C6  UNL     1     -35.836  14.846  -3.877  1.00 20.00     0.093 C 
HETATM    7  C7  UNL     1     -33.734  16.359  -3.599  1.00 20.00     0.095 C 
HETATM    8  N9  UNL     1     -35.959  13.993  -6.369  1.00 20.00    -0.197 NA
ENDROOT
BRANCH   7   9
HETATM    9  C8  UNL     1     -33.652  17.132  -2.278  1.00 20.00     0.391 C 
HETATM   10  F10 UNL     1     -32.386  17.150  -1.838  1.00 20.00    -0.171 F 
HETATM   11  F11 UNL     1     -34.071  18.393  -2.461  1.00 20.00    -0.171 F 
HETATM   12  F12 UNL     1     -34.428  16.543  -1.357  1.00 20.00    -0.171 F 
ENDBRANCH   7   9
TORSDOF 1
ENDMDL
MODEL 8
REMARK VINA RESULT:      -4.4      1.837      2.652
REMARK  1 active torsions:
REMARK  status: ('A' for Active; 'I' for Inactive)
REMARK    1  A    between atoms: C7_7  and  C8_8 
ROOT
HETATM    1  C1  UNL     1     -36.302  15.473  -7.133  1.00 20.00     0.064 C 
HETATM    2  C2  UNL     1     -36.900  14.790  -4.168  1.00 20.00     0.002 C 
HETATM    3  C3  UNL     1     -36.144  13.942  -5.195  1.00 20.00     0.019 C 
HETATM    4  C4  UNL     1     -36.348  16.205  -3.998  1.00 20.00     0.013 C 
HETATM    5  C5  UNL     1     -34.388  15.741  -5.564  1.00 20.00     0.032 C 
HETATM    6  C6  UNL     1     -35.375  14.764  -6.230  1.00 20.00     0.093 C 
HETATM    7  C7  UNL     1     -34.833  16.297  -4.195  1.00 20.00     0.095 C 
HETATM    8  N9  UNL     1     -37.033  16.029  -7.844  1.00 20.00    -0.197 NA
ENDROOT
BRANCH   7   9
HETATM    9  C8  UNL     1     -34.081  15.619  -3.044  1.00 20.00     0.391 C 
HETATM   10  F10 UNL     1     -34.883  15.513  -1.975  1.00 20.00    -0.171 F 
HETATM   11  F11 UNL     1     -33.683  14.395  -3.418  1.00 20.00    -0.171 F 
HETATM   12  F12 UNL     1     -33.005  16.347  -2.713  1.00 20.00    -0.171 F 
ENDBRANCH   7   9
TORSDOF 1
ENDMDL
MODEL 9
REMARK VINA RESULT:      -4.3      2.584      3.747
REMARK  1 active torsions:
REMARK  status: ('A' for Active; 'I' for Inactive)
REMARK    1  A    between atoms: C7_7  and  C8_8 
ROOT
HETATM    1  C1  UNL     1     -35.157  16.645  -1.575  1.00 20.00     0.064 C 
HETATM    2  C2  UNL     1     -33.688  17.632  -4.120  1.00 20.00     0.002 C 
HETATM    3  C3  UNL     1     -33.216  16.583  -3.109  1.00 20.00     0.019 C 
HETATM    4  C4  UNL     1     -35.067  17.350  -4.715  1.00 20.00     0.013 C 
HETATM    5  C5  UNL     1     -35.236  15.100  -3.525  1.00 20.00     0.032 C 
HETATM    6  C6  UNL     1     -34.353  15.788  -2.468  1.00 20.00     0.093 C 
HETATM    7  C7  UNL     1     -35.376  15.859  -4.862  1.00 20.00     0.095 C 
HETATM    8  N9  UNL     1     -35.788  17.319  -0.872  1.00 20.00    -0.197 NA
ENDROOT
BRANCH   7   9
HETATM    9  C8  UNL     1     -34.520  15.220  -5.961  1.00 20.00     0.391 C 
HETATM   10  F10 UNL     1     -34.048  16.170  -6.781  1.00 20.00    -0.171 F 
HETATM   11  F11 UNL     1     -33.489  14.563  -5.411  1.00 20.00    -0.171 F 
HETATM   12  F12 UNL     1     -35.260  14.357  -6.671  1.00 20.00    -0.171 F 
ENDBRANCH   7   9
TORSDOF 1
ENDMDL
