MODEL 1
REMARK VINA RESULT:      -5.0      0.000      0.000
REMARK  0 active torsions:
REMARK  status: ('A' for Active; 'I' for Inactive)
ROOT
HETATM    1  C1  UNL     1     -35.077  13.741  -4.306  1.00 20.00     0.088 C 
HETATM    2  C2  UNL     1     -34.072  15.591  -3.136  1.00 20.00    -0.070 C 
HETATM    3  C3  UNL     1     -34.023  14.667  -4.106  1.00 20.00     0.096 C 
HETATM    4  C4  UNL     1     -35.242  15.709  -2.197  1.00 20.00     0.035 C 
HETATM    5  C5  UNL     1     -32.972  16.600  -2.928  1.00 20.00     0.039 C 
HETATM    6  C6  UNL     1     -35.790  17.138  -2.190  1.00 20.00     0.009 C 
HETATM    7  C7  UNL     1     -33.535  18.033  -2.922  1.00 20.00    -0.011 C 
HETATM    8  C8  UNL     1     -34.705  18.201  -1.917  1.00 20.00    -0.014 C 
HETATM    9  C9  UNL     1     -32.412  19.047  -2.699  1.00 20.00     0.010 C 
HETATM   10  C10 UNL     1     -34.271  18.171  -0.447  1.00 20.00     0.010 C 
HETATM   11  N11 UNL     1     -35.936  12.980  -4.474  1.00 20.00    -0.192 NA
ENDROOT
TORSDOF 0
ENDMDL
MODEL 2
REMARK VINA RESULT:      -4.7      1.079      2.350
REMARK  0 active torsions:
REMARK  status: ('A' for Active; 'I' for Inactive)
ROOT
HETATM    1  C1  UNL     1     -36.318  14.057  -4.558  1.00 20.00     0.088 C 
HETATM    2  C2  UNL     1     -35.481  15.986  -3.384  1.00 20.00    -0.070 C 
HETATM    3  C3  UNL     1     -36.437  15.064  -3.569  1.00 20.00     0.096 C 
HETATM    4  C4  UNL     1     -34.222  16.015  -4.208  1.00 20.00     0.035 C 
HETATM    5  C5  UNL     1     -35.580  17.046  -2.317  1.00 20.00     0.039 C 
HETATM    6  C6  UNL     1     -32.984  16.019  -3.309  1.00 20.00     0.009 C 
HETATM    7  C7  UNL     1     -34.329  17.042  -1.420  1.00 20.00    -0.011 C 
HETATM    8  C8  UNL     1     -33.015  17.132  -2.242  1.00 20.00    -0.014 C 
HETATM    9  C9  UNL     1     -34.435  18.129  -0.350  1.00 20.00     0.010 C 
HETATM   10  C10 UNL     1     -32.775  18.505  -2.879  1.00 20.00     0.010 C 
HETATM   11  N11 UNL     1     -36.227  13.230  -5.366  1.00 20.00    -0.192 NA
ENDROOT
TORSDOF 0
ENDMDL
MODEL 3
REMARK VINA RESULT:      -4.6      3.086      4.592
REMARK  0 active torsions:
REMARK  status: ('A' for Active; 'I' for Inactive)
ROOT
HETATM    1  C1  UNL     1     -31.936  18.749   0.198  1.00 20.00     0.088 C 
HETATM    2  C2  UNL     1     -32.985  17.739  -1.720  1.00 20.00    -0.070 C 
HETATM    3  C3  UNL     1     -31.876  18.123  -1.071  1.00 20.00     0.096 C 
HETATM    4  C4  UNL     1     -34.362  17.945  -1.148  1.00 20.00     0.035 C 
HETATM    5  C5  UNL     1     -32.937  17.047  -3.058  1.00 20.00     0.039 C 
HETATM    6  C6  UNL     1     -35.141  16.628  -1.123  1.00 20.00     0.009 C 
HETATM    7  C7  UNL     1     -33.725  15.725  -3.021  1.00 20.00    -0.011 C 
HETATM    8  C8  UNL     1     -35.171  15.917  -2.492  1.00 20.00    -0.014 C 
HETATM    9  C9  UNL     1     -33.679  15.037  -4.386  1.00 20.00     0.010 C 
HETATM   10  C10 UNL     1     -36.097  16.651  -3.468  1.00 20.00     0.010 C 
HETATM   11  N11 UNL     1     -31.978  19.263   1.238  1.00 20.00    -0.192 NA
ENDROOT
TORSDOF 0
ENDMDL
MODEL 4
REMARK VINA RESULT:      -4.5      2.580      4.013
REMARK  0 active torsions:
REMARK  status: ('A' for Active; 'I' for Inactive)
ROOT
HETATM    1  C1  UNL     1     -39.470  15.326  -4.583  1.00 20.00     0.088 C 
HETATM    2  C2  UNL     1     -37.140  15.803  -4.204  1.00 20.00    -0.070 C 
HETATM    3  C3  UNL     1     -38.433  16.098  -4.005  1.00 20.00     0.096 C 
HETATM    4  C4  UNL     1     -36.704  14.637  -5.051  1.00 20.00     0.035 C 
HETATM    5  C5  UNL     1     -36.026  16.597  -3.574  1.00 20.00     0.039 C 
HETATM    6  C6  UNL     1     -35.743  13.733  -4.276  1.00 20.00     0.009 C 
HETATM    7  C7  UNL     1     -35.066  15.677  -2.798  1.00 20.00    -0.011 C 
HETATM    8  C8  UNL     1     -34.551  14.499  -3.666  1.00 20.00    -0.014 C 
HETATM    9  C9  UNL     1     -33.933  16.493  -2.172  1.00 20.00     0.010 C 
HETATM   10  C10 UNL     1     -33.557  14.918  -4.756  1.00 20.00     0.010 C 
HETATM   11  N11 UNL     1     -40.325  14.698  -5.054  1.00 20.00    -0.192 NA
ENDROOT
TORSDOF 0
ENDMDL
MODEL 5
REMARK VINA RESULT:      -4.3      2.708      4.654
REMARK  0 active torsions:
REMARK  status: ('A' for Active; 'I' for Inactive)
ROOT
HETATM    1  C1  UNL     1     -34.837  18.171  -0.325  1.00 20.00     0.088 C 
HETATM    2  C2  UNL     1     -34.778  16.361  -1.912  1.00 20.00    -0.070 C 
HETATM    3  C3  UNL     1     -35.432  17.061  -0.974  1.00 20.00     0.096 C 
HETATM    4  C4  UNL     1     -33.375  16.702  -2.337  1.00 20.00     0.035 C 
HETATM    5  C5  UNL     1     -35.407  15.195  -2.632  1.00 20.00     0.039 C 
HETATM    6  C6  UNL     1     -33.296  16.876  -3.856  1.00 20.00     0.009 C 
HETATM    7  C7  UNL     1     -35.320  15.381  -4.158  1.00 20.00    -0.011 C 
HETATM    8  C8  UNL     1     -33.872  15.674  -4.633  1.00 20.00    -0.014 C 
HETATM    9  C9  UNL     1     -35.951  14.187  -4.877  1.00 20.00     0.010 C 
HETATM   10  C10 UNL     1     -32.933  14.466  -4.544  1.00 20.00     0.010 C 
HETATM   11  N11 UNL     1     -34.356  19.080   0.212  1.00 20.00    -0.192 NA
ENDROOT
TORSDOF 0
ENDMDL
MODEL 6
REMARK VINA RESULT:      -4.3      2.511      4.233
REMARK  0 active torsions:
REMARK  status: ('A' for Active; 'I' for Inactive)
ROOT
HETATM    1  C1  UNL     1     -35.881  17.487  -0.228  1.00 20.00     0.088 C 
HETATM    2  C2  UNL     1     -34.837  16.684  -2.244  1.00 20.00    -0.070 C 
HETATM    3  C3  UNL     1     -34.744  17.073  -0.964  1.00 20.00     0.096 C 
HETATM    4  C4  UNL     1     -36.147  16.661  -2.984  1.00 20.00     0.035 C 
HETATM    5  C5  UNL     1     -33.641  16.214  -3.032  1.00 20.00     0.039 C 
HETATM    6  C6  UNL     1     -36.395  15.284  -3.605  1.00 20.00     0.009 C 
HETATM    7  C7  UNL     1     -33.902  14.830  -3.654  1.00 20.00    -0.011 C 
HETATM    8  C8  UNL     1     -35.219  14.793  -4.474  1.00 20.00    -0.014 C 
HETATM    9  C9  UNL     1     -32.687  14.369  -4.460  1.00 20.00     0.010 C 
HETATM   10  C10 UNL     1     -35.151  15.573  -5.792  1.00 20.00     0.010 C 
HETATM   11  N11 UNL     1     -36.808  17.827   0.380  1.00 20.00    -0.192 NA
ENDROOT
TORSDOF 0
ENDMDL
MODEL 7
REMARK VINA RESULT:      -4.3      2.814      4.596
REMARK  0 active torsions:
REMARK  status: ('A' for Active; 'I' for Inactive)
ROOT
HETATM    1  C1  UNL     1     -32.015  18.281  -0.864  1.00 20.00     0.088 C 
HETATM    2  C2  UNL     1     -33.982  17.193  -1.728  1.00 20.00    -0.070 C 
HETATM    3  C3  UNL     1     -33.418  18.093  -0.909  1.00 20.00     0.096 C 
HETATM    4  C4  UNL     1     -33.169  16.325  -2.649  1.00 20.00     0.035 C 
HETATM    5  C5  UNL     1     -35.475  17.001  -1.808  1.00 20.00     0.039 C 
HETATM    6  C6  UNL     1     -33.670  16.445  -4.090  1.00 20.00     0.009 C 
HETATM    7  C7  UNL     1     -35.967  17.122  -3.262  1.00 20.00    -0.011 C 
HETATM    8  C8  UNL     1     -35.186  16.191  -4.227  1.00 20.00    -0.014 C 
HETATM    9  C9  UNL     1     -37.481  16.914  -3.332  1.00 20.00     0.010 C 
HETATM   10  C10 UNL     1     -35.508  14.703  -4.051  1.00 20.00     0.010 C 
HETATM   11  N11 UNL     1     -30.866  18.440  -0.822  1.00 20.00    -0.192 NA
ENDROOT
TORSDOF 0
ENDMDL
MODEL 8
REMARK VINA RESULT:      -4.1      2.230      3.282
REMARK  0 active torsions:
REMARK  status: ('A' for Active; 'I' for Inactive)
ROOT
HETATM    1  C1  UNL     1     -38.621  15.031  -4.317  1.00 20.00     0.088 C 
HETATM    2  C2  UNL     1     -36.270  14.970  -3.798  1.00 20.00    -0.070 C 
HETATM    3  C3  UNL     1     -37.373  14.363  -4.262  1.00 20.00     0.096 C 
HETATM    4  C4  UNL     1     -36.282  16.392  -3.306  1.00 20.00     0.035 C 
HETATM    5  C5  UNL     1     -34.929  14.283  -3.758  1.00 20.00     0.039 C 
HETATM    6  C6  UNL     1     -35.210  17.220  -4.017  1.00 20.00     0.009 C 
HETATM    7  C7  UNL     1     -33.859  15.126  -4.475  1.00 20.00    -0.011 C 
HETATM    8  C8  UNL     1     -33.806  16.583  -3.946  1.00 20.00    -0.014 C 
HETATM    9  C9  UNL     1     -32.501  14.424  -4.418  1.00 20.00     0.010 C 
HETATM   10  C10 UNL     1     -33.221  16.711  -2.534  1.00 20.00     0.010 C 
HETATM   11  N11 UNL     1     -39.646  15.571  -4.365  1.00 20.00    -0.192 NA
ENDROOT
TORSDOF 0
ENDMDL
MODEL 9
REMARK VINA RESULT:      -4.1      2.856      4.801
REMARK  0 active torsions:
REMARK  status: ('A' for Active; 'I' for Inactive)
ROOT
HETATM    1  C1  UNL     1     -32.560  19.009  -2.653  1.00 20.00     0.088 C 
HETATM    2  C2  UNL     1     -33.987  17.471  -3.835  1.00 20.00    -0.070 C 
HETATM    3  C3  UNL     1     -33.497  18.708  -3.672  1.00 20.00     0.096 C 
HETATM    4  C4  UNL     1     -33.578  16.322  -2.952  1.00 20.00     0.035 C 
HETATM    5  C5  UNL     1     -34.963  17.128  -4.931  1.00 20.00     0.039 C 
HETATM    6  C6  UNL     1     -33.082  15.143  -3.792  1.00 20.00     0.009 C 
HETATM    7  C7  UNL     1     -34.454  15.940  -5.768  1.00 20.00    -0.011 C 
HETATM    8  C8  UNL     1     -34.082  14.717  -4.887  1.00 20.00    -0.014 C 
HETATM    9  C9  UNL     1     -35.458  15.594  -6.869  1.00 20.00     0.010 C 
HETATM   10  C10 UNL     1     -35.291  14.002  -4.274  1.00 20.00     0.010 C 
HETATM   11  N11 UNL     1     -31.793  19.263  -1.821  1.00 20.00    -0.192 NA
ENDROOT
TORSDOF 0
ENDMDL
