MODEL 1
REMARK VINA RESULT:      -4.3      0.000      0.000
REMARK  4 active torsions:
REMARK  status: ('A' for Active; 'I' for Inactive)
REMARK    1  A    between atoms: C4_4  and  C5_5 
REMARK    2  A    between atoms: C5_5  and  C7_7 
REMARK    3  A    between atoms: C6_6  and  C7_7 
REMARK    4  A    between atoms: C6_6  and  C8_8 
ROOT
HETATM    1  C2  UNL     1     -33.080   5.019   2.226  1.00 20.00     0.010 C 
HETATM    2  C7  UNL     1     -33.007   6.160   3.246  1.00 20.00    -0.017 C 
ENDROOT
BRANCH   2   3
HETATM    3  C5  UNL     1     -32.281   7.362   2.599  1.00 20.00     0.004 C 
BRANCH   3   4
HETATM    4  C4  UNL     1     -32.601   7.551   1.114  1.00 20.00    -0.004 C 
HETATM    5  C1  UNL     1     -32.907   9.007   0.794  1.00 20.00     0.005 C 
ENDBRANCH   3   4
ENDBRANCH   2   3
BRANCH   2   6
HETATM    6  C6  UNL     1     -34.408   6.556   3.769  1.00 20.00     0.024 C 
BRANCH   6   7
HETATM    7  C8  UNL     1     -34.662   6.326   5.267  1.00 20.00     0.078 C 
HETATM    8  C3  UNL     1     -33.591   7.008   6.111  1.00 20.00     0.026 C 
HETATM    9 CL9  UNL     1     -34.677   4.580   5.658  1.00 20.00    -0.125 Cl
ENDBRANCH   6   7
ENDBRANCH   2   6
TORSDOF 4
ENDMDL
MODEL 2
REMARK VINA RESULT:      -4.3      1.885      4.032
REMARK  4 active torsions:
REMARK  status: ('A' for Active; 'I' for Inactive)
REMARK    1  A    between atoms: C4_4  and  C5_5 
REMARK    2  A    between atoms: C5_5  and  C7_7 
REMARK    3  A    between atoms: C6_6  and  C7_7 
REMARK    4  A    between atoms: C6_6  and  C8_8 
ROOT
HETATM    1  C2  UNL     1     -33.743   3.646   3.943  1.00 20.00     0.010 C 
HETATM    2  C7  UNL     1     -34.158   4.873   3.125  1.00 20.00    -0.017 C 
ENDROOT
BRANCH   2   3
HETATM    3  C5  UNL     1     -34.948   5.837   4.040  1.00 20.00     0.004 C 
BRANCH   3   4
HETATM    4  C4  UNL     1     -34.763   5.565   5.534  1.00 20.00    -0.004 C 
HETATM    5  C1  UNL     1     -34.021   6.704   6.217  1.00 20.00     0.005 C 
ENDBRANCH   3   4
ENDBRANCH   2   3
BRANCH   2   6
HETATM    6  C6  UNL     1     -32.939   5.573   2.479  1.00 20.00     0.024 C 
BRANCH   6   7
HETATM    7  C8  UNL     1     -32.878   7.102   2.628  1.00 20.00     0.078 C 
HETATM    8  C3  UNL     1     -32.600   7.768   1.285  1.00 20.00     0.026 C 
HETATM    9 CL9  UNL     1     -31.602   7.586   3.785  1.00 20.00    -0.125 Cl
ENDBRANCH   6   7
ENDBRANCH   2   6
TORSDOF 4
ENDMDL
MODEL 3
REMARK VINA RESULT:      -4.1      2.520      4.717
REMARK  4 active torsions:
REMARK  status: ('A' for Active; 'I' for Inactive)
REMARK    1  A    between atoms: C4_4  and  C5_5 
REMARK    2  A    between atoms: C5_5  and  C7_7 
REMARK    3  A    between atoms: C6_6  and  C7_7 
REMARK    4  A    between atoms: C6_6  and  C8_8 
ROOT
HETATM    1  C2  UNL     1     -32.983   4.826   2.576  1.00 20.00     0.010 C 
HETATM    2  C7  UNL     1     -33.511   6.257   2.727  1.00 20.00    -0.017 C 
ENDROOT
BRANCH   2   3
HETATM    3  C5  UNL     1     -33.937   6.478   4.197  1.00 20.00     0.004 C 
BRANCH   3   4
HETATM    4  C4  UNL     1     -34.988   5.482   4.693  1.00 20.00    -0.004 C 
HETATM    5  C1  UNL     1     -34.761   5.118   6.152  1.00 20.00     0.005 C 
ENDBRANCH   3   4
ENDBRANCH   2   3
BRANCH   2   6
HETATM    6  C6  UNL     1     -32.469   7.306   2.273  1.00 20.00     0.024 C 
BRANCH   6   7
HETATM    7  C8  UNL     1     -32.776   8.041   0.958  1.00 20.00     0.078 C 
HETATM    8  C3  UNL     1     -31.641   7.860  -0.044  1.00 20.00     0.026 C 
HETATM    9 CL9  UNL     1     -33.022   9.790   1.239  1.00 20.00    -0.125 Cl
ENDBRANCH   6   7
ENDBRANCH   2   6
TORSDOF 4
ENDMDL
MODEL 4
REMARK VINA RESULT:      -3.9      1.192      1.359
REMARK  4 active torsions:
REMARK  status: ('A' for Active; 'I' for Inactive)
REMARK    1  A    between atoms: C4_4  and  C5_5 
REMARK    2  A    between atoms: C5_5  and  C7_7 
REMARK    3  A    between atoms: C6_6  and  C7_7 
REMARK    4  A    between atoms: C6_6  and  C8_8 
ROOT
HETATM    1  C2  UNL     1     -33.234   5.243   1.870  1.00 20.00     0.010 C 
HETATM    2  C7  UNL     1     -32.835   6.183   3.011  1.00 20.00    -0.017 C 
ENDROOT
BRANCH   2   3
HETATM    3  C5  UNL     1     -32.219   7.466   2.408  1.00 20.00     0.004 C 
BRANCH   3   4
HETATM    4  C4  UNL     1     -32.576   7.691   0.936  1.00 20.00    -0.004 C 
HETATM    5  C1  UNL     1     -32.976   9.136   0.679  1.00 20.00     0.005 C 
ENDBRANCH   3   4
ENDBRANCH   2   3
BRANCH   2   6
HETATM    6  C6  UNL     1     -34.032   6.507   3.936  1.00 20.00     0.024 C 
BRANCH   6   7
HETATM    7  C8  UNL     1     -33.893   6.071   5.403  1.00 20.00     0.078 C 
HETATM    8  C3  UNL     1     -34.982   5.071   5.779  1.00 20.00     0.026 C 
HETATM    9 CL9  UNL     1     -33.997   7.476   6.506  1.00 20.00    -0.125 Cl
ENDBRANCH   6   7
ENDBRANCH   2   6
TORSDOF 4
ENDMDL
MODEL 5
REMARK VINA RESULT:      -3.8      0.869      1.605
REMARK  4 active torsions:
REMARK  status: ('A' for Active; 'I' for Inactive)
REMARK    1  A    between atoms: C4_4  and  C5_5 
REMARK    2  A    between atoms: C5_5  and  C7_7 
REMARK    3  A    between atoms: C6_6  and  C7_7 
REMARK    4  A    between atoms: C6_6  and  C8_8 
ROOT
HETATM    1  C2  UNL     1     -31.361   7.678   3.677  1.00 20.00     0.010 C 
HETATM    2  C7  UNL     1     -32.690   7.449   2.950  1.00 20.00    -0.017 C 
ENDROOT
BRANCH   2   3
HETATM    3  C5  UNL     1     -32.444   7.528   1.425  1.00 20.00     0.004 C 
BRANCH   3   4
HETATM    4  C4  UNL     1     -32.762   8.897   0.818  1.00 20.00    -0.004 C 
HETATM    5  C1  UNL     1     -33.506   8.758  -0.502  1.00 20.00     0.005 C 
ENDBRANCH   3   4
ENDBRANCH   2   3
BRANCH   2   6
HETATM    6  C6  UNL     1     -33.343   6.105   3.352  1.00 20.00     0.024 C 
BRANCH   6   7
HETATM    7  C8  UNL     1     -34.449   6.181   4.416  1.00 20.00     0.078 C 
HETATM    8  C3  UNL     1     -33.902   6.728   5.730  1.00 20.00     0.026 C 
HETATM    9 CL9  UNL     1     -35.163   4.569   4.718  1.00 20.00    -0.125 Cl
ENDBRANCH   6   7
ENDBRANCH   2   6
TORSDOF 4
ENDMDL
MODEL 6
REMARK VINA RESULT:      -3.7     15.675     16.806
REMARK  4 active torsions:
REMARK  status: ('A' for Active; 'I' for Inactive)
REMARK    1  A    between atoms: C4_4  and  C5_5 
REMARK    2  A    between atoms: C5_5  and  C7_7 
REMARK    3  A    between atoms: C6_6  and  C7_7 
REMARK    4  A    between atoms: C6_6  and  C8_8 
ROOT
HETATM    1  C2  UNL     1     -24.349  15.924  11.325  1.00 20.00     0.010 C 
HETATM    2  C7  UNL     1     -24.243  17.422  11.022  1.00 20.00    -0.017 C 
ENDROOT
BRANCH   2   3
HETATM    3  C5  UNL     1     -24.798  18.214  12.229  1.00 20.00     0.004 C 
BRANCH   3   4
HETATM    4  C4  UNL     1     -26.153  18.876  11.964  1.00 20.00    -0.004 C 
HETATM    5  C1  UNL     1     -27.303  17.948  12.330  1.00 20.00     0.005 C 
ENDBRANCH   3   4
ENDBRANCH   2   3
BRANCH   2   6
HETATM    6  C6  UNL     1     -22.793  17.841  10.686  1.00 20.00     0.024 C 
BRANCH   6   7
HETATM    7  C8  UNL     1     -22.581  18.509   9.318  1.00 20.00     0.078 C 
HETATM    8  C3  UNL     1     -23.913  18.930   8.706  1.00 20.00     0.026 C 
HETATM    9 CL9  UNL     1     -21.750  17.403   8.183  1.00 20.00    -0.125 Cl
ENDBRANCH   6   7
ENDBRANCH   2   6
TORSDOF 4
ENDMDL
MODEL 7
REMARK VINA RESULT:      -3.5     11.345     12.155
REMARK  4 active torsions:
REMARK  status: ('A' for Active; 'I' for Inactive)
REMARK    1  A    between atoms: C4_4  and  C5_5 
REMARK    2  A    between atoms: C5_5  and  C7_7 
REMARK    3  A    between atoms: C6_6  and  C7_7 
REMARK    4  A    between atoms: C6_6  and  C8_8 
ROOT
HETATM    1  C2  UNL     1     -35.141  16.571  -1.342  1.00 20.00     0.010 C 
HETATM    2  C7  UNL     1     -34.363  16.540  -2.662  1.00 20.00    -0.017 C 
ENDROOT
BRANCH   2   3
HETATM    3  C5  UNL     1     -32.916  17.018  -2.399  1.00 20.00     0.004 C 
BRANCH   3   4
HETATM    4  C4  UNL     1     -32.826  18.246  -1.491  1.00 20.00    -0.004 C 
HETATM    5  C1  UNL     1     -31.512  18.273  -0.725  1.00 20.00     0.005 C 
ENDBRANCH   3   4
ENDBRANCH   2   3
BRANCH   2   6
HETATM    6  C6  UNL     1     -34.390  15.136  -3.312  1.00 20.00     0.024 C 
BRANCH   6   7
HETATM    7  C8  UNL     1     -35.249  14.993  -4.579  1.00 20.00     0.078 C 
HETATM    8  C3  UNL     1     -36.100  13.729  -4.518  1.00 20.00     0.026 C 
HETATM    9 CL9  UNL     1     -34.228  14.928  -6.046  1.00 20.00    -0.125 Cl
ENDBRANCH   6   7
ENDBRANCH   2   6
TORSDOF 4
ENDMDL
MODEL 8
REMARK VINA RESULT:      -3.4     11.317     12.112
REMARK  4 active torsions:
REMARK  status: ('A' for Active; 'I' for Inactive)
REMARK    1  A    between atoms: C4_4  and  C5_5 
REMARK    2  A    between atoms: C5_5  and  C7_7 
REMARK    3  A    between atoms: C6_6  and  C7_7 
REMARK    4  A    between atoms: C6_6  and  C8_8 
ROOT
HETATM    1  C2  UNL     1     -33.497  17.127  -3.799  1.00 20.00     0.010 C 
HETATM    2  C7  UNL     1     -33.782  15.857  -2.990  1.00 20.00    -0.017 C 
ENDROOT
BRANCH   2   3
HETATM    3  C5  UNL     1     -34.927  16.149  -1.993  1.00 20.00     0.004 C 
BRANCH   3   4
HETATM    4  C4  UNL     1     -34.602  17.250  -0.981  1.00 20.00    -0.004 C 
HETATM    5  C1  UNL     1     -35.515  17.173   0.234  1.00 20.00     0.005 C 
ENDBRANCH   3   4
ENDBRANCH   2   3
BRANCH   2   6
HETATM    6  C6  UNL     1     -34.115  14.655  -3.904  1.00 20.00     0.024 C 
BRANCH   6   7
HETATM    7  C8  UNL     1     -35.321  14.829  -4.841  1.00 20.00     0.078 C 
HETATM    8  C3  UNL     1     -36.330  13.703  -4.645  1.00 20.00     0.026 C 
HETATM    9 CL9  UNL     1     -34.808  14.850  -6.554  1.00 20.00    -0.125 Cl
ENDBRANCH   6   7
ENDBRANCH   2   6
TORSDOF 4
ENDMDL
MODEL 9
REMARK VINA RESULT:      -3.4     11.369     12.045
REMARK  4 active torsions:
REMARK  status: ('A' for Active; 'I' for Inactive)
REMARK    1  A    between atoms: C4_4  and  C5_5 
REMARK    2  A    between atoms: C5_5  and  C7_7 
REMARK    3  A    between atoms: C6_6  and  C7_7 
REMARK    4  A    between atoms: C6_6  and  C8_8 
ROOT
HETATM    1  C2  UNL     1     -33.731  14.735  -4.992  1.00 20.00     0.010 C 
HETATM    2  C7  UNL     1     -34.678  14.349  -3.851  1.00 20.00    -0.017 C 
ENDROOT
BRANCH   2   3
HETATM    3  C5  UNL     1     -34.708  15.498  -2.818  1.00 20.00     0.004 C 
BRANCH   3   4
HETATM    4  C4  UNL     1     -33.443  16.362  -2.815  1.00 20.00    -0.004 C 
HETATM    5  C1  UNL     1     -33.499  17.421  -1.726  1.00 20.00     0.005 C 
ENDBRANCH   3   4
ENDBRANCH   2   3
BRANCH   2   6
HETATM    6  C6  UNL     1     -36.096  14.012  -4.369  1.00 20.00     0.024 C 
BRANCH   6   7
HETATM    7  C8  UNL     1     -37.089  15.183  -4.434  1.00 20.00     0.078 C 
HETATM    8  C3  UNL     1     -38.520  14.695  -4.231  1.00 20.00     0.026 C 
HETATM    9 CL9  UNL     1     -36.988  16.027  -6.008  1.00 20.00    -0.125 Cl
ENDBRANCH   6   7
ENDBRANCH   2   6
TORSDOF 4
ENDMDL
