MODEL 1
REMARK VINA RESULT:      -4.9      0.000      0.000
REMARK  4 active torsions:
REMARK  status: ('A' for Active; 'I' for Inactive)
REMARK    1  A    between atoms: C2_2  and  C7_7 
REMARK    2  A    between atoms: C3_3  and  C8_8 
REMARK    3  A    between atoms: C7_7  and  C9_9 
REMARK    4  A    between atoms: C8_8  and  C9_9 
ROOT
HETATM    1  C1  UNL     1     -32.933   8.368   0.755  1.00 20.00    -0.111 C 
HETATM    2  C2  UNL     1     -32.533   7.790   1.729  1.00 20.00    -0.107 C 
HETATM    3  C4  UNL     1     -33.420   9.069  -0.431  1.00 20.00     0.112 C 
ENDROOT
BRANCH   2   4
HETATM    4  C7  UNL     1     -32.042   7.086   2.924  1.00 20.00     0.098 C 
BRANCH   4   5
HETATM    5  C9  UNL     1     -32.961   5.939   3.390  1.00 20.00    -0.001 C 
HETATM    6  C6  UNL     1     -33.265   4.963   2.246  1.00 20.00     0.011 C 
BRANCH   5   7
HETATM    7  C8  UNL     1     -34.255   6.473   4.031  1.00 20.00     0.083 C 
BRANCH   7   8
HETATM    8  C3  UNL     1     -34.310   6.301   5.542  1.00 20.00     0.123 C 
HETATM    9  C5  UNL     1     -34.809   4.968   6.038  1.00 20.00     0.091 C 
HETATM   10  O10 UNL     1     -34.002   7.193   6.330  1.00 20.00    -0.298 OA
ENDBRANCH   7   8
ENDBRANCH   5   7
ENDBRANCH   4   5
ENDBRANCH   2   4
TORSDOF 4
ENDMDL
MODEL 2
REMARK VINA RESULT:      -4.4     10.873     11.443
REMARK  4 active torsions:
REMARK  status: ('A' for Active; 'I' for Inactive)
REMARK    1  A    between atoms: C2_2  and  C7_7 
REMARK    2  A    between atoms: C3_3  and  C8_8 
REMARK    3  A    between atoms: C7_7  and  C9_9 
REMARK    4  A    between atoms: C8_8  and  C9_9 
ROOT
HETATM    1  C1  UNL     1     -35.047  16.944  -0.978  1.00 20.00    -0.111 C 
HETATM    2  C2  UNL     1     -34.379  16.635  -1.927  1.00 20.00    -0.107 C 
HETATM    3  C4  UNL     1     -35.861  17.320   0.175  1.00 20.00     0.112 C 
ENDROOT
BRANCH   2   4
HETATM    4  C7  UNL     1     -33.556  16.257  -3.087  1.00 20.00     0.098 C 
BRANCH   4   5
HETATM    5  C9  UNL     1     -33.973  14.921  -3.734  1.00 20.00    -0.001 C 
HETATM    6  C6  UNL     1     -32.801  14.269  -4.479  1.00 20.00     0.011 C 
BRANCH   5   7
HETATM    7  C8  UNL     1     -35.196  15.092  -4.654  1.00 20.00     0.083 C 
BRANCH   7   8
HETATM    8  C3  UNL     1     -36.238  13.993  -4.501  1.00 20.00     0.123 C 
HETATM    9  C5  UNL     1     -37.658  14.453  -4.286  1.00 20.00     0.091 C 
HETATM   10  O10 UNL     1     -35.958  12.796  -4.516  1.00 20.00    -0.298 OA
ENDBRANCH   7   8
ENDBRANCH   5   7
ENDBRANCH   4   5
ENDBRANCH   2   4
TORSDOF 4
ENDMDL
MODEL 3
REMARK VINA RESULT:      -4.4     10.867     11.777
REMARK  4 active torsions:
REMARK  status: ('A' for Active; 'I' for Inactive)
REMARK    1  A    between atoms: C2_2  and  C7_7 
REMARK    2  A    between atoms: C3_3  and  C8_8 
REMARK    3  A    between atoms: C7_7  and  C9_9 
REMARK    4  A    between atoms: C8_8  and  C9_9 
ROOT
HETATM    1  C1  UNL     1     -32.939  17.839  -1.313  1.00 20.00    -0.111 C 
HETATM    2  C2  UNL     1     -33.910  17.171  -1.545  1.00 20.00    -0.107 C 
HETATM    3  C4  UNL     1     -31.757  18.652  -1.034  1.00 20.00     0.112 C 
ENDROOT
BRANCH   2   4
HETATM    4  C7  UNL     1     -35.101  16.353  -1.824  1.00 20.00     0.098 C 
BRANCH   4   5
HETATM    5  C9  UNL     1     -34.865  15.254  -2.879  1.00 20.00    -0.001 C 
HETATM    6  C6  UNL     1     -33.572  15.502  -3.668  1.00 20.00     0.011 C 
BRANCH   5   7
HETATM    7  C8  UNL     1     -36.074  15.099  -3.819  1.00 20.00     0.083 C 
BRANCH   7   8
HETATM    8  C3  UNL     1     -35.920  13.982  -4.841  1.00 20.00     0.123 C 
HETATM    9  C5  UNL     1     -35.804  14.415  -6.281  1.00 20.00     0.091 C 
HETATM   10  O10 UNL     1     -35.921  12.791  -4.538  1.00 20.00    -0.298 OA
ENDBRANCH   7   8
ENDBRANCH   5   7
ENDBRANCH   4   5
ENDBRANCH   2   4
TORSDOF 4
ENDMDL
MODEL 4
REMARK VINA RESULT:      -4.3      1.607      2.508
REMARK  4 active torsions:
REMARK  status: ('A' for Active; 'I' for Inactive)
REMARK    1  A    between atoms: C2_2  and  C7_7 
REMARK    2  A    between atoms: C3_3  and  C8_8 
REMARK    3  A    between atoms: C7_7  and  C9_9 
REMARK    4  A    between atoms: C8_8  and  C9_9 
ROOT
HETATM    1  C1  UNL     1     -32.766   8.168   1.278  1.00 20.00    -0.111 C 
HETATM    2  C2  UNL     1     -32.691   7.652   2.360  1.00 20.00    -0.107 C 
HETATM    3  C4  UNL     1     -32.858   8.797  -0.038  1.00 20.00     0.112 C 
ENDROOT
BRANCH   2   4
HETATM    4  C7  UNL     1     -32.596   7.018   3.685  1.00 20.00     0.098 C 
BRANCH   4   5
HETATM    5  C9  UNL     1     -33.951   6.882   4.406  1.00 20.00    -0.001 C 
HETATM    6  C6  UNL     1     -33.765   6.654   5.912  1.00 20.00     0.011 C 
BRANCH   5   7
HETATM    7  C8  UNL     1     -34.822   5.780   3.776  1.00 20.00     0.083 C 
BRANCH   7   8
HETATM    8  C3  UNL     1     -34.109   4.445   3.620  1.00 20.00     0.123 C 
HETATM    9  C5  UNL     1     -33.331   4.256   2.343  1.00 20.00     0.091 C 
HETATM   10  O10 UNL     1     -34.175   3.547   4.457  1.00 20.00    -0.298 OA
ENDBRANCH   7   8
ENDBRANCH   5   7
ENDBRANCH   4   5
ENDBRANCH   2   4
TORSDOF 4
ENDMDL
MODEL 5
REMARK VINA RESULT:      -4.3     10.626     11.797
REMARK  4 active torsions:
REMARK  status: ('A' for Active; 'I' for Inactive)
REMARK    1  A    between atoms: C2_2  and  C7_7 
REMARK    2  A    between atoms: C3_3  and  C8_8 
REMARK    3  A    between atoms: C7_7  and  C9_9 
REMARK    4  A    between atoms: C8_8  and  C9_9 
ROOT
HETATM    1  C1  UNL     1     -32.452  18.109  -1.415  1.00 20.00    -0.111 C 
HETATM    2  C2  UNL     1     -32.733  17.351  -2.303  1.00 20.00    -0.107 C 
HETATM    3  C4  UNL     1     -32.110  19.031  -0.334  1.00 20.00     0.112 C 
ENDROOT
BRANCH   2   4
HETATM    4  C7  UNL     1     -33.077  16.424  -3.394  1.00 20.00     0.098 C 
BRANCH   4   5
HETATM    5  C9  UNL     1     -34.501  15.844  -3.289  1.00 20.00    -0.001 C 
HETATM    6  C6  UNL     1     -35.104  16.084  -1.899  1.00 20.00     0.011 C 
BRANCH   5   7
HETATM    7  C8  UNL     1     -34.535  14.351  -3.665  1.00 20.00     0.083 C 
BRANCH   7   8
HETATM    8  C3  UNL     1     -35.770  13.944  -4.455  1.00 20.00     0.123 C 
HETATM    9  C5  UNL     1     -36.424  15.031  -5.268  1.00 20.00     0.091 C 
HETATM   10  O10 UNL     1     -36.243  12.809  -4.422  1.00 20.00    -0.298 OA
ENDBRANCH   7   8
ENDBRANCH   5   7
ENDBRANCH   4   5
ENDBRANCH   2   4
TORSDOF 4
ENDMDL
MODEL 6
REMARK VINA RESULT:      -4.2     15.077     15.933
REMARK  4 active torsions:
REMARK  status: ('A' for Active; 'I' for Inactive)
REMARK    1  A    between atoms: C2_2  and  C7_7 
REMARK    2  A    between atoms: C3_3  and  C8_8 
REMARK    3  A    between atoms: C7_7  and  C9_9 
REMARK    4  A    between atoms: C8_8  and  C9_9 
ROOT
HETATM    1  C1  UNL     1     -25.428  18.911   7.285  1.00 20.00    -0.111 C 
HETATM    2  C2  UNL     1     -24.511  19.037   8.051  1.00 20.00    -0.107 C 
HETATM    3  C4  UNL     1     -26.541  18.757   6.351  1.00 20.00     0.112 C 
ENDROOT
BRANCH   2   4
HETATM    4  C7  UNL     1     -23.392  19.194   8.993  1.00 20.00     0.098 C 
BRANCH   4   5
HETATM    5  C9  UNL     1     -22.661  17.875   9.312  1.00 20.00    -0.001 C 
HETATM    6  C6  UNL     1     -21.863  17.369   8.103  1.00 20.00     0.011 C 
BRANCH   5   7
HETATM    7  C8  UNL     1     -23.631  16.799   9.835  1.00 20.00     0.083 C 
BRANCH   7   8
HETATM    8  C3  UNL     1     -23.632  16.655  11.350  1.00 20.00     0.123 C 
HETATM    9  C5  UNL     1     -22.701  17.572  12.102  1.00 20.00     0.091 C 
HETATM   10  O10 UNL     1     -24.318  15.826  11.944  1.00 20.00    -0.298 OA
ENDBRANCH   7   8
ENDBRANCH   5   7
ENDBRANCH   4   5
ENDBRANCH   2   4
TORSDOF 4
ENDMDL
MODEL 7
REMARK VINA RESULT:      -4.2     10.703     11.546
REMARK  4 active torsions:
REMARK  status: ('A' for Active; 'I' for Inactive)
REMARK    1  A    between atoms: C2_2  and  C7_7 
REMARK    2  A    between atoms: C3_3  and  C8_8 
REMARK    3  A    between atoms: C7_7  and  C9_9 
REMARK    4  A    between atoms: C8_8  and  C9_9 
ROOT
HETATM    1  C1  UNL     1     -34.791  17.591   0.243  1.00 20.00    -0.111 C 
HETATM    2  C2  UNL     1     -35.045  17.000  -0.771  1.00 20.00    -0.107 C 
HETATM    3  C4  UNL     1     -34.479  18.310   1.476  1.00 20.00     0.112 C 
ENDROOT
BRANCH   2   4
HETATM    4  C7  UNL     1     -35.361  16.278  -2.014  1.00 20.00     0.098 C 
BRANCH   4   5
HETATM    5  C9  UNL     1     -34.117  15.772  -2.771  1.00 20.00    -0.001 C 
HETATM    6  C6  UNL     1     -33.013  16.837  -2.811  1.00 20.00     0.011 C 
BRANCH   5   7
HETATM    7  C8  UNL     1     -34.473  15.280  -4.185  1.00 20.00     0.083 C 
BRANCH   7   8
HETATM    8  C3  UNL     1     -35.200  13.943  -4.207  1.00 20.00     0.123 C 
HETATM    9  C5  UNL     1     -36.672  13.995  -4.529  1.00 20.00     0.091 C 
HETATM   10  O10 UNL     1     -34.648  12.875  -3.947  1.00 20.00    -0.298 OA
ENDBRANCH   7   8
ENDBRANCH   5   7
ENDBRANCH   4   5
ENDBRANCH   2   4
TORSDOF 4
ENDMDL
MODEL 8
REMARK VINA RESULT:      -4.2     15.643     16.676
REMARK  4 active torsions:
REMARK  status: ('A' for Active; 'I' for Inactive)
REMARK    1  A    between atoms: C2_2  and  C7_7 
REMARK    2  A    between atoms: C3_3  and  C8_8 
REMARK    3  A    between atoms: C7_7  and  C9_9 
REMARK    4  A    between atoms: C8_8  and  C9_9 
ROOT
HETATM    1  C1  UNL     1     -27.722  18.450  11.974  1.00 20.00    -0.111 C 
HETATM    2  C2  UNL     1     -26.526  18.365  12.047  1.00 20.00    -0.107 C 
HETATM    3  C4  UNL     1     -29.177  18.551  11.882  1.00 20.00     0.112 C 
ENDROOT
BRANCH   2   4
HETATM    4  C7  UNL     1     -25.061  18.265  12.141  1.00 20.00     0.098 C 
BRANCH   4   5
HETATM    5  C9  UNL     1     -24.423  17.427  11.016  1.00 20.00    -0.001 C 
HETATM    6  C6  UNL     1     -24.443  15.930  11.351  1.00 20.00     0.011 C 
BRANCH   5   7
HETATM    7  C8  UNL     1     -22.999  17.909  10.686  1.00 20.00     0.083 C 
BRANCH   7   8
HETATM    8  C3  UNL     1     -22.899  18.685   9.381  1.00 20.00     0.123 C 
HETATM    9  C5  UNL     1     -24.179  18.834   8.600  1.00 20.00     0.091 C 
HETATM   10  O10 UNL     1     -21.841  19.144   8.953  1.00 20.00    -0.298 OA
ENDBRANCH   7   8
ENDBRANCH   5   7
ENDBRANCH   4   5
ENDBRANCH   2   4
TORSDOF 4
ENDMDL
MODEL 9
REMARK VINA RESULT:      -4.0     15.218     16.205
REMARK  4 active torsions:
REMARK  status: ('A' for Active; 'I' for Inactive)
REMARK    1  A    between atoms: C2_2  and  C7_7 
REMARK    2  A    between atoms: C3_3  and  C8_8 
REMARK    3  A    between atoms: C7_7  and  C9_9 
REMARK    4  A    between atoms: C8_8  and  C9_9 
ROOT
HETATM    1  C1  UNL     1     -25.822  18.975   7.408  1.00 20.00    -0.111 C 
HETATM    2  C2  UNL     1     -25.349  18.807   8.499  1.00 20.00    -0.107 C 
HETATM    3  C4  UNL     1     -26.398  19.180   6.081  1.00 20.00     0.112 C 
ENDROOT
BRANCH   2   4
HETATM    4  C7  UNL     1     -24.767  18.599   9.835  1.00 20.00     0.098 C 
BRANCH   4   5
HETATM    5  C9  UNL     1     -24.062  17.238   9.999  1.00 20.00    -0.001 C 
HETATM    6  C6  UNL     1     -24.693  16.412  11.127  1.00 20.00     0.011 C 
BRANCH   5   7
HETATM    7  C8  UNL     1     -22.546  17.404  10.206  1.00 20.00     0.083 C 
BRANCH   7   8
HETATM    8  C3  UNL     1     -21.836  18.079   9.041  1.00 20.00     0.123 C 
HETATM    9  C5  UNL     1     -21.795  17.301   7.750  1.00 20.00     0.091 C 
HETATM   10  O10 UNL     1     -21.293  19.178   9.132  1.00 20.00    -0.298 OA
ENDBRANCH   7   8
ENDBRANCH   5   7
ENDBRANCH   4   5
ENDBRANCH   2   4
TORSDOF 4
ENDMDL
