MODEL 1
REMARK VINA RESULT:      -5.1      0.000      0.000
REMARK  3 active torsions:
REMARK  status: ('A' for Active; 'I' for Inactive)
REMARK    1  A    between atoms: C1_1  and  C12_12 
REMARK    2  A    between atoms: C5_5  and  C11_11 
REMARK    3  A    between atoms: C11_11  and  C12_12 
ROOT
HETATM    1  C2  UNL     1     -34.294  17.739  -3.439  1.00 20.00     0.005 C 
HETATM    2  C3  UNL     1     -32.920  17.800  -2.777  1.00 20.00     0.005 C 
HETATM    3  C4  UNL     1     -35.375  17.491  -1.174  1.00 20.00     0.009 C 
HETATM    4  C5  UNL     1     -35.321  16.959  -2.613  1.00 20.00    -0.013 C 
HETATM    5  C6  UNL     1     -32.991  18.354  -1.345  1.00 20.00    -0.015 C 
HETATM    6  C7  UNL     1     -33.997  17.550  -0.488  1.00 20.00    -0.015 C 
HETATM    7  C8  UNL     1     -31.583  18.369  -0.739  1.00 20.00     0.010 C 
HETATM    8  C9  UNL     1     -34.162  18.133   0.920  1.00 20.00     0.010 C 
ENDROOT
BRANCH   4   9
HETATM    9  C11 UNL     1     -35.056  15.451  -2.653  1.00 20.00     0.015 C 
BRANCH   9  10
HETATM   10  C12 UNL     1     -34.951  14.914  -4.084  1.00 20.00     0.043 C 
HETATM   11  C10 UNL     1     -33.571  14.307  -4.326  1.00 20.00     0.017 C 
BRANCH  10  12
HETATM   12  C1  UNL     1     -35.986  13.849  -4.398  1.00 20.00     0.235 C 
HETATM   13  O13 UNL     1     -35.761  12.644  -4.453  1.00 20.00    -0.306 OA
ENDBRANCH  10  12
ENDBRANCH   9  10
ENDBRANCH   4   9
TORSDOF 3
ENDMDL
MODEL 2
REMARK VINA RESULT:      -4.7      1.499      2.527
REMARK  3 active torsions:
REMARK  status: ('A' for Active; 'I' for Inactive)
REMARK    1  A    between atoms: C1_1  and  C12_12 
REMARK    2  A    between atoms: C5_5  and  C11_11 
REMARK    3  A    between atoms: C11_11  and  C12_12 
ROOT
HETATM    1  C2  UNL     1     -35.097  15.446  -2.701  1.00 20.00     0.005 C 
HETATM    2  C3  UNL     1     -35.518  16.606  -1.803  1.00 20.00     0.005 C 
HETATM    3  C4  UNL     1     -32.850  16.534  -3.055  1.00 20.00     0.009 C 
HETATM    4  C5  UNL     1     -34.040  15.845  -3.736  1.00 20.00    -0.013 C 
HETATM    5  C6  UNL     1     -34.315  17.271  -1.114  1.00 20.00    -0.015 C 
HETATM    6  C7  UNL     1     -33.257  17.714  -2.151  1.00 20.00    -0.015 C 
HETATM    7  C8  UNL     1     -34.809  18.434  -0.247  1.00 20.00     0.010 C 
HETATM    8  C9  UNL     1     -32.002  18.298  -1.494  1.00 20.00     0.010 C 
ENDROOT
BRANCH   4   9
HETATM    9  C11 UNL     1     -34.634  16.706  -4.853  1.00 20.00     0.015 C 
BRANCH   9  10
HETATM   10  C12 UNL     1     -34.860  15.914  -6.144  1.00 20.00     0.043 C 
HETATM   11  C10 UNL     1     -33.657  15.022  -6.441  1.00 20.00     0.017 C 
BRANCH  10  12
HETATM   12  C1  UNL     1     -36.091  15.026  -6.090  1.00 20.00     0.235 C 
HETATM   13  O13 UNL     1     -36.073  13.803  -6.010  1.00 20.00    -0.306 OA
ENDBRANCH  10  12
ENDBRANCH   9  10
ENDBRANCH   4   9
TORSDOF 3
ENDMDL
MODEL 3
REMARK VINA RESULT:      -4.6      1.671      2.750
REMARK  3 active torsions:
REMARK  status: ('A' for Active; 'I' for Inactive)
REMARK    1  A    between atoms: C1_1  and  C12_12 
REMARK    2  A    between atoms: C5_5  and  C11_11 
REMARK    3  A    between atoms: C11_11  and  C12_12 
ROOT
HETATM    1  C2  UNL     1     -35.162  15.448  -2.673  1.00 20.00     0.005 C 
HETATM    2  C3  UNL     1     -35.561  16.644  -1.814  1.00 20.00     0.005 C 
HETATM    3  C4  UNL     1     -32.874  16.452  -3.012  1.00 20.00     0.009 C 
HETATM    4  C5  UNL     1     -34.074  15.784  -3.698  1.00 20.00    -0.013 C 
HETATM    5  C6  UNL     1     -34.349  17.288  -1.119  1.00 20.00    -0.015 C 
HETATM    6  C7  UNL     1     -33.258  17.668  -2.147  1.00 20.00    -0.015 C 
HETATM    7  C8  UNL     1     -34.820  18.488  -0.292  1.00 20.00     0.010 C 
HETATM    8  C9  UNL     1     -31.996  18.228  -1.481  1.00 20.00     0.010 C 
ENDROOT
BRANCH   4   9
HETATM    9  C11 UNL     1     -34.618  16.635  -4.848  1.00 20.00     0.015 C 
BRANCH   9  10
HETATM   10  C12 UNL     1     -35.909  16.060  -5.440  1.00 20.00     0.043 C 
HETATM   11  C10 UNL     1     -36.636  17.118  -6.267  1.00 20.00     0.017 C 
BRANCH  10  12
HETATM   12  C1  UNL     1     -35.669  14.858  -6.336  1.00 20.00     0.235 C 
HETATM   13  O13 UNL     1     -35.981  13.703  -6.063  1.00 20.00    -0.306 OA
ENDBRANCH  10  12
ENDBRANCH   9  10
ENDBRANCH   4   9
TORSDOF 3
ENDMDL
MODEL 4
REMARK VINA RESULT:      -4.6      2.727      5.342
REMARK  3 active torsions:
REMARK  status: ('A' for Active; 'I' for Inactive)
REMARK    1  A    between atoms: C1_1  and  C12_12 
REMARK    2  A    between atoms: C5_5  and  C11_11 
REMARK    3  A    between atoms: C11_11  and  C12_12 
ROOT
HETATM    1  C2  UNL     1     -34.818  15.819  -2.312  1.00 20.00     0.005 C 
HETATM    2  C3  UNL     1     -34.240  15.075  -3.513  1.00 20.00     0.005 C 
HETATM    3  C4  UNL     1     -34.780  17.971  -3.625  1.00 20.00     0.009 C 
HETATM    4  C5  UNL     1     -34.435  17.302  -2.287  1.00 20.00    -0.013 C 
HETATM    5  C6  UNL     1     -34.612  15.747  -4.844  1.00 20.00    -0.015 C 
HETATM    6  C7  UNL     1     -34.196  17.237  -4.848  1.00 20.00    -0.015 C 
HETATM    7  C8  UNL     1     -33.986  14.960  -6.000  1.00 20.00     0.010 C 
HETATM    8  C9  UNL     1     -34.635  17.964  -6.125  1.00 20.00     0.010 C 
ENDROOT
BRANCH   4   9
HETATM    9  C11 UNL     1     -32.965  17.505  -1.911  1.00 20.00     0.015 C 
BRANCH   9  10
HETATM   10  C12 UNL     1     -32.784  18.551  -0.807  1.00 20.00     0.043 C 
HETATM   11  C10 UNL     1     -33.964  18.516   0.161  1.00 20.00     0.017 C 
BRANCH  10  12
HETATM   12  C1  UNL     1     -31.516  18.348   0.003  1.00 20.00     0.235 C 
HETATM   13  O13 UNL     1     -30.380  18.334  -0.460  1.00 20.00    -0.306 OA
ENDBRANCH  10  12
ENDBRANCH   9  10
ENDBRANCH   4   9
TORSDOF 3
ENDMDL
MODEL 5
REMARK VINA RESULT:      -4.5      2.744      5.291
REMARK  3 active torsions:
REMARK  status: ('A' for Active; 'I' for Inactive)
REMARK    1  A    between atoms: C1_1  and  C12_12 
REMARK    2  A    between atoms: C5_5  and  C11_11 
REMARK    3  A    between atoms: C11_11  and  C12_12 
ROOT
HETATM    1  C2  UNL     1     -33.933  18.328  -3.631  1.00 20.00     0.005 C 
HETATM    2  C3  UNL     1     -35.378  17.912  -3.892  1.00 20.00     0.005 C 
HETATM    3  C4  UNL     1     -33.335  15.932  -3.119  1.00 20.00     0.009 C 
HETATM    4  C5  UNL     1     -33.207  17.391  -2.660  1.00 20.00    -0.013 C 
HETATM    5  C6  UNL     1     -35.485  16.455  -4.370  1.00 20.00    -0.015 C 
HETATM    6  C7  UNL     1     -34.789  15.493  -3.378  1.00 20.00    -0.015 C 
HETATM    7  C8  UNL     1     -36.959  16.103  -4.593  1.00 20.00     0.010 C 
HETATM    8  C9  UNL     1     -34.795  14.042  -3.869  1.00 20.00     0.010 C 
ENDROOT
BRANCH   4   9
HETATM    9  C11 UNL     1     -33.691  17.579  -1.220  1.00 20.00     0.015 C 
BRANCH   9  10
HETATM   10  C12 UNL     1     -32.851  18.604  -0.450  1.00 20.00     0.043 C 
HETATM   11  C10 UNL     1     -32.839  18.273   1.040  1.00 20.00     0.017 C 
BRANCH  10  12
HETATM   12  C1  UNL     1     -31.409  18.665  -0.922  1.00 20.00     0.235 C 
HETATM   13  O13 UNL     1     -30.433  18.372  -0.239  1.00 20.00    -0.306 OA
ENDBRANCH  10  12
ENDBRANCH   9  10
ENDBRANCH   4   9
TORSDOF 3
ENDMDL
MODEL 6
REMARK VINA RESULT:      -4.4      2.564      5.274
REMARK  3 active torsions:
REMARK  status: ('A' for Active; 'I' for Inactive)
REMARK    1  A    between atoms: C1_1  and  C12_12 
REMARK    2  A    between atoms: C5_5  and  C11_11 
REMARK    3  A    between atoms: C11_11  and  C12_12 
ROOT
HETATM    1  C2  UNL     1     -33.163  15.334  -3.831  1.00 20.00     0.005 C 
HETATM    2  C3  UNL     1     -33.743  15.343  -5.242  1.00 20.00     0.005 C 
HETATM    3  C4  UNL     1     -35.495  15.275  -2.873  1.00 20.00     0.009 C 
HETATM    4  C5  UNL     1     -34.113  15.938  -2.791  1.00 20.00    -0.013 C 
HETATM    5  C6  UNL     1     -35.118  14.657  -5.309  1.00 20.00    -0.015 C 
HETATM    6  C7  UNL     1     -36.099  15.284  -4.290  1.00 20.00    -0.015 C 
HETATM    7  C8  UNL     1     -35.645  14.720  -6.746  1.00 20.00     0.010 C 
HETATM    8  C9  UNL     1     -37.452  14.564  -4.263  1.00 20.00     0.010 C 
ENDROOT
BRANCH   4   9
HETATM    9  C11 UNL     1     -34.203  17.461  -2.919  1.00 20.00     0.015 C 
BRANCH   9  10
HETATM   10  C12 UNL     1     -33.739  18.182  -1.650  1.00 20.00     0.043 C 
HETATM   11  C10 UNL     1     -34.496  17.659  -0.431  1.00 20.00     0.017 C 
BRANCH  10  12
HETATM   12  C1  UNL     1     -32.254  18.014  -1.379  1.00 20.00     0.235 C 
HETATM   13  O13 UNL     1     -31.408  18.889  -1.531  1.00 20.00    -0.306 OA
ENDBRANCH  10  12
ENDBRANCH   9  10
ENDBRANCH   4   9
TORSDOF 3
ENDMDL
MODEL 7
REMARK VINA RESULT:      -4.4      1.415      2.495
REMARK  3 active torsions:
REMARK  status: ('A' for Active; 'I' for Inactive)
REMARK    1  A    between atoms: C1_1  and  C12_12 
REMARK    2  A    between atoms: C5_5  and  C11_11 
REMARK    3  A    between atoms: C11_11  and  C12_12 
ROOT
HETATM    1  C2  UNL     1     -33.260  17.126  -3.432  1.00 20.00     0.005 C 
HETATM    2  C3  UNL     1     -33.624  16.857  -1.975  1.00 20.00     0.005 C 
HETATM    3  C4  UNL     1     -35.702  17.424  -3.987  1.00 20.00     0.009 C 
HETATM    4  C5  UNL     1     -34.383  16.758  -4.406  1.00 20.00    -0.013 C 
HETATM    5  C6  UNL     1     -34.935  17.548  -1.568  1.00 20.00    -0.015 C 
HETATM    6  C7  UNL     1     -36.089  17.154  -2.521  1.00 20.00    -0.015 C 
HETATM    7  C8  UNL     1     -35.246  17.220  -0.103  1.00 20.00     0.010 C 
HETATM    8  C9  UNL     1     -37.391  17.897  -2.201  1.00 20.00     0.010 C 
ENDROOT
BRANCH   4   9
HETATM    9  C11 UNL     1     -34.534  15.242  -4.555  1.00 20.00     0.015 C 
BRANCH   9  10
HETATM   10  C12 UNL     1     -35.844  14.850  -5.246  1.00 20.00     0.043 C 
HETATM   11  C10 UNL     1     -35.633  14.717  -6.753  1.00 20.00     0.017 C 
BRANCH  10  12
HETATM   12  C1  UNL     1     -36.413  13.536  -4.741  1.00 20.00     0.235 C 
HETATM   13  O13 UNL     1     -35.748  12.551  -4.437  1.00 20.00    -0.306 OA
ENDBRANCH  10  12
ENDBRANCH   9  10
ENDBRANCH   4   9
TORSDOF 3
ENDMDL
MODEL 8
REMARK VINA RESULT:      -4.3      2.453      3.393
REMARK  3 active torsions:
REMARK  status: ('A' for Active; 'I' for Inactive)
REMARK    1  A    between atoms: C1_1  and  C12_12 
REMARK    2  A    between atoms: C5_5  and  C11_11 
REMARK    3  A    between atoms: C11_11  and  C12_12 
ROOT
HETATM    1  C2  UNL     1     -35.033  15.084  -3.047  1.00 20.00     0.005 C 
HETATM    2  C3  UNL     1     -35.595  16.244  -2.229  1.00 20.00     0.005 C 
HETATM    3  C4  UNL     1     -32.811  16.266  -3.197  1.00 20.00     0.009 C 
HETATM    4  C5  UNL     1     -33.893  15.507  -3.978  1.00 20.00    -0.013 C 
HETATM    5  C6  UNL     1     -34.501  16.978  -1.438  1.00 20.00    -0.015 C 
HETATM    6  C7  UNL     1     -33.360  17.446  -2.372  1.00 20.00    -0.015 C 
HETATM    7  C8  UNL     1     -35.132  18.136  -0.658  1.00 20.00     0.010 C 
HETATM    8  C9  UNL     1     -32.207  18.101  -1.605  1.00 20.00     0.010 C 
ENDROOT
BRANCH   4   9
HETATM    9  C11 UNL     1     -34.404  16.316  -5.174  1.00 20.00     0.015 C 
BRANCH   9  10
HETATM   10  C12 UNL     1     -34.359  15.518  -6.480  1.00 20.00     0.043 C 
HETATM   11  C10 UNL     1     -35.641  14.705  -6.654  1.00 20.00     0.017 C 
BRANCH  10  12
HETATM   12  C1  UNL     1     -34.198  16.395  -7.709  1.00 20.00     0.235 C 
HETATM   13  O13 UNL     1     -33.875  17.579  -7.690  1.00 20.00    -0.306 OA
ENDBRANCH  10  12
ENDBRANCH   9  10
ENDBRANCH   4   9
TORSDOF 3
ENDMDL
MODEL 9
REMARK VINA RESULT:      -4.1      2.670      5.022
REMARK  3 active torsions:
REMARK  status: ('A' for Active; 'I' for Inactive)
REMARK    1  A    between atoms: C1_1  and  C12_12 
REMARK    2  A    between atoms: C5_5  and  C11_11 
REMARK    3  A    between atoms: C11_11  and  C12_12 
ROOT
HETATM    1  C2  UNL     1     -35.209  17.811  -3.499  1.00 20.00     0.005 C 
HETATM    2  C3  UNL     1     -35.781  16.768  -4.456  1.00 20.00     0.005 C 
HETATM    3  C4  UNL     1     -33.299  16.259  -2.948  1.00 20.00     0.009 C 
HETATM    4  C5  UNL     1     -34.373  17.194  -2.374  1.00 20.00    -0.013 C 
HETATM    5  C6  UNL     1     -34.689  15.854  -5.037  1.00 20.00    -0.015 C 
HETATM    6  C7  UNL     1     -33.861  15.194  -3.909  1.00 20.00    -0.015 C 
HETATM    7  C8  UNL     1     -35.336  14.825  -5.970  1.00 20.00     0.010 C 
HETATM    8  C9  UNL     1     -32.704  14.348  -4.452  1.00 20.00     0.010 C 
ENDROOT
BRANCH   4   9
HETATM    9  C11 UNL     1     -35.248  16.486  -1.336  1.00 20.00     0.015 C 
BRANCH   9  10
HETATM   10  C12 UNL     1     -35.242  17.202   0.019  1.00 20.00     0.043 C 
HETATM   11  C10 UNL     1     -34.139  18.257   0.061  1.00 20.00     0.017 C 
BRANCH  10  12
HETATM   12  C1  UNL     1     -36.556  17.894   0.332  1.00 20.00     0.235 C 
HETATM   13  O13 UNL     1     -36.984  18.115   1.460  1.00 20.00    -0.306 OA
ENDBRANCH  10  12
ENDBRANCH   9  10
ENDBRANCH   4   9
TORSDOF 3
ENDMDL
