MODEL 1
REMARK VINA RESULT:      -4.7      0.000      0.000
REMARK  3 active torsions:
REMARK  status: ('A' for Active; 'I' for Inactive)
REMARK    1  A    between atoms: C5_5  and  C7_7 
REMARK    2  A    between atoms: C6_6  and  C7_7 
REMARK    3  A    between atoms: C6_6  and  C8_8 
ROOT
HETATM    1  C1  UNL     1     -32.949   8.418   0.500  1.00 20.00     0.012 C 
HETATM    2  C2  UNL     1     -32.570   7.882   1.505  1.00 20.00    -0.117 C 
HETATM    3  C5  UNL     1     -32.099   7.229   2.735  1.00 20.00     0.097 C 
ENDROOT
BRANCH   3   4
HETATM    4  C7  UNL     1     -33.004   6.077   3.212  1.00 20.00    -0.006 C 
HETATM    5  C3  UNL     1     -33.173   5.013   2.119  1.00 20.00     0.011 C 
BRANCH   4   6
HETATM    6  C6  UNL     1     -34.394   6.526   3.719  1.00 20.00     0.025 C 
BRANCH   6   7
HETATM    7  C8  UNL     1     -34.673   6.296   5.213  1.00 20.00     0.078 C 
HETATM    8  C4  UNL     1     -33.640   7.015   6.075  1.00 20.00     0.026 C 
HETATM    9 CL9  UNL     1     -34.645   4.553   5.614  1.00 20.00    -0.125 Cl
ENDBRANCH   6   7
ENDBRANCH   4   6
ENDBRANCH   3   4
TORSDOF 3
ENDMDL
MODEL 2
REMARK VINA RESULT:      -4.5      2.353      4.025
REMARK  3 active torsions:
REMARK  status: ('A' for Active; 'I' for Inactive)
REMARK    1  A    between atoms: C5_5  and  C7_7 
REMARK    2  A    between atoms: C6_6  and  C7_7 
REMARK    3  A    between atoms: C6_6  and  C8_8 
ROOT
HETATM    1  C1  UNL     1     -34.355   6.494   6.338  1.00 20.00     0.012 C 
HETATM    2  C2  UNL     1     -34.491   5.673   5.473  1.00 20.00    -0.117 C 
HETATM    3  C5  UNL     1     -34.658   4.662   4.419  1.00 20.00     0.097 C 
ENDROOT
BRANCH   3   4
HETATM    4  C7  UNL     1     -34.225   5.145   3.021  1.00 20.00    -0.006 C 
HETATM    5  C3  UNL     1     -33.032   4.335   2.497  1.00 20.00     0.011 C 
BRANCH   4   6
HETATM    6  C6  UNL     1     -33.903   6.656   2.940  1.00 20.00     0.025 C 
BRANCH   6   7
HETATM    7  C8  UNL     1     -32.504   7.020   2.422  1.00 20.00     0.078 C 
HETATM    8  C4  UNL     1     -31.656   7.634   3.531  1.00 20.00     0.026 C 
HETATM    9 CL9  UNL     1     -32.600   8.179   1.062  1.00 20.00    -0.125 Cl
ENDBRANCH   6   7
ENDBRANCH   4   6
ENDBRANCH   3   4
TORSDOF 3
ENDMDL
MODEL 3
REMARK VINA RESULT:      -4.2      2.527      4.669
REMARK  3 active torsions:
REMARK  status: ('A' for Active; 'I' for Inactive)
REMARK    1  A    between atoms: C5_5  and  C7_7 
REMARK    2  A    between atoms: C6_6  and  C7_7 
REMARK    3  A    between atoms: C6_6  and  C8_8 
ROOT
HETATM    1  C1  UNL     1     -34.942   5.051   5.908  1.00 20.00     0.012 C 
HETATM    2  C2  UNL     1     -34.297   5.858   5.296  1.00 20.00    -0.117 C 
HETATM    3  C5  UNL     1     -33.507   6.850   4.553  1.00 20.00     0.097 C 
ENDROOT
BRANCH   3   4
HETATM    4  C7  UNL     1     -33.467   6.600   3.033  1.00 20.00    -0.006 C 
HETATM    5  C3  UNL     1     -33.341   5.103   2.719  1.00 20.00     0.011 C 
BRANCH   4   6
HETATM    6  C6  UNL     1     -32.364   7.384   2.286  1.00 20.00     0.025 C 
BRANCH   6   7
HETATM    7  C8  UNL     1     -32.793   8.074   0.982  1.00 20.00     0.078 C 
HETATM    8  C4  UNL     1     -31.751   7.862  -0.112  1.00 20.00     0.026 C 
HETATM    9 CL9  UNL     1     -33.023   9.831   1.226  1.00 20.00    -0.125 Cl
ENDBRANCH   6   7
ENDBRANCH   4   6
ENDBRANCH   3   4
TORSDOF 3
ENDMDL
MODEL 4
REMARK VINA RESULT:      -3.9      0.822      1.611
REMARK  3 active torsions:
REMARK  status: ('A' for Active; 'I' for Inactive)
REMARK    1  A    between atoms: C5_5  and  C7_7 
REMARK    2  A    between atoms: C6_6  and  C7_7 
REMARK    3  A    between atoms: C6_6  and  C8_8 
ROOT
HETATM    1  C1  UNL     1     -33.463   9.221  -0.152  1.00 20.00     0.012 C 
HETATM    2  C2  UNL     1     -32.907   8.389   0.511  1.00 20.00    -0.117 C 
HETATM    3  C5  UNL     1     -32.224   7.365   1.316  1.00 20.00     0.097 C 
ENDROOT
BRANCH   3   4
HETATM    4  C7  UNL     1     -32.636   7.367   2.801  1.00 20.00    -0.006 C 
HETATM    5  C3  UNL     1     -31.445   7.701   3.709  1.00 20.00     0.011 C 
BRANCH   4   6
HETATM    6  C6  UNL     1     -33.303   6.056   3.278  1.00 20.00     0.025 C 
BRANCH   6   7
HETATM    7  C8  UNL     1     -34.401   6.208   4.343  1.00 20.00     0.078 C 
HETATM    8  C4  UNL     1     -33.823   6.756   5.644  1.00 20.00     0.026 C 
HETATM    9 CL9  UNL     1     -35.195   4.641   4.679  1.00 20.00    -0.125 Cl
ENDBRANCH   6   7
ENDBRANCH   4   6
ENDBRANCH   3   4
TORSDOF 3
ENDMDL
MODEL 5
REMARK VINA RESULT:      -3.8     15.504     16.127
REMARK  3 active torsions:
REMARK  status: ('A' for Active; 'I' for Inactive)
REMARK    1  A    between atoms: C5_5  and  C7_7 
REMARK    2  A    between atoms: C6_6  and  C7_7 
REMARK    3  A    between atoms: C6_6  and  C8_8 
ROOT
HETATM    1  C1  UNL     1     -25.600  18.979   6.910  1.00 20.00     0.012 C 
HETATM    2  C2  UNL     1     -25.052  19.011   7.977  1.00 20.00    -0.117 C 
HETATM    3  C5  UNL     1     -24.384  19.057   9.287  1.00 20.00     0.097 C 
ENDROOT
BRANCH   3   4
HETATM    4  C7  UNL     1     -23.269  18.007   9.451  1.00 20.00    -0.006 C 
HETATM    5  C3  UNL     1     -22.533  17.765   8.127  1.00 20.00     0.011 C 
BRANCH   4   6
HETATM    6  C6  UNL     1     -23.745  16.658  10.037  1.00 20.00     0.025 C 
BRANCH   6   7
HETATM    7  C8  UNL     1     -23.816  16.576  11.570  1.00 20.00     0.078 C 
HETATM    8  C4  UNL     1     -25.258  16.698  12.054  1.00 20.00     0.026 C 
HETATM    9 CL9  UNL     1     -22.842  17.868  12.331  1.00 20.00    -0.125 Cl
ENDBRANCH   6   7
ENDBRANCH   4   6
ENDBRANCH   3   4
TORSDOF 3
ENDMDL
MODEL 6
REMARK VINA RESULT:      -3.8     11.571     12.367
REMARK  3 active torsions:
REMARK  status: ('A' for Active; 'I' for Inactive)
REMARK    1  A    between atoms: C5_5  and  C7_7 
REMARK    2  A    between atoms: C6_6  and  C7_7 
REMARK    3  A    between atoms: C6_6  and  C8_8 
ROOT
HETATM    1  C1  UNL     1     -35.096  17.383  -0.173  1.00 20.00     0.012 C 
HETATM    2  C2  UNL     1     -35.134  16.707  -1.164  1.00 20.00    -0.117 C 
HETATM    3  C5  UNL     1     -35.188  15.877  -2.376  1.00 20.00     0.097 C 
ENDROOT
BRANCH   3   4
HETATM    4  C7  UNL     1     -33.812  15.647  -3.032  1.00 20.00    -0.006 C 
HETATM    5  C3  UNL     1     -33.168  16.975  -3.454  1.00 20.00     0.011 C 
BRANCH   4   6
HETATM    6  C6  UNL     1     -33.834  14.674  -4.234  1.00 20.00     0.025 C 
BRANCH   6   7
HETATM    7  C8  UNL     1     -34.653  15.126  -5.452  1.00 20.00     0.078 C 
HETATM    8  C4  UNL     1     -35.926  14.296  -5.590  1.00 20.00     0.026 C 
HETATM    9 CL9  UNL     1     -33.703  14.978  -6.961  1.00 20.00    -0.125 Cl
ENDBRANCH   6   7
ENDBRANCH   4   6
ENDBRANCH   3   4
TORSDOF 3
ENDMDL
MODEL 7
REMARK VINA RESULT:      -3.7     10.932     11.977
REMARK  3 active torsions:
REMARK  status: ('A' for Active; 'I' for Inactive)
REMARK    1  A    between atoms: C5_5  and  C7_7 
REMARK    2  A    between atoms: C6_6  and  C7_7 
REMARK    3  A    between atoms: C6_6  and  C8_8 
ROOT
HETATM    1  C1  UNL     1     -32.514  18.123  -1.885  1.00 20.00     0.012 C 
HETATM    2  C2  UNL     1     -32.789  17.171  -2.562  1.00 20.00    -0.117 C 
HETATM    3  C5  UNL     1     -33.119  16.004  -3.394  1.00 20.00     0.097 C 
ENDROOT
BRANCH   3   4
HETATM    4  C7  UNL     1     -34.617  15.643  -3.391  1.00 20.00    -0.006 C 
HETATM    5  C3  UNL     1     -35.270  15.991  -2.047  1.00 20.00     0.011 C 
BRANCH   4   6
HETATM    6  C6  UNL     1     -34.918  14.170  -3.750  1.00 20.00     0.025 C 
BRANCH   6   7
HETATM    7  C8  UNL     1     -35.968  13.945  -4.850  1.00 20.00     0.078 C 
HETATM    8  C4  UNL     1     -35.614  14.734  -6.107  1.00 20.00     0.026 C 
HETATM    9 CL9  UNL     1     -37.596  14.439  -4.298  1.00 20.00    -0.125 Cl
ENDBRANCH   6   7
ENDBRANCH   4   6
ENDBRANCH   3   4
TORSDOF 3
ENDMDL
MODEL 8
REMARK VINA RESULT:      -3.7     11.191     11.779
REMARK  3 active torsions:
REMARK  status: ('A' for Active; 'I' for Inactive)
REMARK    1  A    between atoms: C5_5  and  C7_7 
REMARK    2  A    between atoms: C6_6  and  C7_7 
REMARK    3  A    between atoms: C6_6  and  C8_8 
ROOT
HETATM    1  C1  UNL     1     -34.367  15.550  -7.162  1.00 20.00     0.012 C 
HETATM    2  C2  UNL     1     -34.047  15.082  -6.104  1.00 20.00    -0.117 C 
HETATM    3  C5  UNL     1     -33.648  14.507  -4.811  1.00 20.00     0.097 C 
ENDROOT
BRANCH   3   4
HETATM    4  C7  UNL     1     -34.817  14.336  -3.821  1.00 20.00    -0.006 C 
HETATM    5  C3  UNL     1     -36.010  13.635  -4.484  1.00 20.00     0.011 C 
BRANCH   4   6
HETATM    6  C6  UNL     1     -35.289  15.652  -3.159  1.00 20.00     0.025 C 
BRANCH   6   7
HETATM    7  C8  UNL     1     -34.400  16.193  -2.028  1.00 20.00     0.078 C 
HETATM    8  C4  UNL     1     -35.235  16.934  -0.988  1.00 20.00     0.026 C 
HETATM    9 CL9  UNL     1     -33.152  17.305  -2.663  1.00 20.00    -0.125 Cl
ENDBRANCH   6   7
ENDBRANCH   4   6
ENDBRANCH   3   4
TORSDOF 3
ENDMDL
MODEL 9
REMARK VINA RESULT:      -3.7     11.213     11.768
REMARK  3 active torsions:
REMARK  status: ('A' for Active; 'I' for Inactive)
REMARK    1  A    between atoms: C5_5  and  C7_7 
REMARK    2  A    between atoms: C6_6  and  C7_7 
REMARK    3  A    between atoms: C6_6  and  C8_8 
ROOT
HETATM    1  C1  UNL     1     -38.001  14.753  -4.280  1.00 20.00     0.012 C 
HETATM    2  C2  UNL     1     -36.865  14.363  -4.265  1.00 20.00    -0.117 C 
HETATM    3  C5  UNL     1     -35.477  13.879  -4.243  1.00 20.00     0.097 C 
ENDROOT
BRANCH   3   4
HETATM    4  C7  UNL     1     -34.436  14.965  -4.578  1.00 20.00    -0.006 C 
HETATM    5  C3  UNL     1     -33.006  14.437  -4.403  1.00 20.00     0.011 C 
BRANCH   4   6
HETATM    6  C6  UNL     1     -34.607  16.279  -3.783  1.00 20.00     0.025 C 
BRANCH   6   7
HETATM    7  C8  UNL     1     -34.097  16.261  -2.333  1.00 20.00     0.078 C 
HETATM    8  C4  UNL     1     -35.216  16.616  -1.359  1.00 20.00     0.026 C 
HETATM    9 CL9  UNL     1     -32.749  17.415  -2.108  1.00 20.00    -0.125 Cl
ENDBRANCH   6   7
ENDBRANCH   4   6
ENDBRANCH   3   4
TORSDOF 3
ENDMDL
