MODEL 1
REMARK VINA RESULT:      -4.7      0.000      0.000
REMARK  5 active torsions:
REMARK  status: ('A' for Active; 'I' for Inactive)
REMARK    1  A    between atoms: C6_6  and  C7_7 
REMARK    2  A    between atoms: C7_7  and  C10_10 
REMARK    3  A    between atoms: C8_8  and  C9_9 
REMARK    4  A    between atoms: C8_8  and  C10_10 
REMARK    5  A    between atoms: C9_9  and  O11_11 
ROOT
HETATM    1  C1  UNL     1     -31.452  18.433  -0.514  1.00 20.00     0.012 C 
HETATM    2  C2  UNL     1     -32.098  18.125  -1.478  1.00 20.00    -0.117 C 
HETATM    3  C6  UNL     1     -32.890  17.751  -2.660  1.00 20.00     0.093 C 
ENDROOT
BRANCH   3   4
HETATM    4  C7  UNL     1     -33.625  16.425  -2.427  1.00 20.00     0.021 C 
BRANCH   4   5
HETATM    5  C10 UNL     1     -34.075  15.663  -3.706  1.00 20.00    -0.045 C 
HETATM    6  C4  UNL     1     -32.918  14.792  -4.248  1.00 20.00     0.015 C 
HETATM    7  C5  UNL     1     -34.480  16.654  -4.811  1.00 20.00     0.015 C 
BRANCH   5   8
HETATM    8  C8  UNL     1     -35.249  14.688  -3.360  1.00 20.00     0.040 C 
BRANCH   8   9
HETATM    9  C9  UNL     1     -36.055  14.101  -4.531  1.00 20.00     0.114 C 
HETATM   10  C3  UNL     1     -37.536  14.437  -4.387  1.00 20.00     0.039 C 
BRANCH   9  11
HETATM   11  O11 UNL     1     -35.923  12.684  -4.546  1.00 20.00    -0.396 OA
HETATM   12  H29 UNL     1     -36.778  12.328  -4.837  1.00 20.00     0.210 HD
ENDBRANCH   9  11
ENDBRANCH   8   9
ENDBRANCH   5   8
ENDBRANCH   4   5
ENDBRANCH   3   4
TORSDOF 5
ENDMDL
MODEL 2
REMARK VINA RESULT:      -4.7      1.660      2.354
REMARK  5 active torsions:
REMARK  status: ('A' for Active; 'I' for Inactive)
REMARK    1  A    between atoms: C6_6  and  C7_7 
REMARK    2  A    between atoms: C7_7  and  C10_10 
REMARK    3  A    between atoms: C8_8  and  C9_9 
REMARK    4  A    between atoms: C8_8  and  C10_10 
REMARK    5  A    between atoms: C9_9  and  O11_11 
ROOT
HETATM    1  C1  UNL     1     -31.075  18.393  -0.078  1.00 20.00     0.012 C 
HETATM    2  C2  UNL     1     -31.778  18.327  -1.049  1.00 20.00    -0.117 C 
HETATM    3  C6  UNL     1     -32.639  18.249  -2.240  1.00 20.00     0.093 C 
ENDROOT
BRANCH   3   4
HETATM    4  C7  UNL     1     -32.884  16.789  -2.641  1.00 20.00     0.021 C 
BRANCH   4   5
HETATM    5  C10 UNL     1     -34.370  16.385  -2.860  1.00 20.00    -0.045 C 
HETATM    6  C4  UNL     1     -35.086  17.427  -3.750  1.00 20.00     0.015 C 
HETATM    7  C5  UNL     1     -35.116  16.318  -1.516  1.00 20.00     0.015 C 
BRANCH   5   8
HETATM    8  C8  UNL     1     -34.444  15.018  -3.618  1.00 20.00     0.040 C 
BRANCH   8   9
HETATM    9  C9  UNL     1     -33.353  14.722  -4.660  1.00 20.00     0.114 C 
HETATM   10  C3  UNL     1     -33.912  14.847  -6.074  1.00 20.00     0.039 C 
BRANCH   9  11
HETATM   11  O11 UNL     1     -32.871  13.394  -4.492  1.00 20.00    -0.396 OA
HETATM   12  H29 UNL     1     -33.639  12.807  -4.572  1.00 20.00     0.210 HD
ENDBRANCH   9  11
ENDBRANCH   8   9
ENDBRANCH   5   8
ENDBRANCH   4   5
ENDBRANCH   3   4
TORSDOF 5
ENDMDL
MODEL 3
REMARK VINA RESULT:      -4.6      1.230      1.378
REMARK  5 active torsions:
REMARK  status: ('A' for Active; 'I' for Inactive)
REMARK    1  A    between atoms: C6_6  and  C7_7 
REMARK    2  A    between atoms: C7_7  and  C10_10 
REMARK    3  A    between atoms: C8_8  and  C9_9 
REMARK    4  A    between atoms: C8_8  and  C10_10 
REMARK    5  A    between atoms: C9_9  and  O11_11 
ROOT
HETATM    1  C1  UNL     1     -34.088  18.342   0.439  1.00 20.00     0.012 C 
HETATM    2  C2  UNL     1     -34.432  17.619  -0.455  1.00 20.00    -0.117 C 
HETATM    3  C6  UNL     1     -34.857  16.732  -1.550  1.00 20.00     0.093 C 
ENDROOT
BRANCH   3   4
HETATM    4  C7  UNL     1     -33.702  16.485  -2.530  1.00 20.00     0.021 C 
BRANCH   4   5
HETATM    5  C10 UNL     1     -34.042  15.617  -3.776  1.00 20.00    -0.045 C 
HETATM    6  C4  UNL     1     -32.803  14.809  -4.224  1.00 20.00     0.015 C 
HETATM    7  C5  UNL     1     -34.479  16.507  -4.952  1.00 20.00     0.015 C 
BRANCH   5   8
HETATM    8  C8  UNL     1     -35.152  14.575  -3.411  1.00 20.00     0.040 C 
BRANCH   8   9
HETATM    9  C9  UNL     1     -36.014  14.023  -4.559  1.00 20.00     0.114 C 
HETATM   10  C3  UNL     1     -37.478  14.404  -4.364  1.00 20.00     0.039 C 
BRANCH   9  11
HETATM   11  O11 UNL     1     -35.928  12.602  -4.587  1.00 20.00    -0.396 OA
HETATM   12  H29 UNL     1     -36.022  12.337  -5.516  1.00 20.00     0.210 HD
ENDBRANCH   9  11
ENDBRANCH   8   9
ENDBRANCH   5   8
ENDBRANCH   4   5
ENDBRANCH   3   4
TORSDOF 5
ENDMDL
MODEL 4
REMARK VINA RESULT:      -4.3      2.235      2.768
REMARK  5 active torsions:
REMARK  status: ('A' for Active; 'I' for Inactive)
REMARK    1  A    between atoms: C6_6  and  C7_7 
REMARK    2  A    between atoms: C7_7  and  C10_10 
REMARK    3  A    between atoms: C8_8  and  C9_9 
REMARK    4  A    between atoms: C8_8  and  C10_10 
REMARK    5  A    between atoms: C9_9  and  O11_11 
ROOT
HETATM    1  C1  UNL     1     -34.430  17.873   1.535  1.00 20.00     0.012 C 
HETATM    2  C2  UNL     1     -34.943  17.731   0.459  1.00 20.00    -0.117 C 
HETATM    3  C6  UNL     1     -35.574  17.560  -0.860  1.00 20.00     0.093 C 
ENDROOT
BRANCH   3   4
HETATM    4  C7  UNL     1     -35.143  16.236  -1.503  1.00 20.00     0.021 C 
BRANCH   4   5
HETATM    5  C10 UNL     1     -34.444  16.349  -2.887  1.00 20.00    -0.045 C 
HETATM    6  C4  UNL     1     -32.980  16.816  -2.715  1.00 20.00     0.015 C 
HETATM    7  C5  UNL     1     -35.168  17.375  -3.776  1.00 20.00     0.015 C 
BRANCH   5   8
HETATM    8  C8  UNL     1     -34.390  14.943  -3.573  1.00 20.00     0.040 C 
BRANCH   8   9
HETATM    9  C9  UNL     1     -33.305  14.712  -4.637  1.00 20.00     0.114 C 
HETATM   10  C3  UNL     1     -33.886  14.864  -6.040  1.00 20.00     0.039 C 
BRANCH   9  11
HETATM   11  O11 UNL     1     -32.783  13.393  -4.517  1.00 20.00    -0.396 OA
HETATM   12  H29 UNL     1     -33.218  12.858  -5.199  1.00 20.00     0.210 HD
ENDBRANCH   9  11
ENDBRANCH   8   9
ENDBRANCH   5   8
ENDBRANCH   4   5
ENDBRANCH   3   4
TORSDOF 5
ENDMDL
MODEL 5
REMARK VINA RESULT:      -4.2      2.274      3.347
REMARK  5 active torsions:
REMARK  status: ('A' for Active; 'I' for Inactive)
REMARK    1  A    between atoms: C6_6  and  C7_7 
REMARK    2  A    between atoms: C7_7  and  C10_10 
REMARK    3  A    between atoms: C8_8  and  C9_9 
REMARK    4  A    between atoms: C8_8  and  C10_10 
REMARK    5  A    between atoms: C9_9  and  O11_11 
ROOT
HETATM    1  C1  UNL     1     -35.296  16.992  -0.424  1.00 20.00     0.012 C 
HETATM    2  C2  UNL     1     -34.899  16.675  -1.512  1.00 20.00    -0.117 C 
HETATM    3  C6  UNL     1     -34.411  16.290  -2.846  1.00 20.00     0.093 C 
ENDROOT
BRANCH   3   4
HETATM    4  C7  UNL     1     -35.151  15.048  -3.360  1.00 20.00     0.021 C 
BRANCH   4   5
HETATM    5  C10 UNL     1     -36.119  15.280  -4.555  1.00 20.00    -0.045 C 
HETATM    6  C4  UNL     1     -36.317  16.793  -4.802  1.00 20.00     0.015 C 
HETATM    7  C5  UNL     1     -37.498  14.663  -4.262  1.00 20.00     0.015 C 
BRANCH   5   8
HETATM    8  C8  UNL     1     -35.500  14.686  -5.864  1.00 20.00     0.040 C 
BRANCH   8   9
HETATM    9  C9  UNL     1     -34.202  15.322  -6.389  1.00 20.00     0.114 C 
HETATM   10  C3  UNL     1     -34.255  15.480  -7.905  1.00 20.00     0.039 C 
BRANCH   9  11
HETATM   11  O11 UNL     1     -33.092  14.489  -6.071  1.00 20.00    -0.396 OA
HETATM   12  H29 UNL     1     -32.410  14.669  -6.737  1.00 20.00     0.210 HD
ENDBRANCH   9  11
ENDBRANCH   8   9
ENDBRANCH   5   8
ENDBRANCH   4   5
ENDBRANCH   3   4
TORSDOF 5
ENDMDL
MODEL 6
REMARK VINA RESULT:      -4.2      1.915      2.846
REMARK  5 active torsions:
REMARK  status: ('A' for Active; 'I' for Inactive)
REMARK    1  A    between atoms: C6_6  and  C7_7 
REMARK    2  A    between atoms: C7_7  and  C10_10 
REMARK    3  A    between atoms: C8_8  and  C9_9 
REMARK    4  A    between atoms: C8_8  and  C10_10 
REMARK    5  A    between atoms: C9_9  and  O11_11 
ROOT
HETATM    1  C1  UNL     1     -34.254  18.172  -0.260  1.00 20.00     0.012 C 
HETATM    2  C2  UNL     1     -34.501  17.316  -1.065  1.00 20.00    -0.117 C 
HETATM    3  C6  UNL     1     -34.807  16.266  -2.050  1.00 20.00     0.093 C 
ENDROOT
BRANCH   3   4
HETATM    4  C7  UNL     1     -33.632  16.066  -3.016  1.00 20.00     0.021 C 
BRANCH   4   5
HETATM    5  C10 UNL     1     -33.867  15.049  -4.169  1.00 20.00    -0.045 C 
HETATM    6  C4  UNL     1     -34.940  14.014  -3.764  1.00 20.00     0.015 C 
HETATM    7  C5  UNL     1     -32.569  14.287  -4.489  1.00 20.00     0.015 C 
BRANCH   5   8
HETATM    8  C8  UNL     1     -34.413  15.793  -5.433  1.00 20.00     0.040 C 
BRANCH   8   9
HETATM    9  C9  UNL     1     -34.187  15.131  -6.802  1.00 20.00     0.114 C 
HETATM   10  C3  UNL     1     -34.076  16.186  -7.898  1.00 20.00     0.039 C 
BRANCH   9  11
HETATM   11  O11 UNL     1     -35.285  14.282  -7.115  1.00 20.00    -0.396 OA
HETATM   12  H29 UNL     1     -35.254  13.543  -6.489  1.00 20.00     0.210 HD
ENDBRANCH   9  11
ENDBRANCH   8   9
ENDBRANCH   5   8
ENDBRANCH   4   5
ENDBRANCH   3   4
TORSDOF 5
ENDMDL
MODEL 7
REMARK VINA RESULT:      -4.1      1.459      3.926
REMARK  5 active torsions:
REMARK  status: ('A' for Active; 'I' for Inactive)
REMARK    1  A    between atoms: C6_6  and  C7_7 
REMARK    2  A    between atoms: C7_7  and  C10_10 
REMARK    3  A    between atoms: C8_8  and  C9_9 
REMARK    4  A    between atoms: C8_8  and  C10_10 
REMARK    5  A    between atoms: C9_9  and  O11_11 
ROOT
HETATM    1  C1  UNL     1     -36.867  16.245  -7.559  1.00 20.00     0.012 C 
HETATM    2  C2  UNL     1     -35.787  16.225  -7.037  1.00 20.00    -0.117 C 
HETATM    3  C6  UNL     1     -34.460  16.198  -6.399  1.00 20.00     0.093 C 
ENDROOT
BRANCH   3   4
HETATM    4  C7  UNL     1     -34.553  16.632  -4.931  1.00 20.00     0.021 C 
BRANCH   4   5
HETATM    5  C10 UNL     1     -34.098  15.578  -3.881  1.00 20.00    -0.045 C 
HETATM    6  C4  UNL     1     -33.501  16.278  -2.639  1.00 20.00     0.015 C 
HETATM    7  C5  UNL     1     -33.016  14.658  -4.473  1.00 20.00     0.015 C 
BRANCH   5   8
HETATM    8  C8  UNL     1     -35.333  14.755  -3.384  1.00 20.00     0.040 C 
BRANCH   8   9
HETATM    9  C9  UNL     1     -36.136  13.973  -4.436  1.00 20.00     0.114 C 
HETATM   10  C3  UNL     1     -37.619  14.319  -4.347  1.00 20.00     0.039 C 
BRANCH   9  11
HETATM   11  O11 UNL     1     -35.995  12.575  -4.211  1.00 20.00    -0.396 OA
HETATM   12  H29 UNL     1     -35.148  12.313  -4.604  1.00 20.00     0.210 HD
ENDBRANCH   9  11
ENDBRANCH   8   9
ENDBRANCH   5   8
ENDBRANCH   4   5
ENDBRANCH   3   4
TORSDOF 5
ENDMDL
MODEL 8
REMARK VINA RESULT:      -4.1      2.138      2.738
REMARK  5 active torsions:
REMARK  status: ('A' for Active; 'I' for Inactive)
REMARK    1  A    between atoms: C6_6  and  C7_7 
REMARK    2  A    between atoms: C7_7  and  C10_10 
REMARK    3  A    between atoms: C8_8  and  C9_9 
REMARK    4  A    between atoms: C8_8  and  C10_10 
REMARK    5  A    between atoms: C9_9  and  O11_11 
ROOT
HETATM    1  C1  UNL     1     -35.146  17.328   0.327  1.00 20.00     0.012 C 
HETATM    2  C2  UNL     1     -35.398  17.026  -0.807  1.00 20.00    -0.117 C 
HETATM    3  C6  UNL     1     -35.710  16.657  -2.197  1.00 20.00     0.093 C 
ENDROOT
BRANCH   3   4
HETATM    4  C7  UNL     1     -34.782  15.538  -2.686  1.00 20.00     0.021 C 
BRANCH   4   5
HETATM    5  C10 UNL     1     -33.958  15.850  -3.968  1.00 20.00    -0.045 C 
HETATM    6  C4  UNL     1     -32.893  14.755  -4.203  1.00 20.00     0.015 C 
HETATM    7  C5  UNL     1     -33.230  17.198  -3.828  1.00 20.00     0.015 C 
BRANCH   5   8
HETATM    8  C8  UNL     1     -34.898  15.841  -5.219  1.00 20.00     0.040 C 
BRANCH   8   9
HETATM    9  C9  UNL     1     -34.587  14.830  -6.335  1.00 20.00     0.114 C 
HETATM   10  C3  UNL     1     -34.195  15.551  -7.621  1.00 20.00     0.039 C 
BRANCH   9  11
HETATM   11  O11 UNL     1     -35.739  14.039  -6.606  1.00 20.00    -0.396 OA
HETATM   12  H29 UNL     1     -36.251  14.515  -7.279  1.00 20.00     0.210 HD
ENDBRANCH   9  11
ENDBRANCH   8   9
ENDBRANCH   5   8
ENDBRANCH   4   5
ENDBRANCH   3   4
TORSDOF 5
ENDMDL
MODEL 9
REMARK VINA RESULT:      -4.1      2.536      3.374
REMARK  5 active torsions:
REMARK  status: ('A' for Active; 'I' for Inactive)
REMARK    1  A    between atoms: C6_6  and  C7_7 
REMARK    2  A    between atoms: C7_7  and  C10_10 
REMARK    3  A    between atoms: C8_8  and  C9_9 
REMARK    4  A    between atoms: C8_8  and  C10_10 
REMARK    5  A    between atoms: C9_9  and  O11_11 
ROOT
HETATM    1  C1  UNL     1     -31.186  18.485  -0.137  1.00 20.00     0.012 C 
HETATM    2  C2  UNL     1     -31.820  18.352  -1.147  1.00 20.00    -0.117 C 
HETATM    3  C6  UNL     1     -32.597  18.192  -2.387  1.00 20.00     0.093 C 
ENDROOT
BRANCH   3   4
HETATM    4  C7  UNL     1     -32.955  16.719  -2.619  1.00 20.00     0.021 C 
BRANCH   4   5
HETATM    5  C10 UNL     1     -34.469  16.408  -2.798  1.00 20.00    -0.045 C 
HETATM    6  C4  UNL     1     -34.659  15.048  -3.509  1.00 20.00     0.015 C 
HETATM    7  C5  UNL     1     -35.146  17.491  -3.656  1.00 20.00     0.015 C 
BRANCH   5   8
HETATM    8  C8  UNL     1     -35.156  16.284  -1.397  1.00 20.00     0.040 C 
BRANCH   8   9
HETATM    9  C9  UNL     1     -35.647  17.578  -0.729  1.00 20.00     0.114 C 
HETATM   10  C3  UNL     1     -35.053  17.720   0.669  1.00 20.00     0.039 C 
BRANCH   9  11
HETATM   11  O11 UNL     1     -37.064  17.551  -0.605  1.00 20.00    -0.396 OA
HETATM   12  H29 UNL     1     -37.382  18.435  -0.847  1.00 20.00     0.210 HD
ENDBRANCH   9  11
ENDBRANCH   8   9
ENDBRANCH   5   8
ENDBRANCH   4   5
ENDBRANCH   3   4
TORSDOF 5
ENDMDL
