MODEL 1
REMARK VINA RESULT:      -4.4      0.000      0.000
REMARK  4 active torsions:
REMARK  status: ('A' for Active; 'I' for Inactive)
REMARK    1  A    between atoms: C5_5  and  C6_6 
REMARK    2  A    between atoms: C6_6  and  C8_8 
REMARK    3  A    between atoms: C7_7  and  C8_8 
REMARK    4  A    between atoms: C7_7  and  C9_9 
ROOT
HETATM    1  C1  UNL     1     -33.278   8.748  -0.360  1.00 20.00     0.012 C 
HETATM    2  C2  UNL     1     -33.034   8.524   0.795  1.00 20.00    -0.117 C 
HETATM    3  C5  UNL     1     -32.738   8.253   2.208  1.00 20.00     0.093 C 
ENDROOT
BRANCH   3   4
HETATM    4  C6  UNL     1     -32.112   6.871   2.421  1.00 20.00     0.016 C 
BRANCH   4   5
HETATM    5  C8  UNL     1     -32.984   5.847   3.188  1.00 20.00    -0.016 C 
HETATM    6  C3  UNL     1     -33.220   4.629   2.285  1.00 20.00     0.010 C 
BRANCH   5   7
HETATM    7  C7  UNL     1     -34.316   6.476   3.662  1.00 20.00     0.024 C 
BRANCH   7   8
HETATM    8  C9  UNL     1     -34.635   6.338   5.159  1.00 20.00     0.078 C 
HETATM    9  C4  UNL     1     -33.570   7.025   6.007  1.00 20.00     0.026 C 
HETATM   10 CL10 UNL     1     -34.732   4.618   5.639  1.00 20.00    -0.125 Cl
ENDBRANCH   7   8
ENDBRANCH   5   7
ENDBRANCH   4   5
ENDBRANCH   3   4
TORSDOF 4
ENDMDL
MODEL 2
REMARK VINA RESULT:      -4.2      2.430      4.296
REMARK  4 active torsions:
REMARK  status: ('A' for Active; 'I' for Inactive)
REMARK    1  A    between atoms: C5_5  and  C6_6 
REMARK    2  A    between atoms: C6_6  and  C8_8 
REMARK    3  A    between atoms: C7_7  and  C8_8 
REMARK    4  A    between atoms: C7_7  and  C9_9 
ROOT
HETATM    1  C1  UNL     1     -33.859   7.056   6.384  1.00 20.00     0.012 C 
HETATM    2  C2  UNL     1     -34.420   6.150   5.832  1.00 20.00    -0.117 C 
HETATM    3  C5  UNL     1     -35.110   5.042   5.157  1.00 20.00     0.093 C 
ENDROOT
BRANCH   3   4
HETATM    4  C6  UNL     1     -34.196   4.284   4.189  1.00 20.00     0.016 C 
BRANCH   4   5
HETATM    5  C8  UNL     1     -34.029   4.916   2.785  1.00 20.00    -0.016 C 
HETATM    6  C3  UNL     1     -32.861   4.224   2.071  1.00 20.00     0.010 C 
BRANCH   5   7
HETATM    7  C7  UNL     1     -33.823   6.447   2.871  1.00 20.00     0.024 C 
BRANCH   7   8
HETATM    8  C9  UNL     1     -32.475   6.978   2.361  1.00 20.00     0.078 C 
HETATM    9  C4  UNL     1     -31.667   7.594   3.498  1.00 20.00     0.026 C 
HETATM   10 CL10 UNL     1     -32.712   8.214   1.089  1.00 20.00    -0.125 Cl
ENDBRANCH   7   8
ENDBRANCH   5   7
ENDBRANCH   4   5
ENDBRANCH   3   4
TORSDOF 4
ENDMDL
MODEL 3
REMARK VINA RESULT:      -4.1      2.501      4.876
REMARK  4 active torsions:
REMARK  status: ('A' for Active; 'I' for Inactive)
REMARK    1  A    between atoms: C5_5  and  C6_6 
REMARK    2  A    between atoms: C6_6  and  C8_8 
REMARK    3  A    between atoms: C7_7  and  C8_8 
REMARK    4  A    between atoms: C7_7  and  C9_9 
ROOT
HETATM    1  C1  UNL     1     -34.900   5.021   6.045  1.00 20.00     0.012 C 
HETATM    2  C2  UNL     1     -34.323   6.025   5.727  1.00 20.00    -0.117 C 
HETATM    3  C5  UNL     1     -33.619   7.255   5.341  1.00 20.00     0.093 C 
ENDROOT
BRANCH   3   4
HETATM    4  C6  UNL     1     -32.596   7.018   4.226  1.00 20.00     0.016 C 
BRANCH   4   5
HETATM    5  C8  UNL     1     -33.181   6.741   2.820  1.00 20.00    -0.016 C 
HETATM    6  C3  UNL     1     -33.119   5.231   2.551  1.00 20.00     0.010 C 
BRANCH   5   7
HETATM    7  C7  UNL     1     -32.443   7.549   1.726  1.00 20.00     0.024 C 
BRANCH   7   8
HETATM    8  C9  UNL     1     -33.283   8.593   0.973  1.00 20.00     0.078 C 
HETATM    9  C4  UNL     1     -33.171   8.396  -0.535  1.00 20.00     0.026 C 
HETATM   10 CL10 UNL     1     -32.757  10.254   1.377  1.00 20.00    -0.125 Cl
ENDBRANCH   7   8
ENDBRANCH   5   7
ENDBRANCH   4   5
ENDBRANCH   3   4
TORSDOF 4
ENDMDL
MODEL 4
REMARK VINA RESULT:      -4.0     11.080     12.068
REMARK  4 active torsions:
REMARK  status: ('A' for Active; 'I' for Inactive)
REMARK    1  A    between atoms: C5_5  and  C6_6 
REMARK    2  A    between atoms: C6_6  and  C8_8 
REMARK    3  A    between atoms: C7_7  and  C8_8 
REMARK    4  A    between atoms: C7_7  and  C9_9 
ROOT
HETATM    1  C1  UNL     1     -31.059  18.485  -0.057  1.00 20.00     0.012 C 
HETATM    2  C2  UNL     1     -31.770  18.386  -1.020  1.00 20.00    -0.117 C 
HETATM    3  C5  UNL     1     -32.640  18.270  -2.198  1.00 20.00     0.093 C 
ENDROOT
BRANCH   3   4
HETATM    4  C6  UNL     1     -32.931  16.812  -2.569  1.00 20.00     0.016 C 
BRANCH   4   5
HETATM    5  C8  UNL     1     -34.426  16.442  -2.730  1.00 20.00    -0.016 C 
HETATM    6  C3  UNL     1     -35.112  16.567  -1.363  1.00 20.00     0.010 C 
BRANCH   5   7
HETATM    7  C7  UNL     1     -34.600  15.028  -3.333  1.00 20.00     0.024 C 
BRANCH   7   8
HETATM    8  C9  UNL     1     -35.431  14.941  -4.623  1.00 20.00     0.078 C 
HETATM    9  C4  UNL     1     -36.269  13.667  -4.645  1.00 20.00     0.026 C 
HETATM   10 CL10 UNL     1     -34.376  14.961  -6.068  1.00 20.00    -0.125 Cl
ENDBRANCH   7   8
ENDBRANCH   5   7
ENDBRANCH   4   5
ENDBRANCH   3   4
TORSDOF 4
ENDMDL
MODEL 5
REMARK VINA RESULT:      -3.8     11.299     12.736
REMARK  4 active torsions:
REMARK  status: ('A' for Active; 'I' for Inactive)
REMARK    1  A    between atoms: C5_5  and  C6_6 
REMARK    2  A    between atoms: C6_6  and  C8_8 
REMARK    3  A    between atoms: C7_7  and  C8_8 
REMARK    4  A    between atoms: C7_7  and  C9_9 
ROOT
HETATM    1  C1  UNL     1     -35.162  16.600  -1.558  1.00 20.00     0.012 C 
HETATM    2  C2  UNL     1     -34.334  16.264  -2.359  1.00 20.00    -0.117 C 
HETATM    3  C5  UNL     1     -33.317  15.854  -3.337  1.00 20.00     0.093 C 
ENDROOT
BRANCH   3   4
HETATM    4  C6  UNL     1     -33.761  14.650  -4.174  1.00 20.00     0.016 C 
BRANCH   4   5
HETATM    5  C8  UNL     1     -35.134  14.787  -4.877  1.00 20.00    -0.016 C 
HETATM    6  C3  UNL     1     -36.016  13.601  -4.467  1.00 20.00     0.010 C 
BRANCH   5   7
HETATM    7  C7  UNL     1     -34.979  14.882  -6.414  1.00 20.00     0.024 C 
BRANCH   7   8
HETATM    8  C9  UNL     1     -35.262  16.256  -7.039  1.00 20.00     0.078 C 
HETATM    9  C4  UNL     1     -34.099  16.705  -7.917  1.00 20.00     0.026 C 
HETATM   10 CL10 UNL     1     -35.540  17.492  -5.776  1.00 20.00    -0.125 Cl
ENDBRANCH   7   8
ENDBRANCH   5   7
ENDBRANCH   4   5
ENDBRANCH   3   4
TORSDOF 4
ENDMDL
MODEL 6
REMARK VINA RESULT:      -3.8     11.297     11.992
REMARK  4 active torsions:
REMARK  status: ('A' for Active; 'I' for Inactive)
REMARK    1  A    between atoms: C5_5  and  C6_6 
REMARK    2  A    between atoms: C6_6  and  C8_8 
REMARK    3  A    between atoms: C7_7  and  C8_8 
REMARK    4  A    between atoms: C7_7  and  C9_9 
ROOT
HETATM    1  C1  UNL     1     -34.035  15.163  -6.980  1.00 20.00     0.012 C 
HETATM    2  C2  UNL     1     -33.725  14.863  -5.860  1.00 20.00    -0.117 C 
HETATM    3  C5  UNL     1     -33.346  14.491  -4.490  1.00 20.00     0.093 C 
ENDROOT
BRANCH   3   4
HETATM    4  C6  UNL     1     -33.003  15.709  -3.627  1.00 20.00     0.016 C 
BRANCH   4   5
HETATM    5  C8  UNL     1     -34.210  16.488  -3.049  1.00 20.00    -0.016 C 
HETATM    6  C3  UNL     1     -33.758  17.224  -1.781  1.00 20.00     0.010 C 
BRANCH   5   7
HETATM    7  C7  UNL     1     -35.411  15.552  -2.772  1.00 20.00     0.024 C 
BRANCH   7   8
HETATM    8  C9  UNL     1     -36.672  15.802  -3.613  1.00 20.00     0.078 C 
HETATM    9  C4  UNL     1     -37.114  14.527  -4.323  1.00 20.00     0.026 C 
HETATM   10 CL10 UNL     1     -36.385  17.073  -4.839  1.00 20.00    -0.125 Cl
ENDBRANCH   7   8
ENDBRANCH   5   7
ENDBRANCH   4   5
ENDBRANCH   3   4
TORSDOF 4
ENDMDL
MODEL 7
REMARK VINA RESULT:      -3.7     11.036     11.884
REMARK  4 active torsions:
REMARK  status: ('A' for Active; 'I' for Inactive)
REMARK    1  A    between atoms: C5_5  and  C6_6 
REMARK    2  A    between atoms: C6_6  and  C8_8 
REMARK    3  A    between atoms: C7_7  and  C8_8 
REMARK    4  A    between atoms: C7_7  and  C9_9 
ROOT
HETATM    1  C1  UNL     1     -34.154  15.137  -6.789  1.00 20.00     0.012 C 
HETATM    2  C2  UNL     1     -33.936  14.946  -5.624  1.00 20.00    -0.117 C 
HETATM    3  C5  UNL     1     -33.670  14.708  -4.199  1.00 20.00     0.093 C 
ENDROOT
BRANCH   3   4
HETATM    4  C6  UNL     1     -33.057  15.928  -3.505  1.00 20.00     0.016 C 
BRANCH   4   5
HETATM    5  C8  UNL     1     -33.839  16.475  -2.286  1.00 20.00    -0.016 C 
HETATM    6  C3  UNL     1     -35.272  15.929  -2.337  1.00 20.00     0.010 C 
BRANCH   5   7
HETATM    7  C7  UNL     1     -33.816  18.022  -2.242  1.00 20.00     0.024 C 
BRANCH   7   8
HETATM    8  C9  UNL     1     -33.165  18.654  -1.002  1.00 20.00     0.078 C 
HETATM    9  C4  UNL     1     -31.682  18.305  -0.928  1.00 20.00     0.026 C 
HETATM   10 CL10 UNL     1     -33.963  18.094   0.498  1.00 20.00    -0.125 Cl
ENDBRANCH   7   8
ENDBRANCH   5   7
ENDBRANCH   4   5
ENDBRANCH   3   4
TORSDOF 4
ENDMDL
MODEL 8
REMARK VINA RESULT:      -3.7     11.197     12.265
REMARK  4 active torsions:
REMARK  status: ('A' for Active; 'I' for Inactive)
REMARK    1  A    between atoms: C5_5  and  C6_6 
REMARK    2  A    between atoms: C6_6  and  C8_8 
REMARK    3  A    between atoms: C7_7  and  C8_8 
REMARK    4  A    between atoms: C7_7  and  C9_9 
ROOT
HETATM    1  C1  UNL     1     -30.541  18.657   1.213  1.00 20.00     0.012 C 
HETATM    2  C2  UNL     1     -31.084  18.454   0.162  1.00 20.00    -0.117 C 
HETATM    3  C5  UNL     1     -31.745  18.204  -1.126  1.00 20.00     0.093 C 
ENDROOT
BRANCH   3   4
HETATM    4  C6  UNL     1     -33.271  18.297  -1.029  1.00 20.00     0.016 C 
BRANCH   4   5
HETATM    5  C8  UNL     1     -34.065  17.388  -1.999  1.00 20.00    -0.016 C 
HETATM    6  C3  UNL     1     -35.156  16.658  -1.206  1.00 20.00     0.010 C 
BRANCH   5   7
HETATM    7  C7  UNL     1     -33.135  16.398  -2.741  1.00 20.00     0.024 C 
BRANCH   7   8
HETATM    8  C9  UNL     1     -33.656  15.853  -4.079  1.00 20.00     0.078 C 
HETATM    9  C4  UNL     1     -34.547  16.878  -4.774  1.00 20.00     0.026 C 
HETATM   10 CL10 UNL     1     -34.592  14.347  -3.838  1.00 20.00    -0.125 Cl
ENDBRANCH   7   8
ENDBRANCH   5   7
ENDBRANCH   4   5
ENDBRANCH   3   4
TORSDOF 4
ENDMDL
MODEL 9
REMARK VINA RESULT:      -3.6     10.883     11.864
REMARK  4 active torsions:
REMARK  status: ('A' for Active; 'I' for Inactive)
REMARK    1  A    between atoms: C5_5  and  C6_6 
REMARK    2  A    between atoms: C6_6  and  C8_8 
REMARK    3  A    between atoms: C7_7  and  C8_8 
REMARK    4  A    between atoms: C7_7  and  C9_9 
ROOT
HETATM    1  C1  UNL     1     -35.161  17.398   0.279  1.00 20.00     0.012 C 
HETATM    2  C2  UNL     1     -35.239  16.924  -0.821  1.00 20.00    -0.117 C 
HETATM    3  C5  UNL     1     -35.337  16.345  -2.168  1.00 20.00     0.093 C 
ENDROOT
BRANCH   3   4
HETATM    4  C6  UNL     1     -33.982  15.866  -2.699  1.00 20.00     0.016 C 
BRANCH   4   5
HETATM    5  C8  UNL     1     -34.032  14.970  -3.961  1.00 20.00    -0.016 C 
HETATM    6  C3  UNL     1     -32.598  14.576  -4.340  1.00 20.00     0.010 C 
BRANCH   5   7
HETATM    7  C7  UNL     1     -34.762  15.673  -5.130  1.00 20.00     0.024 C 
BRANCH   7   8
HETATM    8  C9  UNL     1     -36.064  15.013  -5.609  1.00 20.00     0.078 C 
HETATM    9  C4  UNL     1     -37.236  15.984  -5.507  1.00 20.00     0.026 C 
HETATM   10 CL10 UNL     1     -36.439  13.555  -4.643  1.00 20.00    -0.125 Cl
ENDBRANCH   7   8
ENDBRANCH   5   7
ENDBRANCH   4   5
ENDBRANCH   3   4
TORSDOF 4
ENDMDL
