MODEL 1
REMARK VINA RESULT:      -4.4      0.000      0.000
REMARK  2 active torsions:
REMARK  status: ('A' for Active; 'I' for Inactive)
REMARK    1  A    between atoms: C5_5  and  C7_7 
REMARK    2  A    between atoms: C6_6  and  S11_11 
ROOT
HETATM    1  C1  UNL     1     -24.675  19.168   8.914  1.00 20.00     0.002 C 
HETATM    2  C2  UNL     1     -24.634  18.495  10.289  1.00 20.00     0.013 C 
HETATM    3  C3  UNL     1     -23.729  18.534   7.889  1.00 20.00     0.015 C 
HETATM    4  C4  UNL     1     -22.896  16.805   9.547  1.00 20.00     0.028 C 
HETATM    5  C5  UNL     1     -24.287  17.009  10.182  1.00 20.00     0.094 C 
HETATM    6  C6  UNL     1     -22.506  17.924   8.568  1.00 20.00     0.045 C 
ENDROOT
BRANCH   5   7
HETATM    7  C7  UNL     1     -24.368  16.322  11.543  1.00 20.00     0.391 C 
HETATM    8  F8  UNL     1     -23.163  16.325  12.131  1.00 20.00    -0.171 F 
HETATM    9  F9  UNL     1     -25.240  16.967  12.331  1.00 20.00    -0.171 F 
HETATM   10  F10 UNL     1     -24.774  15.052  11.391  1.00 20.00    -0.171 F 
ENDBRANCH   5   7
BRANCH   6  11
HETATM   11  S11 UNL     1     -21.326  17.296   7.327  1.00 20.00    -0.177 SA
HETATM   12  H22 UNL     1     -21.498  18.306   6.466  1.00 20.00     0.102 HD
ENDBRANCH   6  11
TORSDOF 2
ENDMDL
MODEL 2
REMARK VINA RESULT:      -4.4     15.766     16.722
REMARK  2 active torsions:
REMARK  status: ('A' for Active; 'I' for Inactive)
REMARK    1  A    between atoms: C5_5  and  C7_7 
REMARK    2  A    between atoms: C6_6  and  S11_11 
ROOT
HETATM    1  C1  UNL     1     -32.581  18.117  -1.993  1.00 20.00     0.002 C 
HETATM    2  C2  UNL     1     -33.032  17.258  -3.177  1.00 20.00     0.013 C 
HETATM    3  C3  UNL     1     -33.464  17.967  -0.750  1.00 20.00     0.015 C 
HETATM    4  C4  UNL     1     -34.990  16.291  -1.888  1.00 20.00     0.028 C 
HETATM    5  C5  UNL     1     -33.726  15.976  -2.714  1.00 20.00     0.094 C 
HETATM    6  C6  UNL     1     -34.902  17.626  -1.132  1.00 20.00     0.045 C 
ENDROOT
BRANCH   5   7
HETATM    7  C7  UNL     1     -34.062  15.070  -3.897  1.00 20.00     0.391 C 
HETATM    8  F8  UNL     1     -34.853  15.722  -4.763  1.00 20.00    -0.171 F 
HETATM    9  F9  UNL     1     -32.938  14.701  -4.527  1.00 20.00    -0.171 F 
HETATM   10  F10 UNL     1     -34.701  13.972  -3.466  1.00 20.00    -0.171 F 
ENDBRANCH   5   7
BRANCH   6  11
HETATM   11  S11 UNL     1     -35.969  17.586   0.348  1.00 20.00    -0.177 SA
HETATM   12  H22 UNL     1     -36.003  16.251   0.443  1.00 20.00     0.102 HD
ENDBRANCH   6  11
TORSDOF 2
ENDMDL
MODEL 3
REMARK VINA RESULT:      -4.4     15.888     16.826
REMARK  2 active torsions:
REMARK  status: ('A' for Active; 'I' for Inactive)
REMARK    1  A    between atoms: C5_5  and  C7_7 
REMARK    2  A    between atoms: C6_6  and  S11_11 
ROOT
HETATM    1  C1  UNL     1     -35.658  16.801  -1.928  1.00 20.00     0.002 C 
HETATM    2  C2  UNL     1     -35.042  15.568  -2.594  1.00 20.00     0.013 C 
HETATM    3  C3  UNL     1     -34.695  17.988  -1.819  1.00 20.00     0.015 C 
HETATM    4  C4  UNL     1     -32.807  16.715  -2.936  1.00 20.00     0.028 C 
HETATM    5  C5  UNL     1     -33.965  15.951  -3.610  1.00 20.00     0.094 C 
HETATM    6  C6  UNL     1     -33.248  17.517  -1.701  1.00 20.00     0.045 C 
ENDROOT
BRANCH   5   7
HETATM    7  C7  UNL     1     -33.444  14.723  -4.354  1.00 20.00     0.391 C 
HETATM    8  F8  UNL     1     -34.058  13.619  -3.904  1.00 20.00    -0.171 F 
HETATM    9  F9  UNL     1     -33.681  14.849  -5.668  1.00 20.00    -0.171 F 
HETATM   10  F10 UNL     1     -32.123  14.595  -4.159  1.00 20.00    -0.171 F 
ENDBRANCH   5   7
BRANCH   6  11
HETATM   11  S11 UNL     1     -32.129  18.933  -1.434  1.00 20.00    -0.177 SA
HETATM   12  H22 UNL     1     -31.118  18.206  -0.946  1.00 20.00     0.102 HD
ENDBRANCH   6  11
TORSDOF 2
ENDMDL
MODEL 4
REMARK VINA RESULT:      -4.4     15.800     16.745
REMARK  2 active torsions:
REMARK  status: ('A' for Active; 'I' for Inactive)
REMARK    1  A    between atoms: C5_5  and  C7_7 
REMARK    2  A    between atoms: C6_6  and  S11_11 
ROOT
HETATM    1  C1  UNL     1     -32.590  18.019  -1.936  1.00 20.00     0.002 C 
HETATM    2  C2  UNL     1     -33.034  17.173  -3.132  1.00 20.00     0.013 C 
HETATM    3  C3  UNL     1     -33.521  17.909  -0.724  1.00 20.00     0.015 C 
HETATM    4  C4  UNL     1     -35.072  16.290  -1.910  1.00 20.00     0.028 C 
HETATM    5  C5  UNL     1     -33.794  15.922  -2.691  1.00 20.00     0.094 C 
HETATM    6  C6  UNL     1     -34.957  17.624  -1.154  1.00 20.00     0.045 C 
ENDROOT
BRANCH   5   7
HETATM    7  C7  UNL     1     -34.126  15.026  -3.882  1.00 20.00     0.391 C 
HETATM    8  F8  UNL     1     -34.822  13.955  -3.470  1.00 20.00    -0.171 F 
HETATM    9  F9  UNL     1     -34.858  15.704  -4.776  1.00 20.00    -0.171 F 
HETATM   10  F10 UNL     1     -32.995  14.609  -4.470  1.00 20.00    -0.171 F 
ENDBRANCH   5   7
BRANCH   6  11
HETATM   11  S11 UNL     1     -36.075  17.633   0.288  1.00 20.00    -0.177 SA
HETATM   12  H22 UNL     1     -37.186  17.373  -0.412  1.00 20.00     0.102 HD
ENDBRANCH   6  11
TORSDOF 2
ENDMDL
MODEL 5
REMARK VINA RESULT:      -4.2     17.284     18.218
REMARK  2 active torsions:
REMARK  status: ('A' for Active; 'I' for Inactive)
REMARK    1  A    between atoms: C5_5  and  C7_7 
REMARK    2  A    between atoms: C6_6  and  S11_11 
ROOT
HETATM    1  C1  UNL     1     -32.973  16.032  -3.374  1.00 20.00     0.002 C 
HETATM    2  C2  UNL     1     -33.903  15.241  -4.299  1.00 20.00     0.013 C 
HETATM    3  C3  UNL     1     -33.707  16.787  -2.261  1.00 20.00     0.015 C 
HETATM    4  C4  UNL     1     -35.978  15.964  -3.034  1.00 20.00     0.028 C 
HETATM    5  C5  UNL     1     -35.161  14.770  -3.568  1.00 20.00     0.094 C 
HETATM    6  C6  UNL     1     -35.112  17.189  -2.700  1.00 20.00     0.045 C 
ENDROOT
BRANCH   5   7
HETATM    7  C7  UNL     1     -36.021  13.881  -4.464  1.00 20.00     0.391 C 
HETATM    8  F8  UNL     1     -37.321  14.119  -4.233  1.00 20.00    -0.171 F 
HETATM    9  F9  UNL     1     -35.755  14.134  -5.753  1.00 20.00    -0.171 F 
HETATM   10  F10 UNL     1     -35.764  12.589  -4.210  1.00 20.00    -0.171 F 
ENDBRANCH   5   7
BRANCH   6  11
HETATM   11  S11 UNL     1     -35.921  18.204  -1.417  1.00 20.00    -0.177 SA
HETATM   12  H22 UNL     1     -36.035  17.213  -0.525  1.00 20.00     0.102 HD
ENDBRANCH   6  11
TORSDOF 2
ENDMDL
MODEL 6
REMARK VINA RESULT:      -4.2     15.330     16.267
REMARK  2 active torsions:
REMARK  status: ('A' for Active; 'I' for Inactive)
REMARK    1  A    between atoms: C5_5  and  C7_7 
REMARK    2  A    between atoms: C6_6  and  S11_11 
ROOT
HETATM    1  C1  UNL     1     -32.491  18.468  -1.201  1.00 20.00     0.002 C 
HETATM    2  C2  UNL     1     -32.854  17.743  -2.499  1.00 20.00     0.013 C 
HETATM    3  C3  UNL     1     -33.474  18.210  -0.054  1.00 20.00     0.015 C 
HETATM    4  C4  UNL     1     -34.921  16.688  -1.477  1.00 20.00     0.028 C 
HETATM    5  C5  UNL     1     -33.597  16.434  -2.228  1.00 20.00     0.094 C 
HETATM    6  C6  UNL     1     -34.880  17.938  -0.582  1.00 20.00     0.045 C 
ENDROOT
BRANCH   5   7
HETATM    7  C7  UNL     1     -33.847  15.660  -3.520  1.00 20.00     0.391 C 
HETATM    8  F8  UNL     1     -32.700  15.123  -3.962  1.00 20.00    -0.171 F 
HETATM    9  F9  UNL     1     -34.733  14.678  -3.303  1.00 20.00    -0.171 F 
HETATM   10  F10 UNL     1     -34.332  16.484  -4.461  1.00 20.00    -0.171 F 
ENDBRANCH   5   7
BRANCH   6  11
HETATM   11  S11 UNL     1     -36.063  17.768   0.796  1.00 20.00    -0.177 SA
HETATM   12  H22 UNL     1     -36.987  17.106   0.089  1.00 20.00     0.102 HD
ENDBRANCH   6  11
TORSDOF 2
ENDMDL
MODEL 7
REMARK VINA RESULT:      -4.0     17.830     18.746
REMARK  2 active torsions:
REMARK  status: ('A' for Active; 'I' for Inactive)
REMARK    1  A    between atoms: C5_5  and  C7_7 
REMARK    2  A    between atoms: C6_6  and  S11_11 
ROOT
HETATM    1  C1  UNL     1     -33.332  16.013  -3.120  1.00 20.00     0.002 C 
HETATM    2  C2  UNL     1     -34.021  14.825  -3.796  1.00 20.00     0.013 C 
HETATM    3  C3  UNL     1     -33.916  17.373  -3.517  1.00 20.00     0.015 C 
HETATM    4  C4  UNL     1     -35.635  16.319  -5.058  1.00 20.00     0.028 C 
HETATM    5  C5  UNL     1     -35.491  15.120  -4.098  1.00 20.00     0.094 C 
HETATM    6  C6  UNL     1     -34.488  17.336  -4.932  1.00 20.00     0.045 C 
ENDROOT
BRANCH   5   7
HETATM    7  C7  UNL     1     -36.199  13.889  -4.660  1.00 20.00     0.391 C 
HETATM    8  F8  UNL     1     -35.677  12.775  -4.123  1.00 20.00    -0.171 F 
HETATM    9  F9  UNL     1     -37.507  13.940  -4.370  1.00 20.00    -0.171 F 
HETATM   10  F10 UNL     1     -36.049  13.841  -5.992  1.00 20.00    -0.171 F 
ENDBRANCH   5   7
BRANCH   6  11
HETATM   11  S11 UNL     1     -35.055  18.994  -5.441  1.00 20.00    -0.177 SA
HETATM   12  H22 UNL     1     -34.944  18.767  -6.755  1.00 20.00     0.102 HD
ENDBRANCH   6  11
TORSDOF 2
ENDMDL
MODEL 8
REMARK VINA RESULT:      -4.0     16.631     17.528
REMARK  2 active torsions:
REMARK  status: ('A' for Active; 'I' for Inactive)
REMARK    1  A    between atoms: C5_5  and  C7_7 
REMARK    2  A    between atoms: C6_6  and  S11_11 
ROOT
HETATM    1  C1  UNL     1     -36.850  16.641  -3.411  1.00 20.00     0.002 C 
HETATM    2  C2  UNL     1     -35.971  15.464  -3.845  1.00 20.00     0.013 C 
HETATM    3  C3  UNL     1     -36.173  17.576  -2.403  1.00 20.00     0.015 C 
HETATM    4  C4  UNL     1     -34.040  16.204  -2.378  1.00 20.00     0.028 C 
HETATM    5  C5  UNL     1     -34.485  15.822  -3.805  1.00 20.00     0.094 C 
HETATM    6  C6  UNL     1     -35.169  16.821  -1.536  1.00 20.00     0.045 C 
ENDROOT
BRANCH   5   7
HETATM    7  C7  UNL     1     -33.626  14.685  -4.355  1.00 20.00     0.391 C 
HETATM    8  F8  UNL     1     -32.341  14.879  -4.022  1.00 20.00    -0.171 F 
HETATM    9  F9  UNL     1     -34.036  13.514  -3.847  1.00 20.00    -0.171 F 
HETATM   10  F10 UNL     1     -33.727  14.641  -5.692  1.00 20.00    -0.171 F 
ENDBRANCH   5   7
BRANCH   6  11
HETATM   11  S11 UNL     1     -34.474  17.916  -0.253  1.00 20.00    -0.177 SA
HETATM   12  H22 UNL     1     -35.366  18.899  -0.430  1.00 20.00     0.102 HD
ENDBRANCH   6  11
TORSDOF 2
ENDMDL
MODEL 9
REMARK VINA RESULT:      -4.0     16.241     17.120
REMARK  2 active torsions:
REMARK  status: ('A' for Active; 'I' for Inactive)
REMARK    1  A    between atoms: C5_5  and  C7_7 
REMARK    2  A    between atoms: C6_6  and  S11_11 
ROOT
HETATM    1  C1  UNL     1     -34.718  14.464  -3.788  1.00 20.00     0.002 C 
HETATM    2  C2  UNL     1     -34.589  15.524  -2.690  1.00 20.00     0.013 C 
HETATM    3  C3  UNL     1     -34.410  14.992  -5.193  1.00 20.00     0.015 C 
HETATM    4  C4  UNL     1     -33.928  17.332  -4.340  1.00 20.00     0.028 C 
HETATM    5  C5  UNL     1     -33.546  16.585  -3.046  1.00 20.00     0.094 C 
HETATM    6  C6  UNL     1     -34.753  16.475  -5.314  1.00 20.00     0.045 C 
ENDROOT
BRANCH   5   7
HETATM    7  C7  UNL     1     -33.339  17.566  -1.894  1.00 20.00     0.391 C 
HETATM    8  F8  UNL     1     -33.683  18.804  -2.279  1.00 20.00    -0.171 F 
HETATM    9  F9  UNL     1     -34.095  17.209  -0.846  1.00 20.00    -0.171 F 
HETATM   10  F10 UNL     1     -32.050  17.569  -1.521  1.00 20.00    -0.171 F 
ENDBRANCH   5   7
BRANCH   6  11
HETATM   11  S11 UNL     1     -34.511  17.054  -7.027  1.00 20.00    -0.177 SA
HETATM   12  H22 UNL     1     -34.310  15.837  -7.545  1.00 20.00     0.102 HD
ENDBRANCH   6  11
TORSDOF 2
ENDMDL
