MODEL 1
REMARK VINA RESULT:      -4.8      0.000      0.000
REMARK  2 active torsions:
REMARK  status: ('A' for Active; 'I' for Inactive)
REMARK    1  A    between atoms: C8_8  and  C11_11 
REMARK    2  A    between atoms: C8_8  and  O12_12 
ROOT
HETATM    1  C1  UNL     1     -36.182  13.685  -4.549  1.00 20.00     0.012 C 
HETATM    2  C2  UNL     1     -35.165  14.243  -4.239  1.00 20.00    -0.115 C 
HETATM    3  C11 UNL     1     -33.916  14.912  -3.870  1.00 20.00     0.131 C 
ENDROOT
BRANCH   3   4
HETATM    4  C8  UNL     1     -34.198  16.214  -3.113  1.00 20.00     0.069 C 
HETATM    5  C4  UNL     1     -35.212  15.967  -1.983  1.00 20.00     0.043 C 
HETATM    6  C6  UNL     1     -35.432  17.167  -1.044  1.00 20.00    -0.015 C 
HETATM    7  C3  UNL     1     -34.095  17.741  -0.556  1.00 20.00     0.008 C 
HETATM    8  C9  UNL     1     -36.325  18.248  -1.660  1.00 20.00     0.010 C 
HETATM    9  C7  UNL     1     -33.116  18.047  -1.698  1.00 20.00    -0.015 C 
HETATM   10  C5  UNL     1     -32.888  16.799  -2.565  1.00 20.00     0.043 C 
HETATM   11  C10 UNL     1     -31.789  18.560  -1.139  1.00 20.00     0.010 C 
BRANCH   4  12
HETATM   12  O12 UNL     1     -34.738  17.140  -4.056  1.00 20.00    -0.389 OA
HETATM   13  H30 UNL     1     -34.820  16.661  -4.894  1.00 20.00     0.210 HD
ENDBRANCH   4  12
ENDBRANCH   3   4
TORSDOF 2
ENDMDL
MODEL 2
REMARK VINA RESULT:      -4.5     13.716     16.204
REMARK  2 active torsions:
REMARK  status: ('A' for Active; 'I' for Inactive)
REMARK    1  A    between atoms: C8_8  and  C11_11 
REMARK    2  A    between atoms: C8_8  and  O12_12 
ROOT
HETATM    1  C1  UNL     1     -25.866  19.155   6.354  1.00 20.00     0.012 C 
HETATM    2  C2  UNL     1     -24.964  19.098   7.146  1.00 20.00    -0.115 C 
HETATM    3  C11 UNL     1     -23.856  19.037   8.100  1.00 20.00     0.131 C 
ENDROOT
BRANCH   3   4
HETATM    4  C8  UNL     1     -24.294  18.355   9.400  1.00 20.00     0.069 C 
HETATM    5  C4  UNL     1     -23.141  18.356  10.420  1.00 20.00     0.043 C 
HETATM    6  C6  UNL     1     -23.526  17.858  11.824  1.00 20.00    -0.015 C 
HETATM    7  C3  UNL     1     -24.796  18.555  12.332  1.00 20.00     0.008 C 
HETATM    8  C9  UNL     1     -23.644  16.333  11.903  1.00 20.00     0.010 C 
HETATM    9  C7  UNL     1     -25.961  18.488  11.334  1.00 20.00    -0.015 C 
HETATM   10  C5  UNL     1     -25.538  19.054   9.969  1.00 20.00     0.043 C 
HETATM   11  C10 UNL     1     -27.171  19.249  11.876  1.00 20.00     0.010 C 
BRANCH   4  12
HETATM   12  O12 UNL     1     -24.651  17.012   9.072  1.00 20.00    -0.389 OA
HETATM   13  H30 UNL     1     -24.773  16.548   9.914  1.00 20.00     0.210 HD
ENDBRANCH   4  12
ENDBRANCH   3   4
TORSDOF 2
ENDMDL
MODEL 3
REMARK VINA RESULT:      -4.4      1.401      4.436
REMARK  2 active torsions:
REMARK  status: ('A' for Active; 'I' for Inactive)
REMARK    1  A    between atoms: C8_8  and  C11_11 
REMARK    2  A    between atoms: C8_8  and  O12_12 
ROOT
HETATM    1  C1  UNL     1     -33.661  18.228   1.839  1.00 20.00     0.012 C 
HETATM    2  C2  UNL     1     -34.487  17.857   1.050  1.00 20.00    -0.115 C 
HETATM    3  C11 UNL     1     -35.504  17.403   0.101  1.00 20.00     0.131 C 
ENDROOT
BRANCH   3   4
HETATM    4  C8  UNL     1     -34.939  17.357  -1.322  1.00 20.00     0.069 C 
HETATM    5  C4  UNL     1     -33.452  17.754  -1.321  1.00 20.00     0.043 C 
HETATM    6  C6  UNL     1     -32.737  17.568  -2.671  1.00 20.00    -0.015 C 
HETATM    7  C3  UNL     1     -32.999  16.171  -3.250  1.00 20.00     0.008 C 
HETATM    8  C9  UNL     1     -33.069  18.672  -3.678  1.00 20.00     0.010 C 
HETATM    9  C7  UNL     1     -34.490  15.812  -3.309  1.00 20.00    -0.015 C 
HETATM   10  C5  UNL     1     -35.139  15.957  -1.923  1.00 20.00     0.043 C 
HETATM   11  C10 UNL     1     -34.676  14.391  -3.840  1.00 20.00     0.010 C 
BRANCH   4  12
HETATM   12  O12 UNL     1     -35.689  18.287  -2.104  1.00 20.00    -0.389 OA
HETATM   13  H30 UNL     1     -36.589  17.931  -2.164  1.00 20.00     0.210 HD
ENDBRANCH   4  12
ENDBRANCH   3   4
TORSDOF 2
ENDMDL
MODEL 4
REMARK VINA RESULT:      -4.4      1.554      2.415
REMARK  2 active torsions:
REMARK  status: ('A' for Active; 'I' for Inactive)
REMARK    1  A    between atoms: C8_8  and  C11_11 
REMARK    2  A    between atoms: C8_8  and  O12_12 
ROOT
HETATM    1  C1  UNL     1     -36.904  14.018  -4.513  1.00 20.00     0.012 C 
HETATM    2  C2  UNL     1     -35.720  14.199  -4.414  1.00 20.00    -0.115 C 
HETATM    3  C11 UNL     1     -34.276  14.406  -4.301  1.00 20.00     0.131 C 
ENDROOT
BRANCH   3   4
HETATM    4  C8  UNL     1     -33.967  15.784  -3.709  1.00 20.00     0.069 C 
HETATM    5  C4  UNL     1     -34.501  16.895  -4.630  1.00 20.00     0.043 C 
HETATM    6  C6  UNL     1     -34.406  18.315  -4.045  1.00 20.00    -0.015 C 
HETATM    7  C3  UNL     1     -34.979  18.369  -2.622  1.00 20.00     0.008 C 
HETATM    8  C9  UNL     1     -32.989  18.892  -4.110  1.00 20.00     0.010 C 
HETATM    9  C7  UNL     1     -34.388  17.300  -1.693  1.00 20.00    -0.015 C 
HETATM   10  C5  UNL     1     -34.565  15.898  -2.298  1.00 20.00     0.043 C 
HETATM   11  C10 UNL     1     -35.042  17.372  -0.313  1.00 20.00     0.010 C 
BRANCH   4  12
HETATM   12  O12 UNL     1     -32.547  15.887  -3.598  1.00 20.00    -0.389 OA
HETATM   13  H30 UNL     1     -32.371  16.652  -3.030  1.00 20.00     0.210 HD
ENDBRANCH   4  12
ENDBRANCH   3   4
TORSDOF 2
ENDMDL
MODEL 5
REMARK VINA RESULT:      -4.3      1.589      4.628
REMARK  2 active torsions:
REMARK  status: ('A' for Active; 'I' for Inactive)
REMARK    1  A    between atoms: C8_8  and  C11_11 
REMARK    2  A    between atoms: C8_8  and  O12_12 
ROOT
HETATM    1  C1  UNL     1     -31.648  18.161  -0.855  1.00 20.00     0.012 C 
HETATM    2  C2  UNL     1     -32.682  18.269  -1.455  1.00 20.00    -0.115 C 
HETATM    3  C11 UNL     1     -33.946  18.414  -2.179  1.00 20.00     0.131 C 
ENDROOT
BRANCH   3   4
HETATM    4  C8  UNL     1     -34.084  17.334  -3.256  1.00 20.00     0.069 C 
HETATM    5  C4  UNL     1     -34.088  15.935  -2.614  1.00 20.00     0.043 C 
HETATM    6  C6  UNL     1     -34.403  14.784  -3.586  1.00 20.00    -0.015 C 
HETATM    7  C3  UNL     1     -35.661  15.084  -4.413  1.00 20.00     0.008 C 
HETATM    8  C9  UNL     1     -33.213  14.413  -4.475  1.00 20.00     0.010 C 
HETATM    9  C7  UNL     1     -35.616  16.454  -5.104  1.00 20.00    -0.015 C 
HETATM   10  C5  UNL     1     -35.359  17.570  -4.079  1.00 20.00     0.043 C 
HETATM   11  C10 UNL     1     -36.919  16.712  -5.861  1.00 20.00     0.010 C 
BRANCH   4  12
HETATM   12  O12 UNL     1     -32.961  17.464  -4.130  1.00 20.00    -0.389 OA
HETATM   13  H30 UNL     1     -32.192  17.624  -3.564  1.00 20.00     0.210 HD
ENDBRANCH   4  12
ENDBRANCH   3   4
TORSDOF 2
ENDMDL
MODEL 6
REMARK VINA RESULT:      -4.3      1.992      4.263
REMARK  2 active torsions:
REMARK  status: ('A' for Active; 'I' for Inactive)
REMARK    1  A    between atoms: C8_8  and  C11_11 
REMARK    2  A    between atoms: C8_8  and  O12_12 
ROOT
HETATM    1  C1  UNL     1     -33.854  17.947  -0.916  1.00 20.00     0.012 C 
HETATM    2  C2  UNL     1     -33.438  17.335  -1.862  1.00 20.00    -0.115 C 
HETATM    3  C11 UNL     1     -32.916  16.591  -3.009  1.00 20.00     0.131 C 
ENDROOT
BRANCH   3   4
HETATM    4  C8  UNL     1     -34.058  16.087  -3.897  1.00 20.00     0.069 C 
HETATM    5  C4  UNL     1     -35.048  15.247  -3.070  1.00 20.00     0.043 C 
HETATM    6  C6  UNL     1     -36.328  14.840  -3.821  1.00 20.00    -0.015 C 
HETATM    7  C3  UNL     1     -36.975  16.050  -4.510  1.00 20.00     0.008 C 
HETATM    8  C9  UNL     1     -36.104  13.683  -4.798  1.00 20.00     0.010 C 
HETATM    9  C7  UNL     1     -35.995  16.841  -5.386  1.00 20.00    -0.015 C 
HETATM   10  C5  UNL     1     -34.766  17.273  -4.570  1.00 20.00     0.043 C 
HETATM   11  C10 UNL     1     -36.688  18.061  -5.993  1.00 20.00     0.010 C 
BRANCH   4  12
HETATM   12  O12 UNL     1     -33.473  15.280  -4.920  1.00 20.00    -0.389 OA
HETATM   13  H30 UNL     1     -32.789  14.746  -4.488  1.00 20.00     0.210 HD
ENDBRANCH   4  12
ENDBRANCH   3   4
TORSDOF 2
ENDMDL
MODEL 7
REMARK VINA RESULT:      -4.3      1.413      4.329
REMARK  2 active torsions:
REMARK  status: ('A' for Active; 'I' for Inactive)
REMARK    1  A    between atoms: C8_8  and  C11_11 
REMARK    2  A    between atoms: C8_8  and  O12_12 
ROOT
HETATM    1  C1  UNL     1     -30.872  18.241   0.383  1.00 20.00     0.012 C 
HETATM    2  C2  UNL     1     -31.389  18.680  -0.609  1.00 20.00    -0.115 C 
HETATM    3  C11 UNL     1     -32.006  19.225  -1.819  1.00 20.00     0.131 C 
ENDROOT
BRANCH   3   4
HETATM    4  C8  UNL     1     -33.272  18.443  -2.185  1.00 20.00     0.069 C 
HETATM    5  C4  UNL     1     -32.925  16.975  -2.488  1.00 20.00     0.043 C 
HETATM    6  C6  UNL     1     -34.143  16.056  -2.691  1.00 20.00    -0.015 C 
HETATM    7  C3  UNL     1     -35.161  16.226  -1.555  1.00 20.00     0.008 C 
HETATM    8  C9  UNL     1     -34.793  16.225  -4.067  1.00 20.00     0.010 C 
HETATM    9  C7  UNL     1     -35.551  17.689  -1.307  1.00 20.00    -0.015 C 
HETATM   10  C5  UNL     1     -34.301  18.547  -1.050  1.00 20.00     0.043 C 
HETATM   11  C10 UNL     1     -36.520  17.790  -0.128  1.00 20.00     0.010 C 
BRANCH   4  12
HETATM   12  O12 UNL     1     -33.827  19.060  -3.347  1.00 20.00    -0.389 OA
HETATM   13  H30 UNL     1     -34.477  18.437  -3.703  1.00 20.00     0.210 HD
ENDBRANCH   4  12
ENDBRANCH   3   4
TORSDOF 2
ENDMDL
MODEL 8
REMARK VINA RESULT:      -4.2      2.531      4.712
REMARK  2 active torsions:
REMARK  status: ('A' for Active; 'I' for Inactive)
REMARK    1  A    between atoms: C8_8  and  C11_11 
REMARK    2  A    between atoms: C8_8  and  O12_12 
ROOT
HETATM    1  C1  UNL     1     -32.930  16.567  -3.098  1.00 20.00     0.012 C 
HETATM    2  C2  UNL     1     -33.443  15.544  -3.464  1.00 20.00    -0.115 C 
HETATM    3  C11 UNL     1     -34.055  14.290  -3.903  1.00 20.00     0.131 C 
ENDROOT
BRANCH   3   4
HETATM    4  C8  UNL     1     -35.419  14.547  -4.551  1.00 20.00     0.069 C 
HETATM    5  C4  UNL     1     -36.295  15.413  -3.628  1.00 20.00     0.043 C 
HETATM    6  C6  UNL     1     -37.619  15.883  -4.256  1.00 20.00    -0.015 C 
HETATM    7  C3  UNL     1     -37.387  16.502  -5.641  1.00 20.00     0.008 C 
HETATM    8  C9  UNL     1     -38.683  14.783  -4.295  1.00 20.00     0.010 C 
HETATM    9  C7  UNL     1     -36.570  15.599  -6.576  1.00 20.00    -0.015 C 
HETATM   10  C5  UNL     1     -35.234  15.211  -5.923  1.00 20.00     0.043 C 
HETATM   11  C10 UNL     1     -36.328  16.298  -7.914  1.00 20.00     0.010 C 
BRANCH   4  12
HETATM   12  O12 UNL     1     -36.037  13.275  -4.753  1.00 20.00    -0.389 OA
HETATM   13  H30 UNL     1     -36.063  13.133  -5.711  1.00 20.00     0.210 HD
ENDBRANCH   4  12
ENDBRANCH   3   4
TORSDOF 2
ENDMDL
MODEL 9
REMARK VINA RESULT:      -4.2      2.480      4.201
REMARK  2 active torsions:
REMARK  status: ('A' for Active; 'I' for Inactive)
REMARK    1  A    between atoms: C8_8  and  C11_11 
REMARK    2  A    between atoms: C8_8  and  O12_12 
ROOT
HETATM    1  C1  UNL     1     -39.244  16.650  -3.858  1.00 20.00     0.012 C 
HETATM    2  C2  UNL     1     -38.636  15.637  -4.072  1.00 20.00    -0.115 C 
HETATM    3  C11 UNL     1     -37.908  14.394  -4.331  1.00 20.00     0.131 C 
ENDROOT
BRANCH   3   4
HETATM    4  C8  UNL     1     -36.431  14.677  -4.622  1.00 20.00     0.069 C 
HETATM    5  C4  UNL     1     -36.294  15.587  -5.856  1.00 20.00     0.043 C 
HETATM    6  C6  UNL     1     -34.863  16.083  -6.131  1.00 20.00    -0.015 C 
HETATM    7  C3  UNL     1     -34.224  16.666  -4.864  1.00 20.00     0.008 C 
HETATM    8  C9  UNL     1     -33.977  15.014  -6.775  1.00 20.00     0.010 C 
HETATM    9  C7  UNL     1     -34.307  15.721  -3.657  1.00 20.00    -0.015 C 
HETATM   10  C5  UNL     1     -35.763  15.307  -3.391  1.00 20.00     0.043 C 
HETATM   11  C10 UNL     1     -33.705  16.385  -2.418  1.00 20.00     0.010 C 
BRANCH   4  12
HETATM   12  O12 UNL     1     -35.803  13.420  -4.874  1.00 20.00    -0.389 OA
HETATM   13  H30 UNL     1     -36.309  12.757  -4.381  1.00 20.00     0.210 HD
ENDBRANCH   4  12
ENDBRANCH   3   4
TORSDOF 2
ENDMDL
