MODEL 1
REMARK VINA RESULT:      -4.7      0.000      0.000
REMARK  1 active torsions:
REMARK  status: ('A' for Active; 'I' for Inactive)
REMARK    1  A    between atoms: C5_5  and  C7_7 
ROOT
HETATM    1  C1  UNL     1     -43.417   5.616   1.662  1.00 20.00     0.002 C 
HETATM    2  C2  UNL     1     -43.241   7.078   1.283  1.00 20.00     0.013 C 
HETATM    3  C3  UNL     1     -43.241   4.663   0.478  1.00 20.00     0.020 C 
HETATM    4  C4  UNL     1     -41.308   6.186  -0.160  1.00 20.00     0.033 C 
HETATM    5  C5  UNL     1     -41.841   7.344   0.708  1.00 20.00     0.095 C 
HETATM    6  C6  UNL     1     -42.376   5.213  -0.662  1.00 20.00     0.083 C 
HETATM    7 CL11 UNL     1     -43.398   5.990  -1.913  1.00 20.00    -0.125 Cl
ENDROOT
BRANCH   5   8
HETATM    8  C7  UNL     1     -41.810   8.681  -0.034  1.00 20.00     0.391 C 
HETATM    9  F8  UNL     1     -41.166   8.543  -1.203  1.00 20.00    -0.171 F 
HETATM   10  F9  UNL     1     -43.061   9.103  -0.274  1.00 20.00    -0.171 F 
HETATM   11  F10 UNL     1     -41.175   9.603   0.705  1.00 20.00    -0.171 F 
ENDBRANCH   5   8
TORSDOF 1
ENDMDL
MODEL 2
REMARK VINA RESULT:      -4.5     11.248     12.203
REMARK  1 active torsions:
REMARK  status: ('A' for Active; 'I' for Inactive)
REMARK    1  A    between atoms: C5_5  and  C7_7 
ROOT
HETATM    1  C1  UNL     1     -36.519  14.104  -4.867  1.00 20.00     0.002 C 
HETATM    2  C2  UNL     1     -36.268  15.080  -3.728  1.00 20.00     0.013 C 
HETATM    3  C3  UNL     1     -35.633  14.366  -6.087  1.00 20.00     0.020 C 
HETATM    4  C4  UNL     1     -33.798  14.776  -4.375  1.00 20.00     0.033 C 
HETATM    5  C5  UNL     1     -34.814  15.011  -3.238  1.00 20.00     0.095 C 
HETATM    6  C6  UNL     1     -34.318  15.092  -5.778  1.00 20.00     0.083 C 
HETATM    7 CL11 UNL     1     -34.508  16.861  -5.996  1.00 20.00    -0.125 Cl
ENDROOT
BRANCH   5   8
HETATM    8  C7  UNL     1     -34.468  16.245  -2.403  1.00 20.00     0.391 C 
HETATM    9  F8  UNL     1     -33.137  16.387  -2.323  1.00 20.00    -0.171 F 
HETATM   10  F9  UNL     1     -34.991  17.343  -2.969  1.00 20.00    -0.171 F 
HETATM   11  F10 UNL     1     -34.966  16.115  -1.164  1.00 20.00    -0.171 F 
ENDBRANCH   5   8
TORSDOF 1
ENDMDL
MODEL 3
REMARK VINA RESULT:      -4.4      9.297     10.131
REMARK  1 active torsions:
REMARK  status: ('A' for Active; 'I' for Inactive)
REMARK    1  A    between atoms: C5_5  and  C7_7 
ROOT
HETATM    1  C1  UNL     1     -32.837   6.349   2.480  1.00 20.00     0.002 C 
HETATM    2  C2  UNL     1     -32.848   6.739   3.950  1.00 20.00     0.013 C 
HETATM    3  C3  UNL     1     -33.322   4.918   2.236  1.00 20.00     0.020 C 
HETATM    4  C4  UNL     1     -35.081   5.464   3.989  1.00 20.00     0.033 C 
HETATM    5  C5  UNL     1     -34.261   6.646   4.545  1.00 20.00     0.095 C 
HETATM    6  C6  UNL     1     -34.253   4.365   3.321  1.00 20.00     0.083 C 
HETATM    7 CL11 UNL     1     -33.320   3.446   4.546  1.00 20.00    -0.125 Cl
ENDROOT
BRANCH   5   8
HETATM    8  C7  UNL     1     -34.202   6.638   6.074  1.00 20.00     0.391 C 
HETATM    9  F8  UNL     1     -34.389   7.878   6.548  1.00 20.00    -0.171 F 
HETATM   10  F9  UNL     1     -35.158   5.834   6.565  1.00 20.00    -0.171 F 
HETATM   11  F10 UNL     1     -33.005   6.192   6.485  1.00 20.00    -0.171 F 
ENDBRANCH   5   8
TORSDOF 1
ENDMDL
MODEL 4
REMARK VINA RESULT:      -4.4     10.701     12.078
REMARK  1 active torsions:
REMARK  status: ('A' for Active; 'I' for Inactive)
REMARK    1  A    between atoms: C5_5  and  C7_7 
ROOT
HETATM    1  C1  UNL     1     -34.505  16.382  -2.132  1.00 20.00     0.002 C 
HETATM    2  C2  UNL     1     -35.370  15.230  -2.617  1.00 20.00     0.013 C 
HETATM    3  C3  UNL     1     -33.210  16.539  -2.933  1.00 20.00     0.020 C 
HETATM    4  C4  UNL     1     -34.676  16.050  -4.953  1.00 20.00     0.033 C 
HETATM    5  C5  UNL     1     -35.781  15.414  -4.085  1.00 20.00     0.095 C 
HETATM    6  C6  UNL     1     -33.268  15.976  -4.358  1.00 20.00     0.083 C 
HETATM    7 CL11 UNL     1     -32.656  14.291  -4.398  1.00 20.00    -0.125 Cl
ENDROOT
BRANCH   5   8
HETATM    8  C7  UNL     1     -36.287  14.095  -4.672  1.00 20.00     0.391 C 
HETATM    9  F8  UNL     1     -37.606  13.974  -4.463  1.00 20.00    -0.171 F 
HETATM   10  F9  UNL     1     -36.050  14.061  -5.993  1.00 20.00    -0.171 F 
HETATM   11  F10 UNL     1     -35.658  13.063  -4.091  1.00 20.00    -0.171 F 
ENDBRANCH   5   8
TORSDOF 1
ENDMDL
MODEL 5
REMARK VINA RESULT:      -4.4     11.488     12.694
REMARK  1 active torsions:
REMARK  status: ('A' for Active; 'I' for Inactive)
REMARK    1  A    between atoms: C5_5  and  C7_7 
ROOT
HETATM    1  C1  UNL     1     -33.583  16.230  -2.735  1.00 20.00     0.002 C 
HETATM    2  C2  UNL     1     -33.493  16.273  -4.252  1.00 20.00     0.013 C 
HETATM    3  C3  UNL     1     -34.997  15.937  -2.226  1.00 20.00     0.020 C 
HETATM    4  C4  UNL     1     -35.082  14.254  -4.130  1.00 20.00     0.033 C 
HETATM    5  C5  UNL     1     -33.918  14.936  -4.879  1.00 20.00     0.095 C 
HETATM    6  C6  UNL     1     -35.888  15.178  -3.216  1.00 20.00     0.083 C 
HETATM    7 CL11 UNL     1     -36.872  16.322  -4.185  1.00 20.00    -0.125 Cl
ENDROOT
BRANCH   5   8
HETATM    8  C7  UNL     1     -34.215  15.110  -6.369  1.00 20.00     0.391 C 
HETATM    9  F8  UNL     1     -35.331  14.443  -6.696  1.00 20.00    -0.171 F 
HETATM   10  F9  UNL     1     -34.386  16.410  -6.654  1.00 20.00    -0.171 F 
HETATM   11  F10 UNL     1     -33.195  14.635  -7.099  1.00 20.00    -0.171 F 
ENDBRANCH   5   8
TORSDOF 1
ENDMDL
MODEL 6
REMARK VINA RESULT:      -4.3     10.974     12.645
REMARK  1 active torsions:
REMARK  status: ('A' for Active; 'I' for Inactive)
REMARK    1  A    between atoms: C5_5  and  C7_7 
ROOT
HETATM    1  C1  UNL     1     -34.285  17.648  -5.009  1.00 20.00     0.002 C 
HETATM    2  C2  UNL     1     -35.279  16.497  -5.014  1.00 20.00     0.013 C 
HETATM    3  C3  UNL     1     -33.504  17.760  -3.697  1.00 20.00     0.020 C 
HETATM    4  C4  UNL     1     -33.392  15.223  -3.819  1.00 20.00     0.033 C 
HETATM    5  C5  UNL     1     -34.576  15.147  -4.804  1.00 20.00     0.095 C 
HETATM    6  C6  UNL     1     -33.390  16.451  -2.907  1.00 20.00     0.083 C 
HETATM    7 CL11 UNL     1     -34.700  16.332  -1.689  1.00 20.00    -0.125 Cl
ENDROOT
BRANCH   5   8
HETATM    8  C7  UNL     1     -35.587  14.070  -4.407  1.00 20.00     0.391 C 
HETATM    9  F8  UNL     1     -36.195  13.585  -5.501  1.00 20.00    -0.171 F 
HETATM   10  F9  UNL     1     -34.963  13.066  -3.774  1.00 20.00    -0.171 F 
HETATM   11  F10 UNL     1     -36.515  14.590  -3.590  1.00 20.00    -0.171 F 
ENDBRANCH   5   8
TORSDOF 1
ENDMDL
MODEL 7
REMARK VINA RESULT:      -4.2     11.156     12.650
REMARK  1 active torsions:
REMARK  status: ('A' for Active; 'I' for Inactive)
REMARK    1  A    between atoms: C5_5  and  C7_7 
ROOT
HETATM    1  C1  UNL     1     -32.918  16.988  -2.730  1.00 20.00     0.002 C 
HETATM    2  C2  UNL     1     -33.300  15.736  -3.504  1.00 20.00     0.013 C 
HETATM    3  C3  UNL     1     -33.952  18.110  -2.853  1.00 20.00     0.020 C 
HETATM    4  C4  UNL     1     -35.661  16.241  -2.618  1.00 20.00     0.033 C 
HETATM    5  C5  UNL     1     -34.636  15.158  -3.014  1.00 20.00     0.095 C 
HETATM    6  C6  UNL     1     -35.373  17.635  -3.179  1.00 20.00     0.083 C 
HETATM    7 CL11 UNL     1     -35.662  17.675  -4.948  1.00 20.00    -0.125 Cl
ENDROOT
BRANCH   5   8
HETATM    8  C7  UNL     1     -35.205  14.174  -4.037  1.00 20.00     0.391 C 
HETATM    9  F8  UNL     1     -36.546  14.221  -4.024  1.00 20.00    -0.171 F 
HETATM   10  F9  UNL     1     -34.770  14.488  -5.267  1.00 20.00    -0.171 F 
HETATM   11  F10 UNL     1     -34.812  12.926  -3.742  1.00 20.00    -0.171 F 
ENDBRANCH   5   8
TORSDOF 1
ENDMDL
MODEL 8
REMARK VINA RESULT:      -4.2     11.227     12.669
REMARK  1 active torsions:
REMARK  status: ('A' for Active; 'I' for Inactive)
REMARK    1  A    between atoms: C5_5  and  C7_7 
ROOT
HETATM    1  C1  UNL     1     -32.915  17.089  -2.681  1.00 20.00     0.002 C 
HETATM    2  C2  UNL     1     -33.274  15.847  -3.481  1.00 20.00     0.013 C 
HETATM    3  C3  UNL     1     -33.987  18.179  -2.751  1.00 20.00     0.020 C 
HETATM    4  C4  UNL     1     -35.630  16.250  -2.532  1.00 20.00     0.033 C 
HETATM    5  C5  UNL     1     -34.580  15.212  -2.979  1.00 20.00     0.095 C 
HETATM    6  C6  UNL     1     -35.399  17.667  -3.060  1.00 20.00     0.083 C 
HETATM    7 CL11 UNL     1     -35.728  17.745  -4.821  1.00 20.00    -0.125 Cl
ENDROOT
BRANCH   5   8
HETATM    8  C7  UNL     1     -35.139  14.238  -4.017  1.00 20.00     0.391 C 
HETATM    9  F8  UNL     1     -34.773  12.983  -3.713  1.00 20.00    -0.171 F 
HETATM   10  F9  UNL     1     -36.478  14.308  -4.038  1.00 20.00    -0.171 F 
HETATM   11  F10 UNL     1     -34.668  14.544  -5.235  1.00 20.00    -0.171 F 
ENDBRANCH   5   8
TORSDOF 1
ENDMDL
MODEL 9
REMARK VINA RESULT:      -4.2     11.555     12.176
REMARK  1 active torsions:
REMARK  status: ('A' for Active; 'I' for Inactive)
REMARK    1  A    between atoms: C5_5  and  C7_7 
ROOT
HETATM    1  C1  UNL     1     -37.191  15.803  -3.720  1.00 20.00     0.002 C 
HETATM    2  C2  UNL     1     -35.836  16.479  -3.580  1.00 20.00     0.013 C 
HETATM    3  C3  UNL     1     -37.202  14.696  -4.777  1.00 20.00     0.020 C 
HETATM    4  C4  UNL     1     -34.923  14.088  -3.829  1.00 20.00     0.033 C 
HETATM    5  C5  UNL     1     -34.745  15.475  -3.178  1.00 20.00     0.095 C 
HETATM    6  C6  UNL     1     -35.833  14.066  -5.058  1.00 20.00     0.083 C 
HETATM    7 CL11 UNL     1     -35.038  14.876  -6.446  1.00 20.00    -0.125 Cl
ENDROOT
BRANCH   5   8
HETATM    8  C7  UNL     1     -33.355  16.059  -3.435  1.00 20.00     0.391 C 
HETATM    9  F8  UNL     1     -33.433  17.054  -4.331  1.00 20.00    -0.171 F 
HETATM   10  F9  UNL     1     -32.841  16.541  -2.293  1.00 20.00    -0.171 F 
HETATM   11  F10 UNL     1     -32.539  15.107  -3.912  1.00 20.00    -0.171 F 
ENDBRANCH   5   8
TORSDOF 1
ENDMDL
