MODEL 1
REMARK VINA RESULT:      -4.0      0.000      0.000
REMARK  5 active torsions:
REMARK  status: ('A' for Active; 'I' for Inactive)
REMARK    1  A    between atoms: C6_6  and  C7_7 
REMARK    2  A    between atoms: C6_6  and  C9_9 
REMARK    3  A    between atoms: C7_7  and  C11_11 
REMARK    4  A    between atoms: C8_8  and  C9_9 
REMARK    5  A    between atoms: C8_8  and  C10_10 
ROOT
HETATM    1  C6  UNL     1     -34.531  14.615  -3.809  1.00 20.00     0.005 C 
ENDROOT
BRANCH   1   2
HETATM    2  C7  UNL     1     -33.719  14.890  -5.083  1.00 20.00     0.008 C 
BRANCH   2   3
HETATM    3  C11 UNL     1     -34.528  15.435  -6.293  1.00 20.00    -0.051 C 
HETATM    4  C3  UNL     1     -33.802  15.157  -7.621  1.00 20.00     0.014 C 
HETATM    5  C4  UNL     1     -34.779  16.946  -6.159  1.00 20.00     0.014 C 
HETATM    6  C5  UNL     1     -35.889  14.711  -6.324  1.00 20.00     0.014 C 
ENDBRANCH   2   3
ENDBRANCH   1   2
BRANCH   1   7
HETATM    7  C9  UNL     1     -34.273  15.636  -2.678  1.00 20.00    -0.017 C 
HETATM    8  C1  UNL     1     -35.476  16.562  -2.458  1.00 20.00     0.010 C 
BRANCH   7   9
HETATM    9  C8  UNL     1     -33.025  16.508  -2.963  1.00 20.00     0.024 C 
BRANCH   9  10
HETATM   10  C10 UNL     1     -33.058  17.948  -2.425  1.00 20.00     0.078 C 
HETATM   11  C2  UNL     1     -32.749  18.950  -3.533  1.00 20.00     0.026 C 
HETATM   12 CL12 UNL     1     -31.876  18.170  -1.101  1.00 20.00    -0.125 Cl
ENDBRANCH   9  10
ENDBRANCH   7   9
ENDBRANCH   1   7
TORSDOF 5
ENDMDL
MODEL 2
REMARK VINA RESULT:      -3.9      2.015      3.171
REMARK  5 active torsions:
REMARK  status: ('A' for Active; 'I' for Inactive)
REMARK    1  A    between atoms: C6_6  and  C7_7 
REMARK    2  A    between atoms: C6_6  and  C9_9 
REMARK    3  A    between atoms: C7_7  and  C11_11 
REMARK    4  A    between atoms: C8_8  and  C9_9 
REMARK    5  A    between atoms: C8_8  and  C10_10 
ROOT
HETATM    1  C6  UNL     1     -33.089  16.673  -2.555  1.00 20.00     0.005 C 
ENDROOT
BRANCH   1   2
HETATM    2  C7  UNL     1     -34.325  15.780  -2.743  1.00 20.00     0.008 C 
BRANCH   2   3
HETATM    3  C11 UNL     1     -34.440  15.068  -4.120  1.00 20.00    -0.051 C 
HETATM    4  C3  UNL     1     -34.809  16.063  -5.234  1.00 20.00     0.014 C 
HETATM    5  C4  UNL     1     -35.485  13.942  -4.079  1.00 20.00     0.014 C 
HETATM    6  C5  UNL     1     -33.067  14.452  -4.455  1.00 20.00     0.014 C 
ENDBRANCH   2   3
ENDBRANCH   1   2
BRANCH   1   7
HETATM    7  C9  UNL     1     -33.288  17.793  -1.510  1.00 20.00    -0.017 C 
HETATM    8  C1  UNL     1     -34.124  18.953  -2.067  1.00 20.00     0.010 C 
BRANCH   7   9
HETATM    9  C8  UNL     1     -31.936  18.358  -1.006  1.00 20.00     0.024 C 
BRANCH   9  10
HETATM   10  C10 UNL     1     -31.903  18.860   0.447  1.00 20.00     0.078 C 
HETATM   11  C2  UNL     1     -30.605  18.448   1.135  1.00 20.00     0.026 C 
HETATM   12 CL12 UNL     1     -33.283  18.216   1.385  1.00 20.00    -0.125 Cl
ENDBRANCH   9  10
ENDBRANCH   7   9
ENDBRANCH   1   7
TORSDOF 5
ENDMDL
MODEL 3
REMARK VINA RESULT:      -3.9      1.664      2.494
REMARK  5 active torsions:
REMARK  status: ('A' for Active; 'I' for Inactive)
REMARK    1  A    between atoms: C6_6  and  C7_7 
REMARK    2  A    between atoms: C6_6  and  C9_9 
REMARK    3  A    between atoms: C7_7  and  C11_11 
REMARK    4  A    between atoms: C8_8  and  C9_9 
REMARK    5  A    between atoms: C8_8  and  C10_10 
ROOT
HETATM    1  C6  UNL     1     -33.182  16.786  -3.101  1.00 20.00     0.005 C 
ENDROOT
BRANCH   1   2
HETATM    2  C7  UNL     1     -34.320  16.376  -4.049  1.00 20.00     0.008 C 
BRANCH   2   3
HETATM    3  C11 UNL     1     -34.168  14.982  -4.720  1.00 20.00    -0.051 C 
HETATM    4  C3  UNL     1     -32.801  14.354  -4.400  1.00 20.00     0.014 C 
HETATM    5  C4  UNL     1     -34.339  15.076  -6.245  1.00 20.00     0.014 C 
HETATM    6  C5  UNL     1     -35.269  14.059  -4.158  1.00 20.00     0.014 C 
ENDBRANCH   2   3
ENDBRANCH   1   2
BRANCH   1   7
HETATM    7  C9  UNL     1     -33.655  17.092  -1.663  1.00 20.00    -0.017 C 
HETATM    8  C1  UNL     1     -35.120  16.688  -1.444  1.00 20.00     0.010 C 
BRANCH   7   9
HETATM    9  C8  UNL     1     -33.501  18.594  -1.312  1.00 20.00     0.024 C 
BRANCH   9  10
HETATM   10  C10 UNL     1     -32.606  18.927  -0.108  1.00 20.00     0.078 C 
HETATM   11  C2  UNL     1     -31.198  18.374  -0.307  1.00 20.00     0.026 C 
HETATM   12 CL12 UNL     1     -33.281  18.253   1.405  1.00 20.00    -0.125 Cl
ENDBRANCH   9  10
ENDBRANCH   7   9
ENDBRANCH   1   7
TORSDOF 5
ENDMDL
MODEL 4
REMARK VINA RESULT:      -3.9      1.654      2.643
REMARK  5 active torsions:
REMARK  status: ('A' for Active; 'I' for Inactive)
REMARK    1  A    between atoms: C6_6  and  C7_7 
REMARK    2  A    between atoms: C6_6  and  C9_9 
REMARK    3  A    between atoms: C7_7  and  C11_11 
REMARK    4  A    between atoms: C8_8  and  C9_9 
REMARK    5  A    between atoms: C8_8  and  C10_10 
ROOT
HETATM    1  C6  UNL     1     -33.239  16.865  -3.197  1.00 20.00     0.005 C 
ENDROOT
BRANCH   1   2
HETATM    2  C7  UNL     1     -34.388  16.405  -4.107  1.00 20.00     0.008 C 
BRANCH   2   3
HETATM    3  C11 UNL     1     -34.244  14.978  -4.706  1.00 20.00    -0.051 C 
HETATM    4  C3  UNL     1     -35.347  14.040  -4.186  1.00 20.00     0.014 C 
HETATM    5  C4  UNL     1     -32.869  14.374  -4.380  1.00 20.00     0.014 C 
HETATM    6  C5  UNL     1     -34.382  15.087  -6.238  1.00 20.00     0.014 C 
ENDBRANCH   2   3
ENDBRANCH   1   2
BRANCH   1   7
HETATM    7  C9  UNL     1     -33.664  17.088  -1.729  1.00 20.00    -0.017 C 
HETATM    8  C1  UNL     1     -35.096  16.604  -1.467  1.00 20.00     0.010 C 
BRANCH   7   9
HETATM    9  C8  UNL     1     -33.565  18.579  -1.320  1.00 20.00     0.024 C 
BRANCH   9  10
HETATM   10  C10 UNL     1     -32.638  18.906  -0.138  1.00 20.00     0.078 C 
HETATM   11  C2  UNL     1     -31.238  18.347  -0.375  1.00 20.00     0.026 C 
HETATM   12 CL12 UNL     1     -33.277  18.230   1.390  1.00 20.00    -0.125 Cl
ENDBRANCH   9  10
ENDBRANCH   7   9
ENDBRANCH   1   7
TORSDOF 5
ENDMDL
MODEL 5
REMARK VINA RESULT:      -3.8      2.445      4.569
REMARK  5 active torsions:
REMARK  status: ('A' for Active; 'I' for Inactive)
REMARK    1  A    between atoms: C6_6  and  C7_7 
REMARK    2  A    between atoms: C6_6  and  C9_9 
REMARK    3  A    between atoms: C7_7  and  C11_11 
REMARK    4  A    between atoms: C8_8  and  C9_9 
REMARK    5  A    between atoms: C8_8  and  C10_10 
ROOT
HETATM    1  C6  UNL     1     -34.790  15.190  -3.107  1.00 20.00     0.005 C 
ENDROOT
BRANCH   1   2
HETATM    2  C7  UNL     1     -35.056  16.124  -1.916  1.00 20.00     0.008 C 
BRANCH   2   3
HETATM    3  C11 UNL     1     -34.242  17.448  -1.904  1.00 20.00    -0.051 C 
HETATM    4  C3  UNL     1     -34.007  17.946  -0.467  1.00 20.00     0.014 C 
HETATM    5  C4  UNL     1     -34.953  18.546  -2.712  1.00 20.00     0.014 C 
HETATM    6  C5  UNL     1     -32.870  17.172  -2.551  1.00 20.00     0.014 C 
ENDBRANCH   2   3
ENDBRANCH   1   2
BRANCH   1   7
HETATM    7  C9  UNL     1     -36.006  15.022  -4.045  1.00 20.00    -0.017 C 
HETATM    8  C1  UNL     1     -36.166  13.571  -4.520  1.00 20.00     0.010 C 
BRANCH   7   9
HETATM    9  C8  UNL     1     -35.906  15.940  -5.289  1.00 20.00     0.024 C 
BRANCH   9  10
HETATM   10  C10 UNL     1     -34.489  16.281  -5.776  1.00 20.00     0.078 C 
HETATM   11  C2  UNL     1     -34.442  17.684  -6.372  1.00 20.00     0.026 C 
HETATM   12 CL12 UNL     1     -33.932  15.112  -7.010  1.00 20.00    -0.125 Cl
ENDBRANCH   9  10
ENDBRANCH   7   9
ENDBRANCH   1   7
TORSDOF 5
ENDMDL
MODEL 6
REMARK VINA RESULT:      -3.8      2.544      4.773
REMARK  5 active torsions:
REMARK  status: ('A' for Active; 'I' for Inactive)
REMARK    1  A    between atoms: C6_6  and  C7_7 
REMARK    2  A    between atoms: C6_6  and  C9_9 
REMARK    3  A    between atoms: C7_7  and  C11_11 
REMARK    4  A    between atoms: C8_8  and  C9_9 
REMARK    5  A    between atoms: C8_8  and  C10_10 
ROOT
HETATM    1  C6  UNL     1     -34.766  14.658  -3.657  1.00 20.00     0.005 C 
ENDROOT
BRANCH   1   2
HETATM    2  C7  UNL     1     -33.615  15.648  -3.420  1.00 20.00     0.008 C 
BRANCH   2   3
HETATM    3  C11 UNL     1     -33.973  16.911  -2.587  1.00 20.00    -0.051 C 
HETATM    4  C3  UNL     1     -32.731  17.488  -1.887  1.00 20.00     0.014 C 
HETATM    5  C4  UNL     1     -35.048  16.596  -1.534  1.00 20.00     0.014 C 
HETATM    6  C5  UNL     1     -34.527  17.979  -3.551  1.00 20.00     0.014 C 
ENDBRANCH   2   3
ENDBRANCH   1   2
BRANCH   1   7
HETATM    7  C9  UNL     1     -35.223  14.580  -5.130  1.00 20.00    -0.017 C 
HETATM    8  C1  UNL     1     -34.137  15.079  -6.093  1.00 20.00     0.010 C 
BRANCH   7   9
HETATM    9  C8  UNL     1     -36.515  15.398  -5.378  1.00 20.00     0.024 C 
BRANCH   9  10
HETATM   10  C10 UNL     1     -37.437  15.606  -4.166  1.00 20.00     0.078 C 
HETATM   11  C2  UNL     1     -38.664  14.703  -4.255  1.00 20.00     0.026 C 
HETATM   12 CL12 UNL     1     -37.980  17.306  -4.051  1.00 20.00    -0.125 Cl
ENDBRANCH   9  10
ENDBRANCH   7   9
ENDBRANCH   1   7
TORSDOF 5
ENDMDL
MODEL 7
REMARK VINA RESULT:      -3.8      2.500      5.061
REMARK  5 active torsions:
REMARK  status: ('A' for Active; 'I' for Inactive)
REMARK    1  A    between atoms: C6_6  and  C7_7 
REMARK    2  A    between atoms: C6_6  and  C9_9 
REMARK    3  A    between atoms: C7_7  and  C11_11 
REMARK    4  A    between atoms: C8_8  and  C9_9 
REMARK    5  A    between atoms: C8_8  and  C10_10 
ROOT
HETATM    1  C6  UNL     1     -34.666  15.459  -2.697  1.00 20.00     0.005 C 
ENDROOT
BRANCH   1   2
HETATM    2  C7  UNL     1     -33.451  16.398  -2.739  1.00 20.00     0.008 C 
BRANCH   2   3
HETATM    3  C11 UNL     1     -33.605  17.735  -1.961  1.00 20.00    -0.051 C 
HETATM    4  C3  UNL     1     -34.525  17.567  -0.739  1.00 20.00     0.014 C 
HETATM    5  C4  UNL     1     -34.161  18.846  -2.866  1.00 20.00     0.014 C 
HETATM    6  C5  UNL     1     -32.210  18.161  -1.462  1.00 20.00     0.014 C 
ENDBRANCH   2   3
ENDBRANCH   1   2
BRANCH   1   7
HETATM    7  C9  UNL     1     -34.659  14.387  -3.809  1.00 20.00    -0.017 C 
HETATM    8  C1  UNL     1     -33.675  14.736  -4.934  1.00 20.00     0.010 C 
BRANCH   7   9
HETATM    9  C8  UNL     1     -36.066  14.188  -4.427  1.00 20.00     0.024 C 
BRANCH   9  10
HETATM   10  C10 UNL     1     -37.106  15.280  -4.129  1.00 20.00     0.078 C 
HETATM   11  C2  UNL     1     -38.523  14.737  -4.281  1.00 20.00     0.026 C 
HETATM   12 CL12 UNL     1     -36.904  16.681  -5.222  1.00 20.00    -0.125 Cl
ENDBRANCH   9  10
ENDBRANCH   7   9
ENDBRANCH   1   7
TORSDOF 5
ENDMDL
MODEL 8
REMARK VINA RESULT:      -3.8      2.616      4.920
REMARK  5 active torsions:
REMARK  status: ('A' for Active; 'I' for Inactive)
REMARK    1  A    between atoms: C6_6  and  C7_7 
REMARK    2  A    between atoms: C6_6  and  C9_9 
REMARK    3  A    between atoms: C7_7  and  C11_11 
REMARK    4  A    between atoms: C8_8  and  C9_9 
REMARK    5  A    between atoms: C8_8  and  C10_10 
ROOT
HETATM    1  C6  UNL     1     -34.551  15.679  -2.680  1.00 20.00     0.005 C 
ENDROOT
BRANCH   1   2
HETATM    2  C7  UNL     1     -33.282  16.544  -2.663  1.00 20.00     0.008 C 
BRANCH   2   3
HETATM    3  C11 UNL     1     -33.369  17.852  -1.828  1.00 20.00    -0.051 C 
HETATM    4  C3  UNL     1     -33.835  19.037  -2.692  1.00 20.00     0.014 C 
HETATM    5  C4  UNL     1     -32.015  18.194  -1.186  1.00 20.00     0.014 C 
HETATM    6  C5  UNL     1     -34.404  17.635  -0.706  1.00 20.00     0.014 C 
ENDBRANCH   2   3
ENDBRANCH   1   2
BRANCH   1   7
HETATM    7  C9  UNL     1     -34.543  14.588  -3.774  1.00 20.00    -0.017 C 
HETATM    8  C1  UNL     1     -33.151  14.414  -4.397  1.00 20.00     0.010 C 
BRANCH   7   9
HETATM    9  C8  UNL     1     -35.555  14.898  -4.905  1.00 20.00     0.024 C 
BRANCH   9  10
HETATM   10  C10 UNL     1     -34.988  15.575  -6.164  1.00 20.00     0.078 C 
HETATM   11  C2  UNL     1     -35.177  17.088  -6.099  1.00 20.00     0.026 C 
HETATM   12 CL12 UNL     1     -35.783  14.958  -7.643  1.00 20.00    -0.125 Cl
ENDBRANCH   9  10
ENDBRANCH   7   9
ENDBRANCH   1   7
TORSDOF 5
ENDMDL
MODEL 9
REMARK VINA RESULT:      -3.7      1.348      2.273
REMARK  5 active torsions:
REMARK  status: ('A' for Active; 'I' for Inactive)
REMARK    1  A    between atoms: C6_6  and  C7_7 
REMARK    2  A    between atoms: C6_6  and  C9_9 
REMARK    3  A    between atoms: C7_7  and  C11_11 
REMARK    4  A    between atoms: C8_8  and  C9_9 
REMARK    5  A    between atoms: C8_8  and  C10_10 
ROOT
HETATM    1  C6  UNL     1     -35.232  16.073  -2.020  1.00 20.00     0.005 C 
ENDROOT
BRANCH   1   2
HETATM    2  C7  UNL     1     -34.280  15.451  -3.052  1.00 20.00     0.008 C 
BRANCH   2   3
HETATM    3  C11 UNL     1     -34.907  15.126  -4.437  1.00 20.00    -0.051 C 
HETATM    4  C3  UNL     1     -35.812  13.884  -4.363  1.00 20.00     0.014 C 
HETATM    5  C4  UNL     1     -33.821  14.900  -5.501  1.00 20.00     0.014 C 
HETATM    6  C5  UNL     1     -35.770  16.330  -4.865  1.00 20.00     0.014 C 
ENDBRANCH   2   3
ENDBRANCH   1   2
BRANCH   1   7
HETATM    7  C9  UNL     1     -34.560  17.131  -1.117  1.00 20.00    -0.017 C 
HETATM    8  C1  UNL     1     -35.301  17.301   0.216  1.00 20.00     0.010 C 
BRANCH   7   9
HETATM    9  C8  UNL     1     -34.475  18.513  -1.813  1.00 20.00     0.024 C 
BRANCH   9  10
HETATM   10  C10 UNL     1     -33.068  19.004  -2.191  1.00 20.00     0.078 C 
HETATM   11  C2  UNL     1     -32.785  18.759  -3.670  1.00 20.00     0.026 C 
HETATM   12 CL12 UNL     1     -31.813  18.179  -1.220  1.00 20.00    -0.125 Cl
ENDBRANCH   9  10
ENDBRANCH   7   9
ENDBRANCH   1   7
TORSDOF 5
ENDMDL
