MODEL 1
REMARK VINA RESULT:      -4.5      0.000      0.000
REMARK  2 active torsions:
REMARK  status: ('A' for Active; 'I' for Inactive)
REMARK    1  A    between atoms: C4_4  and  C9_9 
REMARK    2  A    between atoms: C9_9  and  C10_10 
ROOT
HETATM    1  C1  UNL     1     -33.917  14.120  -4.042  1.00 20.00     0.005 C 
HETATM    2  C2  UNL     1     -33.133  15.425  -3.985  1.00 20.00     0.005 C 
HETATM    3  C3  UNL     1     -35.837  15.647  -3.302  1.00 20.00     0.009 C 
HETATM    4  C4  UNL     1     -35.436  14.362  -4.053  1.00 20.00    -0.013 C 
HETATM    5  C5  UNL     1     -33.436  16.236  -2.705  1.00 20.00    -0.015 C 
HETATM    6  C6  UNL     1     -34.863  15.954  -2.157  1.00 20.00    -0.015 C 
HETATM    7  C7  UNL     1     -33.131  17.713  -2.970  1.00 20.00     0.010 C 
HETATM    8  C8  UNL     1     -35.417  17.053  -1.250  1.00 20.00     0.010 C 
ENDROOT
BRANCH   4   9
HETATM    9  C9  UNL     1     -35.989  14.392  -5.479  1.00 20.00     0.020 C 
BRANCH   9  10
HETATM   10  C10 UNL     1     -36.380  15.789  -5.942  1.00 20.00     0.115 C 
HETATM   11 CL11 UNL     1     -35.041  16.621  -6.765  1.00 20.00    -0.130 Cl
ENDBRANCH   9  10
ENDBRANCH   4   9
TORSDOF 2
ENDMDL
MODEL 2
REMARK VINA RESULT:      -4.2      2.542      4.663
REMARK  2 active torsions:
REMARK  status: ('A' for Active; 'I' for Inactive)
REMARK    1  A    between atoms: C4_4  and  C9_9 
REMARK    2  A    between atoms: C9_9  and  C10_10 
ROOT
HETATM    1  C1  UNL     1     -35.122  16.691  -1.417  1.00 20.00     0.005 C 
HETATM    2  C2  UNL     1     -35.940  16.432  -2.676  1.00 20.00     0.005 C 
HETATM    3  C3  UNL     1     -33.177  16.583  -3.082  1.00 20.00     0.009 C 
HETATM    4  C4  UNL     1     -33.693  17.155  -1.747  1.00 20.00    -0.013 C 
HETATM    5  C5  UNL     1     -35.331  15.317  -3.553  1.00 20.00    -0.015 C 
HETATM    6  C6  UNL     1     -33.790  15.208  -3.377  1.00 20.00    -0.015 C 
HETATM    7  C7  UNL     1     -35.799  15.512  -4.999  1.00 20.00     0.010 C 
HETATM    8  C8  UNL     1     -33.071  14.529  -4.543  1.00 20.00     0.010 C 
ENDROOT
BRANCH   4   9
HETATM    9  C9  UNL     1     -33.586  18.681  -1.752  1.00 20.00     0.020 C 
BRANCH   9  10
HETATM   10  C10 UNL     1     -32.152  19.183  -1.655  1.00 20.00     0.115 C 
HETATM   11 CL11 UNL     1     -31.181  18.218  -0.519  1.00 20.00    -0.130 Cl
ENDBRANCH   9  10
ENDBRANCH   4   9
TORSDOF 2
ENDMDL
MODEL 3
REMARK VINA RESULT:      -4.1      1.285      1.687
REMARK  2 active torsions:
REMARK  status: ('A' for Active; 'I' for Inactive)
REMARK    1  A    between atoms: C4_4  and  C9_9 
REMARK    2  A    between atoms: C9_9  and  C10_10 
ROOT
HETATM    1  C1  UNL     1     -33.862  15.179  -3.412  1.00 20.00     0.005 C 
HETATM    2  C2  UNL     1     -33.194  16.507  -3.742  1.00 20.00     0.005 C 
HETATM    3  C3  UNL     1     -35.362  16.689  -1.985  1.00 20.00     0.009 C 
HETATM    4  C4  UNL     1     -35.253  15.377  -2.786  1.00 20.00    -0.013 C 
HETATM    5  C5  UNL     1     -32.967  17.379  -2.488  1.00 20.00    -0.015 C 
HETATM    6  C6  UNL     1     -34.012  17.087  -1.375  1.00 20.00    -0.015 C 
HETATM    7  C7  UNL     1     -32.877  18.848  -2.914  1.00 20.00     0.010 C 
HETATM    8  C8  UNL     1     -34.184  18.219  -0.361  1.00 20.00     0.010 C 
ENDROOT
BRANCH   4   9
HETATM    9  C9  UNL     1     -36.358  15.311  -3.842  1.00 20.00     0.020 C 
BRANCH   9  10
HETATM   10  C10 UNL     1     -36.284  14.065  -4.712  1.00 20.00     0.115 C 
HETATM   11 CL11 UNL     1     -35.746  14.434  -6.366  1.00 20.00    -0.130 Cl
ENDBRANCH   9  10
ENDBRANCH   4   9
TORSDOF 2
ENDMDL
MODEL 4
REMARK VINA RESULT:      -4.0      2.472      4.460
REMARK  2 active torsions:
REMARK  status: ('A' for Active; 'I' for Inactive)
REMARK    1  A    between atoms: C4_4  and  C9_9 
REMARK    2  A    between atoms: C9_9  and  C10_10 
ROOT
HETATM    1  C1  UNL     1     -35.463  17.143  -2.075  1.00 20.00     0.005 C 
HETATM    2  C2  UNL     1     -36.210  17.382  -3.381  1.00 20.00     0.005 C 
HETATM    3  C3  UNL     1     -34.447  15.212  -3.416  1.00 20.00     0.009 C 
HETATM    4  C4  UNL     1     -34.247  16.221  -2.269  1.00 20.00    -0.013 C 
HETATM    5  C5  UNL     1     -36.770  16.076  -3.985  1.00 20.00    -0.015 C 
HETATM    6  C6  UNL     1     -35.924  14.835  -3.582  1.00 20.00    -0.015 C 
HETATM    7  C7  UNL     1     -36.951  16.265  -5.495  1.00 20.00     0.010 C 
HETATM    8  C8  UNL     1     -36.080  13.637  -4.519  1.00 20.00     0.010 C 
ENDROOT
BRANCH   4   9
HETATM    9  C9  UNL     1     -32.964  17.024  -2.492  1.00 20.00     0.020 C 
BRANCH   9  10
HETATM   10  C10 UNL     1     -32.837  18.222  -1.562  1.00 20.00     0.115 C 
HETATM   11 CL11 UNL     1     -31.312  18.199  -0.646  1.00 20.00    -0.130 Cl
ENDBRANCH   9  10
ENDBRANCH   4   9
TORSDOF 2
ENDMDL
MODEL 5
REMARK VINA RESULT:      -3.9      2.038      4.006
REMARK  2 active torsions:
REMARK  status: ('A' for Active; 'I' for Inactive)
REMARK    1  A    between atoms: C4_4  and  C9_9 
REMARK    2  A    between atoms: C9_9  and  C10_10 
ROOT
HETATM    1  C1  UNL     1     -33.542  14.548  -4.173  1.00 20.00     0.005 C 
HETATM    2  C2  UNL     1     -34.936  14.000  -3.896  1.00 20.00     0.005 C 
HETATM    3  C3  UNL     1     -34.856  16.704  -4.607  1.00 20.00     0.009 C 
HETATM    4  C4  UNL     1     -33.516  16.085  -4.162  1.00 20.00    -0.013 C 
HETATM    5  C5  UNL     1     -35.963  14.442  -4.962  1.00 20.00    -0.015 C 
HETATM    6  C6  UNL     1     -35.583  15.802  -5.613  1.00 20.00    -0.015 C 
HETATM    7  C7  UNL     1     -37.366  14.395  -4.348  1.00 20.00     0.010 C 
HETATM    8  C8  UNL     1     -36.757  16.540  -6.257  1.00 20.00     0.010 C 
ENDROOT
BRANCH   4   9
HETATM    9  C9  UNL     1     -33.116  16.630  -2.789  1.00 20.00     0.020 C 
BRANCH   9  10
HETATM   10  C10 UNL     1     -34.189  17.501  -2.152  1.00 20.00     0.115 C 
HETATM   11 CL11 UNL     1     -35.236  16.576  -1.053  1.00 20.00    -0.130 Cl
ENDBRANCH   9  10
ENDBRANCH   4   9
TORSDOF 2
ENDMDL
MODEL 6
REMARK VINA RESULT:      -3.8      1.281      2.370
REMARK  2 active torsions:
REMARK  status: ('A' for Active; 'I' for Inactive)
REMARK    1  A    between atoms: C4_4  and  C9_9 
REMARK    2  A    between atoms: C9_9  and  C10_10 
ROOT
HETATM    1  C1  UNL     1     -37.173  14.375  -4.204  1.00 20.00     0.005 C 
HETATM    2  C2  UNL     1     -35.772  13.992  -4.661  1.00 20.00     0.005 C 
HETATM    3  C3  UNL     1     -36.021  16.609  -3.708  1.00 20.00     0.009 C 
HETATM    4  C4  UNL     1     -37.338  15.899  -4.075  1.00 20.00    -0.013 C 
HETATM    5  C5  UNL     1     -34.683  14.447  -3.665  1.00 20.00    -0.015 C 
HETATM    6  C6  UNL     1     -35.114  15.706  -2.861  1.00 20.00    -0.015 C 
HETATM    7  C7  UNL     1     -33.354  14.587  -4.412  1.00 20.00     0.010 C 
HETATM    8  C8  UNL     1     -33.951  16.503  -2.269  1.00 20.00     0.010 C 
ENDROOT
BRANCH   4   9
HETATM    9  C9  UNL     1     -37.927  16.508  -5.349  1.00 20.00     0.020 C 
BRANCH   9  10
HETATM   10  C10 UNL     1     -36.888  17.202  -6.219  1.00 20.00     0.115 C 
HETATM   11 CL11 UNL     1     -36.246  16.127  -7.480  1.00 20.00    -0.130 Cl
ENDBRANCH   9  10
ENDBRANCH   4   9
TORSDOF 2
ENDMDL
MODEL 7
REMARK VINA RESULT:      -3.8      2.514      4.311
REMARK  2 active torsions:
REMARK  status: ('A' for Active; 'I' for Inactive)
REMARK    1  A    between atoms: C4_4  and  C9_9 
REMARK    2  A    between atoms: C9_9  and  C10_10 
ROOT
HETATM    1  C1  UNL     1     -33.132  15.152  -4.014  1.00 20.00     0.005 C 
HETATM    2  C2  UNL     1     -34.343  14.232  -3.929  1.00 20.00     0.005 C 
HETATM    3  C3  UNL     1     -34.948  16.955  -4.139  1.00 20.00     0.009 C 
HETATM    4  C4  UNL     1     -33.502  16.617  -3.726  1.00 20.00    -0.013 C 
HETATM    5  C5  UNL     1     -35.432  14.598  -4.962  1.00 20.00    -0.015 C 
HETATM    6  C6  UNL     1     -35.403  16.107  -5.334  1.00 20.00    -0.015 C 
HETATM    7  C7  UNL     1     -36.785  14.088  -4.458  1.00 20.00     0.010 C 
HETATM    8  C8  UNL     1     -36.716  16.638  -5.911  1.00 20.00     0.010 C 
ENDROOT
BRANCH   4   9
HETATM    9  C9  UNL     1     -33.278  16.974  -2.256  1.00 20.00     0.020 C 
BRANCH   9  10
HETATM   10  C10 UNL     1     -32.523  18.282  -2.063  1.00 20.00     0.115 C 
HETATM   11 CL11 UNL     1     -31.395  18.208  -0.691  1.00 20.00    -0.130 Cl
ENDBRANCH   9  10
ENDBRANCH   4   9
TORSDOF 2
ENDMDL
MODEL 8
REMARK VINA RESULT:      -3.8      1.348      2.782
REMARK  2 active torsions:
REMARK  status: ('A' for Active; 'I' for Inactive)
REMARK    1  A    between atoms: C4_4  and  C9_9 
REMARK    2  A    between atoms: C9_9  and  C10_10 
ROOT
HETATM    1  C1  UNL     1     -35.732  16.692  -3.449  1.00 20.00     0.005 C 
HETATM    2  C2  UNL     1     -35.882  17.009  -1.966  1.00 20.00     0.005 C 
HETATM    3  C3  UNL     1     -33.304  16.262  -2.753  1.00 20.00     0.009 C 
HETATM    4  C4  UNL     1     -34.435  15.920  -3.742  1.00 20.00    -0.013 C 
HETATM    5  C5  UNL     1     -34.736  17.900  -1.437  1.00 20.00    -0.015 C 
HETATM    6  C6  UNL     1     -33.421  17.704  -2.244  1.00 20.00    -0.015 C 
HETATM    7  C7  UNL     1     -34.600  17.688   0.074  1.00 20.00     0.010 C 
HETATM    8  C8  UNL     1     -32.156  18.123  -1.494  1.00 20.00     0.010 C 
ENDROOT
BRANCH   4   9
HETATM    9  C9  UNL     1     -34.675  14.409  -3.765  1.00 20.00     0.020 C 
BRANCH   9  10
HETATM   10  C10 UNL     1     -35.914  14.009  -4.554  1.00 20.00     0.115 C 
HETATM   11 CL11 UNL     1     -35.764  14.407  -6.281  1.00 20.00    -0.130 Cl
ENDBRANCH   9  10
ENDBRANCH   4   9
TORSDOF 2
ENDMDL
MODEL 9
REMARK VINA RESULT:      -3.8      2.706      4.577
REMARK  2 active torsions:
REMARK  status: ('A' for Active; 'I' for Inactive)
REMARK    1  A    between atoms: C4_4  and  C9_9 
REMARK    2  A    between atoms: C9_9  and  C10_10 
ROOT
HETATM    1  C1  UNL     1     -33.728  18.270  -2.642  1.00 20.00     0.005 C 
HETATM    2  C2  UNL     1     -32.921  17.187  -3.347  1.00 20.00     0.005 C 
HETATM    3  C3  UNL     1     -35.071  16.247  -1.824  1.00 20.00     0.009 C 
HETATM    4  C4  UNL     1     -34.618  17.690  -1.529  1.00 20.00    -0.013 C 
HETATM    5  C5  UNL     1     -33.822  16.139  -4.037  1.00 20.00    -0.015 C 
HETATM    6  C6  UNL     1     -35.201  15.997  -3.332  1.00 20.00    -0.015 C 
HETATM    7  C7  UNL     1     -33.039  14.831  -4.184  1.00 20.00     0.010 C 
HETATM    8  C8  UNL     1     -35.913  14.672  -3.606  1.00 20.00     0.010 C 
ENDROOT
BRANCH   4   9
HETATM    9  C9  UNL     1     -33.927  17.756  -0.166  1.00 20.00     0.020 C 
BRANCH   9  10
HETATM   10  C10 UNL     1     -32.897  18.873  -0.068  1.00 20.00     0.115 C 
HETATM   11 CL11 UNL     1     -31.231  18.252  -0.086  1.00 20.00    -0.130 Cl
ENDBRANCH   9  10
ENDBRANCH   4   9
TORSDOF 2
ENDMDL
