MODEL 1
REMARK VINA RESULT:      -4.0      0.000      0.000
REMARK  4 active torsions:
REMARK  status: ('A' for Active; 'I' for Inactive)
REMARK    1  A    between atoms: C2_2  and  C6_6 
REMARK    2  A    between atoms: C6_6  and  C8_8 
REMARK    3  A    between atoms: C7_7  and  C8_8 
REMARK    4  A    between atoms: C7_7  and  C9_9 
ROOT
HETATM    1  C1  UNL     1     -33.272  17.168  -2.032  1.00 20.00    -0.111 C 
HETATM    2  C2  UNL     1     -34.132  16.400  -2.370  1.00 20.00    -0.107 C 
HETATM    3  C3  UNL     1     -32.227  18.103  -1.618  1.00 20.00     0.112 C 
ENDROOT
BRANCH   2   4
HETATM    4  C6  UNL     1     -35.187  15.465  -2.788  1.00 20.00     0.098 C 
BRANCH   4   5
HETATM    5  C8  UNL     1     -34.709  14.408  -3.801  1.00 20.00    -0.006 C 
HETATM    6  C4  UNL     1     -35.897  13.646  -4.406  1.00 20.00     0.011 C 
BRANCH   5   7
HETATM    7  C7  UNL     1     -33.816  14.961  -4.939  1.00 20.00     0.020 C 
BRANCH   7   8
HETATM    8  C9  UNL     1     -34.552  15.550  -6.145  1.00 20.00     0.054 C 
HETATM    9  C5  UNL     1     -33.860  15.184  -7.453  1.00 20.00     0.022 C 
HETATM   10 BR10 UNL     1     -34.602  17.506  -6.023  1.00 20.00    -0.092 Br
ENDBRANCH   7   8
ENDBRANCH   5   7
ENDBRANCH   4   5
ENDBRANCH   2   4
TORSDOF 4
ENDMDL
MODEL 2
REMARK VINA RESULT:      -3.9      1.937      3.278
REMARK  4 active torsions:
REMARK  status: ('A' for Active; 'I' for Inactive)
REMARK    1  A    between atoms: C2_2  and  C6_6 
REMARK    2  A    between atoms: C6_6  and  C8_8 
REMARK    3  A    between atoms: C7_7  and  C8_8 
REMARK    4  A    between atoms: C7_7  and  C9_9 
ROOT
HETATM    1  C1  UNL     1     -31.498  18.401  -0.305  1.00 20.00    -0.111 C 
HETATM    2  C2  UNL     1     -32.162  18.044  -1.240  1.00 20.00    -0.107 C 
HETATM    3  C3  UNL     1     -30.688  18.837   0.831  1.00 20.00     0.112 C 
ENDROOT
BRANCH   2   4
HETATM    4  C6  UNL     1     -32.976  17.599  -2.381  1.00 20.00     0.098 C 
BRANCH   4   5
HETATM    5  C8  UNL     1     -34.064  16.576  -2.002  1.00 20.00    -0.006 C 
HETATM    6  C4  UNL     1     -35.009  17.146  -0.934  1.00 20.00     0.011 C 
BRANCH   5   7
HETATM    7  C7  UNL     1     -34.894  16.044  -3.196  1.00 20.00     0.020 C 
BRANCH   7   8
HETATM    8  C9  UNL     1     -34.638  14.589  -3.597  1.00 20.00     0.054 C 
HETATM    9  C5  UNL     1     -33.410  14.466  -4.491  1.00 20.00     0.022 C 
HETATM   10 BR10 UNL     1     -36.171  13.876  -4.590  1.00 20.00    -0.092 Br
ENDBRANCH   7   8
ENDBRANCH   5   7
ENDBRANCH   4   5
ENDBRANCH   2   4
TORSDOF 4
ENDMDL
MODEL 3
REMARK VINA RESULT:      -3.9      1.534      2.538
REMARK  4 active torsions:
REMARK  status: ('A' for Active; 'I' for Inactive)
REMARK    1  A    between atoms: C2_2  and  C6_6 
REMARK    2  A    between atoms: C6_6  and  C8_8 
REMARK    3  A    between atoms: C7_7  and  C8_8 
REMARK    4  A    between atoms: C7_7  and  C9_9 
ROOT
HETATM    1  C1  UNL     1     -31.799  18.243  -0.960  1.00 20.00    -0.111 C 
HETATM    2  C2  UNL     1     -32.404  17.766  -1.882  1.00 20.00    -0.107 C 
HETATM    3  C3  UNL     1     -31.062  18.820   0.163  1.00 20.00     0.112 C 
ENDROOT
BRANCH   2   4
HETATM    4  C6  UNL     1     -33.151  17.183  -3.007  1.00 20.00     0.098 C 
BRANCH   4   5
HETATM    5  C8  UNL     1     -33.953  15.923  -2.628  1.00 20.00    -0.006 C 
HETATM    6  C4  UNL     1     -35.357  16.293  -2.128  1.00 20.00     0.011 C 
BRANCH   5   7
HETATM    7  C7  UNL     1     -34.067  14.867  -3.755  1.00 20.00     0.020 C 
BRANCH   7   8
HETATM    8  C9  UNL     1     -35.308  14.967  -4.647  1.00 20.00     0.054 C 
HETATM    9  C5  UNL     1     -36.153  13.701  -4.567  1.00 20.00     0.022 C 
HETATM   10 BR10 UNL     1     -34.783  15.218  -6.518  1.00 20.00    -0.092 Br
ENDBRANCH   7   8
ENDBRANCH   5   7
ENDBRANCH   4   5
ENDBRANCH   2   4
TORSDOF 4
ENDMDL
MODEL 4
REMARK VINA RESULT:      -3.9     11.431     12.593
REMARK  4 active torsions:
REMARK  status: ('A' for Active; 'I' for Inactive)
REMARK    1  A    between atoms: C2_2  and  C6_6 
REMARK    2  A    between atoms: C6_6  and  C8_8 
REMARK    3  A    between atoms: C7_7  and  C8_8 
REMARK    4  A    between atoms: C7_7  and  C9_9 
ROOT
HETATM    1  C1  UNL     1     -32.776   8.223   1.144  1.00 20.00    -0.111 C 
HETATM    2  C2  UNL     1     -32.672   7.343   1.955  1.00 20.00    -0.107 C 
HETATM    3  C3  UNL     1     -32.905   9.296   0.158  1.00 20.00     0.112 C 
ENDROOT
BRANCH   2   4
HETATM    4  C6  UNL     1     -32.547   6.261   2.943  1.00 20.00     0.098 C 
BRANCH   4   5
HETATM    5  C8  UNL     1     -33.515   5.088   2.699  1.00 20.00    -0.006 C 
HETATM    6  C4  UNL     1     -32.930   4.090   1.690  1.00 20.00     0.011 C 
BRANCH   5   7
HETATM    7  C7  UNL     1     -33.952   4.334   3.979  1.00 20.00     0.020 C 
BRANCH   7   8
HETATM    8  C9  UNL     1     -35.038   5.011   4.820  1.00 20.00     0.054 C 
HETATM    9  C5  UNL     1     -36.031   5.765   3.944  1.00 20.00     0.022 C 
HETATM   10 BR10 UNL     1     -34.234   6.301   6.058  1.00 20.00    -0.092 Br
ENDBRANCH   7   8
ENDBRANCH   5   7
ENDBRANCH   4   5
ENDBRANCH   2   4
TORSDOF 4
ENDMDL
MODEL 5
REMARK VINA RESULT:      -3.9      1.834      2.266
REMARK  4 active torsions:
REMARK  status: ('A' for Active; 'I' for Inactive)
REMARK    1  A    between atoms: C2_2  and  C6_6 
REMARK    2  A    between atoms: C6_6  and  C8_8 
REMARK    3  A    between atoms: C7_7  and  C8_8 
REMARK    4  A    between atoms: C7_7  and  C9_9 
ROOT
HETATM    1  C1  UNL     1     -32.993  17.748  -1.592  1.00 20.00    -0.111 C 
HETATM    2  C2  UNL     1     -33.789  16.910  -1.921  1.00 20.00    -0.107 C 
HETATM    3  C3  UNL     1     -32.027  18.770  -1.193  1.00 20.00     0.112 C 
ENDROOT
BRANCH   2   4
HETATM    4  C6  UNL     1     -34.759  15.883  -2.329  1.00 20.00     0.098 C 
BRANCH   4   5
HETATM    5  C8  UNL     1     -34.468  15.275  -3.715  1.00 20.00    -0.006 C 
HETATM    6  C4  UNL     1     -32.956  15.174  -3.967  1.00 20.00     0.011 C 
BRANCH   5   7
HETATM    7  C7  UNL     1     -35.128  13.898  -3.968  1.00 20.00     0.020 C 
BRANCH   7   8
HETATM    8  C9  UNL     1     -36.243  13.869  -5.017  1.00 20.00     0.054 C 
HETATM    9  C5  UNL     1     -35.813  14.564  -6.304  1.00 20.00     0.022 C 
HETATM   10 BR10 UNL     1     -37.835  14.792  -4.344  1.00 20.00    -0.092 Br
ENDBRANCH   7   8
ENDBRANCH   5   7
ENDBRANCH   4   5
ENDBRANCH   2   4
TORSDOF 4
ENDMDL
MODEL 6
REMARK VINA RESULT:      -3.7      3.163      5.992
REMARK  4 active torsions:
REMARK  status: ('A' for Active; 'I' for Inactive)
REMARK    1  A    between atoms: C2_2  and  C6_6 
REMARK    2  A    between atoms: C6_6  and  C8_8 
REMARK    3  A    between atoms: C7_7  and  C8_8 
REMARK    4  A    between atoms: C7_7  and  C9_9 
ROOT
HETATM    1  C1  UNL     1     -34.748  15.216  -2.992  1.00 20.00    -0.111 C 
HETATM    2  C2  UNL     1     -34.649  16.118  -2.205  1.00 20.00    -0.107 C 
HETATM    3  C3  UNL     1     -34.866  14.119  -3.952  1.00 20.00     0.112 C 
ENDROOT
BRANCH   2   4
HETATM    4  C6  UNL     1     -34.536  17.224  -1.243  1.00 20.00     0.098 C 
BRANCH   4   5
HETATM    5  C8  UNL     1     -33.150  17.897  -1.237  1.00 20.00    -0.006 C 
HETATM    6  C4  UNL     1     -32.682  18.211  -2.666  1.00 20.00     0.011 C 
BRANCH   5   7
HETATM    7  C7  UNL     1     -33.057  19.176  -0.369  1.00 20.00     0.020 C 
BRANCH   7   8
HETATM    8  C9  UNL     1     -32.208  19.067   0.901  1.00 20.00     0.054 C 
HETATM    9  C5  UNL     1     -30.899  18.333   0.633  1.00 20.00     0.022 C 
HETATM   10 BR10 UNL     1     -33.178  18.073   2.284  1.00 20.00    -0.092 Br
ENDBRANCH   7   8
ENDBRANCH   5   7
ENDBRANCH   4   5
ENDBRANCH   2   4
TORSDOF 4
ENDMDL
MODEL 7
REMARK VINA RESULT:      -3.7      1.366      1.796
REMARK  4 active torsions:
REMARK  status: ('A' for Active; 'I' for Inactive)
REMARK    1  A    between atoms: C2_2  and  C6_6 
REMARK    2  A    between atoms: C6_6  and  C8_8 
REMARK    3  A    between atoms: C7_7  and  C8_8 
REMARK    4  A    between atoms: C7_7  and  C9_9 
ROOT
HETATM    1  C1  UNL     1     -34.659  16.586  -1.743  1.00 20.00    -0.111 C 
HETATM    2  C2  UNL     1     -33.923  16.164  -2.594  1.00 20.00    -0.107 C 
HETATM    3  C3  UNL     1     -35.558  17.100  -0.711  1.00 20.00     0.112 C 
ENDROOT
BRANCH   2   4
HETATM    4  C6  UNL     1     -33.018  15.654  -3.634  1.00 20.00     0.098 C 
BRANCH   4   5
HETATM    5  C8  UNL     1     -33.656  14.577  -4.533  1.00 20.00    -0.006 C 
HETATM    6  C4  UNL     1     -34.897  13.966  -3.866  1.00 20.00     0.011 C 
BRANCH   5   7
HETATM    7  C7  UNL     1     -34.018  15.058  -5.960  1.00 20.00     0.020 C 
BRANCH   7   8
HETATM    8  C9  UNL     1     -35.507  15.287  -6.234  1.00 20.00     0.054 C 
HETATM    9  C5  UNL     1     -35.835  15.105  -7.711  1.00 20.00     0.022 C 
HETATM   10 BR10 UNL     1     -36.019  17.110  -5.729  1.00 20.00    -0.092 Br
ENDBRANCH   7   8
ENDBRANCH   5   7
ENDBRANCH   4   5
ENDBRANCH   2   4
TORSDOF 4
ENDMDL
MODEL 8
REMARK VINA RESULT:      -3.7      1.806      2.602
REMARK  4 active torsions:
REMARK  status: ('A' for Active; 'I' for Inactive)
REMARK    1  A    between atoms: C2_2  and  C6_6 
REMARK    2  A    between atoms: C6_6  and  C8_8 
REMARK    3  A    between atoms: C7_7  and  C8_8 
REMARK    4  A    between atoms: C7_7  and  C9_9 
ROOT
HETATM    1  C1  UNL     1     -34.901  17.057  -1.011  1.00 20.00    -0.111 C 
HETATM    2  C2  UNL     1     -34.138  16.778  -1.896  1.00 20.00    -0.107 C 
HETATM    3  C3  UNL     1     -35.827  17.398   0.068  1.00 20.00     0.112 C 
ENDROOT
BRANCH   2   4
HETATM    4  C6  UNL     1     -33.206  16.429  -2.978  1.00 20.00     0.098 C 
BRANCH   4   5
HETATM    5  C8  UNL     1     -33.768  15.389  -3.967  1.00 20.00    -0.006 C 
HETATM    6  C4  UNL     1     -32.676  14.408  -4.416  1.00 20.00     0.011 C 
BRANCH   5   7
HETATM    7  C7  UNL     1     -34.993  14.598  -3.445  1.00 20.00     0.020 C 
BRANCH   7   8
HETATM    8  C9  UNL     1     -36.255  14.666  -4.309  1.00 20.00     0.054 C 
HETATM    9  C5  UNL     1     -35.928  14.485  -5.786  1.00 20.00     0.022 C 
HETATM   10 BR10 UNL     1     -37.129  16.408  -4.101  1.00 20.00    -0.092 Br
ENDBRANCH   7   8
ENDBRANCH   5   7
ENDBRANCH   4   5
ENDBRANCH   2   4
TORSDOF 4
ENDMDL
MODEL 9
REMARK VINA RESULT:      -3.6      1.970      4.404
REMARK  4 active torsions:
REMARK  status: ('A' for Active; 'I' for Inactive)
REMARK    1  A    between atoms: C2_2  and  C6_6 
REMARK    2  A    between atoms: C6_6  and  C8_8 
REMARK    3  A    between atoms: C7_7  and  C8_8 
REMARK    4  A    between atoms: C7_7  and  C9_9 
ROOT
HETATM    1  C1  UNL     1     -37.407  14.452  -4.250  1.00 20.00    -0.111 C 
HETATM    2  C2  UNL     1     -36.241  14.176  -4.161  1.00 20.00    -0.107 C 
HETATM    3  C3  UNL     1     -38.827  14.784  -4.359  1.00 20.00     0.112 C 
ENDROOT
BRANCH   2   4
HETATM    4  C6  UNL     1     -34.813  13.842  -4.060  1.00 20.00     0.098 C 
BRANCH   4   5
HETATM    5  C8  UNL     1     -33.882  14.934  -4.621  1.00 20.00    -0.006 C 
HETATM    6  C4  UNL     1     -34.064  15.089  -6.137  1.00 20.00     0.011 C 
BRANCH   5   7
HETATM    7  C7  UNL     1     -34.025  16.317  -3.939  1.00 20.00     0.020 C 
BRANCH   7   8
HETATM    8  C9  UNL     1     -33.774  16.351  -2.428  1.00 20.00     0.054 C 
HETATM    9  C5  UNL     1     -35.077  16.508  -1.652  1.00 20.00     0.022 C 
HETATM   10 BR10 UNL     1     -32.617  17.864  -1.965  1.00 20.00    -0.092 Br
ENDBRANCH   7   8
ENDBRANCH   5   7
ENDBRANCH   4   5
ENDBRANCH   2   4
TORSDOF 4
ENDMDL
