MODEL 1
REMARK VINA RESULT:      -5.1      0.000      0.000
REMARK  1 active torsions:
REMARK  status: ('A' for Active; 'I' for Inactive)
REMARK    1  A    between atoms: C7_7  and  C8_8 
ROOT
HETATM    1  C1  UNL     1     -37.033  14.460  -4.490  1.00 20.00     0.064 C 
HETATM    2  C2  UNL     1     -35.807  16.661  -4.466  1.00 20.00     0.020 C 
HETATM    3  C3  UNL     1     -34.630  14.545  -3.744  1.00 20.00     0.020 C 
HETATM    4  C4  UNL     1     -34.458  17.367  -4.607  1.00 20.00     0.015 C 
HETATM    5  C5  UNL     1     -33.278  15.247  -3.883  1.00 20.00     0.015 C 
HETATM    6  C6  UNL     1     -35.682  15.147  -4.683  1.00 20.00     0.093 C 
HETATM    7  C7  UNL     1     -33.370  16.768  -3.707  1.00 20.00     0.093 C 
HETATM    8  N9  UNL     1     -38.059  13.939  -4.344  1.00 20.00    -0.197 NA
ENDROOT
BRANCH   7   9
HETATM    9  C8  UNL     1     -33.597  17.124  -2.294  1.00 20.00     0.391 C 
HETATM   10  F10 UNL     1     -34.295  18.267  -2.215  1.00 20.00    -0.171 F 
HETATM   11  F11 UNL     1     -34.287  16.150  -1.680  1.00 20.00    -0.171 F 
HETATM   12  F12 UNL     1     -32.423  17.287  -1.667  1.00 20.00    -0.171 F 
ENDBRANCH   7   9
TORSDOF 1
ENDMDL
MODEL 2
REMARK VINA RESULT:      -5.1      0.028      1.093
REMARK  1 active torsions:
REMARK  status: ('A' for Active; 'I' for Inactive)
REMARK    1  A    between atoms: C7_7  and  C8_8 
ROOT
HETATM    1  C1  UNL     1     -37.029  14.457  -4.484  1.00 20.00     0.064 C 
HETATM    2  C2  UNL     1     -35.812  16.662  -4.460  1.00 20.00     0.020 C 
HETATM    3  C3  UNL     1     -34.632  14.554  -3.721  1.00 20.00     0.020 C 
HETATM    4  C4  UNL     1     -34.465  17.374  -4.594  1.00 20.00     0.015 C 
HETATM    5  C5  UNL     1     -33.282  15.262  -3.853  1.00 20.00     0.015 C 
HETATM    6  C6  UNL     1     -35.679  15.149  -4.670  1.00 20.00     0.093 C 
HETATM    7  C7  UNL     1     -33.382  16.783  -3.683  1.00 20.00     0.093 C 
HETATM    8  N9  UNL     1     -38.054  13.932  -4.344  1.00 20.00    -0.197 NA
ENDROOT
BRANCH   7   9
HETATM    9  C8  UNL     1     -33.621  17.143  -2.273  1.00 20.00     0.391 C 
HETATM   10  F10 UNL     1     -32.451  17.305  -1.637  1.00 20.00    -0.171 F 
HETATM   11  F11 UNL     1     -34.316  18.289  -2.203  1.00 20.00    -0.171 F 
HETATM   12  F12 UNL     1     -34.317  16.173  -1.663  1.00 20.00    -0.171 F 
ENDBRANCH   7   9
TORSDOF 1
ENDMDL
MODEL 3
REMARK VINA RESULT:      -5.1      1.536      2.193
REMARK  1 active torsions:
REMARK  status: ('A' for Active; 'I' for Inactive)
REMARK    1  A    between atoms: C7_7  and  C8_8 
ROOT
HETATM    1  C1  UNL     1     -36.629  14.266  -4.052  1.00 20.00     0.064 C 
HETATM    2  C2  UNL     1     -34.245  14.972  -4.453  1.00 20.00     0.020 C 
HETATM    3  C3  UNL     1     -35.583  16.025  -2.586  1.00 20.00     0.020 C 
HETATM    4  C4  UNL     1     -32.952  15.500  -3.829  1.00 20.00     0.015 C 
HETATM    5  C5  UNL     1     -34.292  16.555  -1.958  1.00 20.00     0.015 C 
HETATM    6  C6  UNL     1     -35.335  14.747  -3.398  1.00 20.00     0.093 C 
HETATM    7  C7  UNL     1     -33.166  16.759  -2.980  1.00 20.00     0.093 C 
HETATM    8  N9  UNL     1     -37.611  13.899  -4.550  1.00 20.00    -0.197 NA
ENDROOT
BRANCH   7   9
HETATM    9  C8  UNL     1     -33.432  17.933  -3.831  1.00 20.00     0.391 C 
HETATM   10  F10 UNL     1     -32.312  18.656  -3.977  1.00 20.00    -0.171 F 
HETATM   11  F11 UNL     1     -33.855  17.537  -5.041  1.00 20.00    -0.171 F 
HETATM   12  F12 UNL     1     -34.376  18.703  -3.271  1.00 20.00    -0.171 F 
ENDBRANCH   7   9
TORSDOF 1
ENDMDL
MODEL 4
REMARK VINA RESULT:      -4.9     10.934     12.394
REMARK  1 active torsions:
REMARK  status: ('A' for Active; 'I' for Inactive)
REMARK    1  A    between atoms: C7_7  and  C8_8 
ROOT
HETATM    1  C1  UNL     1     -42.717   4.295  -1.950  1.00 20.00     0.064 C 
HETATM    2  C2  UNL     1     -40.978   5.786  -0.903  1.00 20.00     0.020 C 
HETATM    3  C3  UNL     1     -43.417   6.074  -0.313  1.00 20.00     0.020 C 
HETATM    4  C4  UNL     1     -40.580   6.613   0.321  1.00 20.00     0.015 C 
HETATM    5  C5  UNL     1     -43.025   6.901   0.913  1.00 20.00     0.015 C 
HETATM    6  C6  UNL     1     -42.320   5.074  -0.697  1.00 20.00     0.093 C 
HETATM    7  C7  UNL     1     -41.669   7.601   0.756  1.00 20.00     0.093 C 
HETATM    8  N9  UNL     1     -43.017   3.702  -2.901  1.00 20.00    -0.197 NA
ENDROOT
BRANCH   7   9
HETATM    9  C8  UNL     1     -41.764   8.733  -0.185  1.00 20.00     0.391 C 
HETATM   10  F10 UNL     1     -41.177   8.413  -1.347  1.00 20.00    -0.171 F 
HETATM   11  F11 UNL     1     -43.052   9.032  -0.415  1.00 20.00    -0.171 F 
HETATM   12  F12 UNL     1     -41.153   9.810   0.329  1.00 20.00    -0.171 F 
ENDBRANCH   7   9
TORSDOF 1
ENDMDL
MODEL 5
REMARK VINA RESULT:      -4.8      3.142      3.948
REMARK  1 active torsions:
REMARK  status: ('A' for Active; 'I' for Inactive)
REMARK    1  A    between atoms: C7_7  and  C8_8 
ROOT
HETATM    1  C1  UNL     1     -35.127  17.206  -1.672  1.00 20.00     0.064 C 
HETATM    2  C2  UNL     1     -35.579  15.232  -3.169  1.00 20.00     0.020 C 
HETATM    3  C3  UNL     1     -33.330  16.382  -3.230  1.00 20.00     0.020 C 
HETATM    4  C4  UNL     1     -34.986  14.025  -3.898  1.00 20.00     0.015 C 
HETATM    5  C5  UNL     1     -32.732  15.177  -3.959  1.00 20.00     0.015 C 
HETATM    6  C6  UNL     1     -34.519  15.979  -2.350  1.00 20.00     0.093 C 
HETATM    7  C7  UNL     1     -33.771  14.383  -4.762  1.00 20.00     0.093 C 
HETATM    8  N9  UNL     1     -35.589  18.137  -1.156  1.00 20.00    -0.197 NA
ENDROOT
BRANCH   7   9
HETATM    9  C8  UNL     1     -34.181  15.122  -5.971  1.00 20.00     0.391 C 
HETATM   10  F10 UNL     1     -33.374  14.809  -6.995  1.00 20.00    -0.171 F 
HETATM   11  F11 UNL     1     -35.443  14.804  -6.297  1.00 20.00    -0.171 F 
HETATM   12  F12 UNL     1     -34.108  16.443  -5.749  1.00 20.00    -0.171 F 
ENDBRANCH   7   9
TORSDOF 1
ENDMDL
MODEL 6
REMARK VINA RESULT:      -4.7      1.222      1.555
REMARK  1 active torsions:
REMARK  status: ('A' for Active; 'I' for Inactive)
REMARK    1  A    between atoms: C7_7  and  C8_8 
ROOT
HETATM    1  C1  UNL     1     -37.730  14.874  -4.445  1.00 20.00     0.064 C 
HETATM    2  C2  UNL     1     -36.409  16.648  -3.239  1.00 20.00     0.020 C 
HETATM    3  C3  UNL     1     -35.371  15.379  -5.162  1.00 20.00     0.020 C 
HETATM    4  C4  UNL     1     -35.313  17.710  -3.344  1.00 20.00     0.015 C 
HETATM    5  C5  UNL     1     -34.273  16.440  -5.271  1.00 20.00     0.015 C 
HETATM    6  C6  UNL     1     -36.667  15.962  -4.587  1.00 20.00     0.093 C 
HETATM    7  C7  UNL     1     -34.011  17.171  -3.949  1.00 20.00     0.093 C 
HETATM    8  N9  UNL     1     -38.539  14.049  -4.336  1.00 20.00    -0.197 NA
ENDROOT
BRANCH   7   9
HETATM    9  C8  UNL     1     -33.305  16.298  -2.992  1.00 20.00     0.391 C 
HETATM   10  F10 UNL     1     -32.526  17.036  -2.187  1.00 20.00    -0.171 F 
HETATM   11  F11 UNL     1     -34.192  15.625  -2.244  1.00 20.00    -0.171 F 
HETATM   12  F12 UNL     1     -32.537  15.419  -3.653  1.00 20.00    -0.171 F 
ENDBRANCH   7   9
TORSDOF 1
ENDMDL
MODEL 7
REMARK VINA RESULT:      -4.7      1.565      2.362
REMARK  1 active torsions:
REMARK  status: ('A' for Active; 'I' for Inactive)
REMARK    1  A    between atoms: C7_7  and  C8_8 
ROOT
HETATM    1  C1  UNL     1     -35.883  14.759  -5.479  1.00 20.00     0.064 C 
HETATM    2  C2  UNL     1     -35.086  15.115  -3.116  1.00 20.00     0.020 C 
HETATM    3  C3  UNL     1     -35.191  17.059  -4.726  1.00 20.00     0.020 C 
HETATM    4  C4  UNL     1     -34.982  16.089  -1.941  1.00 20.00     0.015 C 
HETATM    5  C5  UNL     1     -35.087  18.038  -3.554  1.00 20.00     0.015 C 
HETATM    6  C6  UNL     1     -35.835  15.734  -4.303  1.00 20.00     0.093 C 
HETATM    7  C7  UNL     1     -34.374  17.440  -2.335  1.00 20.00     0.093 C 
HETATM    8  N9  UNL     1     -35.921  14.018  -6.371  1.00 20.00    -0.197 NA
ENDROOT
BRANCH   7   9
HETATM    9  C8  UNL     1     -32.924  17.318  -2.578  1.00 20.00     0.391 C 
HETATM   10  F10 UNL     1     -32.636  16.085  -3.022  1.00 20.00    -0.171 F 
HETATM   11  F11 UNL     1     -32.535  18.214  -3.497  1.00 20.00    -0.171 F 
HETATM   12  F12 UNL     1     -32.247  17.539  -1.441  1.00 20.00    -0.171 F 
ENDBRANCH   7   9
TORSDOF 1
ENDMDL
MODEL 8
REMARK VINA RESULT:      -4.6      2.305      2.882
REMARK  1 active torsions:
REMARK  status: ('A' for Active; 'I' for Inactive)
REMARK    1  A    between atoms: C7_7  and  C8_8 
ROOT
HETATM    1  C1  UNL     1     -37.978  15.124  -4.369  1.00 20.00     0.064 C 
HETATM    2  C2  UNL     1     -35.842  15.078  -3.034  1.00 20.00     0.020 C 
HETATM    3  C3  UNL     1     -35.839  15.956  -5.404  1.00 20.00     0.020 C 
HETATM    4  C4  UNL     1     -34.481  15.732  -2.787  1.00 20.00     0.015 C 
HETATM    5  C5  UNL     1     -34.478  16.613  -5.161  1.00 20.00     0.015 C 
HETATM    6  C6  UNL     1     -36.646  15.825  -4.106  1.00 20.00     0.093 C 
HETATM    7  C7  UNL     1     -33.660  15.912  -4.069  1.00 20.00     0.093 C 
HETATM    8  N9  UNL     1     -38.990  14.593  -4.567  1.00 20.00    -0.197 NA
ENDROOT
BRANCH   7   9
HETATM    9  C8  UNL     1     -33.137  14.619  -4.548  1.00 20.00     0.391 C 
HETATM   10  F10 UNL     1     -33.845  13.612  -4.016  1.00 20.00    -0.171 F 
HETATM   11  F11 UNL     1     -33.226  14.555  -5.885  1.00 20.00    -0.171 F 
HETATM   12  F12 UNL     1     -31.852  14.482  -4.191  1.00 20.00    -0.171 F 
ENDBRANCH   7   9
TORSDOF 1
ENDMDL
MODEL 9
REMARK VINA RESULT:      -4.6      1.524      2.071
REMARK  1 active torsions:
REMARK  status: ('A' for Active; 'I' for Inactive)
REMARK    1  A    between atoms: C7_7  and  C8_8 
ROOT
HETATM    1  C1  UNL     1     -35.537  13.873  -4.348  1.00 20.00     0.064 C 
HETATM    2  C2  UNL     1     -36.271  16.152  -3.569  1.00 20.00     0.020 C 
HETATM    3  C3  UNL     1     -33.867  15.428  -3.286  1.00 20.00     0.020 C 
HETATM    4  C4  UNL     1     -35.864  17.608  -3.329  1.00 20.00     0.015 C 
HETATM    5  C5  UNL     1     -33.455  16.882  -3.046  1.00 20.00     0.015 C 
HETATM    6  C6  UNL     1     -35.120  15.331  -4.164  1.00 20.00     0.093 C 
HETATM    7  C7  UNL     1     -34.593  17.744  -2.483  1.00 20.00     0.093 C 
HETATM    8  N9  UNL     1     -35.854  12.765  -4.489  1.00 20.00    -0.197 NA
ENDROOT
BRANCH   7   9
HETATM    9  C8  UNL     1     -34.859  17.411  -1.071  1.00 20.00     0.391 C 
HETATM   10  F10 UNL     1     -35.221  16.124  -0.963  1.00 20.00    -0.171 F 
HETATM   11  F11 UNL     1     -33.756  17.617  -0.335  1.00 20.00    -0.171 F 
HETATM   12  F12 UNL     1     -35.849  18.181  -0.596  1.00 20.00    -0.171 F 
ENDBRANCH   7   9
TORSDOF 1
ENDMDL
