MODEL 1
REMARK VINA RESULT:      -3.9      0.000      0.000
REMARK  3 active torsions:
REMARK  status: ('A' for Active; 'I' for Inactive)
REMARK    1  A    between atoms: C6_6  and  C7_7 
REMARK    2  A    between atoms: C6_6  and  C8_8 
REMARK    3  A    between atoms: C7_7  and  C9_9 
ROOT
HETATM    1  C1  UNL     1     -32.614  14.728  -4.234  1.00 20.00     0.011 C 
HETATM    2  C7  UNL     1     -34.073  15.217  -4.191  1.00 20.00    -0.010 C 
ENDROOT
BRANCH   2   3
HETATM    3  C6  UNL     1     -35.032  14.023  -3.912  1.00 20.00     0.024 C 
BRANCH   3   4
HETATM    4  C8  UNL     1     -36.191  13.827  -4.906  1.00 20.00     0.078 C 
HETATM    5  C2  UNL     1     -35.878  14.494  -6.243  1.00 20.00     0.026 C 
HETATM    6 CL10 UNL     1     -37.714  14.512  -4.266  1.00 20.00    -0.125 Cl
ENDBRANCH   3   4
ENDBRANCH   2   3
BRANCH   2   7
HETATM    7  C9  UNL     1     -34.284  16.429  -3.197  1.00 20.00    -0.048 C 
HETATM    8  C3  UNL     1     -35.115  16.038  -1.960  1.00 20.00     0.015 C 
HETATM    9  C4  UNL     1     -32.919  16.966  -2.709  1.00 20.00     0.015 C 
HETATM   10  C5  UNL     1     -34.998  17.600  -3.908  1.00 20.00     0.015 C 
ENDBRANCH   2   7
TORSDOF 3
ENDMDL
MODEL 2
REMARK VINA RESULT:      -3.7      2.072      3.866
REMARK  3 active torsions:
REMARK  status: ('A' for Active; 'I' for Inactive)
REMARK    1  A    between atoms: C6_6  and  C7_7 
REMARK    2  A    between atoms: C6_6  and  C8_8 
REMARK    3  A    between atoms: C7_7  and  C9_9 
ROOT
HETATM    1  C1  UNL     1     -33.073  14.668  -4.350  1.00 20.00     0.011 C 
HETATM    2  C7  UNL     1     -34.353  14.878  -3.522  1.00 20.00    -0.010 C 
ENDROOT
BRANCH   2   3
HETATM    3  C6  UNL     1     -34.161  16.060  -2.527  1.00 20.00     0.024 C 
BRANCH   3   4
HETATM    4  C8  UNL     1     -33.052  17.072  -2.869  1.00 20.00     0.078 C 
HETATM    5  C2  UNL     1     -32.582  17.805  -1.614  1.00 20.00     0.026 C 
HETATM    6 CL10 UNL     1     -33.621  18.278  -4.059  1.00 20.00    -0.125 Cl
ENDBRANCH   3   4
ENDBRANCH   2   3
BRANCH   2   7
HETATM    7  C9  UNL     1     -35.646  15.025  -4.419  1.00 20.00    -0.048 C 
HETATM    8  C3  UNL     1     -36.406  13.694  -4.578  1.00 20.00     0.015 C 
HETATM    9  C4  UNL     1     -36.614  16.060  -3.801  1.00 20.00     0.015 C 
HETATM   10  C5  UNL     1     -35.278  15.542  -5.828  1.00 20.00     0.015 C 
ENDBRANCH   2   7
TORSDOF 3
ENDMDL
MODEL 3
REMARK VINA RESULT:      -3.7      2.086      3.909
REMARK  3 active torsions:
REMARK  status: ('A' for Active; 'I' for Inactive)
REMARK    1  A    between atoms: C6_6  and  C7_7 
REMARK    2  A    between atoms: C6_6  and  C8_8 
REMARK    3  A    between atoms: C7_7  and  C9_9 
ROOT
HETATM    1  C1  UNL     1     -33.093  14.688  -4.340  1.00 20.00     0.011 C 
HETATM    2  C7  UNL     1     -34.366  14.908  -3.503  1.00 20.00    -0.010 C 
ENDROOT
BRANCH   2   3
HETATM    3  C6  UNL     1     -34.159  16.086  -2.508  1.00 20.00     0.024 C 
BRANCH   3   4
HETATM    4  C8  UNL     1     -33.052  17.097  -2.862  1.00 20.00     0.078 C 
HETATM    5  C2  UNL     1     -32.563  17.825  -1.613  1.00 20.00     0.026 C 
HETATM    6 CL10 UNL     1     -33.635  18.308  -4.041  1.00 20.00    -0.125 Cl
ENDBRANCH   3   4
ENDBRANCH   2   3
BRANCH   2   7
HETATM    7  C9  UNL     1     -35.664  15.067  -4.393  1.00 20.00    -0.048 C 
HETATM    8  C3  UNL     1     -36.676  16.058  -3.786  1.00 20.00     0.015 C 
HETATM    9  C4  UNL     1     -35.287  15.570  -5.805  1.00 20.00     0.015 C 
HETATM   10  C5  UNL     1     -36.371  13.706  -4.576  1.00 20.00     0.015 C 
ENDBRANCH   2   7
TORSDOF 3
ENDMDL
MODEL 4
REMARK VINA RESULT:      -3.6      2.113      4.113
REMARK  3 active torsions:
REMARK  status: ('A' for Active; 'I' for Inactive)
REMARK    1  A    between atoms: C6_6  and  C7_7 
REMARK    2  A    between atoms: C6_6  and  C8_8 
REMARK    3  A    between atoms: C7_7  and  C9_9 
ROOT
HETATM    1  C1  UNL     1     -33.024  17.277  -2.652  1.00 20.00     0.011 C 
HETATM    2  C7  UNL     1     -33.907  16.021  -2.548  1.00 20.00    -0.010 C 
ENDROOT
BRANCH   2   3
HETATM    3  C6  UNL     1     -35.205  16.341  -1.751  1.00 20.00     0.024 C 
BRANCH   3   4
HETATM    4  C8  UNL     1     -35.162  17.579  -0.837  1.00 20.00     0.078 C 
HETATM    5  C2  UNL     1     -35.510  17.203   0.602  1.00 20.00     0.026 C 
HETATM    6 CL10 UNL     1     -36.305  18.835  -1.394  1.00 20.00    -0.125 Cl
ENDBRANCH   3   4
ENDBRANCH   2   3
BRANCH   2   7
HETATM    7  C9  UNL     1     -34.189  15.353  -3.953  1.00 20.00    -0.048 C 
HETATM    8  C3  UNL     1     -33.015  14.481  -4.436  1.00 20.00     0.015 C 
HETATM    9  C4  UNL     1     -35.450  14.462  -3.879  1.00 20.00     0.015 C 
HETATM   10  C5  UNL     1     -34.464  16.431  -5.025  1.00 20.00     0.015 C 
ENDBRANCH   2   7
TORSDOF 3
ENDMDL
MODEL 5
REMARK VINA RESULT:      -3.6      1.458      2.586
REMARK  3 active torsions:
REMARK  status: ('A' for Active; 'I' for Inactive)
REMARK    1  A    between atoms: C6_6  and  C7_7 
REMARK    2  A    between atoms: C6_6  and  C8_8 
REMARK    3  A    between atoms: C7_7  and  C9_9 
ROOT
HETATM    1  C1  UNL     1     -35.261  16.291  -1.544  1.00 20.00     0.011 C 
HETATM    2  C7  UNL     1     -35.179  15.722  -2.972  1.00 20.00    -0.010 C 
ENDROOT
BRANCH   2   3
HETATM    3  C6  UNL     1     -36.453  16.106  -3.778  1.00 20.00     0.024 C 
BRANCH   3   4
HETATM    4  C8  UNL     1     -37.098  14.986  -4.616  1.00 20.00     0.078 C 
HETATM    5  C2  UNL     1     -38.550  14.763  -4.198  1.00 20.00     0.026 C 
HETATM    6 CL10 UNL     1     -36.206  13.447  -4.435  1.00 20.00    -0.125 Cl
ENDBRANCH   3   4
ENDBRANCH   2   3
BRANCH   2   7
HETATM    7  C9  UNL     1     -33.836  16.112  -3.710  1.00 20.00    -0.048 C 
HETATM    8  C3  UNL     1     -33.070  14.880  -4.228  1.00 20.00     0.015 C 
HETATM    9  C4  UNL     1     -34.134  17.034  -4.915  1.00 20.00     0.015 C 
HETATM   10  C5  UNL     1     -32.901  16.899  -2.765  1.00 20.00     0.015 C 
ENDBRANCH   2   7
TORSDOF 3
ENDMDL
MODEL 6
REMARK VINA RESULT:      -3.6      1.469      2.564
REMARK  3 active torsions:
REMARK  status: ('A' for Active; 'I' for Inactive)
REMARK    1  A    between atoms: C6_6  and  C7_7 
REMARK    2  A    between atoms: C6_6  and  C8_8 
REMARK    3  A    between atoms: C7_7  and  C9_9 
ROOT
HETATM    1  C1  UNL     1     -35.276  16.262  -1.563  1.00 20.00     0.011 C 
HETATM    2  C7  UNL     1     -35.196  15.717  -3.000  1.00 20.00    -0.010 C 
ENDROOT
BRANCH   2   3
HETATM    3  C6  UNL     1     -36.482  16.096  -3.790  1.00 20.00     0.024 C 
BRANCH   3   4
HETATM    4  C8  UNL     1     -37.128  14.976  -4.627  1.00 20.00     0.078 C 
HETATM    5  C2  UNL     1     -38.576  14.748  -4.202  1.00 20.00     0.026 C 
HETATM    6 CL10 UNL     1     -36.230  13.439  -4.454  1.00 20.00    -0.125 Cl
ENDBRANCH   3   4
ENDBRANCH   2   3
BRANCH   2   7
HETATM    7  C9  UNL     1     -33.864  16.137  -3.741  1.00 20.00    -0.048 C 
HETATM    8  C3  UNL     1     -34.130  17.036  -4.963  1.00 20.00     0.015 C 
HETATM    9  C4  UNL     1     -32.931  16.903  -2.775  1.00 20.00     0.015 C 
HETATM   10  C5  UNL     1     -33.087  14.890  -4.218  1.00 20.00     0.015 C 
ENDBRANCH   2   7
TORSDOF 3
ENDMDL
MODEL 7
REMARK VINA RESULT:      -3.5     17.763     18.521
REMARK  3 active torsions:
REMARK  status: ('A' for Active; 'I' for Inactive)
REMARK    1  A    between atoms: C6_6  and  C7_7 
REMARK    2  A    between atoms: C6_6  and  C8_8 
REMARK    3  A    between atoms: C7_7  and  C9_9 
ROOT
HETATM    1  C1  UNL     1     -24.749  19.089   9.721  1.00 20.00     0.011 C 
HETATM    2  C7  UNL     1     -24.664  17.592  10.066  1.00 20.00    -0.010 C 
ENDROOT
BRANCH   2   3
HETATM    3  C6  UNL     1     -23.435  16.947   9.361  1.00 20.00     0.024 C 
BRANCH   3   4
HETATM    4  C8  UNL     1     -22.493  17.906   8.610  1.00 20.00     0.078 C 
HETATM    5  C2  UNL     1     -21.750  17.173   7.495  1.00 20.00     0.026 C 
HETATM    6 CL10 UNL     1     -21.293  18.632   9.718  1.00 20.00    -0.125 Cl
ENDBRANCH   3   4
ENDBRANCH   2   3
BRANCH   2   7
HETATM    7  C9  UNL     1     -24.702  17.319  11.623  1.00 20.00    -0.048 C 
HETATM    8  C3  UNL     1     -24.669  15.816  11.957  1.00 20.00     0.015 C 
HETATM    9  C4  UNL     1     -23.494  17.992  12.315  1.00 20.00     0.015 C 
HETATM   10  C5  UNL     1     -25.975  17.926  12.253  1.00 20.00     0.015 C 
ENDBRANCH   2   7
TORSDOF 3
ENDMDL
MODEL 8
REMARK VINA RESULT:      -3.4      2.002      3.054
REMARK  3 active torsions:
REMARK  status: ('A' for Active; 'I' for Inactive)
REMARK    1  A    between atoms: C6_6  and  C7_7 
REMARK    2  A    between atoms: C6_6  and  C8_8 
REMARK    3  A    between atoms: C7_7  and  C9_9 
ROOT
HETATM    1  C1  UNL     1     -35.984  17.986  -3.722  1.00 20.00     0.011 C 
HETATM    2  C7  UNL     1     -35.402  16.738  -4.408  1.00 20.00    -0.010 C 
ENDROOT
BRANCH   2   3
HETATM    3  C6  UNL     1     -34.559  17.150  -5.649  1.00 20.00     0.024 C 
BRANCH   3   4
HETATM    4  C8  UNL     1     -34.817  16.362  -6.947  1.00 20.00     0.078 C 
HETATM    5  C2  UNL     1     -36.239  15.805  -6.969  1.00 20.00     0.026 C 
HETATM    6 CL10 UNL     1     -33.667  15.004  -7.118  1.00 20.00    -0.125 Cl
ENDBRANCH   3   4
ENDBRANCH   2   3
BRANCH   2   7
HETATM    7  C9  UNL     1     -34.616  15.799  -3.407  1.00 20.00    -0.048 C 
HETATM    8  C3  UNL     1     -34.832  14.304  -3.709  1.00 20.00     0.015 C 
HETATM    9  C4  UNL     1     -33.099  16.089  -3.478  1.00 20.00     0.015 C 
HETATM   10  C5  UNL     1     -35.054  16.065  -1.950  1.00 20.00     0.015 C 
ENDBRANCH   2   7
TORSDOF 3
ENDMDL
MODEL 9
REMARK VINA RESULT:      -3.4      2.200      3.861
REMARK  3 active torsions:
REMARK  status: ('A' for Active; 'I' for Inactive)
REMARK    1  A    between atoms: C6_6  and  C7_7 
REMARK    2  A    between atoms: C6_6  and  C8_8 
REMARK    3  A    between atoms: C7_7  and  C9_9 
ROOT
HETATM    1  C1  UNL     1     -36.224  13.831  -4.632  1.00 20.00     0.011 C 
HETATM    2  C7  UNL     1     -35.429  15.147  -4.571  1.00 20.00    -0.010 C 
ENDROOT
BRANCH   2   3
HETATM    3  C6  UNL     1     -34.145  14.960  -3.712  1.00 20.00     0.024 C 
BRANCH   3   4
HETATM    4  C8  UNL     1     -33.971  15.919  -2.520  1.00 20.00     0.078 C 
HETATM    5  C2  UNL     1     -35.322  16.467  -2.064  1.00 20.00     0.026 C 
HETATM    6 CL10 UNL     1     -32.909  17.293  -2.945  1.00 20.00    -0.125 Cl
ENDBRANCH   3   4
ENDBRANCH   2   3
BRANCH   2   7
HETATM    7  C9  UNL     1     -35.136  15.752  -6.003  1.00 20.00    -0.048 C 
HETATM    8  C3  UNL     1     -34.821  17.259  -5.952  1.00 20.00     0.015 C 
HETATM    9  C4  UNL     1     -33.932  15.031  -6.653  1.00 20.00     0.015 C 
HETATM   10  C5  UNL     1     -36.344  15.542  -6.942  1.00 20.00     0.015 C 
ENDBRANCH   2   7
TORSDOF 3
ENDMDL
