MODEL 1
REMARK VINA RESULT:      -4.9      0.000      0.000
REMARK  2 active torsions:
REMARK  status: ('A' for Active; 'I' for Inactive)
REMARK    1  A    between atoms: C1_1  and  C10_10 
REMARK    2  A    between atoms: C5_5  and  C10_10 
ROOT
HETATM    1  C2  UNL     1     -34.687  15.943  -4.731  1.00 20.00     0.005 C 
HETATM    2  C3  UNL     1     -33.674  15.425  -3.709  1.00 20.00     0.005 C 
HETATM    3  C4  UNL     1     -36.081  16.905  -2.845  1.00 20.00     0.009 C 
HETATM    4  C5  UNL     1     -36.100  16.096  -4.151  1.00 20.00    -0.008 C 
HETATM    5  C6  UNL     1     -33.639  16.263  -2.420  1.00 20.00    -0.015 C 
HETATM    6  C7  UNL     1     -35.060  16.381  -1.820  1.00 20.00    -0.015 C 
HETATM    7  C8  UNL     1     -32.955  17.614  -2.668  1.00 20.00     0.010 C 
HETATM    8  C9  UNL     1     -35.100  17.232  -0.548  1.00 20.00     0.010 C 
ENDROOT
BRANCH   4   9
HETATM    9  C10 UNL     1     -36.782  14.738  -3.965  1.00 20.00     0.074 C 
BRANCH   9  10
HETATM   10  C1  UNL     1     -36.239  13.693  -4.899  1.00 20.00     0.231 C 
HETATM   11  O11 UNL     1     -35.819  12.592  -4.561  1.00 20.00    -0.307 OA
ENDBRANCH   9  10
ENDBRANCH   4   9
TORSDOF 2
ENDMDL
MODEL 2
REMARK VINA RESULT:      -4.9      1.057      1.086
REMARK  2 active torsions:
REMARK  status: ('A' for Active; 'I' for Inactive)
REMARK    1  A    between atoms: C1_1  and  C10_10 
REMARK    2  A    between atoms: C5_5  and  C10_10 
ROOT
HETATM    1  C2  UNL     1     -33.952  16.380  -4.337  1.00 20.00     0.005 C 
HETATM    2  C3  UNL     1     -32.996  16.349  -3.145  1.00 20.00     0.005 C 
HETATM    3  C4  UNL     1     -35.916  16.552  -2.743  1.00 20.00     0.009 C 
HETATM    4  C5  UNL     1     -35.356  15.860  -3.995  1.00 20.00    -0.008 C 
HETATM    5  C6  UNL     1     -33.552  17.074  -1.908  1.00 20.00    -0.015 C 
HETATM    6  C7  UNL     1     -34.950  16.517  -1.546  1.00 20.00    -0.015 C 
HETATM    7  C8  UNL     1     -33.521  18.594  -2.110  1.00 20.00     0.010 C 
HETATM    8  C9  UNL     1     -35.575  17.220  -0.339  1.00 20.00     0.010 C 
ENDROOT
BRANCH   4   9
HETATM    9  C10 UNL     1     -35.371  14.335  -3.854  1.00 20.00     0.074 C 
BRANCH   9  10
HETATM   10  C1  UNL     1     -36.440  13.694  -4.694  1.00 20.00     0.231 C 
HETATM   11  O11 UNL     1     -37.637  13.683  -4.428  1.00 20.00    -0.307 OA
ENDBRANCH   9  10
ENDBRANCH   4   9
TORSDOF 2
ENDMDL
MODEL 3
REMARK VINA RESULT:      -4.7      1.105      1.234
REMARK  2 active torsions:
REMARK  status: ('A' for Active; 'I' for Inactive)
REMARK    1  A    between atoms: C1_1  and  C10_10 
REMARK    2  A    between atoms: C5_5  and  C10_10 
ROOT
HETATM    1  C2  UNL     1     -34.437  16.017  -4.922  1.00 20.00     0.005 C 
HETATM    2  C3  UNL     1     -33.508  15.446  -3.852  1.00 20.00     0.005 C 
HETATM    3  C4  UNL     1     -36.021  16.811  -3.110  1.00 20.00     0.009 C 
HETATM    4  C5  UNL     1     -35.901  16.099  -4.466  1.00 20.00    -0.008 C 
HETATM    5  C6  UNL     1     -33.611  16.188  -2.508  1.00 20.00    -0.015 C 
HETATM    6  C7  UNL     1     -35.084  16.233  -2.035  1.00 20.00    -0.015 C 
HETATM    7  C8  UNL     1     -32.943  17.566  -2.596  1.00 20.00     0.010 C 
HETATM    8  C9  UNL     1     -35.260  16.987  -0.715  1.00 20.00     0.010 C 
ENDROOT
BRANCH   4   9
HETATM    9  C10 UNL     1     -36.561  14.718  -4.441  1.00 20.00     0.074 C 
BRANCH   9  10
HETATM   10  C1  UNL     1     -38.044  14.797  -4.207  1.00 20.00     0.231 C 
HETATM   11  O11 UNL     1     -38.849  13.912  -4.472  1.00 20.00    -0.307 OA
ENDBRANCH   9  10
ENDBRANCH   4   9
TORSDOF 2
ENDMDL
MODEL 4
REMARK VINA RESULT:      -4.7      3.011      5.055
REMARK  2 active torsions:
REMARK  status: ('A' for Active; 'I' for Inactive)
REMARK    1  A    between atoms: C1_1  and  C10_10 
REMARK    2  A    between atoms: C5_5  and  C10_10 
ROOT
HETATM    1  C2  UNL     1     -35.172  18.198  -1.239  1.00 20.00     0.005 C 
HETATM    2  C3  UNL     1     -35.472  16.706  -1.089  1.00 20.00     0.005 C 
HETATM    3  C4  UNL     1     -33.272  17.645  -2.823  1.00 20.00     0.009 C 
HETATM    4  C5  UNL     1     -33.710  18.482  -1.611  1.00 20.00    -0.008 C 
HETATM    5  C6  UNL     1     -35.061  15.884  -2.321  1.00 20.00    -0.015 C 
HETATM    6  C7  UNL     1     -33.576  16.145  -2.668  1.00 20.00    -0.015 C 
HETATM    7  C8  UNL     1     -36.025  16.134  -3.488  1.00 20.00     0.010 C 
HETATM    8  C9  UNL     1     -33.111  15.378  -3.907  1.00 20.00     0.010 C 
ENDROOT
BRANCH   4   9
HETATM    9  C10 UNL     1     -32.775  18.278  -0.415  1.00 20.00     0.074 C 
BRANCH   9  10
HETATM   10  C1  UNL     1     -31.414  18.874  -0.645  1.00 20.00     0.231 C 
HETATM   11  O11 UNL     1     -30.349  18.319  -0.400  1.00 20.00    -0.307 OA
ENDBRANCH   9  10
ENDBRANCH   4   9
TORSDOF 2
ENDMDL
MODEL 5
REMARK VINA RESULT:      -4.4      1.324      2.210
REMARK  2 active torsions:
REMARK  status: ('A' for Active; 'I' for Inactive)
REMARK    1  A    between atoms: C1_1  and  C10_10 
REMARK    2  A    between atoms: C5_5  and  C10_10 
ROOT
HETATM    1  C2  UNL     1     -36.337  16.494  -3.420  1.00 20.00     0.005 C 
HETATM    2  C3  UNL     1     -35.668  17.617  -4.214  1.00 20.00     0.005 C 
HETATM    3  C4  UNL     1     -34.228  16.228  -2.039  1.00 20.00     0.009 C 
HETATM    4  C5  UNL     1     -35.332  15.500  -2.821  1.00 20.00    -0.008 C 
HETATM    5  C6  UNL     1     -34.589  18.361  -3.410  1.00 20.00    -0.015 C 
HETATM    6  C7  UNL     1     -33.558  17.356  -2.842  1.00 20.00    -0.015 C 
HETATM    7  C8  UNL     1     -35.229  19.263  -2.347  1.00 20.00     0.010 C 
HETATM    8  C9  UNL     1     -32.470  18.031  -2.003  1.00 20.00     0.010 C 
ENDROOT
BRANCH   4   9
HETATM    9  C10 UNL     1     -34.750  14.575  -3.894  1.00 20.00     0.074 C 
BRANCH   9  10
HETATM   10  C1  UNL     1     -35.810  13.761  -4.583  1.00 20.00     0.231 C 
HETATM   11  O11 UNL     1     -35.955  12.549  -4.471  1.00 20.00    -0.307 OA
ENDBRANCH   9  10
ENDBRANCH   4   9
TORSDOF 2
ENDMDL
MODEL 6
REMARK VINA RESULT:      -4.4     11.000     11.689
REMARK  2 active torsions:
REMARK  status: ('A' for Active; 'I' for Inactive)
REMARK    1  A    between atoms: C1_1  and  C10_10 
REMARK    2  A    between atoms: C5_5  and  C10_10 
ROOT
HETATM    1  C2  UNL     1     -32.816   5.668   2.104  1.00 20.00     0.005 C 
HETATM    2  C3  UNL     1     -34.262   5.305   2.443  1.00 20.00     0.005 C 
HETATM    3  C4  UNL     1     -32.651   6.983   4.265  1.00 20.00     0.009 C 
HETATM    4  C5  UNL     1     -32.356   6.979   2.757  1.00 20.00    -0.008 C 
HETATM    5  C6  UNL     1     -34.536   5.279   3.956  1.00 20.00    -0.015 C 
HETATM    6  C7  UNL     1     -34.107   6.618   4.601  1.00 20.00    -0.015 C 
HETATM    7  C8  UNL     1     -33.896   4.044   4.603  1.00 20.00     0.010 C 
HETATM    8  C9  UNL     1     -34.325   6.646   6.115  1.00 20.00     0.010 C 
ENDROOT
BRANCH   4   9
HETATM    9  C10 UNL     1     -32.965   8.198   2.058  1.00 20.00     0.074 C 
BRANCH   9  10
HETATM   10  C1  UNL     1     -32.609   8.258   0.599  1.00 20.00     0.231 C 
HETATM   11  O11 UNL     1     -33.345   8.669  -0.292  1.00 20.00    -0.307 OA
ENDBRANCH   9  10
ENDBRANCH   4   9
TORSDOF 2
ENDMDL
MODEL 7
REMARK VINA RESULT:      -4.4      1.322      2.200
REMARK  2 active torsions:
REMARK  status: ('A' for Active; 'I' for Inactive)
REMARK    1  A    between atoms: C1_1  and  C10_10 
REMARK    2  A    between atoms: C5_5  and  C10_10 
ROOT
HETATM    1  C2  UNL     1     -33.201  15.697  -3.494  1.00 20.00     0.005 C 
HETATM    2  C3  UNL     1     -33.789  16.529  -2.354  1.00 20.00     0.005 C 
HETATM    3  C4  UNL     1     -35.121  16.406  -4.988  1.00 20.00     0.009 C 
HETATM    4  C5  UNL     1     -34.258  15.230  -4.505  1.00 20.00    -0.008 C 
HETATM    5  C6  UNL     1     -34.623  17.723  -2.850  1.00 20.00    -0.015 C 
HETATM    6  C7  UNL     1     -35.711  17.240  -3.839  1.00 20.00    -0.015 C 
HETATM    7  C8  UNL     1     -33.715  18.823  -3.413  1.00 20.00     0.010 C 
HETATM    8  C9  UNL     1     -36.559  18.387  -4.395  1.00 20.00     0.010 C 
ENDROOT
BRANCH   4   9
HETATM    9  C10 UNL     1     -35.114  14.094  -3.939  1.00 20.00     0.074 C 
BRANCH   9  10
HETATM   10  C1  UNL     1     -36.282  13.762  -4.826  1.00 20.00     0.231 C 
HETATM   11  O11 UNL     1     -37.443  13.647  -4.452  1.00 20.00    -0.307 OA
ENDBRANCH   9  10
ENDBRANCH   4   9
TORSDOF 2
ENDMDL
MODEL 8
REMARK VINA RESULT:      -4.4      2.629      4.297
REMARK  2 active torsions:
REMARK  status: ('A' for Active; 'I' for Inactive)
REMARK    1  A    between atoms: C1_1  and  C10_10 
REMARK    2  A    between atoms: C5_5  and  C10_10 
ROOT
HETATM    1  C2  UNL     1     -33.363  14.833  -4.043  1.00 20.00     0.005 C 
HETATM    2  C3  UNL     1     -34.137  15.075  -5.338  1.00 20.00     0.005 C 
HETATM    3  C4  UNL     1     -35.213  15.970  -2.736  1.00 20.00     0.009 C 
HETATM    4  C5  UNL     1     -33.695  15.853  -2.944  1.00 20.00    -0.008 C 
HETATM    5  C6  UNL     1     -35.658  15.157  -5.123  1.00 20.00    -0.015 C 
HETATM    6  C7  UNL     1     -35.989  16.214  -4.042  1.00 20.00    -0.015 C 
HETATM    7  C8  UNL     1     -36.241  13.768  -4.833  1.00 20.00     0.010 C 
HETATM    8  C9  UNL     1     -37.488  16.323  -3.756  1.00 20.00     0.010 C 
ENDROOT
BRANCH   4   9
HETATM    9  C10 UNL     1     -33.055  17.215  -3.229  1.00 20.00     0.074 C 
BRANCH   9  10
HETATM   10  C1  UNL     1     -32.590  17.901  -1.974  1.00 20.00     0.231 C 
HETATM   11  O11 UNL     1     -31.772  18.813  -1.929  1.00 20.00    -0.307 OA
ENDBRANCH   9  10
ENDBRANCH   4   9
TORSDOF 2
ENDMDL
MODEL 9
REMARK VINA RESULT:      -4.2      2.955      4.728
REMARK  2 active torsions:
REMARK  status: ('A' for Active; 'I' for Inactive)
REMARK    1  A    between atoms: C1_1  and  C10_10 
REMARK    2  A    between atoms: C5_5  and  C10_10 
ROOT
HETATM    1  C2  UNL     1     -33.765  18.373  -3.834  1.00 20.00     0.005 C 
HETATM    2  C3  UNL     1     -35.241  17.982  -3.767  1.00 20.00     0.005 C 
HETATM    3  C4  UNL     1     -33.117  15.952  -3.457  1.00 20.00     0.009 C 
HETATM    4  C5  UNL     1     -32.853  17.413  -3.058  1.00 20.00    -0.008 C 
HETATM    5  C6  UNL     1     -35.498  16.529  -4.200  1.00 20.00    -0.015 C 
HETATM    6  C7  UNL     1     -34.603  15.562  -3.387  1.00 20.00    -0.015 C 
HETATM    7  C8  UNL     1     -35.353  16.381  -5.720  1.00 20.00     0.010 C 
HETATM    8  C9  UNL     1     -34.788  14.098  -3.793  1.00 20.00     0.010 C 
ENDROOT
BRANCH   4   9
HETATM    9  C10 UNL     1     -32.975  17.618  -1.546  1.00 20.00     0.074 C 
BRANCH   9  10
HETATM   10  C1  UNL     1     -31.969  18.603  -1.020  1.00 20.00     0.231 C 
HETATM   11  O11 UNL     1     -30.786  18.362  -0.809  1.00 20.00    -0.307 OA
ENDBRANCH   9  10
ENDBRANCH   4   9
TORSDOF 2
ENDMDL
