MODEL 1
REMARK VINA RESULT:      -4.8      0.000      0.000
REMARK  0 active torsions:
REMARK  status: ('A' for Active; 'I' for Inactive)
ROOT
HETATM    1  C1  UNL     1     -36.116  14.432  -5.062  1.00 20.00     0.088 C 
HETATM    2  C2  UNL     1     -35.096  15.453  -3.134  1.00 20.00    -0.070 C 
HETATM    3  C3  UNL     1     -36.189  15.007  -3.769  1.00 20.00     0.096 C 
HETATM    4  C4  UNL     1     -33.726  15.370  -3.754  1.00 20.00     0.035 C 
HETATM    5  C5  UNL     1     -35.158  16.104  -1.780  1.00 20.00     0.039 C 
HETATM    6  C6  UNL     1     -32.738  16.359  -3.121  1.00 20.00     0.009 C 
HETATM    7  C7  UNL     1     -34.586  17.537  -1.808  1.00 20.00    -0.011 C 
HETATM    8  C8  UNL     1     -33.410  17.705  -2.812  1.00 20.00    -0.014 C 
HETATM    9  C9  UNL     1     -35.692  18.558  -2.111  1.00 20.00     0.010 C 
HETATM   10  C10 UNL     1     -32.381  18.711  -2.291  1.00 20.00     0.010 C 
HETATM   11  N11 UNL     1     -36.063  13.959  -6.121  1.00 20.00    -0.192 NA
ENDROOT
TORSDOF 0
ENDMDL
MODEL 2
REMARK VINA RESULT:      -4.7      1.669      2.209
REMARK  0 active torsions:
REMARK  status: ('A' for Active; 'I' for Inactive)
ROOT
HETATM    1  C1  UNL     1     -36.854  14.165  -4.185  1.00 20.00     0.088 C 
HETATM    2  C2  UNL     1     -34.702  15.237  -4.317  1.00 20.00    -0.070 C 
HETATM    3  C3  UNL     1     -35.521  14.345  -3.742  1.00 20.00     0.096 C 
HETATM    4  C4  UNL     1     -35.150  16.102  -5.467  1.00 20.00     0.035 C 
HETATM    5  C5  UNL     1     -33.298  15.473  -3.836  1.00 20.00     0.039 C 
HETATM    6  C6  UNL     1     -34.280  17.356  -5.628  1.00 20.00     0.009 C 
HETATM    7  C7  UNL     1     -33.077  16.941  -3.412  1.00 20.00    -0.011 C 
HETATM    8  C8  UNL     1     -33.896  17.951  -4.265  1.00 20.00    -0.014 C 
HETATM    9  C9  UNL     1     -33.390  17.129  -1.921  1.00 20.00     0.010 C 
HETATM   10  C10 UNL     1     -33.130  19.263  -4.450  1.00 20.00     0.010 C 
HETATM   11  N11 UNL     1     -37.948  14.012  -4.542  1.00 20.00    -0.192 NA
ENDROOT
TORSDOF 0
ENDMDL
MODEL 3
REMARK VINA RESULT:      -4.7      1.743      2.994
REMARK  0 active torsions:
REMARK  status: ('A' for Active; 'I' for Inactive)
ROOT
HETATM    1  C1  UNL     1     -33.689  14.713  -3.974  1.00 20.00     0.088 C 
HETATM    2  C2  UNL     1     -34.002  16.812  -2.837  1.00 20.00    -0.070 C 
HETATM    3  C3  UNL     1     -33.362  16.074  -3.755  1.00 20.00     0.096 C 
HETATM    4  C4  UNL     1     -35.105  16.242  -1.984  1.00 20.00     0.035 C 
HETATM    5  C5  UNL     1     -33.642  18.246  -2.559  1.00 20.00     0.039 C 
HETATM    6  C6  UNL     1     -35.334  17.056  -0.704  1.00 20.00     0.009 C 
HETATM    7  C7  UNL     1     -33.232  18.458  -1.087  1.00 20.00    -0.011 C 
HETATM    8  C8  UNL     1     -34.007  17.539  -0.100  1.00 20.00    -0.014 C 
HETATM    9  C9  UNL     1     -31.719  18.269  -0.911  1.00 20.00     0.010 C 
HETATM   10  C10 UNL     1     -34.251  18.246   1.235  1.00 20.00     0.010 C 
HETATM   11  N11 UNL     1     -33.952  13.597  -4.159  1.00 20.00    -0.192 NA
ENDROOT
TORSDOF 0
ENDMDL
MODEL 4
REMARK VINA RESULT:      -4.6      3.747      5.478
REMARK  0 active torsions:
REMARK  status: ('A' for Active; 'I' for Inactive)
ROOT
HETATM    1  C1  UNL     1     -31.009  19.047   0.989  1.00 20.00     0.088 C 
HETATM    2  C2  UNL     1     -32.920  18.845  -0.463  1.00 20.00    -0.070 C 
HETATM    3  C3  UNL     1     -32.377  19.263   0.689  1.00 20.00     0.096 C 
HETATM    4  C4  UNL     1     -32.110  18.122  -1.508  1.00 20.00     0.035 C 
HETATM    5  C5  UNL     1     -34.378  19.027  -0.782  1.00 20.00     0.039 C 
HETATM    6  C6  UNL     1     -32.989  17.309  -2.468  1.00 20.00     0.009 C 
HETATM    7  C7  UNL     1     -35.079  17.678  -1.044  1.00 20.00    -0.011 C 
HETATM    8  C8  UNL     1     -34.153  16.632  -1.728  1.00 20.00    -0.014 C 
HETATM    9  C9  UNL     1     -35.657  17.104   0.257  1.00 20.00     0.010 C 
HETATM   10  C10 UNL     1     -34.945  15.735  -2.682  1.00 20.00     0.010 C 
HETATM   11  N11 UNL     1     -29.890  18.874   1.241  1.00 20.00    -0.192 NA
ENDROOT
TORSDOF 0
ENDMDL
MODEL 5
REMARK VINA RESULT:      -4.5      3.237      4.655
REMARK  0 active torsions:
REMARK  status: ('A' for Active; 'I' for Inactive)
ROOT
HETATM    1  C1  UNL     1     -34.118  16.319  -2.342  1.00 20.00     0.088 C 
HETATM    2  C2  UNL     1     -33.571  18.041  -0.750  1.00 20.00    -0.070 C 
HETATM    3  C3  UNL     1     -33.330  17.413  -1.910  1.00 20.00     0.096 C 
HETATM    4  C4  UNL     1     -34.693  17.620   0.164  1.00 20.00     0.035 C 
HETATM    5  C5  UNL     1     -32.721  19.177  -0.254  1.00 20.00     0.039 C 
HETATM    6  C6  UNL     1     -34.483  18.100   1.606  1.00 20.00     0.009 C 
HETATM    7  C7  UNL     1     -32.093  18.865   1.121  1.00 20.00    -0.011 C 
HETATM    8  C8  UNL     1     -33.009  17.991   2.025  1.00 20.00    -0.014 C 
HETATM    9  C9  UNL     1     -30.722  18.196   0.952  1.00 20.00     0.010 C 
HETATM   10  C10 UNL     1     -32.842  18.363   3.500  1.00 20.00     0.010 C 
HETATM   11  N11 UNL     1     -34.760  15.421  -2.702  1.00 20.00    -0.192 NA
ENDROOT
TORSDOF 0
ENDMDL
MODEL 6
REMARK VINA RESULT:      -4.3      1.741      2.894
REMARK  0 active torsions:
REMARK  status: ('A' for Active; 'I' for Inactive)
ROOT
HETATM    1  C1  UNL     1     -38.179  16.125  -4.750  1.00 20.00     0.088 C 
HETATM    2  C2  UNL     1     -36.207  15.572  -3.484  1.00 20.00    -0.070 C 
HETATM    3  C3  UNL     1     -37.206  16.420  -3.763  1.00 20.00     0.096 C 
HETATM    4  C4  UNL     1     -36.056  14.256  -4.201  1.00 20.00     0.035 C 
HETATM    5  C5  UNL     1     -35.141  15.885  -2.471  1.00 20.00     0.039 C 
HETATM    6  C6  UNL     1     -34.628  13.702  -4.112  1.00 20.00     0.009 C 
HETATM    7  C7  UNL     1     -33.731  15.870  -3.099  1.00 20.00    -0.011 C 
HETATM    8  C8  UNL     1     -33.582  14.820  -4.237  1.00 20.00    -0.014 C 
HETATM    9  C9  UNL     1     -33.350  17.265  -3.613  1.00 20.00     0.010 C 
HETATM   10  C10 UNL     1     -32.169  14.232  -4.262  1.00 20.00     0.010 C 
HETATM   11  N11 UNL     1     -38.979  15.890  -5.557  1.00 20.00    -0.192 NA
ENDROOT
TORSDOF 0
ENDMDL
MODEL 7
REMARK VINA RESULT:      -4.3      2.019      3.180
REMARK  0 active torsions:
REMARK  status: ('A' for Active; 'I' for Inactive)
ROOT
HETATM    1  C1  UNL     1     -38.031  17.504  -3.671  1.00 20.00     0.088 C 
HETATM    2  C2  UNL     1     -36.091  16.355  -2.827  1.00 20.00    -0.070 C 
HETATM    3  C3  UNL     1     -36.900  17.423  -2.821  1.00 20.00     0.096 C 
HETATM    4  C4  UNL     1     -36.332  15.178  -3.736  1.00 20.00     0.035 C 
HETATM    5  C5  UNL     1     -34.863  16.266  -1.964  1.00 20.00     0.039 C 
HETATM    6  C6  UNL     1     -35.066  14.338  -3.955  1.00 20.00     0.009 C 
HETATM    7  C7  UNL     1     -33.583  16.074  -2.806  1.00 20.00    -0.011 C 
HETATM    8  C8  UNL     1     -33.820  15.226  -4.088  1.00 20.00    -0.014 C 
HETATM    9  C9  UNL     1     -32.965  17.430  -3.173  1.00 20.00     0.010 C 
HETATM   10  C10 UNL     1     -32.591  14.377  -4.421  1.00 20.00     0.010 C 
HETATM   11  N11 UNL     1     -38.959  17.578  -4.364  1.00 20.00    -0.192 NA
ENDROOT
TORSDOF 0
ENDMDL
MODEL 8
REMARK VINA RESULT:      -4.2      2.846      4.532
REMARK  0 active torsions:
REMARK  status: ('A' for Active; 'I' for Inactive)
ROOT
HETATM    1  C1  UNL     1     -31.630  18.416  -1.019  1.00 20.00     0.088 C 
HETATM    2  C2  UNL     1     -33.326  17.941  -2.660  1.00 20.00    -0.070 C 
HETATM    3  C3  UNL     1     -32.800  18.760  -1.738  1.00 20.00     0.096 C 
HETATM    4  C4  UNL     1     -32.707  16.606  -2.985  1.00 20.00     0.035 C 
HETATM    5  C5  UNL     1     -34.591  18.268  -3.405  1.00 20.00     0.039 C 
HETATM    6  C6  UNL     1     -33.702  15.646  -3.651  1.00 20.00     0.009 C 
HETATM    7  C7  UNL     1     -35.679  17.197  -3.183  1.00 20.00    -0.011 C 
HETATM    8  C8  UNL     1     -35.099  15.762  -3.023  1.00 20.00    -0.014 C 
HETATM    9  C9  UNL     1     -36.554  17.553  -1.974  1.00 20.00     0.010 C 
HETATM   10  C10 UNL     1     -36.044  14.717  -3.621  1.00 20.00     0.010 C 
HETATM   11  N11 UNL     1     -30.671  18.140  -0.425  1.00 20.00    -0.192 NA
ENDROOT
TORSDOF 0
ENDMDL
MODEL 9
REMARK VINA RESULT:      -4.2      2.839      4.247
REMARK  0 active torsions:
REMARK  status: ('A' for Active; 'I' for Inactive)
ROOT
HETATM    1  C1  UNL     1     -35.680  17.637   0.379  1.00 20.00     0.088 C 
HETATM    2  C2  UNL     1     -35.269  17.331  -1.974  1.00 20.00    -0.070 C 
HETATM    3  C3  UNL     1     -36.124  17.531  -0.962  1.00 20.00     0.096 C 
HETATM    4  C4  UNL     1     -33.784  17.205  -1.748  1.00 20.00     0.035 C 
HETATM    5  C5  UNL     1     -35.724  17.174  -3.398  1.00 20.00     0.039 C 
HETATM    6  C6  UNL     1     -33.076  16.492  -2.908  1.00 20.00     0.009 C 
HETATM    7  C7  UNL     1     -35.289  15.818  -3.993  1.00 20.00    -0.011 C 
HETATM    8  C8  UNL     1     -33.917  15.327  -3.449  1.00 20.00    -0.014 C 
HETATM    9  C9  UNL     1     -36.366  14.750  -3.757  1.00 20.00     0.010 C 
HETATM   10  C10 UNL     1     -33.142  14.560  -4.523  1.00 20.00     0.010 C 
HETATM   11  N11 UNL     1     -35.322  17.725   1.480  1.00 20.00    -0.192 NA
ENDROOT
TORSDOF 0
ENDMDL
