MODEL 1
REMARK VINA RESULT:      -5.0      0.000      0.000
REMARK  2 active torsions:
REMARK  status: ('A' for Active; 'I' for Inactive)
REMARK    1  A    between atoms: C1_1  and  C5_5 
REMARK    2  A    between atoms: C1_1  and  C11_11 
ROOT
HETATM    1  C2  UNL     1     -33.148  15.824  -3.642  1.00 20.00     0.012 C 
HETATM    2  C3  UNL     1     -32.818  17.205  -3.086  1.00 20.00     0.005 C 
HETATM    3  C4  UNL     1     -35.166  15.700  -2.136  1.00 20.00     0.016 C 
HETATM    4  C5  UNL     1     -34.644  15.538  -3.564  1.00 20.00     0.056 C 
HETATM    5  C6  UNL     1     -33.329  17.385  -1.646  1.00 20.00    -0.015 C 
HETATM    6  C7  UNL     1     -34.847  17.092  -1.562  1.00 20.00    -0.014 C 
HETATM    7  C8  UNL     1     -32.975  18.792  -1.155  1.00 20.00     0.010 C 
HETATM    8  C9  UNL     1     -35.385  17.186  -0.132  1.00 20.00     0.010 C 
ENDROOT
BRANCH   4   9
HETATM    9  C1  UNL     1     -34.922  14.144  -4.036  1.00 20.00     0.130 C 
HETATM   10  O12 UNL     1     -34.036  13.289  -4.044  1.00 20.00    -0.298 OA
BRANCH   9  11
HETATM   11  C11 UNL     1     -36.340  13.863  -4.495  1.00 20.00     0.074 C 
HETATM   12  C10 UNL     1     -36.974  15.050  -5.197  1.00 20.00     0.013 C 
ENDBRANCH   9  11
ENDBRANCH   4   9
TORSDOF 2
ENDMDL
MODEL 2
REMARK VINA RESULT:      -5.0      1.406      2.435
REMARK  2 active torsions:
REMARK  status: ('A' for Active; 'I' for Inactive)
REMARK    1  A    between atoms: C1_1  and  C5_5 
REMARK    2  A    between atoms: C1_1  and  C11_11 
ROOT
HETATM    1  C2  UNL     1     -35.199  15.798  -2.575  1.00 20.00     0.012 C 
HETATM    2  C3  UNL     1     -35.199  16.539  -1.242  1.00 20.00     0.005 C 
HETATM    3  C4  UNL     1     -32.984  16.851  -3.160  1.00 20.00     0.016 C 
HETATM    4  C5  UNL     1     -33.777  15.548  -3.070  1.00 20.00     0.056 C 
HETATM    5  C6  UNL     1     -34.411  17.859  -1.315  1.00 20.00    -0.015 C 
HETATM    6  C7  UNL     1     -32.969  17.609  -1.820  1.00 20.00    -0.014 C 
HETATM    7  C8  UNL     1     -34.442  18.543   0.055  1.00 20.00     0.010 C 
HETATM    8  C9  UNL     1     -32.169  18.905  -1.980  1.00 20.00     0.010 C 
ENDROOT
BRANCH   4   9
HETATM    9  C1  UNL     1     -33.815  14.898  -4.418  1.00 20.00     0.130 C 
HETATM   10  O12 UNL     1     -33.362  13.766  -4.589  1.00 20.00    -0.298 OA
BRANCH   9  11
HETATM   11  C11 UNL     1     -34.436  15.712  -5.537  1.00 20.00     0.074 C 
HETATM   12  C10 UNL     1     -34.075  15.186  -6.914  1.00 20.00     0.013 C 
ENDBRANCH   9  11
ENDBRANCH   4   9
TORSDOF 2
ENDMDL
MODEL 3
REMARK VINA RESULT:      -5.0      2.275      5.251
REMARK  2 active torsions:
REMARK  status: ('A' for Active; 'I' for Inactive)
REMARK    1  A    between atoms: C1_1  and  C5_5 
REMARK    2  A    between atoms: C1_1  and  C11_11 
ROOT
HETATM    1  C2  UNL     1     -34.592  17.281  -1.189  1.00 20.00     0.012 C 
HETATM    2  C3  UNL     1     -35.604  16.544  -2.059  1.00 20.00     0.005 C 
HETATM    3  C4  UNL     1     -32.749  16.628  -2.780  1.00 20.00     0.016 C 
HETATM    4  C5  UNL     1     -33.407  17.775  -2.014  1.00 20.00     0.056 C 
HETATM    5  C6  UNL     1     -34.962  15.381  -2.835  1.00 20.00    -0.015 C 
HETATM    6  C7  UNL     1     -33.757  15.878  -3.670  1.00 20.00    -0.014 C 
HETATM    7  C8  UNL     1     -36.028  14.695  -3.694  1.00 20.00     0.010 C 
HETATM    8  C9  UNL     1     -33.039  14.740  -4.400  1.00 20.00     0.010 C 
ENDROOT
BRANCH   4   9
HETATM    9  C1  UNL     1     -32.394  18.415  -1.116  1.00 20.00     0.130 C 
HETATM   10  O12 UNL     1     -31.364  18.909  -1.574  1.00 20.00    -0.298 OA
BRANCH   9  11
HETATM   11  C11 UNL     1     -32.716  18.413   0.366  1.00 20.00     0.074 C 
HETATM   12  C10 UNL     1     -31.474  18.338   1.235  1.00 20.00     0.013 C 
ENDBRANCH   9  11
ENDBRANCH   4   9
TORSDOF 2
ENDMDL
MODEL 4
REMARK VINA RESULT:      -4.8      1.044      2.197
REMARK  2 active torsions:
REMARK  status: ('A' for Active; 'I' for Inactive)
REMARK    1  A    between atoms: C1_1  and  C5_5 
REMARK    2  A    between atoms: C1_1  and  C11_11 
ROOT
HETATM    1  C2  UNL     1     -35.339  15.938  -2.310  1.00 20.00     0.012 C 
HETATM    2  C3  UNL     1     -35.202  16.730  -1.014  1.00 20.00     0.005 C 
HETATM    3  C4  UNL     1     -33.108  16.822  -3.084  1.00 20.00     0.016 C 
HETATM    4  C5  UNL     1     -33.972  15.577  -2.885  1.00 20.00     0.056 C 
HETATM    5  C6  UNL     1     -34.341  17.992  -1.196  1.00 20.00    -0.015 C 
HETATM    6  C7  UNL     1     -32.954  17.629  -1.783  1.00 20.00    -0.014 C 
HETATM    7  C8  UNL     1     -34.236  18.730   0.142  1.00 20.00     0.010 C 
HETATM    8  C9  UNL     1     -32.089  18.864  -2.052  1.00 20.00     0.010 C 
ENDROOT
BRANCH   4   9
HETATM    9  C1  UNL     1     -34.142  14.878  -4.198  1.00 20.00     0.130 C 
HETATM   10  O12 UNL     1     -33.218  14.236  -4.699  1.00 20.00    -0.298 OA
BRANCH   9  11
HETATM   11  C11 UNL     1     -35.502  15.011  -4.857  1.00 20.00     0.074 C 
HETATM   12  C10 UNL     1     -36.297  13.719  -4.826  1.00 20.00     0.013 C 
ENDBRANCH   9  11
ENDBRANCH   4   9
TORSDOF 2
ENDMDL
MODEL 5
REMARK VINA RESULT:      -4.6      1.431      2.221
REMARK  2 active torsions:
REMARK  status: ('A' for Active; 'I' for Inactive)
REMARK    1  A    between atoms: C1_1  and  C5_5 
REMARK    2  A    between atoms: C1_1  and  C11_11 
ROOT
HETATM    1  C2  UNL     1     -36.190  16.182  -3.458  1.00 20.00     0.012 C 
HETATM    2  C3  UNL     1     -36.314  17.282  -2.410  1.00 20.00     0.005 C 
HETATM    3  C4  UNL     1     -33.734  15.960  -2.933  1.00 20.00     0.016 C 
HETATM    4  C5  UNL     1     -35.057  15.218  -3.117  1.00 20.00     0.056 C 
HETATM    5  C6  UNL     1     -34.993  18.047  -2.215  1.00 20.00    -0.015 C 
HETATM    6  C7  UNL     1     -33.840  17.071  -1.873  1.00 20.00    -0.014 C 
HETATM    7  C8  UNL     1     -35.186  19.125  -1.145  1.00 20.00     0.010 C 
HETATM    8  C9  UNL     1     -32.489  17.780  -1.744  1.00 20.00     0.010 C 
ENDROOT
BRANCH   4   9
HETATM    9  C1  UNL     1     -34.907  14.203  -4.209  1.00 20.00     0.130 C 
HETATM   10  O12 UNL     1     -34.475  13.075  -3.971  1.00 20.00    -0.298 OA
BRANCH   9  11
HETATM   11  C11 UNL     1     -35.314  14.651  -5.600  1.00 20.00     0.074 C 
HETATM   12  C10 UNL     1     -34.125  15.031  -6.464  1.00 20.00     0.013 C 
ENDBRANCH   9  11
ENDBRANCH   4   9
TORSDOF 2
ENDMDL
MODEL 6
REMARK VINA RESULT:      -4.5      1.345      1.583
REMARK  2 active torsions:
REMARK  status: ('A' for Active; 'I' for Inactive)
REMARK    1  A    between atoms: C1_1  and  C5_5 
REMARK    2  A    between atoms: C1_1  and  C11_11 
ROOT
HETATM    1  C2  UNL     1     -32.932  16.614  -3.029  1.00 20.00     0.012 C 
HETATM    2  C3  UNL     1     -32.656  17.850  -2.180  1.00 20.00     0.005 C 
HETATM    3  C4  UNL     1     -35.111  16.263  -1.811  1.00 20.00     0.016 C 
HETATM    4  C5  UNL     1     -34.430  16.365  -3.176  1.00 20.00     0.056 C 
HETATM    5  C6  UNL     1     -33.329  17.763  -0.798  1.00 20.00    -0.015 C 
HETATM    6  C7  UNL     1     -34.849  17.507  -0.944  1.00 20.00    -0.014 C 
HETATM    7  C8  UNL     1     -33.022  19.037  -0.006  1.00 20.00     0.010 C 
HETATM    8  C9  UNL     1     -35.548  17.338   0.408  1.00 20.00     0.010 C 
ENDROOT
BRANCH   4   9
HETATM    9  C1  UNL     1     -34.663  15.098  -3.940  1.00 20.00     0.130 C 
HETATM   10  O12 UNL     1     -35.648  14.395  -3.717  1.00 20.00    -0.298 OA
BRANCH   9  11
HETATM   11  C11 UNL     1     -33.622  14.747  -4.987  1.00 20.00     0.074 C 
HETATM   12  C10 UNL     1     -34.048  15.139  -6.390  1.00 20.00     0.013 C 
ENDBRANCH   9  11
ENDBRANCH   4   9
TORSDOF 2
ENDMDL
MODEL 7
REMARK VINA RESULT:      -4.5      2.959      4.260
REMARK  2 active torsions:
REMARK  status: ('A' for Active; 'I' for Inactive)
REMARK    1  A    between atoms: C1_1  and  C5_5 
REMARK    2  A    between atoms: C1_1  and  C11_11 
ROOT
HETATM    1  C2  UNL     1     -32.180  18.090  -1.009  1.00 20.00     0.012 C 
HETATM    2  C3  UNL     1     -31.097  18.818  -0.221  1.00 20.00     0.005 C 
HETATM    3  C4  UNL     1     -33.537  17.830   1.100  1.00 20.00     0.016 C 
HETATM    4  C5  UNL     1     -33.551  18.271  -0.363  1.00 20.00     0.056 C 
HETATM    5  C6  UNL     1     -31.062  18.382   1.254  1.00 20.00    -0.015 C 
HETATM    6  C7  UNL     1     -32.453  18.562   1.911  1.00 20.00    -0.014 C 
HETATM    7  C8  UNL     1     -29.964  19.158   1.986  1.00 20.00     0.010 C 
HETATM    8  C9  UNL     1     -32.486  18.069   3.361  1.00 20.00     0.010 C 
ENDROOT
BRANCH   4   9
HETATM    9  C1  UNL     1     -34.575  17.474  -1.110  1.00 20.00     0.130 C 
HETATM   10  O12 UNL     1     -35.757  17.480  -0.768  1.00 20.00    -0.298 OA
BRANCH   9  11
HETATM   11  C11 UNL     1     -34.066  16.674  -2.294  1.00 20.00     0.074 C 
HETATM   12  C10 UNL     1     -34.997  15.537  -2.675  1.00 20.00     0.013 C 
ENDBRANCH   9  11
ENDBRANCH   4   9
TORSDOF 2
ENDMDL
MODEL 8
REMARK VINA RESULT:      -4.5      2.828      4.357
REMARK  2 active torsions:
REMARK  status: ('A' for Active; 'I' for Inactive)
REMARK    1  A    between atoms: C1_1  and  C5_5 
REMARK    2  A    between atoms: C1_1  and  C11_11 
ROOT
HETATM    1  C2  UNL     1     -31.145  18.234  -0.559  1.00 20.00     0.012 C 
HETATM    2  C3  UNL     1     -30.817  18.753   0.837  1.00 20.00     0.005 C 
HETATM    3  C4  UNL     1     -33.601  18.249   0.013  1.00 20.00     0.016 C 
HETATM    4  C5  UNL     1     -32.538  18.673  -1.000  1.00 20.00     0.056 C 
HETATM    5  C6  UNL     1     -31.872  18.329   1.874  1.00 20.00    -0.015 C 
HETATM    6  C7  UNL     1     -33.288  18.771   1.427  1.00 20.00    -0.014 C 
HETATM    7  C8  UNL     1     -31.489  18.891   3.245  1.00 20.00     0.010 C 
HETATM    8  C9  UNL     1     -34.381  18.304   2.392  1.00 20.00     0.010 C 
ENDROOT
BRANCH   4   9
HETATM    9  C1  UNL     1     -32.861  18.076  -2.335  1.00 20.00     0.130 C 
HETATM   10  O12 UNL     1     -32.523  18.634  -3.379  1.00 20.00    -0.298 OA
BRANCH   9  11
HETATM   11  C11 UNL     1     -33.618  16.761  -2.314  1.00 20.00     0.074 C 
HETATM   12  C10 UNL     1     -33.196  15.825  -3.431  1.00 20.00     0.013 C 
ENDBRANCH   9  11
ENDBRANCH   4   9
TORSDOF 2
ENDMDL
MODEL 9
REMARK VINA RESULT:      -4.5      2.044      4.732
REMARK  2 active torsions:
REMARK  status: ('A' for Active; 'I' for Inactive)
REMARK    1  A    between atoms: C1_1  and  C5_5 
REMARK    2  A    between atoms: C1_1  and  C11_11 
ROOT
HETATM    1  C2  UNL     1     -33.098  15.754  -3.499  1.00 20.00     0.012 C 
HETATM    2  C3  UNL     1     -33.980  14.563  -3.855  1.00 20.00     0.005 C 
HETATM    3  C4  UNL     1     -35.149  17.098  -2.914  1.00 20.00     0.016 C 
HETATM    4  C5  UNL     1     -33.764  16.645  -2.454  1.00 20.00     0.056 C 
HETATM    5  C6  UNL     1     -35.378  14.999  -4.327  1.00 20.00    -0.015 C 
HETATM    6  C7  UNL     1     -36.055  15.907  -3.270  1.00 20.00    -0.014 C 
HETATM    7  C8  UNL     1     -36.212  13.758  -4.655  1.00 20.00     0.010 C 
HETATM    8  C9  UNL     1     -37.420  16.427  -3.730  1.00 20.00     0.010 C 
ENDROOT
BRANCH   4   9
HETATM    9  C1  UNL     1     -32.911  17.848  -2.193  1.00 20.00     0.130 C 
HETATM   10  O12 UNL     1     -32.455  18.516  -3.121  1.00 20.00    -0.298 OA
BRANCH   9  11
HETATM   11  C11 UNL     1     -32.652  18.181  -0.736  1.00 20.00     0.074 C 
HETATM   12  C10 UNL     1     -31.174  18.330  -0.423  1.00 20.00     0.013 C 
ENDBRANCH   9  11
ENDBRANCH   4   9
TORSDOF 2
ENDMDL
