MODEL 1
REMARK VINA RESULT:      -4.0      0.000      0.000
REMARK  5 active torsions:
REMARK  status: ('A' for Active; 'I' for Inactive)
REMARK    1  A    between atoms: C6_6  and  C7_7 
REMARK    2  A    between atoms: C6_6  and  C9_9 
REMARK    3  A    between atoms: C7_7  and  C11_11 
REMARK    4  A    between atoms: C8_8  and  C10_10 
REMARK    5  A    between atoms: C8_8  and  C11_11 
ROOT
HETATM    1  C4  UNL     1     -34.910  17.621  -3.849  1.00 20.00     0.015 C 
HETATM    2  C5  UNL     1     -32.958  16.185  -3.314  1.00 20.00     0.015 C 
HETATM    3  C11 UNL     1     -34.356  16.610  -2.818  1.00 20.00    -0.046 C 
ENDROOT
BRANCH   3   4
HETATM    4  C7  UNL     1     -35.257  15.341  -2.792  1.00 20.00     0.009 C 
BRANCH   4   5
HETATM    5  C6  UNL     1     -34.888  14.241  -3.799  1.00 20.00     0.004 C 
BRANCH   5   6
HETATM    6  C9  UNL     1     -36.004  13.957  -4.824  1.00 20.00    -0.023 C 
HETATM    7  C1  UNL     1     -35.709  14.565  -6.197  1.00 20.00     0.009 C 
HETATM    8  C2  UNL     1     -37.338  14.492  -4.299  1.00 20.00     0.009 C 
ENDBRANCH   5   6
ENDBRANCH   4   5
ENDBRANCH   3   4
BRANCH   3   9
HETATM    9  C8  UNL     1     -34.278  17.344  -1.442  1.00 20.00     0.028 C 
BRANCH   9  10
HETATM   10  C10 UNL     1     -35.406  17.103  -0.420  1.00 20.00     0.079 C 
HETATM   11  C3  UNL     1     -34.981  17.577   0.969  1.00 20.00     0.026 C 
HETATM   12 CL12 UNL     1     -36.903  17.974  -0.863  1.00 20.00    -0.125 Cl
ENDBRANCH   9  10
ENDBRANCH   3   9
TORSDOF 5
ENDMDL
MODEL 2
REMARK VINA RESULT:      -4.0      2.668      5.255
REMARK  5 active torsions:
REMARK  status: ('A' for Active; 'I' for Inactive)
REMARK    1  A    between atoms: C6_6  and  C7_7 
REMARK    2  A    between atoms: C6_6  and  C9_9 
REMARK    3  A    between atoms: C7_7  and  C11_11 
REMARK    4  A    between atoms: C8_8  and  C10_10 
REMARK    5  A    between atoms: C8_8  and  C11_11 
ROOT
HETATM    1  C4  UNL     1     -35.172  14.114  -3.794  1.00 20.00     0.015 C 
HETATM    2  C5  UNL     1     -32.784  14.381  -4.416  1.00 20.00     0.015 C 
HETATM    3  C11 UNL     1     -34.075  15.163  -4.094  1.00 20.00    -0.046 C 
ENDROOT
BRANCH   3   4
HETATM    4  C7  UNL     1     -33.807  16.019  -2.822  1.00 20.00     0.009 C 
BRANCH   4   5
HETATM    5  C6  UNL     1     -34.996  16.177  -1.863  1.00 20.00     0.004 C 
BRANCH   5   6
HETATM    6  C9  UNL     1     -34.912  17.451  -0.997  1.00 20.00    -0.023 C 
HETATM    7  C1  UNL     1     -33.486  17.992  -0.884  1.00 20.00     0.009 C 
HETATM    8  C2  UNL     1     -35.467  17.165   0.401  1.00 20.00     0.009 C 
ENDBRANCH   5   6
ENDBRANCH   4   5
ENDBRANCH   3   4
BRANCH   3   9
HETATM    9  C8  UNL     1     -34.558  16.003  -5.317  1.00 20.00     0.028 C 
BRANCH   9  10
HETATM   10  C10 UNL     1     -35.037  15.255  -6.576  1.00 20.00     0.079 C 
HETATM   11  C3  UNL     1     -36.283  15.923  -7.155  1.00 20.00     0.026 C 
HETATM   12 CL12 UNL     1     -33.785  15.230  -7.852  1.00 20.00    -0.125 Cl
ENDBRANCH   9  10
ENDBRANCH   3   9
TORSDOF 5
ENDMDL
MODEL 3
REMARK VINA RESULT:      -3.9      1.766      1.859
REMARK  5 active torsions:
REMARK  status: ('A' for Active; 'I' for Inactive)
REMARK    1  A    between atoms: C6_6  and  C7_7 
REMARK    2  A    between atoms: C6_6  and  C9_9 
REMARK    3  A    between atoms: C7_7  and  C11_11 
REMARK    4  A    between atoms: C8_8  and  C10_10 
REMARK    5  A    between atoms: C8_8  and  C11_11 
ROOT
HETATM    1  C4  UNL     1     -34.705  17.656  -3.748  1.00 20.00     0.015 C 
HETATM    2  C5  UNL     1     -32.951  15.925  -3.455  1.00 20.00     0.015 C 
HETATM    3  C11 UNL     1     -34.251  16.485  -2.844  1.00 20.00    -0.046 C 
ENDROOT
BRANCH   3   4
HETATM    4  C7  UNL     1     -35.320  15.353  -2.877  1.00 20.00     0.009 C 
BRANCH   4   5
HETATM    5  C6  UNL     1     -35.003  14.166  -3.799  1.00 20.00     0.004 C 
BRANCH   5   6
HETATM    6  C9  UNL     1     -36.077  13.934  -4.881  1.00 20.00    -0.023 C 
HETATM    7  C1  UNL     1     -35.727  14.604  -6.211  1.00 20.00     0.009 C 
HETATM    8  C2  UNL     1     -37.431  14.450  -4.386  1.00 20.00     0.009 C 
ENDBRANCH   5   6
ENDBRANCH   4   5
ENDBRANCH   3   4
BRANCH   3   9
HETATM    9  C8  UNL     1     -34.010  17.068  -1.416  1.00 20.00     0.028 C 
BRANCH   9  10
HETATM   10  C10 UNL     1     -33.280  18.419  -1.290  1.00 20.00     0.079 C 
HETATM   11  C3  UNL     1     -33.901  19.263  -0.178  1.00 20.00     0.026 C 
HETATM   12 CL12 UNL     1     -31.545  18.205  -0.914  1.00 20.00    -0.125 Cl
ENDBRANCH   9  10
ENDBRANCH   3   9
TORSDOF 5
ENDMDL
MODEL 4
REMARK VINA RESULT:      -3.9      2.730      5.451
REMARK  5 active torsions:
REMARK  status: ('A' for Active; 'I' for Inactive)
REMARK    1  A    between atoms: C6_6  and  C7_7 
REMARK    2  A    between atoms: C6_6  and  C9_9 
REMARK    3  A    between atoms: C7_7  and  C11_11 
REMARK    4  A    between atoms: C8_8  and  C10_10 
REMARK    5  A    between atoms: C8_8  and  C11_11 
ROOT
HETATM    1  C4  UNL     1     -35.286  13.932  -3.945  1.00 20.00     0.015 C 
HETATM    2  C5  UNL     1     -32.900  14.461  -4.380  1.00 20.00     0.015 C 
HETATM    3  C11 UNL     1     -34.282  15.096  -4.123  1.00 20.00    -0.046 C 
ENDROOT
BRANCH   3   4
HETATM    4  C7  UNL     1     -34.191  15.915  -2.802  1.00 20.00     0.009 C 
BRANCH   4   5
HETATM    5  C6  UNL     1     -32.982  16.856  -2.684  1.00 20.00     0.004 C 
BRANCH   5   6
HETATM    6  C9  UNL     1     -33.182  17.973  -1.639  1.00 20.00    -0.023 C 
HETATM    7  C1  UNL     1     -31.925  18.231  -0.806  1.00 20.00     0.009 C 
HETATM    8  C2  UNL     1     -34.348  17.615  -0.714  1.00 20.00     0.009 C 
ENDBRANCH   5   6
ENDBRANCH   4   5
ENDBRANCH   3   4
BRANCH   3   9
HETATM    9  C8  UNL     1     -34.762  15.941  -5.344  1.00 20.00     0.028 C 
BRANCH   9  10
HETATM   10  C10 UNL     1     -35.136  15.203  -6.644  1.00 20.00     0.079 C 
HETATM   11  C3  UNL     1     -36.348  15.857  -7.304  1.00 20.00     0.026 C 
HETATM   12 CL12 UNL     1     -33.793  15.216  -7.825  1.00 20.00    -0.125 Cl
ENDBRANCH   9  10
ENDBRANCH   3   9
TORSDOF 5
ENDMDL
MODEL 5
REMARK VINA RESULT:      -3.9      2.649      5.291
REMARK  5 active torsions:
REMARK  status: ('A' for Active; 'I' for Inactive)
REMARK    1  A    between atoms: C6_6  and  C7_7 
REMARK    2  A    between atoms: C6_6  and  C9_9 
REMARK    3  A    between atoms: C7_7  and  C11_11 
REMARK    4  A    between atoms: C8_8  and  C10_10 
REMARK    5  A    between atoms: C8_8  and  C11_11 
ROOT
HETATM    1  C4  UNL     1     -36.969  16.306  -3.747  1.00 20.00     0.015 C 
HETATM    2  C5  UNL     1     -36.449  13.977  -4.430  1.00 20.00     0.015 C 
HETATM    3  C11 UNL     1     -35.823  15.367  -4.195  1.00 20.00    -0.046 C 
ENDROOT
BRANCH   3   4
HETATM    4  C7  UNL     1     -34.779  15.231  -3.048  1.00 20.00     0.009 C 
BRANCH   4   5
HETATM    5  C6  UNL     1     -33.384  15.800  -3.347  1.00 20.00     0.004 C 
BRANCH   5   6
HETATM    6  C9  UNL     1     -33.066  17.079  -2.548  1.00 20.00    -0.023 C 
HETATM    7  C1  UNL     1     -34.094  17.356  -1.449  1.00 20.00     0.009 C 
HETATM    8  C2  UNL     1     -32.991  18.278  -3.497  1.00 20.00     0.009 C 
ENDBRANCH   5   6
ENDBRANCH   4   5
ENDBRANCH   3   4
BRANCH   3   9
HETATM    9  C8  UNL     1     -35.226  15.958  -5.510  1.00 20.00     0.028 C 
BRANCH   9  10
HETATM   10  C10 UNL     1     -35.209  15.071  -6.770  1.00 20.00     0.079 C 
HETATM   11  C3  UNL     1     -36.170  15.618  -7.825  1.00 20.00     0.026 C 
HETATM   12 CL12 UNL     1     -33.580  14.986  -7.502  1.00 20.00    -0.125 Cl
ENDBRANCH   9  10
ENDBRANCH   3   9
TORSDOF 5
ENDMDL
MODEL 6
REMARK VINA RESULT:      -3.9      2.445      5.503
REMARK  5 active torsions:
REMARK  status: ('A' for Active; 'I' for Inactive)
REMARK    1  A    between atoms: C6_6  and  C7_7 
REMARK    2  A    between atoms: C6_6  and  C9_9 
REMARK    3  A    between atoms: C7_7  and  C11_11 
REMARK    4  A    between atoms: C8_8  and  C10_10 
REMARK    5  A    between atoms: C8_8  and  C11_11 
ROOT
HETATM    1  C4  UNL     1     -34.773  17.828  -3.555  1.00 20.00     0.015 C 
HETATM    2  C5  UNL     1     -35.065  16.350  -1.582  1.00 20.00     0.015 C 
HETATM    3  C11 UNL     1     -34.082  16.733  -2.707  1.00 20.00    -0.046 C 
ENDROOT
BRANCH   3   4
HETATM    4  C7  UNL     1     -32.801  17.317  -2.041  1.00 20.00     0.009 C 
BRANCH   4   5
HETATM    5  C6  UNL     1     -32.910  18.767  -1.546  1.00 20.00     0.004 C 
BRANCH   5   6
HETATM    6  C9  UNL     1     -32.287  18.981  -0.152  1.00 20.00    -0.023 C 
HETATM    7  C1  UNL     1     -30.922  18.305  -0.008  1.00 20.00     0.009 C 
HETATM    8  C2  UNL     1     -33.238  18.456   0.927  1.00 20.00     0.009 C 
ENDBRANCH   5   6
ENDBRANCH   4   5
ENDBRANCH   3   4
BRANCH   3   9
HETATM    9  C8  UNL     1     -33.793  15.526  -3.653  1.00 20.00     0.028 C 
BRANCH   9  10
HETATM   10  C10 UNL     1     -34.837  15.174  -4.731  1.00 20.00     0.079 C 
HETATM   11  C3  UNL     1     -34.158  14.935  -6.078  1.00 20.00     0.026 C 
HETATM   12 CL12 UNL     1     -35.756  13.699  -4.310  1.00 20.00    -0.125 Cl
ENDBRANCH   9  10
ENDBRANCH   3   9
TORSDOF 5
ENDMDL
MODEL 7
REMARK VINA RESULT:      -3.8      2.179      3.485
REMARK  5 active torsions:
REMARK  status: ('A' for Active; 'I' for Inactive)
REMARK    1  A    between atoms: C6_6  and  C7_7 
REMARK    2  A    between atoms: C6_6  and  C9_9 
REMARK    3  A    between atoms: C7_7  and  C11_11 
REMARK    4  A    between atoms: C8_8  and  C10_10 
REMARK    5  A    between atoms: C8_8  and  C11_11 
ROOT
HETATM    1  C4  UNL     1     -35.587  17.143   0.594  1.00 20.00     0.015 C 
HETATM    2  C5  UNL     1     -36.228  18.336  -1.486  1.00 20.00     0.015 C 
HETATM    3  C11 UNL     1     -35.090  17.539  -0.817  1.00 20.00    -0.046 C 
ENDROOT
BRANCH   3   4
HETATM    4  C7  UNL     1     -34.845  16.256  -1.665  1.00 20.00     0.009 C 
BRANCH   4   5
HETATM    5  C6  UNL     1     -35.579  16.199  -3.013  1.00 20.00     0.004 C 
BRANCH   5   6
HETATM    6  C9  UNL     1     -34.848  15.343  -4.066  1.00 20.00    -0.023 C 
HETATM    7  C1  UNL     1     -35.333  13.892  -4.085  1.00 20.00     0.009 C 
HETATM    8  C2  UNL     1     -33.340  15.378  -3.806  1.00 20.00     0.009 C 
ENDBRANCH   5   6
ENDBRANCH   4   5
ENDBRANCH   3   4
BRANCH   3   9
HETATM    9  C8  UNL     1     -33.810  18.413  -0.630  1.00 20.00     0.028 C 
BRANCH   9  10
HETATM   10  C10 UNL     1     -32.551  18.049  -1.440  1.00 20.00     0.079 C 
HETATM   11  C3  UNL     1     -32.442  18.926  -2.686  1.00 20.00     0.026 C 
HETATM   12 CL12 UNL     1     -31.057  18.270  -0.481  1.00 20.00    -0.125 Cl
ENDBRANCH   9  10
ENDBRANCH   3   9
TORSDOF 5
ENDMDL
MODEL 8
REMARK VINA RESULT:      -3.8      1.285      1.704
REMARK  5 active torsions:
REMARK  status: ('A' for Active; 'I' for Inactive)
REMARK    1  A    between atoms: C6_6  and  C7_7 
REMARK    2  A    between atoms: C6_6  and  C9_9 
REMARK    3  A    between atoms: C7_7  and  C11_11 
REMARK    4  A    between atoms: C8_8  and  C10_10 
REMARK    5  A    between atoms: C8_8  and  C11_11 
ROOT
HETATM    1  C4  UNL     1     -34.964  18.412  -2.952  1.00 20.00     0.015 C 
HETATM    2  C5  UNL     1     -32.814  17.469  -2.150  1.00 20.00     0.015 C 
HETATM    3  C11 UNL     1     -34.312  17.598  -1.809  1.00 20.00    -0.046 C 
ENDROOT
BRANCH   3   4
HETATM    4  C7  UNL     1     -34.918  16.164  -1.776  1.00 20.00     0.009 C 
BRANCH   4   5
HETATM    5  C6  UNL     1     -35.568  15.685  -3.082  1.00 20.00     0.004 C 
BRANCH   5   6
HETATM    6  C9  UNL     1     -34.942  14.388  -3.632  1.00 20.00    -0.023 C 
HETATM    7  C1  UNL     1     -33.663  14.646  -4.432  1.00 20.00     0.009 C 
HETATM    8  C2  UNL     1     -35.958  13.652  -4.509  1.00 20.00     0.009 C 
ENDBRANCH   5   6
ENDBRANCH   4   5
ENDBRANCH   3   4
BRANCH   3   9
HETATM    9  C8  UNL     1     -34.533  18.396  -0.486  1.00 20.00     0.028 C 
BRANCH   9  10
HETATM   10  C10 UNL     1     -34.902  17.613   0.788  1.00 20.00     0.079 C 
HETATM   11  C3  UNL     1     -34.017  18.041   1.957  1.00 20.00     0.026 C 
HETATM   12 CL12 UNL     1     -36.606  17.879   1.263  1.00 20.00    -0.125 Cl
ENDBRANCH   9  10
ENDBRANCH   3   9
TORSDOF 5
ENDMDL
MODEL 9
REMARK VINA RESULT:      -3.8      2.497      3.046
REMARK  5 active torsions:
REMARK  status: ('A' for Active; 'I' for Inactive)
REMARK    1  A    between atoms: C6_6  and  C7_7 
REMARK    2  A    between atoms: C6_6  and  C9_9 
REMARK    3  A    between atoms: C7_7  and  C11_11 
REMARK    4  A    between atoms: C8_8  and  C10_10 
REMARK    5  A    between atoms: C8_8  and  C11_11 
ROOT
HETATM    1  C4  UNL     1     -34.543  19.083  -2.179  1.00 20.00     0.015 C 
HETATM    2  C5  UNL     1     -32.626  19.069  -3.756  1.00 20.00     0.015 C 
HETATM    3  C11 UNL     1     -33.088  18.590  -2.364  1.00 20.00    -0.046 C 
ENDROOT
BRANCH   3   4
HETATM    4  C7  UNL     1     -33.057  17.034  -2.363  1.00 20.00     0.009 C 
BRANCH   4   5
HETATM    5  C6  UNL     1     -34.407  16.342  -2.122  1.00 20.00     0.004 C 
BRANCH   5   6
HETATM    6  C9  UNL     1     -34.665  15.164  -3.082  1.00 20.00    -0.023 C 
HETATM    7  C1  UNL     1     -33.577  15.026  -4.149  1.00 20.00     0.009 C 
HETATM    8  C2  UNL     1     -36.029  15.333  -3.757  1.00 20.00     0.009 C 
ENDBRANCH   5   6
ENDBRANCH   4   5
ENDBRANCH   3   4
BRANCH   3   9
HETATM    9  C8  UNL     1     -32.233  19.228  -1.225  1.00 20.00     0.028 C 
BRANCH   9  10
HETATM   10  C10 UNL     1     -31.927  18.379   0.024  1.00 20.00     0.079 C 
HETATM   11  C3  UNL     1     -30.739  18.959   0.790  1.00 20.00     0.026 C 
HETATM   12 CL12 UNL     1     -33.322  18.314   1.142  1.00 20.00    -0.125 Cl
ENDBRANCH   9  10
ENDBRANCH   3   9
TORSDOF 5
ENDMDL
