MODEL 1
REMARK VINA RESULT:      -4.0      0.000      0.000
REMARK  3 active torsions:
REMARK  status: ('A' for Active; 'I' for Inactive)
REMARK    1  A    between atoms: C6_6  and  C7_7 
REMARK    2  A    between atoms: C6_6  and  C8_8 
REMARK    3  A    between atoms: C7_7  and  C9_9 
ROOT
HETATM    1  C1  UNL     1     -32.619  14.722  -4.215  1.00 20.00     0.011 C 
HETATM    2  C7  UNL     1     -34.075  15.215  -4.156  1.00 20.00    -0.010 C 
ENDROOT
BRANCH   2   3
HETATM    3  C6  UNL     1     -35.033  14.029  -3.848  1.00 20.00     0.024 C 
BRANCH   3   4
HETATM    4  C8  UNL     1     -36.188  13.804  -4.841  1.00 20.00     0.078 C 
HETATM    5  C2  UNL     1     -37.466  14.479  -4.350  1.00 20.00     0.026 C 
HETATM    6 CL10 UNL     1     -35.785  14.449  -6.459  1.00 20.00    -0.125 Cl
ENDBRANCH   3   4
ENDBRANCH   2   3
BRANCH   2   7
HETATM    7  C9  UNL     1     -34.268  16.440  -3.174  1.00 20.00    -0.048 C 
HETATM    8  C3  UNL     1     -35.073  16.064  -1.916  1.00 20.00     0.015 C 
HETATM    9  C4  UNL     1     -32.894  16.984  -2.720  1.00 20.00     0.015 C 
HETATM   10  C5  UNL     1     -34.996  17.601  -3.886  1.00 20.00     0.015 C 
ENDBRANCH   2   7
TORSDOF 3
ENDMDL
MODEL 2
REMARK VINA RESULT:      -3.7      2.703      4.090
REMARK  3 active torsions:
REMARK  status: ('A' for Active; 'I' for Inactive)
REMARK    1  A    between atoms: C6_6  and  C7_7 
REMARK    2  A    between atoms: C6_6  and  C8_8 
REMARK    3  A    between atoms: C7_7  and  C9_9 
ROOT
HETATM    1  C1  UNL     1     -33.053  17.176  -2.684  1.00 20.00     0.011 C 
HETATM    2  C7  UNL     1     -33.935  15.919  -2.597  1.00 20.00    -0.010 C 
ENDROOT
BRANCH   2   3
HETATM    3  C6  UNL     1     -35.266  16.244  -1.860  1.00 20.00     0.024 C 
BRANCH   3   4
HETATM    4  C8  UNL     1     -35.278  17.521  -0.997  1.00 20.00     0.078 C 
HETATM    5  C2  UNL     1     -36.387  18.467  -1.446  1.00 20.00     0.026 C 
HETATM    6 CL10 UNL     1     -35.519  17.131   0.731  1.00 20.00    -0.125 Cl
ENDBRANCH   3   4
ENDBRANCH   2   3
BRANCH   2   7
HETATM    7  C9  UNL     1     -34.157  15.227  -4.002  1.00 20.00    -0.048 C 
HETATM    8  C3  UNL     1     -35.324  14.222  -3.985  1.00 20.00     0.015 C 
HETATM    9  C4  UNL     1     -34.456  16.292  -5.082  1.00 20.00     0.015 C 
HETATM   10  C5  UNL     1     -32.881  14.481  -4.451  1.00 20.00     0.015 C 
ENDBRANCH   2   7
TORSDOF 3
ENDMDL
MODEL 3
REMARK VINA RESULT:      -3.7      2.701      4.086
REMARK  3 active torsions:
REMARK  status: ('A' for Active; 'I' for Inactive)
REMARK    1  A    between atoms: C6_6  and  C7_7 
REMARK    2  A    between atoms: C6_6  and  C8_8 
REMARK    3  A    between atoms: C7_7  and  C9_9 
ROOT
HETATM    1  C1  UNL     1     -33.044  17.189  -2.647  1.00 20.00     0.011 C 
HETATM    2  C7  UNL     1     -33.926  15.930  -2.602  1.00 20.00    -0.010 C 
ENDROOT
BRANCH   2   3
HETATM    3  C6  UNL     1     -35.263  16.235  -1.867  1.00 20.00     0.024 C 
BRANCH   3   4
HETATM    4  C8  UNL     1     -35.297  17.513  -1.007  1.00 20.00     0.078 C 
HETATM    5  C2  UNL     1     -36.442  18.426  -1.439  1.00 20.00     0.026 C 
HETATM    6 CL10 UNL     1     -35.498  17.122   0.726  1.00 20.00    -0.125 Cl
ENDBRANCH   3   4
ENDBRANCH   2   3
BRANCH   2   7
HETATM    7  C9  UNL     1     -34.136  15.277  -4.026  1.00 20.00    -0.048 C 
HETATM    8  C3  UNL     1     -34.443  16.323  -5.114  1.00 20.00     0.015 C 
HETATM    9  C4  UNL     1     -32.869  14.500  -4.452  1.00 20.00     0.015 C 
HETATM   10  C5  UNL     1     -35.296  14.257  -3.995  1.00 20.00     0.015 C 
ENDBRANCH   2   7
TORSDOF 3
ENDMDL
MODEL 4
REMARK VINA RESULT:      -3.6      2.482      3.957
REMARK  3 active torsions:
REMARK  status: ('A' for Active; 'I' for Inactive)
REMARK    1  A    between atoms: C6_6  and  C7_7 
REMARK    2  A    between atoms: C6_6  and  C8_8 
REMARK    3  A    between atoms: C7_7  and  C9_9 
ROOT
HETATM    1  C1  UNL     1     -33.060  14.697  -4.303  1.00 20.00     0.011 C 
HETATM    2  C7  UNL     1     -34.340  14.935  -3.483  1.00 20.00    -0.010 C 
ENDROOT
BRANCH   2   3
HETATM    3  C6  UNL     1     -34.151  16.149  -2.530  1.00 20.00     0.024 C 
BRANCH   3   4
HETATM    4  C8  UNL     1     -33.079  17.179  -2.935  1.00 20.00     0.078 C 
HETATM    5  C2  UNL     1     -33.700  18.320  -3.737  1.00 20.00     0.026 C 
HETATM    6 CL10 UNL     1     -32.265  17.866  -1.498  1.00 20.00    -0.125 Cl
ENDBRANCH   3   4
ENDBRANCH   2   3
BRANCH   2   7
HETATM    7  C9  UNL     1     -35.633  15.050  -4.386  1.00 20.00    -0.048 C 
HETATM    8  C3  UNL     1     -36.683  16.006  -3.791  1.00 20.00     0.015 C 
HETATM    9  C4  UNL     1     -35.259  15.565  -5.795  1.00 20.00     0.015 C 
HETATM   10  C5  UNL     1     -36.292  13.665  -4.576  1.00 20.00     0.015 C 
ENDBRANCH   2   7
TORSDOF 3
ENDMDL
MODEL 5
REMARK VINA RESULT:      -3.6      2.486      3.927
REMARK  3 active torsions:
REMARK  status: ('A' for Active; 'I' for Inactive)
REMARK    1  A    between atoms: C6_6  and  C7_7 
REMARK    2  A    between atoms: C6_6  and  C8_8 
REMARK    3  A    between atoms: C7_7  and  C9_9 
ROOT
HETATM    1  C1  UNL     1     -33.045  14.709  -4.306  1.00 20.00     0.011 C 
HETATM    2  C7  UNL     1     -34.331  14.937  -3.492  1.00 20.00    -0.010 C 
ENDROOT
BRANCH   2   3
HETATM    3  C6  UNL     1     -34.156  16.154  -2.539  1.00 20.00     0.024 C 
BRANCH   3   4
HETATM    4  C8  UNL     1     -33.077  17.182  -2.929  1.00 20.00     0.078 C 
HETATM    5  C2  UNL     1     -33.682  18.319  -3.746  1.00 20.00     0.026 C 
HETATM    6 CL10 UNL     1     -32.288  17.873  -1.481  1.00 20.00    -0.125 Cl
ENDBRANCH   3   4
ENDBRANCH   2   3
BRANCH   2   7
HETATM    7  C9  UNL     1     -35.621  15.039  -4.400  1.00 20.00    -0.048 C 
HETATM    8  C3  UNL     1     -36.319  13.678  -4.586  1.00 20.00     0.015 C 
HETATM    9  C4  UNL     1     -36.640  16.020  -3.776  1.00 20.00     0.015 C 
HETATM   10  C5  UNL     1     -35.263  15.594  -5.796  1.00 20.00     0.015 C 
ENDBRANCH   2   7
TORSDOF 3
ENDMDL
MODEL 6
REMARK VINA RESULT:      -3.6      1.520      2.594
REMARK  3 active torsions:
REMARK  status: ('A' for Active; 'I' for Inactive)
REMARK    1  A    between atoms: C6_6  and  C7_7 
REMARK    2  A    between atoms: C6_6  and  C8_8 
REMARK    3  A    between atoms: C7_7  and  C9_9 
ROOT
HETATM    1  C1  UNL     1     -35.255  16.254  -1.549  1.00 20.00     0.011 C 
HETATM    2  C7  UNL     1     -35.132  15.723  -2.988  1.00 20.00    -0.010 C 
ENDROOT
BRANCH   2   3
HETATM    3  C6  UNL     1     -36.399  16.096  -3.810  1.00 20.00     0.024 C 
BRANCH   3   4
HETATM    4  C8  UNL     1     -37.036  14.966  -4.640  1.00 20.00     0.078 C 
HETATM    5  C2  UNL     1     -36.269  13.659  -4.456  1.00 20.00     0.026 C 
HETATM    6 CL10 UNL     1     -38.741  14.700  -4.172  1.00 20.00    -0.125 Cl
ENDBRANCH   3   4
ENDBRANCH   2   3
BRANCH   2   7
HETATM    7  C9  UNL     1     -33.785  16.162  -3.690  1.00 20.00    -0.048 C 
HETATM    8  C3  UNL     1     -32.970  14.959  -4.204  1.00 20.00     0.015 C 
HETATM    9  C4  UNL     1     -34.084  17.087  -4.892  1.00 20.00     0.015 C 
HETATM   10  C5  UNL     1     -32.898  16.966  -2.715  1.00 20.00     0.015 C 
ENDBRANCH   2   7
TORSDOF 3
ENDMDL
MODEL 7
REMARK VINA RESULT:      -3.5      1.521      2.576
REMARK  3 active torsions:
REMARK  status: ('A' for Active; 'I' for Inactive)
REMARK    1  A    between atoms: C6_6  and  C7_7 
REMARK    2  A    between atoms: C6_6  and  C8_8 
REMARK    3  A    between atoms: C7_7  and  C9_9 
ROOT
HETATM    1  C1  UNL     1     -35.264  16.259  -1.543  1.00 20.00     0.011 C 
HETATM    2  C7  UNL     1     -35.144  15.747  -2.989  1.00 20.00    -0.010 C 
ENDROOT
BRANCH   2   3
HETATM    3  C6  UNL     1     -36.422  16.110  -3.798  1.00 20.00     0.024 C 
BRANCH   3   4
HETATM    4  C8  UNL     1     -37.048  14.979  -4.636  1.00 20.00     0.078 C 
HETATM    5  C2  UNL     1     -36.275  13.676  -4.453  1.00 20.00     0.026 C 
HETATM    6 CL10 UNL     1     -38.755  14.703  -4.180  1.00 20.00    -0.125 Cl
ENDBRANCH   3   4
ENDBRANCH   2   3
BRANCH   2   7
HETATM    7  C9  UNL     1     -33.809  16.215  -3.695  1.00 20.00    -0.048 C 
HETATM    8  C3  UNL     1     -34.073  17.130  -4.906  1.00 20.00     0.015 C 
HETATM    9  C4  UNL     1     -32.916  16.986  -2.697  1.00 20.00     0.015 C 
HETATM   10  C5  UNL     1     -32.991  14.997  -4.180  1.00 20.00     0.015 C 
ENDBRANCH   2   7
TORSDOF 3
ENDMDL
MODEL 8
REMARK VINA RESULT:      -3.5      3.203      4.923
REMARK  3 active torsions:
REMARK  status: ('A' for Active; 'I' for Inactive)
REMARK    1  A    between atoms: C6_6  and  C7_7 
REMARK    2  A    between atoms: C6_6  and  C8_8 
REMARK    3  A    between atoms: C7_7  and  C9_9 
ROOT
HETATM    1  C1  UNL     1     -32.925  18.454  -3.732  1.00 20.00     0.011 C 
HETATM    2  C7  UNL     1     -33.026  17.134  -2.947  1.00 20.00    -0.010 C 
ENDROOT
BRANCH   2   3
HETATM    3  C6  UNL     1     -33.492  17.409  -1.488  1.00 20.00     0.024 C 
BRANCH   3   4
HETATM    4  C8  UNL     1     -32.798  18.573  -0.755  1.00 20.00     0.078 C 
HETATM    5  C2  UNL     1     -33.474  18.848   0.586  1.00 20.00     0.026 C 
HETATM    6 CL10 UNL     1     -31.070  18.215  -0.463  1.00 20.00    -0.125 Cl
ENDBRANCH   3   4
ENDBRANCH   2   3
BRANCH   2   7
HETATM    7  C9  UNL     1     -33.908  16.049  -3.686  1.00 20.00    -0.048 C 
HETATM    8  C3  UNL     1     -33.075  14.853  -4.183  1.00 20.00     0.015 C 
HETATM    9  C4  UNL     1     -35.002  15.510  -2.737  1.00 20.00     0.015 C 
HETATM   10  C5  UNL     1     -34.634  16.670  -4.900  1.00 20.00     0.015 C 
ENDBRANCH   2   7
TORSDOF 3
ENDMDL
MODEL 9
REMARK VINA RESULT:      -3.5      1.885      3.172
REMARK  3 active torsions:
REMARK  status: ('A' for Active; 'I' for Inactive)
REMARK    1  A    between atoms: C6_6  and  C7_7 
REMARK    2  A    between atoms: C6_6  and  C8_8 
REMARK    3  A    between atoms: C7_7  and  C9_9 
ROOT
HETATM    1  C1  UNL     1     -35.132  16.522  -1.724  1.00 20.00     0.011 C 
HETATM    2  C7  UNL     1     -33.641  16.653  -2.079  1.00 20.00    -0.010 C 
ENDROOT
BRANCH   2   3
HETATM    3  C6  UNL     1     -33.343  15.936  -3.428  1.00 20.00     0.024 C 
BRANCH   3   4
HETATM    4  C8  UNL     1     -34.564  15.436  -4.223  1.00 20.00     0.078 C 
HETATM    5  C2  UNL     1     -34.373  15.678  -5.718  1.00 20.00     0.026 C 
HETATM    6 CL10 UNL     1     -34.840  13.690  -3.955  1.00 20.00    -0.125 Cl
ENDBRANCH   3   4
ENDBRANCH   2   3
BRANCH   2   7
HETATM    7  C9  UNL     1     -33.132  18.150  -2.047  1.00 20.00    -0.048 C 
HETATM    8  C3  UNL     1     -32.774  18.680  -3.448  1.00 20.00     0.015 C 
HETATM    9  C4  UNL     1     -34.219  19.072  -1.447  1.00 20.00     0.015 C 
HETATM   10  C5  UNL     1     -31.885  18.284  -1.145  1.00 20.00     0.015 C 
ENDBRANCH   2   7
TORSDOF 3
ENDMDL
