MODEL 1
REMARK VINA RESULT:      -5.1      0.000      0.000
REMARK  4 active torsions:
REMARK  status: ('A' for Active; 'I' for Inactive)
REMARK    1  A    between atoms: C1_1  and  C8_8 
REMARK    2  A    between atoms: C1_1  and  C9_9 
REMARK    3  A    between atoms: C4_4  and  C8_8 
REMARK    4  A    between atoms: C9_9  and  C10_10 
ROOT
HETATM    1  C1  UNL     1     -32.940   6.228   2.702  1.00 20.00     0.128 C 
HETATM    2  O11 UNL     1     -32.953   5.096   2.218  1.00 20.00    -0.298 OA
ENDROOT
BRANCH   1   3
HETATM    3  C8  UNL     1     -32.302   7.407   1.990  1.00 20.00     0.082 C 
BRANCH   3   4
HETATM    4  C4  UNL     1     -33.280   8.255   1.239  1.00 20.00    -0.008 A 
HETATM    5  C2  UNL     1     -32.877   9.613   0.739  1.00 20.00     0.005 A 
HETATM    6  C3  UNL     1     -33.101   8.490  -0.235  1.00 20.00     0.005 A 
ENDBRANCH   3   4
ENDBRANCH   1   3
BRANCH   1   7
HETATM    7  C9  UNL     1     -33.552   6.506   4.066  1.00 20.00     0.086 C 
BRANCH   7   8
HETATM    8  C10 UNL     1     -34.588   5.464   4.544  1.00 20.00    -0.045 C 
HETATM    9  C5  UNL     1     -34.120   4.029   4.245  1.00 20.00     0.015 C 
HETATM   10  C6  UNL     1     -35.958   5.697   3.888  1.00 20.00     0.015 C 
HETATM   11  C7  UNL     1     -34.746   5.613   6.070  1.00 20.00     0.015 C 
ENDBRANCH   7   8
ENDBRANCH   1   7
TORSDOF 4
ENDMDL
MODEL 2
REMARK VINA RESULT:      -5.0      1.114      1.282
REMARK  4 active torsions:
REMARK  status: ('A' for Active; 'I' for Inactive)
REMARK    1  A    between atoms: C1_1  and  C8_8 
REMARK    2  A    between atoms: C1_1  and  C9_9 
REMARK    3  A    between atoms: C4_4  and  C8_8 
REMARK    4  A    between atoms: C9_9  and  C10_10 
ROOT
HETATM    1  C1  UNL     1     -32.718   7.124   3.352  1.00 20.00     0.128 C 
HETATM    2  O11 UNL     1     -31.550   7.335   3.677  1.00 20.00    -0.298 OA
ENDROOT
BRANCH   1   3
HETATM    3  C8  UNL     1     -33.153   7.032   1.901  1.00 20.00     0.082 C 
BRANCH   3   4
HETATM    4  C4  UNL     1     -32.517   8.059   1.018  1.00 20.00    -0.008 A 
HETATM    5  C2  UNL     1     -33.245   8.573  -0.192  1.00 20.00     0.005 A 
HETATM    6  C3  UNL     1     -33.040   9.468   0.998  1.00 20.00     0.005 A 
ENDBRANCH   3   4
ENDBRANCH   1   3
BRANCH   1   7
HETATM    7  C9  UNL     1     -33.807   6.960   4.401  1.00 20.00     0.086 C 
BRANCH   7   8
HETATM    8  C10 UNL     1     -34.497   5.577   4.418  1.00 20.00    -0.045 C 
HETATM    9  C5  UNL     1     -33.693   4.539   3.616  1.00 20.00     0.015 C 
HETATM   10  C6  UNL     1     -35.925   5.657   3.856  1.00 20.00     0.015 C 
HETATM   11  C7  UNL     1     -34.575   5.101   5.882  1.00 20.00     0.015 C 
ENDBRANCH   7   8
ENDBRANCH   1   7
TORSDOF 4
ENDMDL
MODEL 3
REMARK VINA RESULT:      -5.0     10.533     12.228
REMARK  4 active torsions:
REMARK  status: ('A' for Active; 'I' for Inactive)
REMARK    1  A    between atoms: C1_1  and  C8_8 
REMARK    2  A    between atoms: C1_1  and  C9_9 
REMARK    3  A    between atoms: C4_4  and  C8_8 
REMARK    4  A    between atoms: C9_9  and  C10_10 
ROOT
HETATM    1  C1  UNL     1     -34.518  14.172  -4.057  1.00 20.00     0.128 C 
HETATM    2  O11 UNL     1     -34.587  12.948  -3.952  1.00 20.00    -0.298 OA
ENDROOT
BRANCH   1   3
HETATM    3  C8  UNL     1     -35.258  15.110  -3.121  1.00 20.00     0.082 C 
BRANCH   3   4
HETATM    4  C4  UNL     1     -34.356  16.000  -2.325  1.00 20.00    -0.008 A 
HETATM    5  C2  UNL     1     -34.390  17.489  -2.528  1.00 20.00     0.005 A 
HETATM    6  C3  UNL     1     -34.923  16.891  -1.256  1.00 20.00     0.005 A 
ENDBRANCH   3   4
ENDBRANCH   1   3
BRANCH   1   7
HETATM    7  C9  UNL     1     -33.691  14.821  -5.157  1.00 20.00     0.086 C 
BRANCH   7   8
HETATM    8  C10 UNL     1     -34.505  15.368  -6.351  1.00 20.00    -0.045 C 
HETATM    9  C5  UNL     1     -34.761  16.878  -6.210  1.00 20.00     0.015 C 
HETATM   10  C6  UNL     1     -35.849  14.636  -6.494  1.00 20.00     0.015 C 
HETATM   11  C7  UNL     1     -33.683  15.134  -7.634  1.00 20.00     0.015 C 
ENDBRANCH   7   8
ENDBRANCH   1   7
TORSDOF 4
ENDMDL
MODEL 4
REMARK VINA RESULT:      -5.0     10.670     12.280
REMARK  4 active torsions:
REMARK  status: ('A' for Active; 'I' for Inactive)
REMARK    1  A    between atoms: C1_1  and  C8_8 
REMARK    2  A    between atoms: C1_1  and  C9_9 
REMARK    3  A    between atoms: C4_4  and  C8_8 
REMARK    4  A    between atoms: C9_9  and  C10_10 
ROOT
HETATM    1  C1  UNL     1     -35.216  14.108  -4.212  1.00 20.00     0.128 C 
HETATM    2  O11 UNL     1     -34.578  13.071  -4.032  1.00 20.00    -0.298 OA
ENDROOT
BRANCH   1   3
HETATM    3  C8  UNL     1     -35.264  15.220  -3.180  1.00 20.00     0.082 C 
BRANCH   3   4
HETATM    4  C4  UNL     1     -33.914  15.711  -2.762  1.00 20.00    -0.008 A 
HETATM    5  C2  UNL     1     -33.303  16.910  -3.431  1.00 20.00     0.005 A 
HETATM    6  C3  UNL     1     -33.779  17.004  -2.009  1.00 20.00     0.005 A 
ENDBRANCH   3   4
ENDBRANCH   1   3
BRANCH   1   7
HETATM    7  C9  UNL     1     -36.016  14.327  -5.487  1.00 20.00     0.086 C 
BRANCH   7   8
HETATM    8  C10 UNL     1     -35.340  15.239  -6.536  1.00 20.00    -0.045 C 
HETATM    9  C5  UNL     1     -33.822  14.997  -6.594  1.00 20.00     0.015 C 
HETATM   10  C6  UNL     1     -35.606  16.723  -6.241  1.00 20.00     0.015 C 
HETATM   11  C7  UNL     1     -35.936  14.901  -7.917  1.00 20.00     0.015 C 
ENDBRANCH   7   8
ENDBRANCH   1   7
TORSDOF 4
ENDMDL
MODEL 5
REMARK VINA RESULT:      -5.0      0.046      1.307
REMARK  4 active torsions:
REMARK  status: ('A' for Active; 'I' for Inactive)
REMARK    1  A    between atoms: C1_1  and  C8_8 
REMARK    2  A    between atoms: C1_1  and  C9_9 
REMARK    3  A    between atoms: C4_4  and  C8_8 
REMARK    4  A    between atoms: C9_9  and  C10_10 
ROOT
HETATM    1  C1  UNL     1     -32.953   6.185   2.708  1.00 20.00     0.128 C 
HETATM    2  O11 UNL     1     -32.998   5.052   2.232  1.00 20.00    -0.298 OA
ENDROOT
BRANCH   1   3
HETATM    3  C8  UNL     1     -32.307   7.348   1.977  1.00 20.00     0.082 C 
BRANCH   3   4
HETATM    4  C4  UNL     1     -33.284   8.213   1.244  1.00 20.00    -0.008 A 
HETATM    5  C2  UNL     1     -32.874   9.576   0.760  1.00 20.00     0.005 A 
HETATM    6  C3  UNL     1     -33.113   8.468  -0.227  1.00 20.00     0.005 A 
ENDBRANCH   3   4
ENDBRANCH   1   3
BRANCH   1   7
HETATM    7  C9  UNL     1     -33.532   6.483   4.083  1.00 20.00     0.086 C 
BRANCH   7   8
HETATM    8  C10 UNL     1     -34.599   5.480   4.576  1.00 20.00    -0.045 C 
HETATM    9  C5  UNL     1     -35.951   5.712   3.879  1.00 20.00     0.015 C 
HETATM   10  C6  UNL     1     -34.791   5.571   6.098  1.00 20.00     0.015 C 
HETATM   11  C7  UNL     1     -34.113   4.059   4.229  1.00 20.00     0.015 C 
ENDBRANCH   7   8
ENDBRANCH   1   7
TORSDOF 4
ENDMDL
MODEL 6
REMARK VINA RESULT:      -4.8     10.914     12.009
REMARK  4 active torsions:
REMARK  status: ('A' for Active; 'I' for Inactive)
REMARK    1  A    between atoms: C1_1  and  C8_8 
REMARK    2  A    between atoms: C1_1  and  C9_9 
REMARK    3  A    between atoms: C4_4  and  C8_8 
REMARK    4  A    between atoms: C9_9  and  C10_10 
ROOT
HETATM    1  C1  UNL     1     -33.819  14.612  -4.532  1.00 20.00     0.128 C 
HETATM    2  O11 UNL     1     -34.147  13.518  -4.072  1.00 20.00    -0.298 OA
ENDROOT
BRANCH   1   3
HETATM    3  C8  UNL     1     -34.162  15.031  -5.949  1.00 20.00     0.082 C 
BRANCH   3   4
HETATM    4  C4  UNL     1     -35.588  14.773  -6.324  1.00 20.00    -0.008 A 
HETATM    5  C2  UNL     1     -36.704  15.389  -5.527  1.00 20.00     0.005 A 
HETATM    6  C3  UNL     1     -36.423  15.869  -6.924  1.00 20.00     0.005 A 
ENDBRANCH   3   4
ENDBRANCH   1   3
BRANCH   1   7
HETATM    7  C9  UNL     1     -33.026  15.608  -3.700  1.00 20.00     0.086 C 
BRANCH   7   8
HETATM    8  C10 UNL     1     -33.875  16.659  -2.951  1.00 20.00    -0.045 C 
HETATM    9  C5  UNL     1     -35.039  16.002  -2.191  1.00 20.00     0.015 C 
HETATM   10  C6  UNL     1     -34.432  17.717  -3.917  1.00 20.00     0.015 C 
HETATM   11  C7  UNL     1     -32.965  17.365  -1.927  1.00 20.00     0.015 C 
ENDBRANCH   7   8
ENDBRANCH   1   7
TORSDOF 4
ENDMDL
MODEL 7
REMARK VINA RESULT:      -4.8     10.654     11.895
REMARK  4 active torsions:
REMARK  status: ('A' for Active; 'I' for Inactive)
REMARK    1  A    between atoms: C1_1  and  C8_8 
REMARK    2  A    between atoms: C1_1  and  C9_9 
REMARK    3  A    between atoms: C4_4  and  C8_8 
REMARK    4  A    between atoms: C9_9  and  C10_10 
ROOT
HETATM    1  C1  UNL     1     -34.983  14.167  -4.260  1.00 20.00     0.128 C 
HETATM    2  O11 UNL     1     -34.267  13.193  -4.026  1.00 20.00    -0.298 OA
ENDROOT
BRANCH   1   3
HETATM    3  C8  UNL     1     -35.322  14.604  -5.673  1.00 20.00     0.082 C 
BRANCH   3   4
HETATM    4  C4  UNL     1     -34.163  15.194  -6.413  1.00 20.00    -0.008 A 
HETATM    5  C2  UNL     1     -34.193  15.291  -7.913  1.00 20.00     0.005 A 
HETATM    6  C3  UNL     1     -34.295  16.536  -7.077  1.00 20.00     0.005 A 
ENDBRANCH   3   4
ENDBRANCH   1   3
BRANCH   1   7
HETATM    7  C9  UNL     1     -35.558  15.008  -3.130  1.00 20.00     0.086 C 
BRANCH   7   8
HETATM    8  C10 UNL     1     -34.778  16.305  -2.817  1.00 20.00    -0.045 C 
HETATM    9  C5  UNL     1     -35.294  17.485  -3.658  1.00 20.00     0.015 C 
HETATM   10  C6  UNL     1     -33.272  16.125  -3.064  1.00 20.00     0.015 C 
HETATM   11  C7  UNL     1     -34.992  16.641  -1.328  1.00 20.00     0.015 C 
ENDBRANCH   7   8
ENDBRANCH   1   7
TORSDOF 4
ENDMDL
MODEL 8
REMARK VINA RESULT:      -4.8     10.766     12.070
REMARK  4 active torsions:
REMARK  status: ('A' for Active; 'I' for Inactive)
REMARK    1  A    between atoms: C1_1  and  C8_8 
REMARK    2  A    between atoms: C1_1  and  C9_9 
REMARK    3  A    between atoms: C4_4  and  C8_8 
REMARK    4  A    between atoms: C9_9  and  C10_10 
ROOT
HETATM    1  C1  UNL     1     -36.290  13.892  -4.655  1.00 20.00     0.128 C 
HETATM    2  O11 UNL     1     -35.943  12.721  -4.507  1.00 20.00    -0.298 OA
ENDROOT
BRANCH   1   3
HETATM    3  C8  UNL     1     -37.685  14.375  -4.305  1.00 20.00     0.082 C 
BRANCH   3   4
HETATM    4  C4  UNL     1     -37.981  15.759  -4.792  1.00 20.00    -0.008 A 
HETATM    5  C2  UNL     1     -39.347  16.355  -4.596  1.00 20.00     0.005 A 
HETATM    6  C3  UNL     1     -38.176  16.880  -3.811  1.00 20.00     0.005 A 
ENDBRANCH   3   4
ENDBRANCH   1   3
BRANCH   1   7
HETATM    7  C9  UNL     1     -35.333  14.928  -5.224  1.00 20.00     0.086 C 
BRANCH   7   8
HETATM    8  C10 UNL     1     -34.297  15.484  -4.221  1.00 20.00    -0.045 C 
HETATM    9  C5  UNL     1     -32.969  14.712  -4.302  1.00 20.00     0.015 C 
HETATM   10  C6  UNL     1     -34.828  15.428  -2.781  1.00 20.00     0.015 C 
HETATM   11  C7  UNL     1     -34.024  16.956  -4.584  1.00 20.00     0.015 C 
ENDBRANCH   7   8
ENDBRANCH   1   7
TORSDOF 4
ENDMDL
MODEL 9
REMARK VINA RESULT:      -4.7     10.826     12.203
REMARK  4 active torsions:
REMARK  status: ('A' for Active; 'I' for Inactive)
REMARK    1  A    between atoms: C1_1  and  C8_8 
REMARK    2  A    between atoms: C1_1  and  C9_9 
REMARK    3  A    between atoms: C4_4  and  C8_8 
REMARK    4  A    between atoms: C9_9  and  C10_10 
ROOT
HETATM    1  C1  UNL     1     -33.638  14.599  -4.589  1.00 20.00     0.128 C 
HETATM    2  O11 UNL     1     -33.582  13.414  -4.262  1.00 20.00    -0.298 OA
ENDROOT
BRANCH   1   3
HETATM    3  C8  UNL     1     -33.451  15.726  -3.591  1.00 20.00     0.082 C 
BRANCH   3   4
HETATM    4  C4  UNL     1     -34.468  15.731  -2.493  1.00 20.00    -0.008 A 
HETATM    5  C2  UNL     1     -34.521  16.869  -1.513  1.00 20.00     0.005 A 
HETATM    6  C3  UNL     1     -35.616  16.701  -2.529  1.00 20.00     0.005 A 
ENDBRANCH   3   4
ENDBRANCH   1   3
BRANCH   1   7
HETATM    7  C9  UNL     1     -33.920  15.004  -6.028  1.00 20.00     0.086 C 
BRANCH   7   8
HETATM    8  C10 UNL     1     -35.406  15.282  -6.351  1.00 20.00    -0.045 C 
HETATM    9  C5  UNL     1     -35.735  14.941  -7.814  1.00 20.00     0.015 C 
HETATM   10  C6  UNL     1     -35.771  16.750  -6.078  1.00 20.00     0.015 C 
HETATM   11  C7  UNL     1     -36.267  14.386  -5.439  1.00 20.00     0.015 C 
ENDBRANCH   7   8
ENDBRANCH   1   7
TORSDOF 4
ENDMDL
