MODEL 1
REMARK VINA RESULT:      -4.5      0.000      0.000
REMARK  4 active torsions:
REMARK  status: ('A' for Active; 'I' for Inactive)
REMARK    1  A    between atoms: C5_5  and  C7_7 
REMARK    2  A    between atoms: C6_6  and  C8_8 
REMARK    3  A    between atoms: C7_7  and  C8_8 
REMARK    4  A    between atoms: C8_8  and  O9_9 
ROOT
HETATM    1  C8  UNL     1     -32.710   7.318   2.605  1.00 20.00     0.122 C 
ENDROOT
BRANCH   1   2
HETATM    2  C6  UNL     1     -32.297   7.887   1.255  1.00 20.00     0.014 A 
HETATM    3  C3  UNL     1     -33.299   7.995   0.140  1.00 20.00     0.007 A 
HETATM    4  C4  UNL     1     -32.794   9.237   0.819  1.00 20.00     0.007 A 
ENDBRANCH   1   2
BRANCH   1   5
HETATM    5  C7  UNL     1     -33.007   5.820   2.507  1.00 20.00     0.036 C 
BRANCH   5   6
HETATM    6  C5  UNL     1     -34.323   5.447   3.180  1.00 20.00    -0.012 A 
HETATM    7  C1  UNL     1     -34.360   4.369   4.228  1.00 20.00     0.005 A 
HETATM    8  C2  UNL     1     -34.564   5.806   4.620  1.00 20.00     0.005 A 
ENDBRANCH   5   6
ENDBRANCH   1   5
BRANCH   1   9
HETATM    9  O9  UNL     1     -31.651   7.524   3.535  1.00 20.00    -0.395 OA
HETATM   10  H23 UNL     1     -31.997   7.277   4.407  1.00 20.00     0.210 HD
ENDBRANCH   1   9
TORSDOF 4
ENDMDL
MODEL 2
REMARK VINA RESULT:      -4.4      1.851      4.375
REMARK  4 active torsions:
REMARK  status: ('A' for Active; 'I' for Inactive)
REMARK    1  A    between atoms: C5_5  and  C7_7 
REMARK    2  A    between atoms: C6_6  and  C8_8 
REMARK    3  A    between atoms: C7_7  and  C8_8 
REMARK    4  A    between atoms: C8_8  and  O9_9 
ROOT
HETATM    1  C8  UNL     1     -34.473   4.880   3.620  1.00 20.00     0.122 C 
ENDROOT
BRANCH   1   2
HETATM    2  C6  UNL     1     -34.805   5.897   4.703  1.00 20.00     0.014 A 
HETATM    3  C3  UNL     1     -35.070   5.444   6.111  1.00 20.00     0.007 A 
HETATM    4  C4  UNL     1     -33.810   6.197   5.789  1.00 20.00     0.007 A 
ENDBRANCH   1   2
BRANCH   1   5
HETATM    5  C7  UNL     1     -33.305   5.354   2.753  1.00 20.00     0.036 C 
BRANCH   5   6
HETATM    6  C5  UNL     1     -33.156   6.871   2.765  1.00 20.00    -0.012 A 
HETATM    7  C1  UNL     1     -31.815   7.498   3.028  1.00 20.00     0.005 A 
HETATM    8  C2  UNL     1     -32.421   7.568   1.654  1.00 20.00     0.005 A 
ENDBRANCH   5   6
ENDBRANCH   1   5
BRANCH   1   9
HETATM    9  O9  UNL     1     -34.123   3.645   4.240  1.00 20.00    -0.395 OA
HETATM   10  H23 UNL     1     -33.622   3.870   5.039  1.00 20.00     0.210 HD
ENDBRANCH   1   9
TORSDOF 4
ENDMDL
MODEL 3
REMARK VINA RESULT:      -4.4      0.935      4.191
REMARK  4 active torsions:
REMARK  status: ('A' for Active; 'I' for Inactive)
REMARK    1  A    between atoms: C5_5  and  C7_7 
REMARK    2  A    between atoms: C6_6  and  C8_8 
REMARK    3  A    between atoms: C7_7  and  C8_8 
REMARK    4  A    between atoms: C8_8  and  O9_9 
ROOT
HETATM    1  C8  UNL     1     -32.885   6.532   3.736  1.00 20.00     0.122 C 
ENDROOT
BRANCH   1   2
HETATM    2  C6  UNL     1     -34.224   6.579   4.458  1.00 20.00     0.014 A 
HETATM    3  C3  UNL     1     -35.116   5.369   4.479  1.00 20.00     0.007 A 
HETATM    4  C4  UNL     1     -34.421   5.811   5.736  1.00 20.00     0.007 A 
ENDBRANCH   1   2
BRANCH   1   5
HETATM    5  C7  UNL     1     -33.069   6.651   2.221  1.00 20.00     0.036 C 
BRANCH   5   6
HETATM    6  C5  UNL     1     -32.341   7.860   1.645  1.00 20.00    -0.012 A 
HETATM    7  C1  UNL     1     -32.371   8.128   0.166  1.00 20.00     0.005 A 
HETATM    8  C2  UNL     1     -33.122   9.027   1.108  1.00 20.00     0.005 A 
ENDBRANCH   5   6
ENDBRANCH   1   5
BRANCH   1   9
HETATM    9  O9  UNL     1     -32.077   7.612   4.194  1.00 20.00    -0.395 OA
HETATM   10  H23 UNL     1     -32.543   8.006   4.948  1.00 20.00     0.210 HD
ENDBRANCH   1   9
TORSDOF 4
ENDMDL
MODEL 4
REMARK VINA RESULT:      -4.3     16.052     16.929
REMARK  4 active torsions:
REMARK  status: ('A' for Active; 'I' for Inactive)
REMARK    1  A    between atoms: C5_5  and  C7_7 
REMARK    2  A    between atoms: C6_6  and  C8_8 
REMARK    3  A    between atoms: C7_7  and  C8_8 
REMARK    4  A    between atoms: C8_8  and  O9_9 
ROOT
HETATM    1  C8  UNL     1     -23.810  17.000  11.463  1.00 20.00     0.122 C 
ENDROOT
BRANCH   1   2
HETATM    2  C6  UNL     1     -24.797  17.766  12.332  1.00 20.00     0.014 A 
HETATM    3  C3  UNL     1     -25.704  18.796  11.720  1.00 20.00     0.007 A 
HETATM    4  C4  UNL     1     -26.272  17.497  12.219  1.00 20.00     0.007 A 
ENDBRANCH   1   2
BRANCH   1   5
HETATM    5  C7  UNL     1     -22.537  17.815  11.220  1.00 20.00     0.036 C 
BRANCH   5   6
HETATM    6  C5  UNL     1     -22.349  18.168   9.750  1.00 20.00    -0.012 A 
HETATM    7  C1  UNL     1     -22.440  17.099   8.696  1.00 20.00     0.005 A 
HETATM    8  C2  UNL     1     -23.522  18.137   8.809  1.00 20.00     0.005 A 
ENDBRANCH   5   6
ENDBRANCH   1   5
BRANCH   1   9
HETATM    9  O9  UNL     1     -23.467  15.783  12.119  1.00 20.00    -0.395 OA
HETATM   10  H23 UNL     1     -22.512  15.663  11.997  1.00 20.00     0.210 HD
ENDBRANCH   1   9
TORSDOF 4
ENDMDL
MODEL 5
REMARK VINA RESULT:      -4.2     10.745     11.511
REMARK  4 active torsions:
REMARK  status: ('A' for Active; 'I' for Inactive)
REMARK    1  A    between atoms: C5_5  and  C7_7 
REMARK    2  A    between atoms: C6_6  and  C8_8 
REMARK    3  A    between atoms: C7_7  and  C8_8 
REMARK    4  A    between atoms: C8_8  and  O9_9 
ROOT
HETATM    1  C8  UNL     1     -34.102  15.068  -5.565  1.00 20.00     0.122 C 
ENDROOT
BRANCH   1   2
HETATM    2  C6  UNL     1     -35.473  14.443  -5.777  1.00 20.00     0.014 A 
HETATM    3  C3  UNL     1     -36.258  13.924  -4.604  1.00 20.00     0.007 A 
HETATM    4  C4  UNL     1     -36.712  15.165  -5.322  1.00 20.00     0.007 A 
ENDBRANCH   1   2
BRANCH   1   5
HETATM    5  C7  UNL     1     -33.496  14.635  -4.228  1.00 20.00     0.036 C 
BRANCH   5   6
HETATM    6  C5  UNL     1     -33.285  15.811  -3.283  1.00 20.00    -0.012 A 
HETATM    7  C1  UNL     1     -34.068  17.082  -3.467  1.00 20.00     0.005 A 
HETATM    8  C2  UNL     1     -34.353  16.187  -2.293  1.00 20.00     0.005 A 
ENDBRANCH   5   6
ENDBRANCH   1   5
BRANCH   1   9
HETATM    9  O9  UNL     1     -33.240  14.656  -6.623  1.00 20.00    -0.395 OA
HETATM   10  H23 UNL     1     -32.721  13.910  -6.282  1.00 20.00     0.210 HD
ENDBRANCH   1   9
TORSDOF 4
ENDMDL
MODEL 6
REMARK VINA RESULT:      -4.1     10.474     11.382
REMARK  4 active torsions:
REMARK  status: ('A' for Active; 'I' for Inactive)
REMARK    1  A    between atoms: C5_5  and  C7_7 
REMARK    2  A    between atoms: C6_6  and  C8_8 
REMARK    3  A    between atoms: C7_7  and  C8_8 
REMARK    4  A    between atoms: C8_8  and  O9_9 
ROOT
HETATM    1  C8  UNL     1     -35.281  14.100  -4.647  1.00 20.00     0.122 C 
ENDROOT
BRANCH   1   2
HETATM    2  C6  UNL     1     -35.457  14.643  -6.058  1.00 20.00     0.014 A 
HETATM    3  C3  UNL     1     -35.262  16.107  -6.336  1.00 20.00     0.007 A 
HETATM    4  C4  UNL     1     -34.263  15.107  -6.845  1.00 20.00     0.007 A 
ENDBRANCH   1   2
BRANCH   1   5
HETATM    5  C7  UNL     1     -35.846  15.069  -3.606  1.00 20.00     0.036 C 
BRANCH   5   6
HETATM    6  C5  UNL     1     -34.788  15.528  -2.610  1.00 20.00    -0.012 A 
HETATM    7  C1  UNL     1     -33.458  16.031  -3.096  1.00 20.00     0.005 A 
HETATM    8  C2  UNL     1     -34.446  16.987  -2.489  1.00 20.00     0.005 A 
ENDBRANCH   5   6
ENDBRANCH   1   5
BRANCH   1   9
HETATM    9  O9  UNL     1     -35.964  12.854  -4.545  1.00 20.00    -0.395 OA
HETATM   10  H23 UNL     1     -36.750  12.922  -5.109  1.00 20.00     0.210 HD
ENDBRANCH   1   9
TORSDOF 4
ENDMDL
MODEL 7
REMARK VINA RESULT:      -4.1     10.442     11.176
REMARK  4 active torsions:
REMARK  status: ('A' for Active; 'I' for Inactive)
REMARK    1  A    between atoms: C5_5  and  C7_7 
REMARK    2  A    between atoms: C6_6  and  C8_8 
REMARK    3  A    between atoms: C7_7  and  C8_8 
REMARK    4  A    between atoms: C8_8  and  O9_9 
ROOT
HETATM    1  C8  UNL     1     -33.444  14.809  -4.273  1.00 20.00     0.122 C 
ENDROOT
BRANCH   1   2
HETATM    2  C6  UNL     1     -33.318  15.970  -3.297  1.00 20.00     0.014 A 
HETATM    3  C3  UNL     1     -34.270  17.130  -3.373  1.00 20.00     0.007 A 
HETATM    4  C4  UNL     1     -34.349  16.169  -2.221  1.00 20.00     0.007 A 
ENDBRANCH   1   2
BRANCH   1   5
HETATM    5  C7  UNL     1     -34.206  15.224  -5.533  1.00 20.00     0.036 C 
BRANCH   5   6
HETATM    6  C5  UNL     1     -35.522  14.471  -5.687  1.00 20.00    -0.012 A 
HETATM    7  C1  UNL     1     -36.076  13.673  -4.540  1.00 20.00     0.005 A 
HETATM    8  C2  UNL     1     -36.753  14.946  -4.967  1.00 20.00     0.005 A 
ENDBRANCH   5   6
ENDBRANCH   1   5
BRANCH   1   9
HETATM    9  O9  UNL     1     -32.138  14.373  -4.640  1.00 20.00    -0.395 OA
HETATM   10  H23 UNL     1     -32.195  13.414  -4.779  1.00 20.00     0.210 HD
ENDBRANCH   1   9
TORSDOF 4
ENDMDL
MODEL 8
REMARK VINA RESULT:      -4.1      1.728      2.502
REMARK  4 active torsions:
REMARK  status: ('A' for Active; 'I' for Inactive)
REMARK    1  A    between atoms: C5_5  and  C7_7 
REMARK    2  A    between atoms: C6_6  and  C8_8 
REMARK    3  A    between atoms: C7_7  and  C8_8 
REMARK    4  A    between atoms: C8_8  and  O9_9 
ROOT
HETATM    1  C8  UNL     1     -33.148   5.134   3.035  1.00 20.00     0.122 C 
ENDROOT
BRANCH   1   2
HETATM    2  C6  UNL     1     -33.218   6.641   2.830  1.00 20.00     0.014 A 
HETATM    3  C3  UNL     1     -32.049   7.511   3.197  1.00 20.00     0.007 A 
HETATM    4  C4  UNL     1     -32.402   7.298   1.752  1.00 20.00     0.007 A 
ENDBRANCH   1   2
BRANCH   1   5
HETATM    5  C7  UNL     1     -34.337   4.630   3.854  1.00 20.00     0.036 C 
BRANCH   5   6
HETATM    6  C5  UNL     1     -34.864   5.686   4.817  1.00 20.00    -0.012 A 
HETATM    7  C1  UNL     1     -35.093   5.347   6.264  1.00 20.00     0.005 A 
HETATM    8  C2  UNL     1     -33.965   6.261   5.876  1.00 20.00     0.005 A 
ENDBRANCH   5   6
ENDBRANCH   1   5
BRANCH   1   9
HETATM    9  O9  UNL     1     -33.154   4.496   1.761  1.00 20.00    -0.395 OA
HETATM   10  H23 UNL     1     -32.498   3.783   1.805  1.00 20.00     0.210 HD
ENDBRANCH   1   9
TORSDOF 4
ENDMDL
MODEL 9
REMARK VINA RESULT:      -4.0     10.443     11.292
REMARK  4 active torsions:
REMARK  status: ('A' for Active; 'I' for Inactive)
REMARK    1  A    between atoms: C5_5  and  C7_7 
REMARK    2  A    between atoms: C6_6  and  C8_8 
REMARK    3  A    between atoms: C7_7  and  C8_8 
REMARK    4  A    between atoms: C8_8  and  O9_9 
ROOT
HETATM    1  C8  UNL     1     -34.115  15.094  -4.969  1.00 20.00     0.122 C 
ENDROOT
BRANCH   1   2
HETATM    2  C6  UNL     1     -35.060  14.260  -4.116  1.00 20.00     0.014 A 
HETATM    3  C3  UNL     1     -36.462  14.734  -3.853  1.00 20.00     0.007 A 
HETATM    4  C4  UNL     1     -36.225  13.551  -4.749  1.00 20.00     0.007 A 
ENDBRANCH   1   2
BRANCH   1   5
HETATM    5  C7  UNL     1     -33.826  16.447  -4.315  1.00 20.00     0.036 C 
BRANCH   5   6
HETATM    6  C5  UNL     1     -33.358  16.302  -2.872  1.00 20.00    -0.012 A 
HETATM    7  C1  UNL     1     -32.838  17.496  -2.120  1.00 20.00     0.005 A 
HETATM    8  C2  UNL     1     -34.166  16.895  -1.751  1.00 20.00     0.005 A 
ENDBRANCH   5   6
ENDBRANCH   1   5
BRANCH   1   9
HETATM    9  O9  UNL     1     -32.891  14.383  -5.130  1.00 20.00    -0.395 OA
HETATM   10  H23 UNL     1     -32.743  14.301  -6.085  1.00 20.00     0.210 HD
ENDBRANCH   1   9
TORSDOF 4
ENDMDL
