MODEL 1
REMARK VINA RESULT:      -5.1      0.000      0.000
REMARK  4 active torsions:
REMARK  status: ('A' for Active; 'I' for Inactive)
REMARK    1  A    between atoms: C3_3  and  C4_4 
REMARK    2  A    between atoms: C4_4  and  C5_5 
REMARK    3  A    between atoms: C5_5  and  C6_6 
REMARK    4  A    between atoms: C5_5  and  O7_7 
ROOT
HETATM    1  C5  UNL     1     -34.547   5.268   4.515  1.00 20.00     0.226 C 
ENDROOT
BRANCH   1   2
HETATM    2  C4  UNL     1     -34.252   6.506   3.665  1.00 20.00     0.045 C 
BRANCH   2   3
HETATM    3  C3  UNL     1     -32.924   6.413   2.972  1.00 20.00    -0.012 A 
HETATM    4  C1  UNL     1     -32.548   7.417   1.918  1.00 20.00     0.005 A 
HETATM    5  C2  UNL     1     -31.852   7.430   3.251  1.00 20.00     0.005 A 
ENDBRANCH   2   3
ENDBRANCH   1   2
BRANCH   1   6
HETATM    6  C6  UNL     1     -34.394   5.557   5.995  1.00 20.00     0.413 C 
HETATM    7  F8  UNL     1     -33.681   6.683   6.210  1.00 20.00    -0.168 F 
HETATM    8  F9  UNL     1     -33.765   4.542   6.626  1.00 20.00    -0.168 F 
HETATM    9  F10 UNL     1     -35.602   5.713   6.581  1.00 20.00    -0.168 F 
ENDBRANCH   1   6
BRANCH   1  10
HETATM   10  O7  UNL     1     -35.890   4.855   4.271  1.00 20.00    -0.387 OA
HETATM   11  H19 UNL     1     -36.462   5.546   4.638  1.00 20.00     0.210 HD
ENDBRANCH   1  10
TORSDOF 4
ENDMDL
MODEL 2
REMARK VINA RESULT:      -4.8      1.265      1.760
REMARK  4 active torsions:
REMARK  status: ('A' for Active; 'I' for Inactive)
REMARK    1  A    between atoms: C3_3  and  C4_4 
REMARK    2  A    between atoms: C4_4  and  C5_5 
REMARK    3  A    between atoms: C5_5  and  C6_6 
REMARK    4  A    between atoms: C5_5  and  O7_7 
ROOT
HETATM    1  C5  UNL     1     -33.849   4.860   4.085  1.00 20.00     0.226 C 
ENDROOT
BRANCH   1   2
HETATM    2  C4  UNL     1     -33.810   5.506   2.698  1.00 20.00     0.045 C 
BRANCH   2   3
HETATM    3  C3  UNL     1     -32.509   6.207   2.438  1.00 20.00    -0.012 A 
HETATM    4  C1  UNL     1     -32.494   7.545   1.753  1.00 20.00     0.005 A 
HETATM    5  C2  UNL     1     -32.149   7.445   3.213  1.00 20.00     0.005 A 
ENDBRANCH   2   3
ENDBRANCH   1   2
BRANCH   1   6
HETATM    6  C6  UNL     1     -34.860   5.537   4.989  1.00 20.00     0.413 C 
HETATM    7  F8  UNL     1     -35.133   4.787   6.078  1.00 20.00    -0.168 F 
HETATM    8  F9  UNL     1     -36.022   5.760   4.338  1.00 20.00    -0.168 F 
HETATM    9  F10 UNL     1     -34.398   6.733   5.416  1.00 20.00    -0.168 F 
ENDBRANCH   1   6
BRANCH   1  10
HETATM   10  O7  UNL     1     -34.218   3.490   3.941  1.00 20.00    -0.387 OA
HETATM   11  H19 UNL     1     -34.744   3.430   3.130  1.00 20.00     0.210 HD
ENDBRANCH   1  10
TORSDOF 4
ENDMDL
MODEL 3
REMARK VINA RESULT:      -4.7      1.755      2.112
REMARK  4 active torsions:
REMARK  status: ('A' for Active; 'I' for Inactive)
REMARK    1  A    between atoms: C3_3  and  C4_4 
REMARK    2  A    between atoms: C4_4  and  C5_5 
REMARK    3  A    between atoms: C5_5  and  C6_6 
REMARK    4  A    between atoms: C5_5  and  O7_7 
ROOT
HETATM    1  C5  UNL     1     -34.003   6.570   4.100  1.00 20.00     0.226 C 
ENDROOT
BRANCH   1   2
HETATM    2  C4  UNL     1     -33.155   6.248   2.867  1.00 20.00     0.045 C 
BRANCH   2   3
HETATM    3  C3  UNL     1     -32.418   7.453   2.359  1.00 20.00    -0.012 A 
HETATM    4  C1  UNL     1     -32.024   7.545   0.911  1.00 20.00     0.005 A 
HETATM    5  C2  UNL     1     -33.108   8.436   1.453  1.00 20.00     0.005 A 
ENDBRANCH   2   3
ENDBRANCH   1   2
BRANCH   1   6
HETATM    6  C6  UNL     1     -34.800   5.365   4.560  1.00 20.00     0.413 C 
HETATM    7  F8  UNL     1     -34.831   5.273   5.906  1.00 20.00    -0.168 F 
HETATM    8  F9  UNL     1     -34.269   4.219   4.080  1.00 20.00    -0.168 F 
HETATM    9  F10 UNL     1     -36.075   5.436   4.120  1.00 20.00    -0.168 F 
ENDBRANCH   1   6
BRANCH   1  10
HETATM   10  O7  UNL     1     -33.135   6.968   5.160  1.00 20.00    -0.387 OA
HETATM   11  H19 UNL     1     -33.526   6.628   5.979  1.00 20.00     0.210 HD
ENDBRANCH   1  10
TORSDOF 4
ENDMDL
MODEL 4
REMARK VINA RESULT:      -4.5      3.172      4.418
REMARK  4 active torsions:
REMARK  status: ('A' for Active; 'I' for Inactive)
REMARK    1  A    between atoms: C3_3  and  C4_4 
REMARK    2  A    between atoms: C4_4  and  C5_5 
REMARK    3  A    between atoms: C5_5  and  C6_6 
REMARK    4  A    between atoms: C5_5  and  O7_7 
ROOT
HETATM    1  C5  UNL     1     -33.330   6.518   2.663  1.00 20.00     0.226 C 
ENDROOT
BRANCH   1   2
HETATM    2  C4  UNL     1     -33.416   6.671   4.183  1.00 20.00     0.045 C 
BRANCH   2   3
HETATM    3  C3  UNL     1     -34.709   6.141   4.732  1.00 20.00    -0.012 A 
HETATM    4  C1  UNL     1     -34.982   4.663   4.732  1.00 20.00     0.005 A 
HETATM    5  C2  UNL     1     -34.725   5.379   6.029  1.00 20.00     0.005 A 
ENDBRANCH   2   3
ENDBRANCH   1   2
BRANCH   1   6
HETATM    6  C6  UNL     1     -32.450   7.584   2.043  1.00 20.00     0.413 C 
HETATM    7  F8  UNL     1     -33.174   8.645   1.625  1.00 20.00    -0.168 F 
HETATM    8  F9  UNL     1     -31.775   7.099   0.978  1.00 20.00    -0.168 F 
HETATM    9  F10 UNL     1     -31.537   8.032   2.932  1.00 20.00    -0.168 F 
ENDBRANCH   1   6
BRANCH   1  10
HETATM   10  O7  UNL     1     -32.771   5.240   2.363  1.00 20.00    -0.387 OA
HETATM   11  H19 UNL     1     -33.452   4.584   2.576  1.00 20.00     0.210 HD
ENDBRANCH   1  10
TORSDOF 4
ENDMDL
MODEL 5
REMARK VINA RESULT:      -4.4     12.878     13.548
REMARK  4 active torsions:
REMARK  status: ('A' for Active; 'I' for Inactive)
REMARK    1  A    between atoms: C3_3  and  C4_4 
REMARK    2  A    between atoms: C4_4  and  C5_5 
REMARK    3  A    between atoms: C5_5  and  C6_6 
REMARK    4  A    between atoms: C5_5  and  O7_7 
ROOT
HETATM    1  C5  UNL     1     -33.356  14.634  -4.444  1.00 20.00     0.226 C 
ENDROOT
BRANCH   1   2
HETATM    2  C4  UNL     1     -33.489  15.746  -3.400  1.00 20.00     0.045 C 
BRANCH   2   3
HETATM    3  C3  UNL     1     -34.759  15.629  -2.609  1.00 20.00    -0.012 A 
HETATM    4  C1  UNL     1     -35.034  16.576  -1.474  1.00 20.00     0.005 A 
HETATM    5  C2  UNL     1     -35.834  16.672  -2.744  1.00 20.00     0.005 A 
ENDBRANCH   2   3
ENDBRANCH   1   2
BRANCH   1   6
HETATM    6  C6  UNL     1     -34.039  15.005  -5.745  1.00 20.00     0.413 C 
HETATM    7  F8  UNL     1     -33.302  14.637  -6.815  1.00 20.00    -0.168 F 
HETATM    8  F9  UNL     1     -34.245  16.337  -5.823  1.00 20.00    -0.168 F 
HETATM    9  F10 UNL     1     -35.244  14.401  -5.845  1.00 20.00    -0.168 F 
ENDBRANCH   1   6
BRANCH   1  10
HETATM   10  O7  UNL     1     -31.971  14.416  -4.706  1.00 20.00    -0.387 OA
HETATM   11  H19 UNL     1     -31.870  13.469  -4.883  1.00 20.00     0.210 HD
ENDBRANCH   1  10
TORSDOF 4
ENDMDL
MODEL 6
REMARK VINA RESULT:      -4.4      1.653      1.987
REMARK  4 active torsions:
REMARK  status: ('A' for Active; 'I' for Inactive)
REMARK    1  A    between atoms: C3_3  and  C4_4 
REMARK    2  A    between atoms: C4_4  and  C5_5 
REMARK    3  A    between atoms: C5_5  and  C6_6 
REMARK    4  A    between atoms: C5_5  and  O7_7 
ROOT
HETATM    1  C5  UNL     1     -34.326   6.650   5.546  1.00 20.00     0.226 C 
ENDROOT
BRANCH   1   2
HETATM    2  C4  UNL     1     -34.156   7.174   4.118  1.00 20.00     0.045 C 
BRANCH   2   3
HETATM    3  C3  UNL     1     -32.881   6.694   3.489  1.00 20.00    -0.012 A 
HETATM    4  C1  UNL     1     -32.920   5.706   2.356  1.00 20.00     0.005 A 
HETATM    5  C2  UNL     1     -32.513   7.130   2.097  1.00 20.00     0.005 A 
ENDBRANCH   2   3
ENDBRANCH   1   2
BRANCH   1   6
HETATM    6  C6  UNL     1     -34.842   5.225   5.561  1.00 20.00     0.413 C 
HETATM    7  F8  UNL     1     -33.832   4.330   5.535  1.00 20.00    -0.168 F 
HETATM    8  F9  UNL     1     -35.636   4.984   4.495  1.00 20.00    -0.168 F 
HETATM    9  F10 UNL     1     -35.574   4.990   6.672  1.00 20.00    -0.168 F 
ENDBRANCH   1   6
BRANCH   1  10
HETATM   10  O7  UNL     1     -33.057   6.677   6.197  1.00 20.00    -0.387 OA
HETATM   11  H19 UNL     1     -32.630   7.506   5.934  1.00 20.00     0.210 HD
ENDBRANCH   1  10
TORSDOF 4
ENDMDL
MODEL 7
REMARK VINA RESULT:      -4.3     12.702     13.283
REMARK  4 active torsions:
REMARK  status: ('A' for Active; 'I' for Inactive)
REMARK    1  A    between atoms: C3_3  and  C4_4 
REMARK    2  A    between atoms: C4_4  and  C5_5 
REMARK    3  A    between atoms: C5_5  and  C6_6 
REMARK    4  A    between atoms: C5_5  and  O7_7 
ROOT
HETATM    1  C5  UNL     1     -35.796  14.173  -4.590  1.00 20.00     0.226 C 
ENDROOT
BRANCH   1   2
HETATM    2  C4  UNL     1     -34.727  14.533  -3.556  1.00 20.00     0.045 C 
BRANCH   2   3
HETATM    3  C3  UNL     1     -34.813  15.970  -3.131  1.00 20.00    -0.012 A 
HETATM    4  C1  UNL     1     -34.986  16.321  -1.680  1.00 20.00     0.005 A 
HETATM    5  C2  UNL     1     -33.681  16.604  -2.371  1.00 20.00     0.005 A 
ENDBRANCH   2   3
ENDBRANCH   1   2
BRANCH   1   6
HETATM    6  C6  UNL     1     -35.430  14.679  -5.971  1.00 20.00     0.413 C 
HETATM    7  F8  UNL     1     -34.092  14.714  -6.150  1.00 20.00    -0.168 F 
HETATM    8  F9  UNL     1     -35.907  15.927  -6.174  1.00 20.00    -0.168 F 
HETATM    9  F10 UNL     1     -35.955  13.884  -6.930  1.00 20.00    -0.168 F 
ENDBRANCH   1   6
BRANCH   1  10
HETATM   10  O7  UNL     1     -35.917  12.752  -4.647  1.00 20.00    -0.387 OA
HETATM   11  H19 UNL     1     -35.018  12.403  -4.738  1.00 20.00     0.210 HD
ENDBRANCH   1  10
TORSDOF 4
ENDMDL
MODEL 8
REMARK VINA RESULT:      -4.3      9.381     10.099
REMARK  4 active torsions:
REMARK  status: ('A' for Active; 'I' for Inactive)
REMARK    1  A    between atoms: C3_3  and  C4_4 
REMARK    2  A    between atoms: C4_4  and  C5_5 
REMARK    3  A    between atoms: C5_5  and  C6_6 
REMARK    4  A    between atoms: C5_5  and  O7_7 
ROOT
HETATM    1  C5  UNL     1     -42.923   5.505   0.447  1.00 20.00     0.226 C 
ENDROOT
BRANCH   1   2
HETATM    2  C4  UNL     1     -43.030   7.024   0.601  1.00 20.00     0.045 C 
BRANCH   2   3
HETATM    3  C3  UNL     1     -41.685   7.689   0.590  1.00 20.00    -0.012 A 
HETATM    4  C1  UNL     1     -41.130   8.254  -0.688  1.00 20.00     0.005 A 
HETATM    5  C2  UNL     1     -41.578   9.178   0.410  1.00 20.00     0.005 A 
ENDBRANCH   2   3
ENDBRANCH   1   2
BRANCH   1   6
HETATM    6  C6  UNL     1     -42.782   5.099  -1.007  1.00 20.00     0.413 C 
HETATM    7  F8  UNL     1     -41.487   4.945  -1.357  1.00 20.00    -0.168 F 
HETATM    8  F9  UNL     1     -43.323   6.028  -1.825  1.00 20.00    -0.168 F 
HETATM    9  F10 UNL     1     -43.417   3.930  -1.243  1.00 20.00    -0.168 F 
ENDBRANCH   1   6
BRANCH   1  10
HETATM   10  O7  UNL     1     -41.770   5.054   1.155  1.00 20.00    -0.387 OA
HETATM   11  H19 UNL     1     -41.009   5.217   0.577  1.00 20.00     0.210 HD
ENDBRANCH   1  10
TORSDOF 4
ENDMDL
MODEL 9
REMARK VINA RESULT:      -4.2      9.695     10.183
REMARK  4 active torsions:
REMARK  status: ('A' for Active; 'I' for Inactive)
REMARK    1  A    between atoms: C3_3  and  C4_4 
REMARK    2  A    between atoms: C4_4  and  C5_5 
REMARK    3  A    between atoms: C5_5  and  C6_6 
REMARK    4  A    between atoms: C5_5  and  O7_7 
ROOT
HETATM    1  C5  UNL     1     -41.358   5.420  -0.676  1.00 20.00     0.226 C 
ENDROOT
BRANCH   1   2
HETATM    2  C4  UNL     1     -41.194   6.914  -0.964  1.00 20.00     0.045 C 
BRANCH   2   3
HETATM    3  C3  UNL     1     -41.550   7.760   0.223  1.00 20.00    -0.012 A 
HETATM    4  C1  UNL     1     -41.348   9.249   0.179  1.00 20.00     0.005 A 
HETATM    5  C2  UNL     1     -42.739   8.680   0.167  1.00 20.00     0.005 A 
ENDBRANCH   2   3
ENDBRANCH   1   2
BRANCH   1   6
HETATM    6  C6  UNL     1     -42.687   4.896  -1.182  1.00 20.00     0.413 C 
HETATM    7  F8  UNL     1     -43.417   4.350  -0.186  1.00 20.00    -0.168 F 
HETATM    8  F9  UNL     1     -42.509   3.950  -2.130  1.00 20.00    -0.168 F 
HETATM    9  F10 UNL     1     -43.417   5.890  -1.733  1.00 20.00    -0.168 F 
ENDBRANCH   1   6
BRANCH   1  10
HETATM   10  O7  UNL     1     -40.312   4.709  -1.336  1.00 20.00    -0.387 OA
HETATM   11  H19 UNL     1     -40.253   3.843  -0.905  1.00 20.00     0.210 HD
ENDBRANCH   1  10
TORSDOF 4
ENDMDL
