MODEL 1
REMARK VINA RESULT:      -5.2      0.000      0.000
REMARK  2 active torsions:
REMARK  status: ('A' for Active; 'I' for Inactive)
REMARK    1  A    between atoms: C5_5  and  C6_6 
REMARK    2  A    between atoms: C6_6  and  C7_7 
ROOT
HETATM    1  C1  UNL     1     -34.324   6.568   5.948  1.00 20.00     0.027 C 
HETATM    2  C2  UNL     1     -33.343   6.792   4.802  1.00 20.00     0.009 C 
HETATM    3  C3  UNL     1     -34.700   5.096   6.055  1.00 20.00     0.167 C 
HETATM    4  C4  UNL     1     -34.271   4.705   3.757  1.00 20.00     0.172 C 
HETATM    5  C5  UNL     1     -33.871   6.161   3.507  1.00 20.00     0.010 C 
HETATM    6  O8  UNL     1     -35.225   4.617   4.817  1.00 20.00    -0.391 OA
ENDROOT
BRANCH   5   7
HETATM    7  C6  UNL     1     -32.846   6.267   2.385  1.00 20.00     0.017 C 
BRANCH   7   8
HETATM    8  C7  UNL     1     -32.256   7.663   2.314  1.00 20.00     0.085 C 
HETATM    9 BR9  UNL     1     -32.844   8.540   0.679  1.00 20.00    -0.096 Br
ENDBRANCH   7   8
ENDBRANCH   5   7
TORSDOF 2
ENDMDL
MODEL 2
REMARK VINA RESULT:      -3.9     11.915     12.417
REMARK  2 active torsions:
REMARK  status: ('A' for Active; 'I' for Inactive)
REMARK    1  A    between atoms: C5_5  and  C6_6 
REMARK    2  A    between atoms: C6_6  and  C7_7 
ROOT
HETATM    1  C1  UNL     1     -33.501  14.696  -4.287  1.00 20.00     0.027 C 
HETATM    2  C2  UNL     1     -33.152  15.935  -3.469  1.00 20.00     0.009 C 
HETATM    3  C3  UNL     1     -34.960  14.733  -4.723  1.00 20.00     0.167 C 
HETATM    4  C4  UNL     1     -35.589  16.094  -2.889  1.00 20.00     0.172 C 
HETATM    5  C5  UNL     1     -34.163  16.137  -2.335  1.00 20.00     0.010 C 
HETATM    6  O8  UNL     1     -35.821  14.874  -3.595  1.00 20.00    -0.391 OA
ENDROOT
BRANCH   5   7
HETATM    7  C6  UNL     1     -33.900  17.439  -1.587  1.00 20.00     0.017 C 
BRANCH   7   8
HETATM    8  C7  UNL     1     -32.597  18.072  -2.036  1.00 20.00     0.085 C 
HETATM    9 BR9  UNL     1     -31.458  18.390  -0.489  1.00 20.00    -0.096 Br
ENDBRANCH   7   8
ENDBRANCH   5   7
TORSDOF 2
ENDMDL
MODEL 3
REMARK VINA RESULT:      -3.8     11.798     12.226
REMARK  2 active torsions:
REMARK  status: ('A' for Active; 'I' for Inactive)
REMARK    1  A    between atoms: C5_5  and  C6_6 
REMARK    2  A    between atoms: C6_6  and  C7_7 
ROOT
HETATM    1  C1  UNL     1     -36.413  14.930  -3.725  1.00 20.00     0.027 C 
HETATM    2  C2  UNL     1     -35.327  15.644  -2.926  1.00 20.00     0.009 C 
HETATM    3  C3  UNL     1     -35.850  13.695  -4.414  1.00 20.00     0.167 C 
HETATM    4  C4  UNL     1     -33.659  14.595  -4.482  1.00 20.00     0.172 C 
HETATM    5  C5  UNL     1     -34.091  15.894  -3.798  1.00 20.00     0.010 C 
HETATM    6  O8  UNL     1     -34.736  14.038  -5.237  1.00 20.00    -0.391 OA
ENDROOT
BRANCH   5   7
HETATM    7  C6  UNL     1     -32.952  16.493  -2.981  1.00 20.00     0.017 C 
BRANCH   7   8
HETATM    8  C7  UNL     1     -33.485  17.355  -1.852  1.00 20.00     0.085 C 
HETATM    9 BR9  UNL     1     -32.023  18.355  -1.046  1.00 20.00    -0.096 Br
ENDBRANCH   7   8
ENDBRANCH   5   7
TORSDOF 2
ENDMDL
MODEL 4
REMARK VINA RESULT:      -3.8     11.765     12.709
REMARK  2 active torsions:
REMARK  status: ('A' for Active; 'I' for Inactive)
REMARK    1  A    between atoms: C5_5  and  C6_6 
REMARK    2  A    between atoms: C6_6  and  C7_7 
ROOT
HETATM    1  C1  UNL     1     -34.241  15.092  -6.430  1.00 20.00     0.027 C 
HETATM    2  C2  UNL     1     -34.165  15.750  -5.056  1.00 20.00     0.009 C 
HETATM    3  C3  UNL     1     -35.650  14.588  -6.709  1.00 20.00     0.167 C 
HETATM    4  C4  UNL     1     -36.136  14.339  -4.404  1.00 20.00     0.172 C 
HETATM    5  C5  UNL     1     -34.748  14.825  -3.981  1.00 20.00     0.010 C 
HETATM    6  O8  UNL     1     -36.082  13.699  -5.680  1.00 20.00    -0.391 OA
ENDROOT
BRANCH   5   7
HETATM    7  C6  UNL     1     -34.795  15.518  -2.625  1.00 20.00     0.017 C 
BRANCH   7   8
HETATM    8  C7  UNL     1     -33.643  16.494  -2.470  1.00 20.00     0.085 C 
HETATM    9 BR9  UNL     1     -34.069  17.794  -1.086  1.00 20.00    -0.096 Br
ENDBRANCH   7   8
ENDBRANCH   5   7
TORSDOF 2
ENDMDL
MODEL 5
REMARK VINA RESULT:      -3.8     11.756     12.671
REMARK  2 active torsions:
REMARK  status: ('A' for Active; 'I' for Inactive)
REMARK    1  A    between atoms: C5_5  and  C6_6 
REMARK    2  A    between atoms: C6_6  and  C7_7 
ROOT
HETATM    1  C1  UNL     1     -38.034  15.959  -5.208  1.00 20.00     0.027 C 
HETATM    2  C2  UNL     1     -36.532  16.154  -5.383  1.00 20.00     0.009 C 
HETATM    3  C3  UNL     1     -38.321  14.895  -4.158  1.00 20.00     0.167 C 
HETATM    4  C4  UNL     1     -36.250  13.807  -4.535  1.00 20.00     0.172 C 
HETATM    5  C5  UNL     1     -35.836  14.807  -5.618  1.00 20.00     0.010 C 
HETATM    6  O8  UNL     1     -37.671  13.669  -4.491  1.00 20.00    -0.391 OA
ENDROOT
BRANCH   5   7
HETATM    7  C6  UNL     1     -34.322  14.970  -5.669  1.00 20.00     0.017 C 
BRANCH   7   8
HETATM    8  C7  UNL     1     -33.686  14.580  -4.348  1.00 20.00     0.085 C 
HETATM    9 BR9  UNL     1     -33.300  16.181  -3.310  1.00 20.00    -0.096 Br
ENDBRANCH   7   8
ENDBRANCH   5   7
TORSDOF 2
ENDMDL
MODEL 6
REMARK VINA RESULT:      -3.8     15.758     16.410
REMARK  2 active torsions:
REMARK  status: ('A' for Active; 'I' for Inactive)
REMARK    1  A    between atoms: C5_5  and  C6_6 
REMARK    2  A    between atoms: C6_6  and  C7_7 
ROOT
HETATM    1  C1  UNL     1     -24.679  15.965  12.010  1.00 20.00     0.027 C 
HETATM    2  C2  UNL     1     -24.081  16.513  10.718  1.00 20.00     0.009 C 
HETATM    3  C3  UNL     1     -26.030  16.606  12.292  1.00 20.00     0.167 C 
HETATM    4  C4  UNL     1     -25.476  18.568  11.085  1.00 20.00     0.172 C 
HETATM    5  C5  UNL     1     -24.082  18.047  10.731  1.00 20.00     0.010 C 
HETATM    6  O8  UNL     1     -25.917  18.028  12.332  1.00 20.00    -0.391 OA
ENDROOT
BRANCH   5   7
HETATM    7  C6  UNL     1     -23.604  18.609   9.398  1.00 20.00     0.017 C 
BRANCH   7   8
HETATM    8  C7  UNL     1     -22.097  18.497   9.266  1.00 20.00     0.085 C 
HETATM    9 BR9  UNL     1     -21.657  17.282   7.810  1.00 20.00    -0.096 Br
ENDBRANCH   7   8
ENDBRANCH   5   7
TORSDOF 2
ENDMDL
MODEL 7
REMARK VINA RESULT:      -3.8     11.731     12.289
REMARK  2 active torsions:
REMARK  status: ('A' for Active; 'I' for Inactive)
REMARK    1  A    between atoms: C5_5  and  C6_6 
REMARK    2  A    between atoms: C6_6  and  C7_7 
ROOT
HETATM    1  C1  UNL     1     -34.141  16.263  -2.218  1.00 20.00     0.027 C 
HETATM    2  C2  UNL     1     -35.394  15.694  -2.875  1.00 20.00     0.009 C 
HETATM    3  C3  UNL     1     -33.029  16.439  -3.243  1.00 20.00     0.167 C 
HETATM    4  C4  UNL     1     -33.888  14.723  -4.634  1.00 20.00     0.172 C 
HETATM    5  C5  UNL     1     -35.056  14.438  -3.687  1.00 20.00     0.010 C 
HETATM    6  O8  UNL     1     -32.756  15.206  -3.909  1.00 20.00    -0.391 OA
ENDROOT
BRANCH   5   7
HETATM    7  C6  UNL     1     -36.274  13.930  -4.450  1.00 20.00     0.017 C 
BRANCH   7   8
HETATM    8  C7  UNL     1     -37.110  15.083  -4.972  1.00 20.00     0.085 C 
HETATM    9 BR9  UNL     1     -38.913  14.964  -4.249  1.00 20.00    -0.096 Br
ENDBRANCH   7   8
ENDBRANCH   5   7
TORSDOF 2
ENDMDL
MODEL 8
REMARK VINA RESULT:      -3.7     11.518     12.261
REMARK  2 active torsions:
REMARK  status: ('A' for Active; 'I' for Inactive)
REMARK    1  A    between atoms: C5_5  and  C6_6 
REMARK    2  A    between atoms: C6_6  and  C7_7 
ROOT
HETATM    1  C1  UNL     1     -35.067  17.039  -0.746  1.00 20.00     0.027 C 
HETATM    2  C2  UNL     1     -35.215  16.266  -2.054  1.00 20.00     0.009 C 
HETATM    3  C3  UNL     1     -34.175  18.257  -0.939  1.00 20.00     0.167 C 
HETATM    4  C4  UNL     1     -33.019  17.262  -2.752  1.00 20.00     0.172 C 
HETATM    5  C5  UNL     1     -33.841  15.974  -2.667  1.00 20.00     0.010 C 
HETATM    6  O8  UNL     1     -32.905  17.876  -1.467  1.00 20.00    -0.391 OA
ENDROOT
BRANCH   5   7
HETATM    7  C6  UNL     1     -33.977  15.314  -4.034  1.00 20.00     0.017 C 
BRANCH   7   8
HETATM    8  C7  UNL     1     -34.590  13.932  -3.915  1.00 20.00     0.085 C 
HETATM    9 BR9  UNL     1     -36.345  13.919  -4.756  1.00 20.00    -0.096 Br
ENDBRANCH   7   8
ENDBRANCH   5   7
TORSDOF 2
ENDMDL
MODEL 9
REMARK VINA RESULT:      -3.6      9.736     10.249
REMARK  2 active torsions:
REMARK  status: ('A' for Active; 'I' for Inactive)
REMARK    1  A    between atoms: C5_5  and  C6_6 
REMARK    2  A    between atoms: C6_6  and  C7_7 
ROOT
HETATM    1  C1  UNL     1     -41.508   8.022   0.707  1.00 20.00     0.027 C 
HETATM    2  C2  UNL     1     -41.227   6.573   0.324  1.00 20.00     0.009 C 
HETATM    3  C3  UNL     1     -42.934   8.409   0.340  1.00 20.00     0.167 C 
HETATM    4  C4  UNL     1     -43.042   6.800  -1.396  1.00 20.00     0.172 C 
HETATM    5  C5  UNL     1     -41.613   6.315  -1.137  1.00 20.00     0.010 C 
HETATM    6  O8  UNL     1     -43.180   8.178  -1.047  1.00 20.00    -0.391 OA
ENDROOT
BRANCH   5   7
HETATM    7  C6  UNL     1     -41.457   4.842  -1.497  1.00 20.00     0.017 C 
BRANCH   7   8
HETATM    8  C7  UNL     1     -42.748   4.277  -2.057  1.00 20.00     0.085 C 
HETATM    9 BR9  UNL     1     -42.348   2.815  -3.278  1.00 20.00    -0.096 Br
ENDBRANCH   7   8
ENDBRANCH   5   7
TORSDOF 2
ENDMDL
