MODEL 1
REMARK VINA RESULT:      -4.8      0.000      0.000
REMARK  2 active torsions:
REMARK  status: ('A' for Active; 'I' for Inactive)
REMARK    1  A    between atoms: C5_5  and  C6_6 
REMARK    2  A    between atoms: C6_6  and  C7_7 
ROOT
HETATM    1  C1  UNL     1     -33.867   6.390   5.775  1.00 20.00     0.027 C 
HETATM    2  C2  UNL     1     -34.212   6.939   4.398  1.00 20.00     0.009 C 
HETATM    3  C3  UNL     1     -34.757   5.199   6.131  1.00 20.00     0.167 C 
HETATM    4  C4  UNL     1     -34.290   4.444   3.931  1.00 20.00     0.172 C 
HETATM    5  C5  UNL     1     -34.121   5.842   3.324  1.00 20.00     0.010 C 
HETATM    6  O8  UNL     1     -35.240   4.487   4.991  1.00 20.00    -0.391 OA
ENDROOT
BRANCH   5   7
HETATM    7  C6  UNL     1     -32.816   5.925   2.534  1.00 20.00     0.021 C 
BRANCH   7   8
HETATM    8  C7  UNL     1     -32.227   7.328   2.485  1.00 20.00     0.115 C 
HETATM    9 CL9  UNL     1     -32.672   8.189   0.994  1.00 20.00    -0.130 Cl
ENDBRANCH   7   8
ENDBRANCH   5   7
TORSDOF 2
ENDMDL
MODEL 2
REMARK VINA RESULT:      -4.2      1.222      1.816
REMARK  2 active torsions:
REMARK  status: ('A' for Active; 'I' for Inactive)
REMARK    1  A    between atoms: C5_5  and  C6_6 
REMARK    2  A    between atoms: C6_6  and  C7_7 
ROOT
HETATM    1  C1  UNL     1     -35.230   5.011   4.493  1.00 20.00     0.027 C 
HETATM    2  C2  UNL     1     -33.989   4.820   3.634  1.00 20.00     0.009 C 
HETATM    3  C3  UNL     1     -34.867   5.577   5.866  1.00 20.00     0.167 C 
HETATM    4  C4  UNL     1     -33.494   7.090   4.660  1.00 20.00     0.172 C 
HETATM    5  C5  UNL     1     -33.201   6.134   3.497  1.00 20.00     0.010 C 
HETATM    6  O8  UNL     1     -33.666   6.350   5.865  1.00 20.00    -0.391 OA
ENDROOT
BRANCH   5   7
HETATM    7  C6  UNL     1     -33.470   6.824   2.161  1.00 20.00     0.021 C 
BRANCH   7   8
HETATM    8  C7  UNL     1     -32.338   7.741   1.717  1.00 20.00     0.115 C 
HETATM    9 CL9  UNL     1     -32.921   9.079   0.702  1.00 20.00    -0.130 Cl
ENDBRANCH   7   8
ENDBRANCH   5   7
TORSDOF 2
ENDMDL
MODEL 3
REMARK VINA RESULT:      -4.0     11.843     12.695
REMARK  2 active torsions:
REMARK  status: ('A' for Active; 'I' for Inactive)
REMARK    1  A    between atoms: C5_5  and  C6_6 
REMARK    2  A    between atoms: C6_6  and  C7_7 
ROOT
HETATM    1  C1  UNL     1     -34.461  15.471  -6.143  1.00 20.00     0.027 C 
HETATM    2  C2  UNL     1     -33.730  14.840  -4.967  1.00 20.00     0.009 C 
HETATM    3  C3  UNL     1     -35.590  14.566  -6.638  1.00 20.00     0.167 C 
HETATM    4  C4  UNL     1     -36.138  14.326  -4.342  1.00 20.00     0.172 C 
HETATM    5  C5  UNL     1     -34.704  14.500  -3.826  1.00 20.00     0.010 C 
HETATM    6  O8  UNL     1     -36.119  13.709  -5.625  1.00 20.00    -0.391 OA
ENDROOT
BRANCH   5   7
HETATM    7  C6  UNL     1     -34.663  15.544  -2.711  1.00 20.00     0.021 C 
BRANCH   7   8
HETATM    8  C7  UNL     1     -33.418  16.420  -2.749  1.00 20.00     0.115 C 
HETATM    9 CL9  UNL     1     -33.375  17.578  -1.401  1.00 20.00    -0.130 Cl
ENDBRANCH   7   8
ENDBRANCH   5   7
TORSDOF 2
ENDMDL
MODEL 4
REMARK VINA RESULT:      -3.8     11.797     12.699
REMARK  2 active torsions:
REMARK  status: ('A' for Active; 'I' for Inactive)
REMARK    1  A    between atoms: C5_5  and  C6_6 
REMARK    2  A    between atoms: C6_6  and  C7_7 
ROOT
HETATM    1  C1  UNL     1     -37.411  16.137  -4.728  1.00 20.00     0.027 C 
HETATM    2  C2  UNL     1     -36.667  15.758  -6.000  1.00 20.00     0.009 C 
HETATM    3  C3  UNL     1     -38.195  14.947  -4.175  1.00 20.00     0.167 C 
HETATM    4  C4  UNL     1     -36.212  13.707  -4.574  1.00 20.00     0.172 C 
HETATM    5  C5  UNL     1     -35.743  14.551  -5.766  1.00 20.00     0.010 C 
HETATM    6  O8  UNL     1     -37.635  13.681  -4.528  1.00 20.00    -0.391 OA
ENDROOT
BRANCH   5   7
HETATM    7  C6  UNL     1     -34.288  14.975  -5.577  1.00 20.00     0.021 C 
BRANCH   7   8
HETATM    8  C7  UNL     1     -33.696  14.527  -4.248  1.00 20.00     0.115 C 
HETATM    9 CL9  UNL     1     -33.727  15.823  -3.031  1.00 20.00    -0.130 Cl
ENDBRANCH   7   8
ENDBRANCH   5   7
TORSDOF 2
ENDMDL
MODEL 5
REMARK VINA RESULT:      -3.7     16.235     17.249
REMARK  2 active torsions:
REMARK  status: ('A' for Active; 'I' for Inactive)
REMARK    1  A    between atoms: C5_5  and  C6_6 
REMARK    2  A    between atoms: C6_6  and  C7_7 
ROOT
HETATM    1  C1  UNL     1     -21.838  18.505   9.359  1.00 20.00     0.027 C 
HETATM    2  C2  UNL     1     -21.774  17.969  10.782  1.00 20.00     0.009 C 
HETATM    3  C3  UNL     1     -22.093  17.377   8.359  1.00 20.00     0.167 C 
HETATM    4  C4  UNL     1     -23.761  16.664   9.888  1.00 20.00     0.172 C 
HETATM    5  C5  UNL     1     -23.053  17.194  11.142  1.00 20.00     0.010 C 
HETATM    6  O8  UNL     1     -22.797  16.267   8.918  1.00 20.00    -0.391 OA
ENDROOT
BRANCH   5   7
HETATM    7  C6  UNL     1     -24.014  18.034  11.980  1.00 20.00     0.021 C 
BRANCH   7   8
HETATM    8  C7  UNL     1     -25.300  18.392  11.247  1.00 20.00     0.115 C 
HETATM    9 CL9  UNL     1     -26.725  18.280  12.304  1.00 20.00    -0.130 Cl
ENDBRANCH   7   8
ENDBRANCH   5   7
TORSDOF 2
ENDMDL
MODEL 6
REMARK VINA RESULT:      -3.5     11.858     12.974
REMARK  2 active torsions:
REMARK  status: ('A' for Active; 'I' for Inactive)
REMARK    1  A    between atoms: C5_5  and  C6_6 
REMARK    2  A    between atoms: C6_6  and  C7_7 
ROOT
HETATM    1  C1  UNL     1     -35.014  16.354  -5.636  1.00 20.00     0.027 C 
HETATM    2  C2  UNL     1     -34.156  16.826  -4.472  1.00 20.00     0.009 C 
HETATM    3  C3  UNL     1     -34.439  15.084  -6.264  1.00 20.00     0.167 C 
HETATM    4  C4  UNL     1     -34.196  14.326  -4.028  1.00 20.00     0.172 C 
HETATM    5  C5  UNL     1     -33.990  15.718  -3.418  1.00 20.00     0.010 C 
HETATM    6  O8  UNL     1     -33.673  14.295  -5.353  1.00 20.00    -0.391 OA
ENDROOT
BRANCH   5   7
HETATM    7  C6  UNL     1     -34.923  15.920  -2.226  1.00 20.00     0.021 C 
BRANCH   7   8
HETATM    8  C7  UNL     1     -34.841  17.316  -1.624  1.00 20.00     0.115 C 
HETATM    9 CL9  UNL     1     -33.181  17.743  -1.152  1.00 20.00    -0.130 Cl
ENDBRANCH   7   8
ENDBRANCH   5   7
TORSDOF 2
ENDMDL
MODEL 7
REMARK VINA RESULT:      -3.5     12.056     12.591
REMARK  2 active torsions:
REMARK  status: ('A' for Active; 'I' for Inactive)
REMARK    1  A    between atoms: C5_5  and  C6_6 
REMARK    2  A    between atoms: C6_6  and  C7_7 
ROOT
HETATM    1  C1  UNL     1     -34.414  14.852  -5.482  1.00 20.00     0.027 C 
HETATM    2  C2  UNL     1     -33.483  14.697  -4.288  1.00 20.00     0.009 C 
HETATM    3  C3  UNL     1     -35.856  14.519  -5.101  1.00 20.00     0.167 C 
HETATM    4  C4  UNL     1     -35.452  15.862  -3.187  1.00 20.00     0.172 C 
HETATM    5  C5  UNL     1     -33.951  15.557  -3.103  1.00 20.00     0.010 C 
HETATM    6  O8  UNL     1     -36.146  14.738  -3.719  1.00 20.00    -0.391 OA
ENDROOT
BRANCH   5   7
HETATM    7  C6  UNL     1     -33.151  16.853  -2.987  1.00 20.00     0.021 C 
BRANCH   7   8
HETATM    8  C7  UNL     1     -33.311  17.542  -1.638  1.00 20.00     0.115 C 
HETATM    9 CL9  UNL     1     -31.774  18.207  -1.040  1.00 20.00    -0.130 Cl
ENDBRANCH   7   8
ENDBRANCH   5   7
TORSDOF 2
ENDMDL
MODEL 8
REMARK VINA RESULT:      -3.5     12.119     12.727
REMARK  2 active torsions:
REMARK  status: ('A' for Active; 'I' for Inactive)
REMARK    1  A    between atoms: C5_5  and  C6_6 
REMARK    2  A    between atoms: C6_6  and  C7_7 
ROOT
HETATM    1  C1  UNL     1     -33.116  15.876  -3.728  1.00 20.00     0.027 C 
HETATM    2  C2  UNL     1     -34.111  15.916  -2.578  1.00 20.00     0.009 C 
HETATM    3  C3  UNL     1     -33.049  14.481  -4.350  1.00 20.00     0.167 C 
HETATM    4  C4  UNL     1     -35.420  14.549  -4.272  1.00 20.00     0.172 C 
HETATM    5  C5  UNL     1     -35.504  15.449  -3.032  1.00 20.00     0.010 C 
HETATM    6  O8  UNL     1     -34.256  13.731  -4.199  1.00 20.00    -0.391 OA
ENDROOT
BRANCH   5   7
HETATM    7  C6  UNL     1     -36.443  16.625  -3.293  1.00 20.00     0.021 C 
BRANCH   7   8
HETATM    8  C7  UNL     1     -36.672  16.898  -4.774  1.00 20.00     0.115 C 
HETATM    9 CL9  UNL     1     -35.508  18.075  -5.424  1.00 20.00    -0.130 Cl
ENDBRANCH   7   8
ENDBRANCH   5   7
TORSDOF 2
ENDMDL
MODEL 9
REMARK VINA RESULT:      -3.5     11.906     12.640
REMARK  2 active torsions:
REMARK  status: ('A' for Active; 'I' for Inactive)
REMARK    1  A    between atoms: C5_5  and  C6_6 
REMARK    2  A    between atoms: C6_6  and  C7_7 
ROOT
HETATM    1  C1  UNL     1     -34.662  16.834  -3.158  1.00 20.00     0.027 C 
HETATM    2  C2  UNL     1     -35.181  15.483  -2.687  1.00 20.00     0.009 C 
HETATM    3  C3  UNL     1     -33.152  16.793  -3.391  1.00 20.00     0.167 C 
HETATM    4  C4  UNL     1     -33.580  14.749  -4.517  1.00 20.00     0.172 C 
HETATM    5  C5  UNL     1     -34.807  14.368  -3.678  1.00 20.00     0.010 C 
HETATM    6  O8  UNL     1     -32.661  15.493  -3.723  1.00 20.00    -0.391 OA
ENDROOT
BRANCH   5   7
HETATM    7  C6  UNL     1     -35.977  13.996  -4.586  1.00 20.00     0.021 C 
BRANCH   7   8
HETATM    8  C7  UNL     1     -35.818  14.503  -6.014  1.00 20.00     0.115 C 
HETATM    9 CL9  UNL     1     -36.569  16.098  -6.244  1.00 20.00    -0.130 Cl
ENDBRANCH   7   8
ENDBRANCH   5   7
TORSDOF 2
ENDMDL
