MODEL 1
REMARK VINA RESULT:      -4.5      0.000      0.000
REMARK  2 active torsions:
REMARK  status: ('A' for Active; 'I' for Inactive)
REMARK    1  A    between atoms: C3_3  and  C8_8 
REMARK    2  A    between atoms: C8_8  and  C9_9 
ROOT
HETATM    1  C1  UNL     1     -33.283   5.376   2.300  1.00 20.00     0.006 C 
HETATM    2  C2  UNL     1     -34.146   4.619   3.305  1.00 20.00     0.021 C 
HETATM    3  C3  UNL     1     -32.622   6.534   3.081  1.00 20.00    -0.009 C 
HETATM    4  C4  UNL     1     -33.181   6.423   4.521  1.00 20.00     0.004 C 
HETATM    5  C5  UNL     1     -34.505   5.681   4.334  1.00 20.00     0.086 C 
HETATM    6  C6  UNL     1     -33.314   7.730   5.291  1.00 20.00     0.012 C 
HETATM    7 CL10 UNL     1     -35.118   4.958   5.832  1.00 20.00    -0.125 Cl
ENDROOT
BRANCH   3   8
HETATM    8  C8  UNL     1     -32.873   7.867   2.379  1.00 20.00     0.005 C 
BRANCH   8   9
HETATM    9  C9  UNL     1     -32.329   7.852   0.955  1.00 20.00    -0.004 C 
HETATM   10  C7  UNL     1     -33.150   8.749   0.042  1.00 20.00     0.005 C 
ENDBRANCH   8   9
ENDBRANCH   3   8
TORSDOF 2
ENDMDL
MODEL 2
REMARK VINA RESULT:      -4.4     14.830     15.924
REMARK  2 active torsions:
REMARK  status: ('A' for Active; 'I' for Inactive)
REMARK    1  A    between atoms: C3_3  and  C8_8 
REMARK    2  A    between atoms: C8_8  and  C9_9 
ROOT
HETATM    1  C1  UNL     1     -23.153  18.124   8.311  1.00 20.00     0.006 C 
HETATM    2  C2  UNL     1     -22.830  17.065   9.361  1.00 20.00     0.021 C 
HETATM    3  C3  UNL     1     -24.157  19.095   8.969  1.00 20.00    -0.009 C 
HETATM    4  C4  UNL     1     -24.414  18.517  10.383  1.00 20.00     0.004 C 
HETATM    5  C5  UNL     1     -24.080  17.032  10.227  1.00 20.00     0.086 C 
HETATM    6  C6  UNL     1     -25.794  18.776  10.973  1.00 20.00     0.012 C 
HETATM    7 CL10 UNL     1     -23.782  16.218  11.773  1.00 20.00    -0.125 Cl
ENDROOT
BRANCH   3   8
HETATM    8  C8  UNL     1     -25.396  19.262   8.092  1.00 20.00     0.005 C 
BRANCH   8   9
HETATM    9  C9  UNL     1     -25.029  19.263   6.612  1.00 20.00    -0.004 C 
HETATM   10  C7  UNL     1     -26.250  19.013   5.741  1.00 20.00     0.005 C 
ENDBRANCH   8   9
ENDBRANCH   3   8
TORSDOF 2
ENDMDL
MODEL 3
REMARK VINA RESULT:      -4.2     11.229     12.162
REMARK  2 active torsions:
REMARK  status: ('A' for Active; 'I' for Inactive)
REMARK    1  A    between atoms: C3_3  and  C8_8 
REMARK    2  A    between atoms: C8_8  and  C9_9 
ROOT
HETATM    1  C1  UNL     1     -33.335  14.785  -4.512  1.00 20.00     0.006 C 
HETATM    2  C2  UNL     1     -33.703  14.815  -5.992  1.00 20.00     0.021 C 
HETATM    3  C3  UNL     1     -34.629  14.426  -3.750  1.00 20.00    -0.009 C 
HETATM    4  C4  UNL     1     -35.723  14.309  -4.840  1.00 20.00     0.004 C 
HETATM    5  C5  UNL     1     -35.182  15.172  -5.981  1.00 20.00     0.086 C 
HETATM    6  C6  UNL     1     -37.138  14.676  -4.412  1.00 20.00     0.012 C 
HETATM    7 CL10 UNL     1     -35.949  14.826  -7.542  1.00 20.00    -0.125 Cl
ENDROOT
BRANCH   3   8
HETATM    8  C8  UNL     1     -34.905  15.447  -2.648  1.00 20.00     0.005 C 
BRANCH   8   9
HETATM    9  C9  UNL     1     -33.772  16.462  -2.540  1.00 20.00    -0.004 C 
HETATM   10  C7  UNL     1     -34.009  17.433  -1.394  1.00 20.00     0.005 C 
ENDBRANCH   8   9
ENDBRANCH   3   8
TORSDOF 2
ENDMDL
MODEL 4
REMARK VINA RESULT:      -4.1     11.139     11.843
REMARK  2 active torsions:
REMARK  status: ('A' for Active; 'I' for Inactive)
REMARK    1  A    between atoms: C3_3  and  C8_8 
REMARK    2  A    between atoms: C8_8  and  C9_9 
ROOT
HETATM    1  C1  UNL     1     -32.983  15.411  -3.752  1.00 20.00     0.006 C 
HETATM    2  C2  UNL     1     -34.147  14.557  -4.245  1.00 20.00     0.021 C 
HETATM    3  C3  UNL     1     -33.546  16.299  -2.620  1.00 20.00    -0.009 C 
HETATM    4  C4  UNL     1     -35.052  15.946  -2.538  1.00 20.00     0.004 C 
HETATM    5  C5  UNL     1     -35.369  15.409  -3.935  1.00 20.00     0.086 C 
HETATM    6  C6  UNL     1     -35.979  17.067  -2.088  1.00 20.00     0.012 C 
HETATM    7 CL10 UNL     1     -36.862  14.456  -3.994  1.00 20.00    -0.125 Cl
ENDROOT
BRANCH   3   8
HETATM    8  C8  UNL     1     -33.228  17.770  -2.882  1.00 20.00     0.005 C 
BRANCH   8   9
HETATM    9  C9  UNL     1     -32.264  18.321  -1.837  1.00 20.00    -0.004 C 
HETATM   10  C7  UNL     1     -32.877  18.281  -0.447  1.00 20.00     0.005 C 
ENDBRANCH   8   9
ENDBRANCH   3   8
TORSDOF 2
ENDMDL
MODEL 5
REMARK VINA RESULT:      -3.9     11.296     12.009
REMARK  2 active torsions:
REMARK  status: ('A' for Active; 'I' for Inactive)
REMARK    1  A    between atoms: C3_3  and  C8_8 
REMARK    2  A    between atoms: C8_8  and  C9_9 
ROOT
HETATM    1  C1  UNL     1     -35.688  17.004  -1.199  1.00 20.00     0.006 C 
HETATM    2  C2  UNL     1     -34.461  17.769  -0.713  1.00 20.00     0.021 C 
HETATM    3  C3  UNL     1     -35.181  15.994  -2.252  1.00 20.00    -0.009 C 
HETATM    4  C4  UNL     1     -33.659  16.257  -2.367  1.00 20.00     0.004 C 
HETATM    5  C5  UNL     1     -33.512  17.707  -1.901  1.00 20.00     0.086 C 
HETATM    6  C6  UNL     1     -33.032  15.985  -3.728  1.00 20.00     0.012 C 
HETATM    7 CL10 UNL     1     -31.854  18.125  -1.434  1.00 20.00    -0.125 Cl
ENDROOT
BRANCH   3   8
HETATM    8  C8  UNL     1     -35.972  16.129  -3.552  1.00 20.00     0.005 C 
BRANCH   8   9
HETATM    9  C9  UNL     1     -36.819  14.889  -3.814  1.00 20.00    -0.004 C 
HETATM   10  C7  UNL     1     -36.013  13.809  -4.515  1.00 20.00     0.005 C 
ENDBRANCH   8   9
ENDBRANCH   3   8
TORSDOF 2
ENDMDL
MODEL 6
REMARK VINA RESULT:      -3.9     11.054     11.845
REMARK  2 active torsions:
REMARK  status: ('A' for Active; 'I' for Inactive)
REMARK    1  A    between atoms: C3_3  and  C8_8 
REMARK    2  A    between atoms: C8_8  and  C9_9 
ROOT
HETATM    1  C1  UNL     1     -35.954  14.234  -4.446  1.00 20.00     0.006 C 
HETATM    2  C2  UNL     1     -36.867  15.217  -3.721  1.00 20.00     0.021 C 
HETATM    3  C3  UNL     1     -34.538  14.449  -3.868  1.00 20.00    -0.009 C 
HETATM    4  C4  UNL     1     -34.688  15.604  -2.846  1.00 20.00     0.004 C 
HETATM    5  C5  UNL     1     -35.930  16.352  -3.334  1.00 20.00     0.086 C 
HETATM    6  C6  UNL     1     -33.469  16.497  -2.661  1.00 20.00     0.012 C 
HETATM    7 CL10 UNL     1     -36.647  17.397  -2.095  1.00 20.00    -0.125 Cl
ENDROOT
BRANCH   3   8
HETATM    8  C8  UNL     1     -33.530  14.689  -4.989  1.00 20.00     0.005 C 
BRANCH   8   9
HETATM    9  C9  UNL     1     -34.232  14.922  -6.322  1.00 20.00    -0.004 C 
HETATM   10  C7  UNL     1     -34.288  16.402  -6.665  1.00 20.00     0.005 C 
ENDBRANCH   8   9
ENDBRANCH   3   8
TORSDOF 2
ENDMDL
MODEL 7
REMARK VINA RESULT:      -3.9     11.421     12.071
REMARK  2 active torsions:
REMARK  status: ('A' for Active; 'I' for Inactive)
REMARK    1  A    between atoms: C3_3  and  C8_8 
REMARK    2  A    between atoms: C8_8  and  C9_9 
ROOT
HETATM    1  C1  UNL     1     -33.053  15.549  -3.514  1.00 20.00     0.006 C 
HETATM    2  C2  UNL     1     -33.510  14.796  -4.760  1.00 20.00     0.021 C 
HETATM    3  C3  UNL     1     -34.336  15.943  -2.749  1.00 20.00    -0.009 C 
HETATM    4  C4  UNL     1     -35.505  15.434  -3.629  1.00 20.00     0.004 C 
HETATM    5  C5  UNL     1     -34.895  15.368  -5.030  1.00 20.00     0.086 C 
HETATM    6  C6  UNL     1     -36.795  16.239  -3.560  1.00 20.00     0.012 C 
HETATM    7 CL10 UNL     1     -35.817  14.344  -6.145  1.00 20.00    -0.125 Cl
ENDROOT
BRANCH   3   8
HETATM    8  C8  UNL     1     -34.343  17.441  -2.448  1.00 20.00     0.005 C 
BRANCH   8   9
HETATM    9  C9  UNL     1     -34.206  17.704  -0.953  1.00 20.00    -0.004 C 
HETATM   10  C7  UNL     1     -35.354  17.079  -0.176  1.00 20.00     0.005 C 
ENDBRANCH   8   9
ENDBRANCH   3   8
TORSDOF 2
ENDMDL
MODEL 8
REMARK VINA RESULT:      -3.9     11.241     12.079
REMARK  2 active torsions:
REMARK  status: ('A' for Active; 'I' for Inactive)
REMARK    1  A    between atoms: C3_3  and  C8_8 
REMARK    2  A    between atoms: C8_8  and  C9_9 
ROOT
HETATM    1  C1  UNL     1     -35.150  16.100  -1.844  1.00 20.00     0.006 C 
HETATM    2  C2  UNL     1     -35.293  16.967  -0.596  1.00 20.00     0.021 C 
HETATM    3  C3  UNL     1     -33.788  16.468  -2.474  1.00 20.00    -0.009 C 
HETATM    4  C4  UNL     1     -33.212  17.588  -1.572  1.00 20.00     0.004 C 
HETATM    5  C5  UNL     1     -34.456  18.196  -0.922  1.00 20.00     0.086 C 
HETATM    6  C6  UNL     1     -32.320  18.611  -2.262  1.00 20.00     0.012 C 
HETATM    7 CL10 UNL     1     -34.091  19.142   0.532  1.00 20.00    -0.125 Cl
ENDROOT
BRANCH   3   8
HETATM    8  C8  UNL     1     -33.959  16.831  -3.948  1.00 20.00     0.005 C 
BRANCH   8   9
HETATM    9  C9  UNL     1     -34.059  15.582  -4.816  1.00 20.00    -0.004 C 
HETATM   10  C7  UNL     1     -33.047  14.531  -4.390  1.00 20.00     0.005 C 
ENDBRANCH   8   9
ENDBRANCH   3   8
TORSDOF 2
ENDMDL
MODEL 9
REMARK VINA RESULT:      -3.9     11.385     12.227
REMARK  2 active torsions:
REMARK  status: ('A' for Active; 'I' for Inactive)
REMARK    1  A    between atoms: C3_3  and  C8_8 
REMARK    2  A    between atoms: C8_8  and  C9_9 
ROOT
HETATM    1  C1  UNL     1     -31.454  18.457  -0.657  1.00 20.00     0.006 C 
HETATM    2  C2  UNL     1     -30.804  18.580   0.718  1.00 20.00     0.021 C 
HETATM    3  C3  UNL     1     -32.964  18.705  -0.446  1.00 20.00    -0.009 C 
HETATM    4  C4  UNL     1     -33.133  18.917   1.079  1.00 20.00     0.004 C 
HETATM    5  C5  UNL     1     -31.923  18.194   1.675  1.00 20.00     0.086 C 
HETATM    6  C6  UNL     1     -34.464  18.478   1.674  1.00 20.00     0.012 C 
HETATM    7 CL10 UNL     1     -31.562  18.692   3.337  1.00 20.00    -0.125 Cl
ENDROOT
BRANCH   3   8
HETATM    8  C8  UNL     1     -33.785  17.565  -1.047  1.00 20.00     0.005 C 
BRANCH   8   9
HETATM    9  C9  UNL     1     -33.145  17.040  -2.327  1.00 20.00    -0.004 C 
HETATM   10  C7  UNL     1     -33.936  15.875  -2.900  1.00 20.00     0.005 C 
ENDBRANCH   8   9
ENDBRANCH   3   8
TORSDOF 2
ENDMDL
