MODEL 1
REMARK VINA RESULT:      -4.5      0.000      0.000
REMARK  2 active torsions:
REMARK  status: ('A' for Active; 'I' for Inactive)
REMARK    1  A    between atoms: C4_4  and  C9_9 
REMARK    2  A    between atoms: C6_6  and  N10_10 
ROOT
HETATM    1  C1  UNL     1     -24.785  19.063   6.678  1.00 20.00     0.158 C 
HETATM    2  N10 UNL     1     -23.773  18.909   7.252  1.00 20.00    -0.270 NA
HETATM    3  S11 UNL     1     -26.142  19.263   5.870  1.00 20.00    -0.055 SA
ENDROOT
BRANCH   2   4
HETATM    4  C6  UNL     1     -23.848  19.130   8.694  1.00 20.00     0.113 C 
HETATM    5  C3  UNL     1     -25.188  18.659   9.253  1.00 20.00     0.028 C 
HETATM    6  C2  UNL     1     -24.893  18.141  10.664  1.00 20.00     0.007 C 
HETATM    7  C4  UNL     1     -23.394  18.373  10.889  1.00 20.00    -0.009 C 
HETATM    8  C5  UNL     1     -22.789  18.336   9.471  1.00 20.00     0.010 C 
HETATM    9  C7  UNL     1     -22.553  16.921   8.931  1.00 20.00     0.012 C 
BRANCH   7  10
HETATM   10  C9  UNL     1     -22.790  17.411  11.900  1.00 20.00     0.000 C 
HETATM   11  C8  UNL     1     -21.426  17.844  12.331  1.00 20.00     0.005 C 
ENDBRANCH   7  10
ENDBRANCH   2   4
TORSDOF 2
ENDMDL
MODEL 2
REMARK VINA RESULT:      -4.4      1.275      2.231
REMARK  2 active torsions:
REMARK  status: ('A' for Active; 'I' for Inactive)
REMARK    1  A    between atoms: C4_4  and  C9_9 
REMARK    2  A    between atoms: C6_6  and  N10_10 
ROOT
HETATM    1  C1  UNL     1     -24.973  19.034   7.033  1.00 20.00     0.158 C 
HETATM    2  N10 UNL     1     -23.942  19.263   7.545  1.00 20.00    -0.270 NA
HETATM    3  S11 UNL     1     -26.372  18.756   6.325  1.00 20.00    -0.055 SA
ENDROOT
BRANCH   2   4
HETATM    4  C6  UNL     1     -23.391  18.161   8.329  1.00 20.00     0.113 C 
HETATM    5  C3  UNL     1     -22.057  18.549   8.962  1.00 20.00     0.028 C 
HETATM    6  C2  UNL     1     -22.000  17.811  10.302  1.00 20.00     0.007 C 
HETATM    7  C4  UNL     1     -23.288  16.981  10.378  1.00 20.00    -0.009 C 
HETATM    8  C5  UNL     1     -24.291  17.763   9.507  1.00 20.00     0.010 C 
HETATM    9  C7  UNL     1     -24.941  18.954  10.222  1.00 20.00     0.012 C 
BRANCH   7  10
HETATM   10  C9  UNL     1     -23.724  16.691  11.806  1.00 20.00     0.000 C 
HETATM   11  C8  UNL     1     -24.780  15.636  11.859  1.00 20.00     0.005 C 
ENDBRANCH   7  10
ENDBRANCH   2   4
TORSDOF 2
ENDMDL
MODEL 3
REMARK VINA RESULT:      -4.4     13.596     16.391
REMARK  2 active torsions:
REMARK  status: ('A' for Active; 'I' for Inactive)
REMARK    1  A    between atoms: C4_4  and  C9_9 
REMARK    2  A    between atoms: C6_6  and  N10_10 
ROOT
HETATM    1  C1  UNL     1     -32.032  18.358  -1.218  1.00 20.00     0.158 C 
HETATM    2  N10 UNL     1     -32.685  18.159  -2.172  1.00 20.00    -0.270 NA
HETATM    3  S11 UNL     1     -31.143  18.662   0.067  1.00 20.00    -0.055 SA
ENDROOT
BRANCH   2   4
HETATM    4  C6  UNL     1     -33.197  16.796  -2.289  1.00 20.00     0.113 C 
HETATM    5  C3  UNL     1     -34.587  16.676  -1.669  1.00 20.00     0.028 C 
HETATM    6  C2  UNL     1     -35.332  15.637  -2.512  1.00 20.00     0.007 C 
HETATM    7  C4  UNL     1     -34.327  15.156  -3.566  1.00 20.00    -0.009 C 
HETATM    8  C5  UNL     1     -33.371  16.352  -3.748  1.00 20.00     0.010 C 
HETATM    9  C7  UNL     1     -33.912  17.448  -4.672  1.00 20.00     0.012 C 
BRANCH   7  10
HETATM   10  C9  UNL     1     -34.996  14.636  -4.829  1.00 20.00     0.000 C 
HETATM   11  C8  UNL     1     -36.161  13.754  -4.517  1.00 20.00     0.005 C 
ENDBRANCH   7  10
ENDBRANCH   2   4
TORSDOF 2
ENDMDL
MODEL 4
REMARK VINA RESULT:      -4.3     16.176     18.467
REMARK  2 active torsions:
REMARK  status: ('A' for Active; 'I' for Inactive)
REMARK    1  A    between atoms: C4_4  and  C9_9 
REMARK    2  A    between atoms: C6_6  and  N10_10 
ROOT
HETATM    1  C1  UNL     1     -39.001  15.353  -4.377  1.00 20.00     0.158 C 
HETATM    2  N10 UNL     1     -37.974  15.072  -4.871  1.00 20.00    -0.270 NA
HETATM    3  S11 UNL     1     -40.408  15.736  -3.739  1.00 20.00    -0.055 SA
ENDROOT
BRANCH   2   4
HETATM    4  C6  UNL     1     -36.894  14.803  -3.926  1.00 20.00     0.113 C 
HETATM    5  C3  UNL     1     -35.967  13.708  -4.447  1.00 20.00     0.028 C 
HETATM    6  C2  UNL     1     -34.569  14.066  -3.937  1.00 20.00     0.007 C 
HETATM    7  C4  UNL     1     -34.743  15.337  -3.096  1.00 20.00    -0.009 C 
HETATM    8  C5  UNL     1     -35.987  16.020  -3.700  1.00 20.00     0.010 C 
HETATM    9  C7  UNL     1     -35.699  16.826  -4.972  1.00 20.00     0.012 C 
BRANCH   7  10
HETATM   10  C9  UNL     1     -33.481  16.183  -3.029  1.00 20.00     0.000 C 
HETATM   11  C8  UNL     1     -33.543  17.185  -1.922  1.00 20.00     0.005 C 
ENDBRANCH   7  10
ENDBRANCH   2   4
TORSDOF 2
ENDMDL
MODEL 5
REMARK VINA RESULT:      -4.3     15.508     17.486
REMARK  2 active torsions:
REMARK  status: ('A' for Active; 'I' for Inactive)
REMARK    1  A    between atoms: C4_4  and  C9_9 
REMARK    2  A    between atoms: C6_6  and  N10_10 
ROOT
HETATM    1  C1  UNL     1     -34.814  14.783  -6.369  1.00 20.00     0.158 C 
HETATM    2  N10 UNL     1     -35.340  14.220  -5.484  1.00 20.00    -0.270 NA
HETATM    3  S11 UNL     1     -34.122  15.533  -7.591  1.00 20.00    -0.055 SA
ENDROOT
BRANCH   2   4
HETATM    4  C6  UNL     1     -34.765  14.477  -4.167  1.00 20.00     0.113 C 
HETATM    5  C3  UNL     1     -33.472  15.282  -4.280  1.00 20.00     0.028 C 
HETATM    6  C2  UNL     1     -33.425  16.173  -3.036  1.00 20.00     0.007 C 
HETATM    7  C4  UNL     1     -34.675  15.819  -2.221  1.00 20.00    -0.009 C 
HETATM    8  C5  UNL     1     -35.685  15.322  -3.274  1.00 20.00     0.010 C 
HETATM    9  C7  UNL     1     -36.412  16.447  -4.019  1.00 20.00     0.012 C 
BRANCH   7  10
HETATM   10  C9  UNL     1     -35.144  16.958  -1.329  1.00 20.00     0.000 C 
HETATM   11  C8  UNL     1     -34.004  17.802  -0.860  1.00 20.00     0.005 C 
ENDBRANCH   7  10
ENDBRANCH   2   4
TORSDOF 2
ENDMDL
MODEL 6
REMARK VINA RESULT:      -4.1      2.472      3.684
REMARK  2 active torsions:
REMARK  status: ('A' for Active; 'I' for Inactive)
REMARK    1  A    between atoms: C4_4  and  C9_9 
REMARK    2  A    between atoms: C6_6  and  N10_10 
ROOT
HETATM    1  C1  UNL     1     -22.025  17.176   9.006  1.00 20.00     0.158 C 
HETATM    2  N10 UNL     1     -22.404  17.065  10.112  1.00 20.00    -0.270 NA
HETATM    3  S11 UNL     1     -21.493  17.297   7.511  1.00 20.00    -0.055 SA
ENDROOT
BRANCH   2   4
HETATM    4  C6  UNL     1     -23.329  18.107  10.548  1.00 20.00     0.113 C 
HETATM    5  C3  UNL     1     -24.214  18.575   9.394  1.00 20.00     0.028 C 
HETATM    6  C2  UNL     1     -25.564  18.932  10.021  1.00 20.00     0.007 C 
HETATM    7  C4  UNL     1     -25.399  18.700  11.528  1.00 20.00    -0.009 C 
HETATM    8  C5  UNL     1     -24.306  17.618  11.626  1.00 20.00     0.010 C 
HETATM    9  C7  UNL     1     -24.819  16.191  11.399  1.00 20.00     0.012 C 
BRANCH   7  10
HETATM   10  C9  UNL     1     -26.714  18.390  12.228  1.00 20.00     0.000 C 
HETATM   11  C8  UNL     1     -27.882  18.962  11.493  1.00 20.00     0.005 C 
ENDBRANCH   7  10
ENDBRANCH   2   4
TORSDOF 2
ENDMDL
MODEL 7
REMARK VINA RESULT:      -4.1     12.628     15.450
REMARK  2 active torsions:
REMARK  status: ('A' for Active; 'I' for Inactive)
REMARK    1  A    between atoms: C4_4  and  C9_9 
REMARK    2  A    between atoms: C6_6  and  N10_10 
ROOT
HETATM    1  C1  UNL     1     -31.431  18.880  -0.443  1.00 20.00     0.158 C 
HETATM    2  N10 UNL     1     -31.876  18.620  -1.497  1.00 20.00    -0.270 NA
HETATM    3  S11 UNL     1     -30.812  19.263   0.974  1.00 20.00    -0.055 SA
ENDROOT
BRANCH   2   4
HETATM    4  C6  UNL     1     -32.654  17.385  -1.543  1.00 20.00     0.113 C 
HETATM    5  C3  UNL     1     -34.013  17.565  -0.869  1.00 20.00     0.028 C 
HETATM    6  C2  UNL     1     -34.985  16.672  -1.643  1.00 20.00     0.007 C 
HETATM    7  C4  UNL     1     -34.144  15.968  -2.714  1.00 20.00    -0.009 C 
HETATM    8  C5  UNL     1     -32.976  16.940  -2.976  1.00 20.00     0.010 C 
HETATM    9  C7  UNL     1     -33.328  18.095  -3.921  1.00 20.00     0.012 C 
BRANCH   7  10
HETATM   10  C9  UNL     1     -34.957  15.555  -3.931  1.00 20.00     0.000 C 
HETATM   11  C8  UNL     1     -35.044  14.069  -4.062  1.00 20.00     0.005 C 
ENDBRANCH   7  10
ENDBRANCH   2   4
TORSDOF 2
ENDMDL
MODEL 8
REMARK VINA RESULT:      -4.1     14.118     16.588
REMARK  2 active torsions:
REMARK  status: ('A' for Active; 'I' for Inactive)
REMARK    1  A    between atoms: C4_4  and  C9_9 
REMARK    2  A    between atoms: C6_6  and  N10_10 
ROOT
HETATM    1  C1  UNL     1     -35.160  15.087  -5.740  1.00 20.00     0.158 C 
HETATM    2  N10 UNL     1     -34.926  15.075  -4.590  1.00 20.00    -0.270 NA
HETATM    3  S11 UNL     1     -35.501  15.080  -7.295  1.00 20.00    -0.055 SA
ENDROOT
BRANCH   2   4
HETATM    4  C6  UNL     1     -33.857  15.977  -4.173  1.00 20.00     0.113 C 
HETATM    5  C3  UNL     1     -34.117  17.400  -4.664  1.00 20.00     0.028 C 
HETATM    6  C2  UNL     1     -33.544  18.324  -3.586  1.00 20.00     0.007 C 
HETATM    7  C4  UNL     1     -32.930  17.401  -2.527  1.00 20.00    -0.009 C 
HETATM    8  C5  UNL     1     -33.742  16.096  -2.647  1.00 20.00     0.010 C 
HETATM    9  C7  UNL     1     -35.092  16.133  -1.923  1.00 20.00     0.012 C 
BRANCH   7  10
HETATM   10  C9  UNL     1     -32.880  18.034  -1.144  1.00 20.00     0.000 C 
HETATM   11  C8  UNL     1     -31.477  18.297  -0.704  1.00 20.00     0.005 C 
ENDBRANCH   7  10
ENDBRANCH   2   4
TORSDOF 2
ENDMDL
MODEL 9
REMARK VINA RESULT:      -4.1     14.024     16.505
REMARK  2 active torsions:
REMARK  status: ('A' for Active; 'I' for Inactive)
REMARK    1  A    between atoms: C4_4  and  C9_9 
REMARK    2  A    between atoms: C6_6  and  N10_10 
ROOT
HETATM    1  C1  UNL     1     -33.725  18.237  -0.291  1.00 20.00     0.158 C 
HETATM    2  N10 UNL     1     -33.617  18.144  -1.456  1.00 20.00    -0.270 NA
HETATM    3  S11 UNL     1     -33.870  18.397   1.286  1.00 20.00    -0.055 SA
ENDROOT
BRANCH   2   4
HETATM    4  C6  UNL     1     -33.638  16.775  -1.965  1.00 20.00     0.113 C 
HETATM    5  C3  UNL     1     -35.047  16.187  -1.903  1.00 20.00     0.028 C 
HETATM    6  C2  UNL     1     -35.162  15.252  -3.110  1.00 20.00     0.007 C 
HETATM    7  C4  UNL     1     -33.797  15.297  -3.806  1.00 20.00    -0.009 C 
HETATM    8  C5  UNL     1     -33.234  16.685  -3.443  1.00 20.00     0.010 C 
HETATM    9  C7  UNL     1     -33.782  17.826  -4.308  1.00 20.00     0.012 C 
BRANCH   7  10
HETATM   10  C9  UNL     1     -33.876  14.974  -5.290  1.00 20.00     0.000 C 
HETATM   11  C8  UNL     1     -35.277  14.681  -5.720  1.00 20.00     0.005 C 
ENDBRANCH   7  10
ENDBRANCH   2   4
TORSDOF 2
ENDMDL
