MODEL 1
REMARK VINA RESULT:      -4.5      0.000      0.000
REMARK  1 active torsions:
REMARK  status: ('A' for Active; 'I' for Inactive)
REMARK    1  A    between atoms: C5_5  and  C9_9 
ROOT
HETATM    1  C1  UNL     1     -33.191   8.396  -0.026  1.00 20.00     0.012 C 
HETATM    2  C2  UNL     1     -32.758   8.307   1.090  1.00 20.00    -0.117 C 
HETATM    3  C9  UNL     1     -32.225   8.204   2.453  1.00 20.00     0.098 C 
ENDROOT
BRANCH   3   4
HETATM    4  C5  UNL     1     -32.469   6.820   3.038  1.00 20.00     0.002 C 
HETATM    5  C3  UNL     1     -32.788   5.773   1.957  1.00 20.00     0.007 C 
HETATM    6  C4  UNL     1     -33.890   4.880   2.535  1.00 20.00     0.021 C 
HETATM    7  C7  UNL     1     -33.979   5.262   4.007  1.00 20.00     0.086 C 
HETATM    8  C6  UNL     1     -33.665   6.759   4.002  1.00 20.00     0.005 C 
HETATM    9 CL10 UNL     1     -35.572   4.887   4.690  1.00 20.00    -0.125 Cl
HETATM   10  C8  UNL     1     -33.353   7.318   5.384  1.00 20.00     0.012 C 
ENDBRANCH   3   4
TORSDOF 1
ENDMDL
MODEL 2
REMARK VINA RESULT:      -4.5     10.735     11.496
REMARK  1 active torsions:
REMARK  status: ('A' for Active; 'I' for Inactive)
REMARK    1  A    between atoms: C5_5  and  C9_9 
ROOT
HETATM    1  C1  UNL     1     -31.565  18.410  -0.379  1.00 20.00     0.012 C 
HETATM    2  C2  UNL     1     -32.103  18.135  -1.416  1.00 20.00    -0.117 C 
HETATM    3  C9  UNL     1     -32.760  17.804  -2.685  1.00 20.00     0.098 C 
ENDROOT
BRANCH   3   4
HETATM    4  C5  UNL     1     -33.367  16.409  -2.645  1.00 20.00     0.002 C 
HETATM    5  C3  UNL     1     -32.885  15.525  -3.807  1.00 20.00     0.007 C 
HETATM    6  C4  UNL     1     -34.103  14.721  -4.271  1.00 20.00     0.021 C 
HETATM    7  C7  UNL     1     -35.165  14.959  -3.205  1.00 20.00     0.086 C 
HETATM    8  C6  UNL     1     -34.901  16.399  -2.761  1.00 20.00     0.005 C 
HETATM    9 CL10 UNL     1     -36.802  14.716  -3.840  1.00 20.00    -0.125 Cl
HETATM   10  C8  UNL     1     -35.604  16.772  -1.463  1.00 20.00     0.012 C 
ENDBRANCH   3   4
TORSDOF 1
ENDMDL
MODEL 3
REMARK VINA RESULT:      -4.4     11.138     11.912
REMARK  1 active torsions:
REMARK  status: ('A' for Active; 'I' for Inactive)
REMARK    1  A    between atoms: C5_5  and  C9_9 
ROOT
HETATM    1  C1  UNL     1     -32.885  17.479  -2.260  1.00 20.00     0.012 C 
HETATM    2  C2  UNL     1     -33.813  16.719  -2.269  1.00 20.00    -0.117 C 
HETATM    3  C9  UNL     1     -34.950  15.791  -2.274  1.00 20.00     0.098 C 
ENDROOT
BRANCH   3   4
HETATM    4  C5  UNL     1     -34.922  14.891  -3.501  1.00 20.00     0.002 C 
HETATM    5  C3  UNL     1     -33.552  14.890  -4.199  1.00 20.00     0.007 C 
HETATM    6  C4  UNL     1     -33.835  14.887  -5.704  1.00 20.00     0.021 C 
HETATM    7  C7  UNL     1     -35.329  14.614  -5.827  1.00 20.00     0.086 C 
HETATM    8  C6  UNL     1     -35.916  15.311  -4.598  1.00 20.00     0.005 C 
HETATM    9 CL10 UNL     1     -35.988  15.225  -7.354  1.00 20.00    -0.125 Cl
HETATM   10  C8  UNL     1     -37.352  14.904  -4.296  1.00 20.00     0.012 C 
ENDBRANCH   3   4
TORSDOF 1
ENDMDL
MODEL 4
REMARK VINA RESULT:      -4.3     11.132     11.697
REMARK  1 active torsions:
REMARK  status: ('A' for Active; 'I' for Inactive)
REMARK    1  A    between atoms: C5_5  and  C9_9 
ROOT
HETATM    1  C1  UNL     1     -35.198  17.402   0.771  1.00 20.00     0.012 C 
HETATM    2  C2  UNL     1     -35.512  17.174  -0.364  1.00 20.00    -0.117 C 
HETATM    3  C9  UNL     1     -35.901  16.898  -1.752  1.00 20.00     0.098 C 
ENDROOT
BRANCH   3   4
HETATM    4  C5  UNL     1     -34.974  15.874  -2.392  1.00 20.00     0.002 C 
HETATM    5  C3  UNL     1     -33.516  16.359  -2.453  1.00 20.00     0.007 C 
HETATM    6  C4  UNL     1     -32.967  15.904  -3.808  1.00 20.00     0.021 C 
HETATM    7  C7  UNL     1     -34.019  14.951  -4.363  1.00 20.00     0.086 C 
HETATM    8  C6  UNL     1     -35.333  15.542  -3.850  1.00 20.00     0.005 C 
HETATM    9 CL10 UNL     1     -33.946  14.846  -6.131  1.00 20.00    -0.125 Cl
HETATM   10  C8  UNL     1     -36.516  14.591  -3.975  1.00 20.00     0.012 C 
ENDBRANCH   3   4
TORSDOF 1
ENDMDL
MODEL 5
REMARK VINA RESULT:      -4.3     11.005     11.721
REMARK  1 active torsions:
REMARK  status: ('A' for Active; 'I' for Inactive)
REMARK    1  A    between atoms: C5_5  and  C9_9 
ROOT
HETATM    1  C1  UNL     1     -33.385  14.746  -4.257  1.00 20.00     0.012 C 
HETATM    2  C2  UNL     1     -34.108  15.210  -3.420  1.00 20.00    -0.117 C 
HETATM    3  C9  UNL     1     -34.996  15.773  -2.397  1.00 20.00     0.098 C 
ENDROOT
BRANCH   3   4
HETATM    4  C5  UNL     1     -34.514  17.143  -1.941  1.00 20.00     0.002 C 
HETATM    5  C3  UNL     1     -33.012  17.351  -2.190  1.00 20.00     0.007 C 
HETATM    6  C4  UNL     1     -32.471  18.099  -0.968  1.00 20.00     0.021 C 
HETATM    7  C7  UNL     1     -33.707  18.533  -0.190  1.00 20.00     0.086 C 
HETATM    8  C6  UNL     1     -34.695  17.391  -0.433  1.00 20.00     0.005 C 
HETATM    9 CL10 UNL     1     -33.349  18.789   1.527  1.00 20.00    -0.125 Cl
HETATM   10  C8  UNL     1     -36.128  17.735  -0.048  1.00 20.00     0.012 C 
ENDBRANCH   3   4
TORSDOF 1
ENDMDL
MODEL 6
REMARK VINA RESULT:      -4.2     11.249     12.468
REMARK  1 active torsions:
REMARK  status: ('A' for Active; 'I' for Inactive)
REMARK    1  A    between atoms: C5_5  and  C9_9 
ROOT
HETATM    1  C1  UNL     1     -32.765  17.570  -1.904  1.00 20.00     0.012 C 
HETATM    2  C2  UNL     1     -33.771  16.921  -1.987  1.00 20.00    -0.117 C 
HETATM    3  C9  UNL     1     -35.001  16.127  -2.082  1.00 20.00     0.098 C 
ENDROOT
BRANCH   3   4
HETATM    4  C5  UNL     1     -35.213  15.604  -3.496  1.00 20.00     0.002 C 
HETATM    5  C3  UNL     1     -34.129  14.600  -3.920  1.00 20.00     0.007 C 
HETATM    6  C4  UNL     1     -33.805  14.907  -5.385  1.00 20.00     0.021 C 
HETATM    7  C7  UNL     1     -34.887  15.881  -5.834  1.00 20.00     0.086 C 
HETATM    8  C6  UNL     1     -35.167  16.701  -4.573  1.00 20.00     0.005 C 
HETATM    9 CL10 UNL     1     -34.355  16.872  -7.204  1.00 20.00    -0.125 Cl
HETATM   10  C8  UNL     1     -36.450  17.519  -4.653  1.00 20.00     0.012 C 
ENDBRANCH   3   4
TORSDOF 1
ENDMDL
MODEL 7
REMARK VINA RESULT:      -4.2      1.003      2.286
REMARK  1 active torsions:
REMARK  status: ('A' for Active; 'I' for Inactive)
REMARK    1  A    between atoms: C5_5  and  C9_9 
ROOT
HETATM    1  C1  UNL     1     -32.681   8.532   0.417  1.00 20.00     0.012 C 
HETATM    2  C2  UNL     1     -32.444   7.868   1.388  1.00 20.00    -0.117 C 
HETATM    3  C9  UNL     1     -32.148   7.053   2.572  1.00 20.00     0.098 C 
ENDROOT
BRANCH   3   4
HETATM    4  C5  UNL     1     -33.319   7.048   3.544  1.00 20.00     0.002 C 
HETATM    5  C3  UNL     1     -33.003   7.795   4.850  1.00 20.00     0.007 C 
HETATM    6  C4  UNL     1     -33.635   6.976   5.979  1.00 20.00     0.021 C 
HETATM    7  C7  UNL     1     -34.513   5.947   5.279  1.00 20.00     0.086 C 
HETATM    8  C6  UNL     1     -33.740   5.639   3.996  1.00 20.00     0.005 C 
HETATM    9 CL10 UNL     1     -34.784   4.515   6.289  1.00 20.00    -0.125 Cl
HETATM   10  C8  UNL     1     -34.564   4.895   2.954  1.00 20.00     0.012 C 
ENDBRANCH   3   4
TORSDOF 1
ENDMDL
MODEL 8
REMARK VINA RESULT:      -4.1     10.943     12.262
REMARK  1 active torsions:
REMARK  status: ('A' for Active; 'I' for Inactive)
REMARK    1  A    between atoms: C5_5  and  C9_9 
ROOT
HETATM    1  C1  UNL     1     -35.251  16.919  -0.810  1.00 20.00     0.012 C 
HETATM    2  C2  UNL     1     -34.290  16.964  -1.527  1.00 20.00    -0.117 C 
HETATM    3  C9  UNL     1     -33.112  17.020  -2.400  1.00 20.00     0.098 C 
ENDROOT
BRANCH   3   4
HETATM    4  C5  UNL     1     -33.501  16.859  -3.863  1.00 20.00     0.002 C 
HETATM    5  C3  UNL     1     -34.638  17.807  -4.278  1.00 20.00     0.007 C 
HETATM    6  C4  UNL     1     -35.554  17.003  -5.205  1.00 20.00     0.021 C 
HETATM    7  C7  UNL     1     -34.785  15.724  -5.510  1.00 20.00     0.086 C 
HETATM    8  C6  UNL     1     -34.022  15.454  -4.212  1.00 20.00     0.005 C 
HETATM    9 CL10 UNL     1     -35.868  14.398  -5.969  1.00 20.00    -0.125 Cl
HETATM   10  C8  UNL     1     -32.912  14.422  -4.364  1.00 20.00     0.012 C 
ENDBRANCH   3   4
TORSDOF 1
ENDMDL
MODEL 9
REMARK VINA RESULT:      -4.1     10.990     11.941
REMARK  1 active torsions:
REMARK  status: ('A' for Active; 'I' for Inactive)
REMARK    1  A    between atoms: C5_5  and  C9_9 
ROOT
HETATM    1  C1  UNL     1     -35.907  16.673  -7.019  1.00 20.00     0.012 C 
HETATM    2  C2  UNL     1     -35.864  15.635  -6.418  1.00 20.00    -0.117 C 
HETATM    3  C9  UNL     1     -35.814  14.364  -5.687  1.00 20.00     0.098 C 
ENDROOT
BRANCH   3   4
HETATM    4  C5  UNL     1     -35.362  14.571  -4.248  1.00 20.00     0.002 C 
HETATM    5  C3  UNL     1     -36.359  15.411  -3.434  1.00 20.00     0.007 C 
HETATM    6  C4  UNL     1     -35.522  16.339  -2.551  1.00 20.00     0.021 C 
HETATM    7  C7  UNL     1     -34.092  15.827  -2.679  1.00 20.00     0.086 C 
HETATM    8  C6  UNL     1     -34.027  15.326  -4.124  1.00 20.00     0.005 C 
HETATM    9 CL10 UNL     1     -32.903  17.093  -2.328  1.00 20.00    -0.125 Cl
HETATM   10  C8  UNL     1     -32.813  14.452  -4.409  1.00 20.00     0.012 C 
ENDBRANCH   3   4
TORSDOF 1
ENDMDL
