MODEL 1
REMARK VINA RESULT:      -4.9      0.000      0.000
REMARK  1 active torsions:
REMARK  status: ('A' for Active; 'I' for Inactive)
REMARK    1  A    between atoms: C5_5  and  C8_8 
ROOT
HETATM    1  C1  UNL     1     -34.786  14.376  -3.976  1.00 20.00     0.018 A 
HETATM    2  C2  UNL     1     -35.159  15.151  -2.882  1.00 20.00     0.010 A 
HETATM    3  C3  UNL     1     -33.562  14.623  -4.583  1.00 20.00     0.087 A 
HETATM    4  C4  UNL     1     -33.098  16.354  -3.066  1.00 20.00     0.095 A 
HETATM    5  C5  UNL     1     -34.309  16.151  -2.419  1.00 20.00    -0.038 A 
HETATM    6  N12 UNL     1     -32.763  15.592  -4.117  1.00 20.00    -0.375 N 
HETATM    7  H28 UNL     1     -31.869  15.757  -4.578  1.00 20.00     0.164 HD
ENDROOT
BRANCH   5   8
HETATM    8  C8  UNL     1     -34.697  17.006  -1.230  1.00 20.00     0.025 C 
HETATM    9  C6  UNL     1     -33.673  18.039  -0.723  1.00 20.00     0.011 C 
HETATM   10  C7  UNL     1     -34.470  19.089   0.059  1.00 20.00     0.021 C 
HETATM   11  C10 UNL     1     -35.949  18.748  -0.133  1.00 20.00     0.086 C 
HETATM   12  C9  UNL     1     -35.988  17.851  -1.382  1.00 20.00     0.008 C 
HETATM   13 CL13 UNL     1     -36.564  17.861   1.299  1.00 20.00    -0.125 Cl
HETATM   14  C11 UNL     1     -36.023  18.706  -2.655  1.00 20.00     0.012 C 
ENDBRANCH   5   8
TORSDOF 1
ENDMDL
MODEL 2
REMARK VINA RESULT:      -4.7      3.063      4.855
REMARK  1 active torsions:
REMARK  status: ('A' for Active; 'I' for Inactive)
REMARK    1  A    between atoms: C5_5  and  C8_8 
ROOT
HETATM    1  C1  UNL     1     -34.845  17.331  -0.309  1.00 20.00     0.018 A 
HETATM    2  C2  UNL     1     -35.059  16.584  -1.463  1.00 20.00     0.010 A 
HETATM    3  C3  UNL     1     -33.678  18.076  -0.202  1.00 20.00     0.087 A 
HETATM    4  C4  UNL     1     -32.962  17.356  -2.319  1.00 20.00     0.095 A 
HETATM    5  C5  UNL     1     -34.110  16.594  -2.482  1.00 20.00    -0.038 A 
HETATM    6  N12 UNL     1     -32.782  18.067  -1.197  1.00 20.00    -0.375 N 
HETATM    7  H28 UNL     1     -31.931  18.620  -1.098  1.00 20.00     0.164 HD
ENDROOT
BRANCH   5   8
HETATM    8  C8  UNL     1     -34.324  15.787  -3.745  1.00 20.00     0.025 C 
HETATM    9  C6  UNL     1     -35.265  14.569  -3.670  1.00 20.00     0.011 C 
HETATM   10  C7  UNL     1     -35.727  14.292  -5.104  1.00 20.00     0.021 C 
HETATM   11  C10 UNL     1     -35.186  15.432  -5.968  1.00 20.00     0.086 C 
HETATM   12  C9  UNL     1     -34.868  16.562  -4.973  1.00 20.00     0.008 C 
HETATM   13 CL13 UNL     1     -33.698  14.904  -6.817  1.00 20.00    -0.125 Cl
HETATM   14  C11 UNL     1     -36.127  17.387  -4.678  1.00 20.00     0.012 C 
ENDBRANCH   5   8
TORSDOF 1
ENDMDL
MODEL 3
REMARK VINA RESULT:      -4.6      3.148      5.023
REMARK  1 active torsions:
REMARK  status: ('A' for Active; 'I' for Inactive)
REMARK    1  A    between atoms: C5_5  and  C8_8 
ROOT
HETATM    1  C1  UNL     1     -32.779  18.090  -1.134  1.00 20.00     0.018 A 
HETATM    2  C2  UNL     1     -32.955  17.353  -2.301  1.00 20.00     0.010 A 
HETATM    3  C3  UNL     1     -33.770  18.049  -0.162  1.00 20.00     0.087 A 
HETATM    4  C4  UNL     1     -35.066  16.592  -1.471  1.00 20.00     0.095 A 
HETATM    5  C5  UNL     1     -34.109  16.595  -2.476  1.00 20.00    -0.038 A 
HETATM    6  N12 UNL     1     -34.871  17.311  -0.356  1.00 20.00    -0.375 N 
HETATM    7  H28 UNL     1     -35.587  17.294   0.370  1.00 20.00     0.164 HD
ENDROOT
BRANCH   5   8
HETATM    8  C8  UNL     1     -34.319  15.787  -3.739  1.00 20.00     0.025 C 
HETATM    9  C6  UNL     1     -35.272  14.578  -3.668  1.00 20.00     0.011 C 
HETATM   10  C7  UNL     1     -35.724  14.301  -5.107  1.00 20.00     0.021 C 
HETATM   11  C10 UNL     1     -35.164  15.433  -5.968  1.00 20.00     0.086 C 
HETATM   12  C9  UNL     1     -34.843  16.563  -4.974  1.00 20.00     0.008 C 
HETATM   13 CL13 UNL     1     -33.673  14.888  -6.802  1.00 20.00    -0.125 Cl
HETATM   14  C11 UNL     1     -36.097  17.401  -4.693  1.00 20.00     0.012 C 
ENDBRANCH   5   8
TORSDOF 1
ENDMDL
MODEL 4
REMARK VINA RESULT:      -4.6      2.901      4.709
REMARK  1 active torsions:
REMARK  status: ('A' for Active; 'I' for Inactive)
REMARK    1  A    between atoms: C5_5  and  C8_8 
ROOT
HETATM    1  C1  UNL     1     -33.654  18.739   0.636  1.00 20.00     0.018 A 
HETATM    2  C2  UNL     1     -34.106  17.851  -0.336  1.00 20.00     0.010 A 
HETATM    3  C3  UNL     1     -32.374  19.263   0.519  1.00 20.00     0.087 A 
HETATM    4  C4  UNL     1     -32.005  18.058  -1.463  1.00 20.00     0.095 A 
HETATM    5  C5  UNL     1     -33.276  17.504  -1.398  1.00 20.00    -0.038 A 
HETATM    6  N12 UNL     1     -31.595  18.911  -0.513  1.00 20.00    -0.375 N 
HETATM    7  H28 UNL     1     -30.658  19.306  -0.580  1.00 20.00     0.164 HD
ENDROOT
BRANCH   5   8
HETATM    8  C8  UNL     1     -33.749  16.539  -2.465  1.00 20.00     0.025 C 
HETATM    9  C6  UNL     1     -35.113  15.855  -2.261  1.00 20.00     0.011 C 
HETATM   10  C7  UNL     1     -35.583  15.407  -3.650  1.00 20.00     0.021 C 
HETATM   11  C10 UNL     1     -34.577  15.969  -4.655  1.00 20.00     0.086 C 
HETATM   12  C9  UNL     1     -33.862  17.105  -3.904  1.00 20.00     0.008 C 
HETATM   13 CL13 UNL     1     -33.407  14.695  -5.128  1.00 20.00    -0.125 Cl
HETATM   14  C11 UNL     1     -34.675  18.403  -3.997  1.00 20.00     0.012 C 
ENDBRANCH   5   8
TORSDOF 1
ENDMDL
MODEL 5
REMARK VINA RESULT:      -4.5      1.418      1.751
REMARK  1 active torsions:
REMARK  status: ('A' for Active; 'I' for Inactive)
REMARK    1  A    between atoms: C5_5  and  C8_8 
ROOT
HETATM    1  C1  UNL     1     -36.496  14.133  -4.992  1.00 20.00     0.018 A 
HETATM    2  C2  UNL     1     -36.228  14.767  -3.782  1.00 20.00     0.010 A 
HETATM    3  C3  UNL     1     -35.611  14.307  -6.048  1.00 20.00     0.087 A 
HETATM    4  C4  UNL     1     -34.242  15.698  -4.741  1.00 20.00     0.095 A 
HETATM    5  C5  UNL     1     -35.091  15.559  -3.651  1.00 20.00    -0.038 A 
HETATM    6  N12 UNL     1     -34.524  15.075  -5.894  1.00 20.00    -0.375 N 
HETATM    7  H28 UNL     1     -33.888  15.190  -6.682  1.00 20.00     0.164 HD
ENDROOT
BRANCH   5   8
HETATM    8  C8  UNL     1     -34.782  16.258  -2.344  1.00 20.00     0.025 C 
HETATM    9  C6  UNL     1     -33.387  16.891  -2.179  1.00 20.00     0.011 C 
HETATM   10  C7  UNL     1     -33.522  17.951  -1.081  1.00 20.00     0.021 C 
HETATM   11  C10 UNL     1     -35.008  18.037  -0.733  1.00 20.00     0.086 C 
HETATM   12  C9  UNL     1     -35.731  17.416  -1.941  1.00 20.00     0.008 C 
HETATM   13 CL13 UNL     1     -35.344  17.093   0.754  1.00 20.00    -0.125 Cl
HETATM   14  C11 UNL     1     -35.932  18.464  -3.042  1.00 20.00     0.012 C 
ENDBRANCH   5   8
TORSDOF 1
ENDMDL
MODEL 6
REMARK VINA RESULT:      -4.5      1.481      1.939
REMARK  1 active torsions:
REMARK  status: ('A' for Active; 'I' for Inactive)
REMARK    1  A    between atoms: C5_5  and  C8_8 
ROOT
HETATM    1  C1  UNL     1     -33.611  14.917  -4.572  1.00 20.00     0.018 A 
HETATM    2  C2  UNL     1     -33.214  15.805  -3.576  1.00 20.00     0.010 A 
HETATM    3  C3  UNL     1     -34.920  14.455  -4.573  1.00 20.00     0.087 A 
HETATM    4  C4  UNL     1     -35.421  15.715  -2.655  1.00 20.00     0.095 A 
HETATM    5  C5  UNL     1     -34.125  16.210  -2.605  1.00 20.00    -0.038 A 
HETATM    6  N12 UNL     1     -35.776  14.862  -3.626  1.00 20.00    -0.375 N 
HETATM    7  H28 UNL     1     -36.733  14.510  -3.644  1.00 20.00     0.164 HD
ENDROOT
BRANCH   5   8
HETATM    8  C8  UNL     1     -33.713  17.175  -1.513  1.00 20.00     0.025 C 
HETATM    9  C6  UNL     1     -32.316  17.817  -1.612  1.00 20.00     0.011 C 
HETATM   10  C7  UNL     1     -32.367  19.093  -0.763  1.00 20.00     0.021 C 
HETATM   11  C10 UNL     1     -33.819  19.262  -0.314  1.00 20.00     0.086 C 
HETATM   12  C9  UNL     1     -34.637  18.399  -1.290  1.00 20.00     0.008 C 
HETATM   13 CL13 UNL     1     -34.014  18.667   1.366  1.00 20.00    -0.125 Cl
HETATM   14  C11 UNL     1     -34.945  19.184  -2.571  1.00 20.00     0.012 C 
ENDBRANCH   5   8
TORSDOF 1
ENDMDL
MODEL 7
REMARK VINA RESULT:      -4.4      2.687      4.831
REMARK  1 active torsions:
REMARK  status: ('A' for Active; 'I' for Inactive)
REMARK    1  A    between atoms: C5_5  and  C8_8 
ROOT
HETATM    1  C1  UNL     1     -32.969  17.942  -1.113  1.00 20.00     0.018 A 
HETATM    2  C2  UNL     1     -33.834  17.122  -1.831  1.00 20.00     0.010 A 
HETATM    3  C3  UNL     1     -32.244  18.910  -1.796  1.00 20.00     0.087 A 
HETATM    4  C4  UNL     1     -33.206  18.263  -3.839  1.00 20.00     0.095 A 
HETATM    5  C5  UNL     1     -33.956  17.280  -3.209  1.00 20.00    -0.038 A 
HETATM    6  N12 UNL     1     -32.381  19.040  -3.122  1.00 20.00    -0.375 N 
HETATM    7  H28 UNL     1     -31.839  19.756  -3.605  1.00 20.00     0.164 HD
ENDROOT
BRANCH   5   8
HETATM    8  C8  UNL     1     -34.891  16.397  -4.008  1.00 20.00     0.025 C 
HETATM    9  C6  UNL     1     -35.062  16.704  -5.508  1.00 20.00     0.011 C 
HETATM   10  C7  UNL     1     -35.571  15.412  -6.158  1.00 20.00     0.021 C 
HETATM   11  C10 UNL     1     -35.538  14.334  -5.073  1.00 20.00     0.086 C 
HETATM   12  C9  UNL     1     -34.575  14.879  -4.005  1.00 20.00     0.008 C 
HETATM   13 CL13 UNL     1     -37.179  14.109  -4.385  1.00 20.00    -0.125 Cl
HETATM   14  C11 UNL     1     -33.123  14.547  -4.373  1.00 20.00     0.012 C 
ENDBRANCH   5   8
TORSDOF 1
ENDMDL
MODEL 8
REMARK VINA RESULT:      -4.3      2.268      2.811
REMARK  1 active torsions:
REMARK  status: ('A' for Active; 'I' for Inactive)
REMARK    1  A    between atoms: C5_5  and  C8_8 
ROOT
HETATM    1  C1  UNL     1     -35.233  13.919  -4.168  1.00 20.00     0.018 A 
HETATM    2  C2  UNL     1     -34.422  14.765  -3.418  1.00 20.00     0.010 A 
HETATM    3  C3  UNL     1     -35.735  14.375  -5.379  1.00 20.00     0.087 A 
HETATM    4  C4  UNL     1     -34.661  16.445  -5.106  1.00 20.00     0.095 A 
HETATM    5  C5  UNL     1     -34.130  16.043  -3.888  1.00 20.00    -0.038 A 
HETATM    6  N12 UNL     1     -35.439  15.609  -5.808  1.00 20.00    -0.375 N 
HETATM    7  H28 UNL     1     -35.818  15.924  -6.700  1.00 20.00     0.164 HD
ENDROOT
BRANCH   5   8
HETATM    8  C8  UNL     1     -33.250  16.979  -3.087  1.00 20.00     0.025 C 
HETATM    9  C6  UNL     1     -32.932  18.359  -3.692  1.00 20.00     0.011 C 
HETATM   10  C7  UNL     1     -32.534  19.263  -2.520  1.00 20.00     0.021 C 
HETATM   11  C10 UNL     1     -32.775  18.456  -1.243  1.00 20.00     0.086 C 
HETATM   12  C9  UNL     1     -33.744  17.337  -1.661  1.00 20.00     0.008 C 
HETATM   13 CL13 UNL     1     -31.229  17.762  -0.656  1.00 20.00    -0.125 Cl
HETATM   14  C11 UNL     1     -35.193  17.838  -1.615  1.00 20.00     0.012 C 
ENDBRANCH   5   8
TORSDOF 1
ENDMDL
MODEL 9
REMARK VINA RESULT:      -4.3      3.195      5.170
REMARK  1 active torsions:
REMARK  status: ('A' for Active; 'I' for Inactive)
REMARK    1  A    between atoms: C5_5  and  C8_8 
ROOT
HETATM    1  C1  UNL     1     -35.498  17.130  -0.162  1.00 20.00     0.018 A 
HETATM    2  C2  UNL     1     -34.866  16.664  -1.312  1.00 20.00     0.010 A 
HETATM    3  C3  UNL     1     -36.739  17.741  -0.283  1.00 20.00     0.087 A 
HETATM    4  C4  UNL     1     -36.720  17.439  -2.612  1.00 20.00     0.095 A 
HETATM    5  C5  UNL     1     -35.480  16.818  -2.551  1.00 20.00    -0.038 A 
HETATM    6  N12 UNL     1     -37.307  17.877  -1.489  1.00 20.00    -0.375 N 
HETATM    7  H28 UNL     1     -38.217  18.330  -1.555  1.00 20.00     0.164 HD
ENDROOT
BRANCH   5   8
HETATM    8  C8  UNL     1     -34.809  16.319  -3.814  1.00 20.00     0.025 C 
HETATM    9  C6  UNL     1     -33.550  15.445  -3.660  1.00 20.00     0.011 C 
HETATM   10  C7  UNL     1     -33.411  14.655  -4.967  1.00 20.00     0.021 C 
HETATM   11  C10 UNL     1     -34.663  14.953  -5.793  1.00 20.00     0.086 C 
HETATM   12  C9  UNL     1     -35.689  15.483  -4.778  1.00 20.00     0.008 C 
HETATM   13 CL13 UNL     1     -34.298  16.201  -7.028  1.00 20.00    -0.125 Cl
HETATM   14  C11 UNL     1     -36.420  14.319  -4.097  1.00 20.00     0.012 C 
ENDBRANCH   5   8
TORSDOF 1
ENDMDL
