MODEL 1
REMARK VINA RESULT:      -4.4      0.000      0.000
REMARK  1 active torsions:
REMARK  status: ('A' for Active; 'I' for Inactive)
REMARK    1  A    between atoms: C6_6  and  N9_9 
ROOT
HETATM    1  C1  UNL     1     -25.307  19.148   8.100  1.00 20.00     0.158 C 
HETATM    2  N9  UNL     1     -24.865  19.263   9.182  1.00 20.00    -0.270 NA
HETATM    3  S10 UNL     1     -25.909  19.023   6.631  1.00 20.00    -0.055 SA
ENDROOT
BRANCH   2   4
HETATM    4  C6  UNL     1     -24.560  17.999   9.860  1.00 20.00     0.113 C 
HETATM    5  C3  UNL     1     -25.266  17.964  11.219  1.00 20.00     0.028 C 
HETATM    6  C2  UNL     1     -24.161  18.129  12.256  1.00 20.00     0.007 C 
HETATM    7  C4  UNL     1     -22.966  17.437  11.605  1.00 20.00    -0.013 C 
HETATM    8  C5  UNL     1     -23.050  17.934  10.153  1.00 20.00     0.010 C 
HETATM    9  C7  UNL     1     -21.652  17.772  12.294  1.00 20.00     0.010 C 
HETATM   10  C8  UNL     1     -22.305  17.042   9.168  1.00 20.00     0.012 C 
ENDBRANCH   2   4
TORSDOF 1
ENDMDL
MODEL 2
REMARK VINA RESULT:      -4.2      2.429      3.375
REMARK  1 active torsions:
REMARK  status: ('A' for Active; 'I' for Inactive)
REMARK    1  A    between atoms: C6_6  and  N9_9 
ROOT
HETATM    1  C1  UNL     1     -26.628  17.398  12.200  1.00 20.00     0.158 C 
HETATM    2  N9  UNL     1     -25.501  17.078  12.119  1.00 20.00    -0.270 NA
HETATM    3  S10 UNL     1     -28.164  17.803  12.320  1.00 20.00    -0.055 SA
ENDROOT
BRANCH   2   4
HETATM    4  C6  UNL     1     -24.598  18.126  11.633  1.00 20.00     0.113 C 
HETATM    5  C3  UNL     1     -25.160  18.729  10.342  1.00 20.00     0.028 C 
HETATM    6  C2  UNL     1     -24.253  18.222   9.227  1.00 20.00     0.007 C 
HETATM    7  C4  UNL     1     -22.888  18.122   9.907  1.00 20.00    -0.013 C 
HETATM    8  C5  UNL     1     -23.243  17.493  11.263  1.00 20.00     0.010 C 
HETATM    9  C7  UNL     1     -21.892  17.309   9.095  1.00 20.00     0.010 C 
HETATM   10  C8  UNL     1     -22.182  17.729  12.331  1.00 20.00     0.012 C 
ENDBRANCH   2   4
TORSDOF 1
ENDMDL
MODEL 3
REMARK VINA RESULT:      -4.0     17.408     19.405
REMARK  1 active torsions:
REMARK  status: ('A' for Active; 'I' for Inactive)
REMARK    1  A    between atoms: C6_6  and  N9_9 
ROOT
HETATM    1  C1  UNL     1     -39.147  14.787  -4.201  1.00 20.00     0.158 C 
HETATM    2  N9  UNL     1     -38.175  14.128  -4.222  1.00 20.00    -0.270 NA
HETATM    3  S10 UNL     1     -40.481  15.656  -4.161  1.00 20.00    -0.055 SA
ENDROOT
BRANCH   2   4
HETATM    4  C6  UNL     1     -36.985  14.803  -4.749  1.00 20.00     0.113 C 
HETATM    5  C3  UNL     1     -35.872  13.775  -4.976  1.00 20.00     0.028 C 
HETATM    6  C2  UNL     1     -34.842  14.043  -3.884  1.00 20.00     0.007 C 
HETATM    7  C4  UNL     1     -34.938  15.553  -3.677  1.00 20.00    -0.013 C 
HETATM    8  C5  UNL     1     -36.455  15.791  -3.692  1.00 20.00     0.010 C 
HETATM    9  C7  UNL     1     -34.256  16.009  -2.396  1.00 20.00     0.010 C 
HETATM   10  C8  UNL     1     -36.835  17.233  -4.005  1.00 20.00     0.012 C 
ENDBRANCH   2   4
TORSDOF 1
ENDMDL
MODEL 4
REMARK VINA RESULT:      -4.0      2.120      2.766
REMARK  1 active torsions:
REMARK  status: ('A' for Active; 'I' for Inactive)
REMARK    1  A    between atoms: C6_6  and  N9_9 
ROOT
HETATM    1  C1  UNL     1     -26.829  19.008  11.578  1.00 20.00     0.158 C 
HETATM    2  N9  UNL     1     -25.702  18.837  11.860  1.00 20.00    -0.270 NA
HETATM    3  S10 UNL     1     -28.360  19.261  11.218  1.00 20.00    -0.055 SA
ENDROOT
BRANCH   2   4
HETATM    4  C6  UNL     1     -25.018  17.810  11.067  1.00 20.00     0.113 C 
HETATM    5  C3  UNL     1     -24.118  16.972  11.981  1.00 20.00     0.028 C 
HETATM    6  C2  UNL     1     -22.692  17.382  11.634  1.00 20.00     0.007 C 
HETATM    7  C4  UNL     1     -22.773  17.703  10.143  1.00 20.00    -0.013 C 
HETATM    8  C5  UNL     1     -24.086  18.496  10.050  1.00 20.00     0.010 C 
HETATM    9  C7  UNL     1     -21.556  18.467   9.644  1.00 20.00     0.010 C 
HETATM   10  C8  UNL     1     -24.676  18.518   8.645  1.00 20.00     0.012 C 
ENDBRANCH   2   4
TORSDOF 1
ENDMDL
MODEL 5
REMARK VINA RESULT:      -4.0     16.812     18.422
REMARK  1 active torsions:
REMARK  status: ('A' for Active; 'I' for Inactive)
REMARK    1  A    between atoms: C6_6  and  N9_9 
ROOT
HETATM    1  C1  UNL     1     -34.296  15.127  -6.362  1.00 20.00     0.158 C 
HETATM    2  N9  UNL     1     -33.568  14.534  -5.657  1.00 20.00    -0.270 NA
HETATM    3  S10 UNL     1     -35.263  15.927  -7.342  1.00 20.00    -0.055 SA
ENDROOT
BRANCH   2   4
HETATM    4  C6  UNL     1     -33.985  14.474  -4.252  1.00 20.00     0.113 C 
HETATM    5  C3  UNL     1     -35.315  13.722  -4.145  1.00 20.00     0.028 C 
HETATM    6  C2  UNL     1     -36.358  14.784  -3.818  1.00 20.00     0.007 C 
HETATM    7  C4  UNL     1     -35.577  15.791  -2.975  1.00 20.00    -0.013 C 
HETATM    8  C5  UNL     1     -34.251  15.903  -3.743  1.00 20.00     0.010 C 
HETATM    9  C7  UNL     1     -36.311  17.115  -2.821  1.00 20.00     0.010 C 
HETATM   10  C8  UNL     1     -33.107  16.438  -2.892  1.00 20.00     0.012 C 
ENDBRANCH   2   4
TORSDOF 1
ENDMDL
MODEL 6
REMARK VINA RESULT:      -4.0      1.382      2.493
REMARK  1 active torsions:
REMARK  status: ('A' for Active; 'I' for Inactive)
REMARK    1  A    between atoms: C6_6  and  N9_9 
ROOT
HETATM    1  C1  UNL     1     -25.661  19.256   7.824  1.00 20.00     0.158 C 
HETATM    2  N9  UNL     1     -25.943  19.254   8.964  1.00 20.00    -0.270 NA
HETATM    3  S10 UNL     1     -25.309  19.263   6.271  1.00 20.00    -0.055 SA
ENDROOT
BRANCH   2   4
HETATM    4  C6  UNL     1     -24.818  19.021   9.876  1.00 20.00     0.113 C 
HETATM    5  C3  UNL     1     -23.698  18.287   9.131  1.00 20.00     0.028 C 
HETATM    6  C2  UNL     1     -23.703  16.867   9.684  1.00 20.00     0.007 C 
HETATM    7  C4  UNL     1     -24.132  17.061  11.137  1.00 20.00    -0.013 C 
HETATM    8  C5  UNL     1     -25.272  18.082  11.009  1.00 20.00     0.010 C 
HETATM    9  C7  UNL     1     -24.546  15.757  11.802  1.00 20.00     0.010 C 
HETATM   10  C8  UNL     1     -25.556  18.832  12.305  1.00 20.00     0.012 C 
ENDBRANCH   2   4
TORSDOF 1
ENDMDL
MODEL 7
REMARK VINA RESULT:      -3.9     17.683     19.251
REMARK  1 active torsions:
REMARK  status: ('A' for Active; 'I' for Inactive)
REMARK    1  A    between atoms: C6_6  and  N9_9 
ROOT
HETATM    1  C1  UNL     1     -38.635  14.824  -4.193  1.00 20.00     0.158 C 
HETATM    2  N9  UNL     1     -37.525  14.447  -4.125  1.00 20.00    -0.270 NA
HETATM    3  S10 UNL     1     -40.151  15.305  -4.280  1.00 20.00    -0.055 SA
ENDROOT
BRANCH   2   4
HETATM    4  C6  UNL     1     -36.510  15.482  -4.347  1.00 20.00     0.113 C 
HETATM    5  C3  UNL     1     -36.148  15.533  -5.835  1.00 20.00     0.028 C 
HETATM    6  C2  UNL     1     -34.748  14.940  -5.934  1.00 20.00     0.007 C 
HETATM    7  C4  UNL     1     -34.098  15.357  -4.616  1.00 20.00    -0.013 C 
HETATM    8  C5  UNL     1     -35.220  15.093  -3.600  1.00 20.00     0.010 C 
HETATM    9  C7  UNL     1     -32.816  14.589  -4.331  1.00 20.00     0.010 C 
HETATM   10  C8  UNL     1     -35.047  15.867  -2.299  1.00 20.00     0.012 C 
ENDBRANCH   2   4
TORSDOF 1
ENDMDL
MODEL 8
REMARK VINA RESULT:      -3.8     16.723     18.207
REMARK  1 active torsions:
REMARK  status: ('A' for Active; 'I' for Inactive)
REMARK    1  A    between atoms: C6_6  and  N9_9 
ROOT
HETATM    1  C1  UNL     1     -35.143  15.512  -6.404  1.00 20.00     0.158 C 
HETATM    2  N9  UNL     1     -35.288  14.410  -6.024  1.00 20.00    -0.270 NA
HETATM    3  S10 UNL     1     -34.956  16.997  -6.947  1.00 20.00    -0.055 SA
ENDROOT
BRANCH   2   4
HETATM    4  C6  UNL     1     -34.904  14.185  -4.627  1.00 20.00     0.113 C 
HETATM    5  C3  UNL     1     -36.019  14.683  -3.702  1.00 20.00     0.028 C 
HETATM    6  C2  UNL     1     -35.475  15.950  -3.054  1.00 20.00     0.007 C 
HETATM    7  C4  UNL     1     -33.978  15.668  -2.940  1.00 20.00    -0.013 C 
HETATM    8  C5  UNL     1     -33.660  15.033  -4.303  1.00 20.00     0.010 C 
HETATM    9  C7  UNL     1     -33.170  16.922  -2.643  1.00 20.00     0.010 C 
HETATM   10  C8  UNL     1     -32.380  14.206  -4.296  1.00 20.00     0.012 C 
ENDBRANCH   2   4
TORSDOF 1
ENDMDL
MODEL 9
REMARK VINA RESULT:      -3.8     13.627     15.292
REMARK  1 active torsions:
REMARK  status: ('A' for Active; 'I' for Inactive)
REMARK    1  A    between atoms: C6_6  and  N9_9 
ROOT
HETATM    1  C1  UNL     1     -34.342  18.358   1.524  1.00 20.00     0.158 C 
HETATM    2  N9  UNL     1     -33.639  17.957   0.673  1.00 20.00    -0.270 NA
HETATM    3  S10 UNL     1     -35.275  18.891   2.699  1.00 20.00    -0.055 SA
ENDROOT
BRANCH   2   4
HETATM    4  C6  UNL     1     -34.152  18.141  -0.688  1.00 20.00     0.113 C 
HETATM    5  C3  UNL     1     -35.407  17.283  -0.883  1.00 20.00     0.028 C 
HETATM    6  C2  UNL     1     -34.984  16.147  -1.806  1.00 20.00     0.007 C 
HETATM    7  C4  UNL     1     -33.931  16.799  -2.701  1.00 20.00    -0.013 C 
HETATM    8  C5  UNL     1     -33.110  17.621  -1.696  1.00 20.00     0.010 C 
HETATM    9  C7  UNL     1     -33.112  15.777  -3.474  1.00 20.00     0.010 C 
HETATM   10  C8  UNL     1     -32.319  18.749  -2.346  1.00 20.00     0.012 C 
ENDBRANCH   2   4
TORSDOF 1
ENDMDL
