MODEL 1
REMARK VINA RESULT:      -5.8      0.000      0.000
REMARK  2 active torsions:
REMARK  status: ('A' for Active; 'I' for Inactive)
REMARK    1  A    between atoms: C7_7  and  C10_10 
REMARK    2  A    between atoms: C9_9  and  C10_10 
ROOT
HETATM    1  C1  UNL     1     -32.981   9.128   0.353  1.00 20.00     0.012 C 
HETATM    2  C2  UNL     1     -32.635   8.306   1.156  1.00 20.00    -0.117 C 
HETATM    3  C9  UNL     1     -32.206   7.302   2.138  1.00 20.00     0.093 C 
ENDROOT
BRANCH   3   4
HETATM    4  C10 UNL     1     -33.299   6.273   2.343  1.00 20.00     0.017 C 
BRANCH   4   5
HETATM    5  C7  UNL     1     -34.016   6.506   3.665  1.00 20.00    -0.002 C 
HETATM    6  C5  UNL     1     -33.073   7.004   4.763  1.00 20.00     0.013 C 
HETATM    7  C4  UNL     1     -33.880   6.859   6.046  1.00 20.00     0.079 C 
HETATM    8  C3  UNL     1     -34.731   5.651   5.748  1.00 20.00     0.131 C 
HETATM    9  C6  UNL     1     -34.705   5.272   4.279  1.00 20.00     0.055 C 
HETATM   10  O11 UNL     1     -35.374   5.049   6.599  1.00 20.00    -0.298 OA
HETATM   11  C8  UNL     1     -33.979   3.947   4.106  1.00 20.00     0.018 C 
ENDBRANCH   4   5
ENDBRANCH   3   4
TORSDOF 2
ENDMDL
MODEL 2
REMARK VINA RESULT:      -5.0     11.246     12.233
REMARK  2 active torsions:
REMARK  status: ('A' for Active; 'I' for Inactive)
REMARK    1  A    between atoms: C7_7  and  C10_10 
REMARK    2  A    between atoms: C9_9  and  C10_10 
ROOT
HETATM    1  C1  UNL     1     -31.350  18.501  -0.394  1.00 20.00     0.012 C 
HETATM    2  C2  UNL     1     -32.082  18.333  -1.330  1.00 20.00    -0.117 C 
HETATM    3  C9  UNL     1     -32.974  18.132  -2.480  1.00 20.00     0.093 C 
ENDROOT
BRANCH   3   4
HETATM    4  C10 UNL     1     -34.183  17.318  -2.064  1.00 20.00     0.017 C 
BRANCH   4   5
HETATM    5  C7  UNL     1     -34.065  15.886  -2.564  1.00 20.00    -0.002 C 
HETATM    6  C5  UNL     1     -33.128  15.761  -3.768  1.00 20.00     0.013 C 
HETATM    7  C4  UNL     1     -33.398  14.364  -4.312  1.00 20.00     0.079 C 
HETATM    8  C3  UNL     1     -34.859  14.179  -3.991  1.00 20.00     0.131 C 
HETATM    9  C6  UNL     1     -35.380  15.230  -3.030  1.00 20.00     0.055 C 
HETATM   10  O11 UNL     1     -35.544  13.274  -4.455  1.00 20.00    -0.298 OA
HETATM   11  C8  UNL     1     -36.362  16.141  -3.751  1.00 20.00     0.018 C 
ENDBRANCH   4   5
ENDBRANCH   3   4
TORSDOF 2
ENDMDL
MODEL 3
REMARK VINA RESULT:      -4.8     15.200     16.466
REMARK  2 active torsions:
REMARK  status: ('A' for Active; 'I' for Inactive)
REMARK    1  A    between atoms: C7_7  and  C10_10 
REMARK    2  A    between atoms: C9_9  and  C10_10 
ROOT
HETATM    1  C1  UNL     1     -28.472  17.315  12.326  1.00 20.00     0.012 C 
HETATM    2  C2  UNL     1     -27.614  18.123  12.099  1.00 20.00    -0.117 C 
HETATM    3  C9  UNL     1     -26.568  19.116  11.818  1.00 20.00     0.093 C 
ENDROOT
BRANCH   3   4
HETATM    4  C10 UNL     1     -25.226  18.612  12.311  1.00 20.00     0.017 C 
BRANCH   4   5
HETATM    5  C7  UNL     1     -24.246  18.474  11.155  1.00 20.00    -0.002 C 
HETATM    6  C5  UNL     1     -24.895  18.761   9.799  1.00 20.00     0.013 C 
HETATM    7  C4  UNL     1     -23.879  18.260   8.782  1.00 20.00     0.079 C 
HETATM    8  C3  UNL     1     -23.248  17.102   9.512  1.00 20.00     0.131 C 
HETATM    9  C6  UNL     1     -23.600  17.086  10.987  1.00 20.00     0.055 C 
HETATM   10  O11 UNL     1     -22.528  16.272   8.970  1.00 20.00    -0.298 OA
HETATM   11  C8  UNL     1     -24.496  15.892  11.285  1.00 20.00     0.018 C 
ENDBRANCH   4   5
ENDBRANCH   3   4
TORSDOF 2
ENDMDL
MODEL 4
REMARK VINA RESULT:      -4.8     11.118     12.191
REMARK  2 active torsions:
REMARK  status: ('A' for Active; 'I' for Inactive)
REMARK    1  A    between atoms: C7_7  and  C10_10 
REMARK    2  A    between atoms: C9_9  and  C10_10 
ROOT
HETATM    1  C1  UNL     1     -31.907  18.554  -1.089  1.00 20.00     0.012 C 
HETATM    2  C2  UNL     1     -32.870  17.900  -1.380  1.00 20.00    -0.117 C 
HETATM    3  C9  UNL     1     -34.052  17.102  -1.732  1.00 20.00     0.093 C 
ENDROOT
BRANCH   3   4
HETATM    4  C10 UNL     1     -33.781  16.295  -2.985  1.00 20.00     0.017 C 
BRANCH   4   5
HETATM    5  C7  UNL     1     -34.773  15.148  -3.112  1.00 20.00    -0.002 C 
HETATM    6  C5  UNL     1     -34.337  14.107  -4.145  1.00 20.00     0.013 C 
HETATM    7  C4  UNL     1     -35.576  13.249  -4.362  1.00 20.00     0.079 C 
HETATM    8  C3  UNL     1     -36.688  14.247  -4.161  1.00 20.00     0.131 C 
HETATM    9  C6  UNL     1     -36.200  15.541  -3.540  1.00 20.00     0.055 C 
HETATM   10  O11 UNL     1     -37.855  14.028  -4.463  1.00 20.00    -0.298 OA
HETATM   11  C8  UNL     1     -36.304  16.667  -4.559  1.00 20.00     0.018 C 
ENDBRANCH   4   5
ENDBRANCH   3   4
TORSDOF 2
ENDMDL
MODEL 5
REMARK VINA RESULT:      -4.7     10.967     12.221
REMARK  2 active torsions:
REMARK  status: ('A' for Active; 'I' for Inactive)
REMARK    1  A    between atoms: C7_7  and  C10_10 
REMARK    2  A    between atoms: C9_9  and  C10_10 
ROOT
HETATM    1  C1  UNL     1     -35.316  17.492  -0.372  1.00 20.00     0.012 C 
HETATM    2  C2  UNL     1     -34.431  17.324  -1.165  1.00 20.00    -0.117 C 
HETATM    3  C9  UNL     1     -33.344  17.119  -2.131  1.00 20.00     0.093 C 
ENDROOT
BRANCH   3   4
HETATM    4  C10 UNL     1     -33.913  16.730  -3.481  1.00 20.00     0.017 C 
BRANCH   4   5
HETATM    5  C7  UNL     1     -34.792  15.495  -3.358  1.00 20.00    -0.002 C 
HETATM    6  C5  UNL     1     -34.231  14.297  -4.127  1.00 20.00     0.013 C 
HETATM    7  C4  UNL     1     -35.380  13.298  -4.160  1.00 20.00     0.079 C 
HETATM    8  C3  UNL     1     -36.584  14.205  -4.200  1.00 20.00     0.131 C 
HETATM    9  C6  UNL     1     -36.235  15.646  -3.880  1.00 20.00     0.055 C 
HETATM   10  O11 UNL     1     -37.716  13.815  -4.458  1.00 20.00    -0.298 OA
HETATM   11  C8  UNL     1     -36.407  16.502  -5.125  1.00 20.00     0.018 C 
ENDBRANCH   4   5
ENDBRANCH   3   4
TORSDOF 2
ENDMDL
MODEL 6
REMARK VINA RESULT:      -4.7     11.467     12.175
REMARK  2 active torsions:
REMARK  status: ('A' for Active; 'I' for Inactive)
REMARK    1  A    between atoms: C7_7  and  C10_10 
REMARK    2  A    between atoms: C9_9  and  C10_10 
ROOT
HETATM    1  C1  UNL     1     -34.312  18.134   1.698  1.00 20.00     0.012 C 
HETATM    2  C2  UNL     1     -34.812  17.628   0.732  1.00 20.00    -0.117 C 
HETATM    3  C9  UNL     1     -35.429  17.006  -0.448  1.00 20.00     0.093 C 
ENDROOT
BRANCH   3   4
HETATM    4  C10 UNL     1     -34.563  17.237  -1.670  1.00 20.00     0.017 C 
BRANCH   4   5
HETATM    5  C7  UNL     1     -34.280  15.923  -2.384  1.00 20.00    -0.002 C 
HETATM    6  C5  UNL     1     -33.164  16.050  -3.424  1.00 20.00     0.013 C 
HETATM    7  C4  UNL     1     -33.259  14.766  -4.237  1.00 20.00     0.079 C 
HETATM    8  C3  UNL     1     -34.738  14.475  -4.194  1.00 20.00     0.131 C 
HETATM    9  C6  UNL     1     -35.464  15.316  -3.162  1.00 20.00     0.055 C 
HETATM   10  O11 UNL     1     -35.285  13.646  -4.911  1.00 20.00    -0.298 OA
HETATM   11  C8  UNL     1     -36.379  16.308  -3.865  1.00 20.00     0.018 C 
ENDBRANCH   4   5
ENDBRANCH   3   4
TORSDOF 2
ENDMDL
MODEL 7
REMARK VINA RESULT:      -4.6     11.178     12.395
REMARK  2 active torsions:
REMARK  status: ('A' for Active; 'I' for Inactive)
REMARK    1  A    between atoms: C7_7  and  C10_10 
REMARK    2  A    between atoms: C9_9  and  C10_10 
ROOT
HETATM    1  C1  UNL     1     -33.060  19.113  -4.418  1.00 20.00     0.012 C 
HETATM    2  C2  UNL     1     -33.062  18.076  -3.815  1.00 20.00    -0.117 C 
HETATM    3  C9  UNL     1     -33.060  16.804  -3.079  1.00 20.00     0.093 C 
ENDROOT
BRANCH   3   4
HETATM    4  C10 UNL     1     -34.346  16.657  -2.290  1.00 20.00     0.017 C 
BRANCH   4   5
HETATM    5  C7  UNL     1     -35.079  15.385  -2.689  1.00 20.00    -0.002 C 
HETATM    6  C5  UNL     1     -34.327  14.586  -3.756  1.00 20.00     0.013 C 
HETATM    7  C4  UNL     1     -35.345  13.565  -4.249  1.00 20.00     0.079 C 
HETATM    8  C3  UNL     1     -36.642  14.321  -4.105  1.00 20.00     0.131 C 
HETATM    9  C6  UNL     1     -36.489  15.583  -3.278  1.00 20.00     0.055 C 
HETATM   10  O11 UNL     1     -37.699  13.948  -4.599  1.00 20.00    -0.298 OA
HETATM   11  C8  UNL     1     -36.676  16.802  -4.168  1.00 20.00     0.018 C 
ENDBRANCH   4   5
ENDBRANCH   3   4
TORSDOF 2
ENDMDL
MODEL 8
REMARK VINA RESULT:      -4.4     11.759     12.690
REMARK  2 active torsions:
REMARK  status: ('A' for Active; 'I' for Inactive)
REMARK    1  A    between atoms: C7_7  and  C10_10 
REMARK    2  A    between atoms: C9_9  and  C10_10 
ROOT
HETATM    1  C1  UNL     1     -32.265  18.045  -1.374  1.00 20.00     0.012 C 
HETATM    2  C2  UNL     1     -33.393  17.689  -1.579  1.00 20.00    -0.117 C 
HETATM    3  C9  UNL     1     -34.775  17.259  -1.829  1.00 20.00     0.093 C 
ENDROOT
BRANCH   3   4
HETATM    4  C10 UNL     1     -34.798  15.808  -2.266  1.00 20.00     0.017 C 
BRANCH   4   5
HETATM    5  C7  UNL     1     -35.142  15.697  -3.743  1.00 20.00    -0.002 C 
HETATM    6  C5  UNL     1     -35.981  14.456  -4.057  1.00 20.00     0.013 C 
HETATM    7  C4  UNL     1     -35.937  14.345  -5.576  1.00 20.00     0.079 C 
HETATM    8  C3  UNL     1     -34.569  14.896  -5.890  1.00 20.00     0.131 C 
HETATM    9  C6  UNL     1     -33.941  15.603  -4.705  1.00 20.00     0.055 C 
HETATM   10  O11 UNL     1     -34.031  14.786  -6.986  1.00 20.00    -0.298 OA
HETATM   11  C8  UNL     1     -32.748  14.802  -4.205  1.00 20.00     0.018 C 
ENDBRANCH   4   5
ENDBRANCH   3   4
TORSDOF 2
ENDMDL
MODEL 9
REMARK VINA RESULT:      -4.4     11.917     13.319
REMARK  2 active torsions:
REMARK  status: ('A' for Active; 'I' for Inactive)
REMARK    1  A    between atoms: C7_7  and  C10_10 
REMARK    2  A    between atoms: C9_9  and  C10_10 
ROOT
HETATM    1  C1  UNL     1     -35.110  16.357  -1.558  1.00 20.00     0.012 C 
HETATM    2  C2  UNL     1     -34.292  16.129  -2.406  1.00 20.00    -0.117 C 
HETATM    3  C9  UNL     1     -33.288  15.856  -3.443  1.00 20.00     0.093 C 
ENDROOT
BRANCH   3   4
HETATM    4  C10 UNL     1     -33.686  14.632  -4.243  1.00 20.00     0.017 C 
BRANCH   4   5
HETATM    5  C7  UNL     1     -34.223  15.032  -5.608  1.00 20.00    -0.002 C 
HETATM    6  C5  UNL     1     -34.332  16.550  -5.772  1.00 20.00     0.013 C 
HETATM    7  C4  UNL     1     -35.174  16.734  -7.028  1.00 20.00     0.079 C 
HETATM    8  C3  UNL     1     -36.084  15.533  -6.974  1.00 20.00     0.131 C 
HETATM    9  C6  UNL     1     -35.628  14.505  -5.956  1.00 20.00     0.055 C 
HETATM   10  O11 UNL     1     -37.077  15.405  -7.680  1.00 20.00    -0.298 OA
HETATM   11  C8  UNL     1     -36.623  14.450  -4.806  1.00 20.00     0.018 C 
ENDBRANCH   4   5
ENDBRANCH   3   4
TORSDOF 2
ENDMDL
