MODEL 1
REMARK VINA RESULT:      -4.8      0.000      0.000
REMARK  1 active torsions:
REMARK  status: ('A' for Active; 'I' for Inactive)
REMARK    1  A    between atoms: C7_7  and  C9_9 
ROOT
HETATM    1  C1  UNL     1     -32.872  17.745  -1.604  1.00 20.00     0.012 C 
HETATM    2  C2  UNL     1     -33.759  16.996  -1.911  1.00 20.00    -0.117 C 
HETATM    3  C9  UNL     1     -34.846  16.082  -2.281  1.00 20.00     0.098 C 
ENDROOT
BRANCH   3   4
HETATM    4  C7  UNL     1     -35.008  15.999  -3.800  1.00 20.00     0.008 C 
HETATM    5  C5  UNL     1     -36.483  16.053  -4.211  1.00 20.00     0.013 C 
HETATM    6  C4  UNL     1     -37.001  14.629  -4.056  1.00 20.00     0.079 C 
HETATM    7  C3  UNL     1     -35.768  13.812  -4.338  1.00 20.00     0.131 C 
HETATM    8  C6  UNL     1     -34.505  14.650  -4.351  1.00 20.00     0.056 C 
HETATM    9  O10 UNL     1     -35.787  12.603  -4.533  1.00 20.00    -0.298 OA
HETATM   10  C8  UNL     1     -33.972  14.755  -5.772  1.00 20.00     0.018 C 
ENDBRANCH   3   4
TORSDOF 1
ENDMDL
MODEL 2
REMARK VINA RESULT:      -4.5     16.381     17.881
REMARK  1 active torsions:
REMARK  status: ('A' for Active; 'I' for Inactive)
REMARK    1  A    between atoms: C7_7  and  C9_9 
ROOT
HETATM    1  C1  UNL     1     -27.931  18.913  11.713  1.00 20.00     0.012 C 
HETATM    2  C2  UNL     1     -26.746  18.834  11.537  1.00 20.00    -0.117 C 
HETATM    3  C9  UNL     1     -25.297  18.738  11.328  1.00 20.00     0.098 C 
ENDROOT
BRANCH   3   4
HETATM    4  C7  UNL     1     -24.974  18.097   9.976  1.00 20.00     0.008 C 
HETATM    5  C5  UNL     1     -24.090  16.856  10.140  1.00 20.00     0.013 C 
HETATM    6  C4  UNL     1     -22.666  17.382  10.257  1.00 20.00     0.079 C 
HETATM    7  C3  UNL     1     -22.724  18.638   9.428  1.00 20.00     0.131 C 
HETATM    8  C6  UNL     1     -24.144  19.043   9.085  1.00 20.00     0.056 C 
HETATM    9  O10 UNL     1     -21.732  19.263   9.074  1.00 20.00    -0.298 OA
HETATM   10  C8  UNL     1     -24.396  18.826   7.600  1.00 20.00     0.018 C 
ENDBRANCH   3   4
TORSDOF 1
ENDMDL
MODEL 3
REMARK VINA RESULT:      -4.3      1.360      1.463
REMARK  1 active torsions:
REMARK  status: ('A' for Active; 'I' for Inactive)
REMARK    1  A    between atoms: C7_7  and  C9_9 
ROOT
HETATM    1  C1  UNL     1     -35.116  16.901  -0.764  1.00 20.00     0.012 C 
HETATM    2  C2  UNL     1     -35.582  16.814  -1.868  1.00 20.00    -0.117 C 
HETATM    3  C9  UNL     1     -36.156  16.712  -3.214  1.00 20.00     0.098 C 
ENDROOT
BRANCH   3   4
HETATM    4  C7  UNL     1     -35.138  16.151  -4.209  1.00 20.00     0.008 C 
HETATM    5  C5  UNL     1     -35.746  15.997  -5.607  1.00 20.00     0.013 C 
HETATM    6  C4  UNL     1     -36.488  14.667  -5.584  1.00 20.00     0.079 C 
HETATM    7  C3  UNL     1     -35.675  13.868  -4.599  1.00 20.00     0.131 C 
HETATM    8  C6  UNL     1     -34.695  14.726  -3.823  1.00 20.00     0.056 C 
HETATM    9  O10 UNL     1     -35.796  12.659  -4.444  1.00 20.00    -0.298 OA
HETATM   10  C8  UNL     1     -33.273  14.410  -4.266  1.00 20.00     0.018 C 
ENDBRANCH   3   4
TORSDOF 1
ENDMDL
MODEL 4
REMARK VINA RESULT:      -4.3      1.620      2.623
REMARK  1 active torsions:
REMARK  status: ('A' for Active; 'I' for Inactive)
REMARK    1  A    between atoms: C7_7  and  C9_9 
ROOT
HETATM    1  C1  UNL     1     -35.235  16.979  -0.763  1.00 20.00     0.012 C 
HETATM    2  C2  UNL     1     -34.630  16.610  -1.733  1.00 20.00    -0.117 C 
HETATM    3  C9  UNL     1     -33.887  16.162  -2.916  1.00 20.00     0.098 C 
ENDROOT
BRANCH   3   4
HETATM    4  C7  UNL     1     -34.510  14.900  -3.516  1.00 20.00     0.008 C 
HETATM    5  C5  UNL     1     -33.558  14.223  -4.509  1.00 20.00     0.013 C 
HETATM    6  C4  UNL     1     -33.745  14.968  -5.824  1.00 20.00     0.079 C 
HETATM    7  C3  UNL     1     -35.184  15.403  -5.740  1.00 20.00     0.131 C 
HETATM    8  C6  UNL     1     -35.764  15.229  -4.350  1.00 20.00     0.056 C 
HETATM    9  O10 UNL     1     -35.813  15.850  -6.691  1.00 20.00    -0.298 OA
HETATM   10  C8  UNL     1     -36.782  14.098  -4.355  1.00 20.00     0.018 C 
ENDBRANCH   3   4
TORSDOF 1
ENDMDL
MODEL 5
REMARK VINA RESULT:      -4.2     17.419     18.801
REMARK  1 active torsions:
REMARK  status: ('A' for Active; 'I' for Inactive)
REMARK    1  A    between atoms: C7_7  and  C9_9 
ROOT
HETATM    1  C1  UNL     1     -28.200  19.263  11.179  1.00 20.00     0.012 C 
HETATM    2  C2  UNL     1     -27.116  18.928  11.574  1.00 20.00    -0.117 C 
HETATM    3  C9  UNL     1     -25.795  18.519  12.063  1.00 20.00     0.098 C 
ENDROOT
BRANCH   3   4
HETATM    4  C7  UNL     1     -24.978  17.847  10.956  1.00 20.00     0.008 C 
HETATM    5  C5  UNL     1     -24.774  16.355  11.237  1.00 20.00     0.013 C 
HETATM    6  C4  UNL     1     -23.589  16.278  12.190  1.00 20.00     0.079 C 
HETATM    7  C3  UNL     1     -22.780  17.483  11.787  1.00 20.00     0.131 C 
HETATM    8  C6  UNL     1     -23.550  18.422  10.879  1.00 20.00     0.056 C 
HETATM    9  O10 UNL     1     -21.629  17.681  12.155  1.00 20.00    -0.298 OA
HETATM   10  C8  UNL     1     -22.969  18.370   9.473  1.00 20.00     0.018 C 
ENDBRANCH   3   4
TORSDOF 1
ENDMDL
MODEL 6
REMARK VINA RESULT:      -4.2      1.343      1.705
REMARK  1 active torsions:
REMARK  status: ('A' for Active; 'I' for Inactive)
REMARK    1  A    between atoms: C7_7  and  C9_9 
ROOT
HETATM    1  C1  UNL     1     -32.849  17.395  -2.203  1.00 20.00     0.012 C 
HETATM    2  C2  UNL     1     -33.815  16.681  -2.248  1.00 20.00    -0.117 C 
HETATM    3  C9  UNL     1     -34.993  15.809  -2.296  1.00 20.00     0.098 C 
ENDROOT
BRANCH   3   4
HETATM    4  C7  UNL     1     -35.825  16.071  -3.554  1.00 20.00     0.008 C 
HETATM    5  C5  UNL     1     -36.713  14.871  -3.900  1.00 20.00     0.013 C 
HETATM    6  C4  UNL     1     -35.815  13.909  -4.668  1.00 20.00     0.079 C 
HETATM    7  C3  UNL     1     -34.852  14.848  -5.345  1.00 20.00     0.131 C 
HETATM    8  C6  UNL     1     -34.931  16.259  -4.795  1.00 20.00     0.056 C 
HETATM    9  O10 UNL     1     -34.088  14.506  -6.239  1.00 20.00    -0.298 OA
HETATM   10  C8  UNL     1     -35.551  17.181  -5.835  1.00 20.00     0.018 C 
ENDBRANCH   3   4
TORSDOF 1
ENDMDL
MODEL 7
REMARK VINA RESULT:      -4.2     10.631     12.248
REMARK  1 active torsions:
REMARK  status: ('A' for Active; 'I' for Inactive)
REMARK    1  A    between atoms: C7_7  and  C9_9 
ROOT
HETATM    1  C1  UNL     1     -41.163   9.885   0.334  1.00 20.00     0.012 C 
HETATM    2  C2  UNL     1     -41.992   9.023   0.219  1.00 20.00    -0.117 C 
HETATM    3  C9  UNL     1     -43.007   7.974   0.076  1.00 20.00     0.098 C 
ENDROOT
BRANCH   3   4
HETATM    4  C7  UNL     1     -42.517   6.645   0.657  1.00 20.00     0.008 C 
HETATM    5  C5  UNL     1     -41.074   6.348   0.236  1.00 20.00     0.013 C 
HETATM    6  C4  UNL     1     -41.173   5.731  -1.153  1.00 20.00     0.079 C 
HETATM    7  C3  UNL     1     -42.510   5.038  -1.096  1.00 20.00     0.131 C 
HETATM    8  C6  UNL     1     -43.329   5.455   0.110  1.00 20.00     0.056 C 
HETATM    9  O10 UNL     1     -42.891   4.231  -1.935  1.00 20.00    -0.298 OA
HETATM   10  C8  UNL     1     -43.417   4.298   1.095  1.00 20.00     0.018 C 
ENDBRANCH   3   4
TORSDOF 1
ENDMDL
MODEL 8
REMARK VINA RESULT:      -4.1      1.700      2.355
REMARK  1 active torsions:
REMARK  status: ('A' for Active; 'I' for Inactive)
REMARK    1  A    between atoms: C7_7  and  C9_9 
ROOT
HETATM    1  C1  UNL     1     -33.505  18.149  -0.404  1.00 20.00     0.012 C 
HETATM    2  C2  UNL     1     -34.301  17.464  -0.987  1.00 20.00    -0.117 C 
HETATM    3  C9  UNL     1     -35.278  16.631  -1.697  1.00 20.00     0.098 C 
ENDROOT
BRANCH   3   4
HETATM    4  C7  UNL     1     -34.583  15.619  -2.611  1.00 20.00     0.008 C 
HETATM    5  C5  UNL     1     -33.462  16.275  -3.425  1.00 20.00     0.013 C 
HETATM    6  C4  UNL     1     -34.150  16.917  -4.622  1.00 20.00     0.079 C 
HETATM    7  C3  UNL     1     -35.331  16.005  -4.835  1.00 20.00     0.131 C 
HETATM    8  C6  UNL     1     -35.550  15.057  -3.672  1.00 20.00     0.056 C 
HETATM    9  O10 UNL     1     -36.035  16.031  -5.836  1.00 20.00    -0.298 OA
HETATM   10  C8  UNL     1     -35.202  13.637  -4.094  1.00 20.00     0.018 C 
ENDBRANCH   3   4
TORSDOF 1
ENDMDL
MODEL 9
REMARK VINA RESULT:      -4.1      2.886      4.906
REMARK  1 active torsions:
REMARK  status: ('A' for Active; 'I' for Inactive)
REMARK    1  A    between atoms: C7_7  and  C9_9 
ROOT
HETATM    1  C1  UNL     1     -35.510  13.872  -4.187  1.00 20.00     0.012 C 
HETATM    2  C2  UNL     1     -34.671  14.643  -3.807  1.00 20.00    -0.117 C 
HETATM    3  C9  UNL     1     -33.642  15.581  -3.346  1.00 20.00     0.098 C 
ENDROOT
BRANCH   3   4
HETATM    4  C7  UNL     1     -34.270  16.815  -2.693  1.00 20.00     0.008 C 
HETATM    5  C5  UNL     1     -34.413  17.967  -3.694  1.00 20.00     0.013 C 
HETATM    6  C4  UNL     1     -33.052  18.649  -3.727  1.00 20.00     0.079 C 
HETATM    7  C3  UNL     1     -32.544  18.410  -2.329  1.00 20.00     0.131 C 
HETATM    8  C6  UNL     1     -33.371  17.385  -1.578  1.00 20.00     0.056 C 
HETATM    9  O10 UNL     1     -31.569  18.979  -1.856  1.00 20.00    -0.298 OA
HETATM   10  C8  UNL     1     -34.163  18.073  -0.476  1.00 20.00     0.018 C 
ENDBRANCH   3   4
TORSDOF 1
ENDMDL
