MODEL 1
REMARK VINA RESULT:      -4.7      0.000      0.000
REMARK  1 active torsions:
REMARK  status: ('A' for Active; 'I' for Inactive)
REMARK    1  A    between atoms: C4_4  and  C7_7 
ROOT
HETATM    1  C5  UNL     1     -35.012  13.805  -3.902  1.00 20.00     0.011 C 
HETATM    2  C6  UNL     1     -36.208  14.105  -4.812  1.00 20.00     0.021 C 
HETATM    3  C7  UNL     1     -34.027  14.982  -4.047  1.00 20.00     0.025 C 
HETATM    4  C8  UNL     1     -34.429  15.655  -5.383  1.00 20.00     0.008 C 
HETATM    5  C9  UNL     1     -35.957  15.500  -5.377  1.00 20.00     0.086 C 
HETATM    6  C10 UNL     1     -33.720  14.975  -6.561  1.00 20.00     0.012 C 
HETATM    7 CL12 UNL     1     -36.746  15.744  -6.945  1.00 20.00    -0.125 Cl
ENDROOT
BRANCH   3   8
HETATM    8  C4  UNL     1     -34.010  15.981  -2.899  1.00 20.00    -0.029 A 
HETATM    9  C1  UNL     1     -34.999  16.147  -1.899  1.00 20.00     0.034 A 
HETATM   10  C2  UNL     1     -34.552  17.160  -1.085  1.00 20.00     0.142 A 
HETATM   11  O11 UNL     1     -33.351  17.627  -1.518  1.00 20.00    -0.334 OA
HETATM   12  C3  UNL     1     -33.029  16.904  -2.623  1.00 20.00     0.148 A 
ENDBRANCH   3   8
TORSDOF 1
ENDMDL
MODEL 2
REMARK VINA RESULT:      -4.5      3.070      4.596
REMARK  1 active torsions:
REMARK  status: ('A' for Active; 'I' for Inactive)
REMARK    1  A    between atoms: C4_4  and  C7_7 
ROOT
HETATM    1  C5  UNL     1     -35.656  17.803  -3.365  1.00 20.00     0.011 C 
HETATM    2  C6  UNL     1     -36.024  18.036  -1.896  1.00 20.00     0.021 C 
HETATM    3  C7  UNL     1     -34.622  16.660  -3.398  1.00 20.00     0.025 C 
HETATM    4  C8  UNL     1     -34.055  16.616  -1.957  1.00 20.00     0.008 C 
HETATM    5  C9  UNL     1     -35.293  16.950  -1.111  1.00 20.00     0.086 C 
HETATM    6  C10 UNL     1     -32.891  17.605  -1.808  1.00 20.00     0.012 C 
HETATM    7 CL12 UNL     1     -34.955  17.437   0.559  1.00 20.00    -0.125 Cl
ENDROOT
BRANCH   3   8
HETATM    8  C4  UNL     1     -35.147  15.301  -3.836  1.00 20.00    -0.029 A 
HETATM    9  C1  UNL     1     -36.449  15.000  -4.302  1.00 20.00     0.034 A 
HETATM   10  C2  UNL     1     -36.455  13.653  -4.575  1.00 20.00     0.142 A 
HETATM   11  O11 UNL     1     -35.240  13.105  -4.309  1.00 20.00    -0.334 OA
HETATM   12  C3  UNL     1     -34.450  14.116  -3.859  1.00 20.00     0.148 A 
ENDBRANCH   3   8
TORSDOF 1
ENDMDL
MODEL 3
REMARK VINA RESULT:      -4.4      3.302      4.648
REMARK  1 active torsions:
REMARK  status: ('A' for Active; 'I' for Inactive)
REMARK    1  A    between atoms: C4_4  and  C7_7 
ROOT
HETATM    1  C5  UNL     1     -35.599  17.867  -4.222  1.00 20.00     0.011 C 
HETATM    2  C6  UNL     1     -35.423  18.415  -2.802  1.00 20.00     0.021 C 
HETATM    3  C7  UNL     1     -35.424  16.337  -4.142  1.00 20.00     0.025 C 
HETATM    4  C8  UNL     1     -34.665  16.108  -2.811  1.00 20.00     0.008 C 
HETATM    5  C9  UNL     1     -35.268  17.191  -1.904  1.00 20.00     0.086 C 
HETATM    6  C10 UNL     1     -33.151  16.225  -3.030  1.00 20.00     0.012 C 
HETATM    7 CL12 UNL     1     -34.342  17.546  -0.436  1.00 20.00    -0.125 Cl
ENDROOT
BRANCH   3   8
HETATM    8  C4  UNL     1     -36.704  15.517  -4.206  1.00 20.00    -0.029 A 
HETATM    9  C1  UNL     1     -38.031  15.998  -4.097  1.00 20.00     0.034 A 
HETATM   10  C2  UNL     1     -38.847  14.897  -4.213  1.00 20.00     0.142 A 
HETATM   11  O11 UNL     1     -38.107  13.770  -4.389  1.00 20.00    -0.334 OA
HETATM   12  C3  UNL     1     -36.804  14.157  -4.384  1.00 20.00     0.148 A 
ENDBRANCH   3   8
TORSDOF 1
ENDMDL
MODEL 4
REMARK VINA RESULT:      -4.4      1.609      2.241
REMARK  1 active torsions:
REMARK  status: ('A' for Active; 'I' for Inactive)
REMARK    1  A    between atoms: C4_4  and  C7_7 
ROOT
HETATM    1  C5  UNL     1     -35.567  15.726  -2.779  1.00 20.00     0.011 C 
HETATM    2  C6  UNL     1     -35.848  16.104  -4.238  1.00 20.00     0.021 C 
HETATM    3  C7  UNL     1     -34.061  15.949  -2.536  1.00 20.00     0.025 C 
HETATM    4  C8  UNL     1     -33.441  15.957  -3.955  1.00 20.00     0.008 C 
HETATM    5  C9  UNL     1     -34.533  16.653  -4.782  1.00 20.00     0.086 C 
HETATM    6  C10 UNL     1     -33.111  14.527  -4.404  1.00 20.00     0.012 C 
HETATM    7 CL12 UNL     1     -34.393  16.450  -6.537  1.00 20.00    -0.125 Cl
ENDROOT
BRANCH   3   8
HETATM    8  C4  UNL     1     -33.692  17.203  -1.757  1.00 20.00    -0.029 A 
HETATM    9  C1  UNL     1     -32.500  17.957  -1.870  1.00 20.00     0.034 A 
HETATM   10  C2  UNL     1     -32.617  18.993  -0.974  1.00 20.00     0.142 A 
HETATM   11  O11 UNL     1     -33.805  18.926  -0.317  1.00 20.00    -0.334 OA
HETATM   12  C3  UNL     1     -34.453  17.833  -0.800  1.00 20.00     0.148 A 
ENDBRANCH   3   8
TORSDOF 1
ENDMDL
MODEL 5
REMARK VINA RESULT:      -4.4      3.017      4.450
REMARK  1 active torsions:
REMARK  status: ('A' for Active; 'I' for Inactive)
REMARK    1  A    between atoms: C4_4  and  C7_7 
ROOT
HETATM    1  C5  UNL     1     -33.188  18.853  -2.729  1.00 20.00     0.011 C 
HETATM    2  C6  UNL     1     -33.229  17.548  -3.531  1.00 20.00     0.021 C 
HETATM    3  C7  UNL     1     -33.604  18.510  -1.285  1.00 20.00     0.025 C 
HETATM    4  C8  UNL     1     -34.347  17.157  -1.412  1.00 20.00     0.008 C 
HETATM    5  C9  UNL     1     -33.550  16.452  -2.519  1.00 20.00     0.086 C 
HETATM    6  C10 UNL     1     -35.829  17.388  -1.737  1.00 20.00     0.012 C 
HETATM    7 CL12 UNL     1     -34.361  15.063  -3.264  1.00 20.00    -0.125 Cl
ENDROOT
BRANCH   3   8
HETATM    8  C4  UNL     1     -32.475  18.436  -0.268  1.00 20.00    -0.029 A 
HETATM    9  C1  UNL     1     -32.596  18.451   1.143  1.00 20.00     0.034 A 
HETATM   10  C2  UNL     1     -31.316  18.364   1.637  1.00 20.00     0.142 A 
HETATM   11  O11 UNL     1     -30.415  18.296   0.621  1.00 20.00    -0.334 OA
HETATM   12  C3  UNL     1     -31.129  18.340  -0.534  1.00 20.00     0.148 A 
ENDBRANCH   3   8
TORSDOF 1
ENDMDL
MODEL 6
REMARK VINA RESULT:      -4.4      2.638      4.485
REMARK  1 active torsions:
REMARK  status: ('A' for Active; 'I' for Inactive)
REMARK    1  A    between atoms: C4_4  and  C7_7 
ROOT
HETATM    1  C5  UNL     1     -33.340  17.485  -2.620  1.00 20.00     0.011 C 
HETATM    2  C6  UNL     1     -34.305  18.675  -2.638  1.00 20.00     0.021 C 
HETATM    3  C7  UNL     1     -34.163  16.241  -2.227  1.00 20.00     0.025 C 
HETATM    4  C8  UNL     1     -35.430  16.820  -1.549  1.00 20.00     0.008 C 
HETATM    5  C9  UNL     1     -35.689  18.089  -2.375  1.00 20.00     0.086 C 
HETATM    6  C10 UNL     1     -35.175  17.067  -0.057  1.00 20.00     0.012 C 
HETATM    7 CL12 UNL     1     -36.787  19.263  -1.629  1.00 20.00    -0.125 Cl
ENDROOT
BRANCH   3   8
HETATM    8  C4  UNL     1     -34.518  15.293  -3.362  1.00 20.00    -0.029 A 
HETATM    9  C1  UNL     1     -35.799  14.775  -3.672  1.00 20.00     0.034 A 
HETATM   10  C2  UNL     1     -35.629  13.969  -4.772  1.00 20.00     0.142 A 
HETATM   11  O11 UNL     1     -34.327  13.959  -5.162  1.00 20.00    -0.334 OA
HETATM   12  C3  UNL     1     -33.658  14.767  -4.298  1.00 20.00     0.148 A 
ENDBRANCH   3   8
TORSDOF 1
ENDMDL
MODEL 7
REMARK VINA RESULT:      -4.3      1.606      2.067
REMARK  1 active torsions:
REMARK  status: ('A' for Active; 'I' for Inactive)
REMARK    1  A    between atoms: C4_4  and  C7_7 
ROOT
HETATM    1  C5  UNL     1     -33.067  15.607  -3.703  1.00 20.00     0.011 C 
HETATM    2  C6  UNL     1     -33.872  14.330  -3.969  1.00 20.00     0.021 C 
HETATM    3  C7  UNL     1     -34.082  16.731  -3.416  1.00 20.00     0.025 C 
HETATM    4  C8  UNL     1     -35.412  16.206  -4.013  1.00 20.00     0.008 C 
HETATM    5  C9  UNL     1     -35.330  14.702  -3.715  1.00 20.00     0.086 C 
HETATM    6  C10 UNL     1     -35.508  16.561  -5.502  1.00 20.00     0.012 C 
HETATM    7 CL12 UNL     1     -36.454  13.689  -4.637  1.00 20.00    -0.125 Cl
ENDROOT
BRANCH   3   8
HETATM    8  C4  UNL     1     -34.240  17.127  -1.956  1.00 20.00    -0.029 A 
HETATM    9  C1  UNL     1     -35.333  16.833  -1.106  1.00 20.00     0.034 A 
HETATM   10  C2  UNL     1     -35.031  17.391   0.113  1.00 20.00     0.142 A 
HETATM   11  O11 UNL     1     -33.821  18.009   0.069  1.00 20.00    -0.334 OA
HETATM   12  C3  UNL     1     -33.347  17.844  -1.194  1.00 20.00     0.148 A 
ENDBRANCH   3   8
TORSDOF 1
ENDMDL
MODEL 8
REMARK VINA RESULT:      -4.3      2.415      3.651
REMARK  1 active torsions:
REMARK  status: ('A' for Active; 'I' for Inactive)
REMARK    1  A    between atoms: C4_4  and  C7_7 
ROOT
HETATM    1  C5  UNL     1     -34.587  18.158  -3.176  1.00 20.00     0.011 C 
HETATM    2  C6  UNL     1     -33.498  17.366  -3.907  1.00 20.00     0.021 C 
HETATM    3  C7  UNL     1     -35.127  17.254  -2.050  1.00 20.00     0.025 C 
HETATM    4  C8  UNL     1     -34.709  15.824  -2.475  1.00 20.00     0.008 C 
HETATM    5  C9  UNL     1     -33.338  16.066  -3.124  1.00 20.00     0.086 C 
HETATM    6  C10 UNL     1     -35.761  15.213  -3.409  1.00 20.00     0.012 C 
HETATM    7 CL12 UNL     1     -32.738  14.740  -4.135  1.00 20.00    -0.125 Cl
ENDROOT
BRANCH   3   8
HETATM    8  C4  UNL     1     -34.647  17.584  -0.645  1.00 20.00    -0.029 A 
HETATM    9  C1  UNL     1     -33.459  18.266  -0.288  1.00 20.00     0.034 A 
HETATM   10  C2  UNL     1     -33.452  18.329   1.085  1.00 20.00     0.142 A 
HETATM   11  O11 UNL     1     -34.561  17.731   1.597  1.00 20.00    -0.334 OA
HETATM   12  C3  UNL     1     -35.282  17.281   0.537  1.00 20.00     0.148 A 
ENDBRANCH   3   8
TORSDOF 1
ENDMDL
MODEL 9
REMARK VINA RESULT:      -4.3      3.140      4.631
REMARK  1 active torsions:
REMARK  status: ('A' for Active; 'I' for Inactive)
REMARK    1  A    between atoms: C4_4  and  C7_7 
ROOT
HETATM    1  C5  UNL     1     -35.103  17.582  -2.012  1.00 20.00     0.011 C 
HETATM    2  C6  UNL     1     -34.067  17.850  -0.914  1.00 20.00     0.021 C 
HETATM    3  C7  UNL     1     -34.324  17.226  -3.293  1.00 20.00     0.025 C 
HETATM    4  C8  UNL     1     -32.900  17.783  -3.042  1.00 20.00     0.008 C 
HETATM    5  C9  UNL     1     -32.713  17.528  -1.539  1.00 20.00     0.086 C 
HETATM    6  C10 UNL     1     -32.821  19.257  -3.458  1.00 20.00     0.012 C 
HETATM    7 CL12 UNL     1     -31.391  18.432  -0.781  1.00 20.00    -0.125 Cl
ENDROOT
BRANCH   3   8
HETATM    8  C4  UNL     1     -34.291  15.750  -3.662  1.00 20.00    -0.029 A 
HETATM    9  C1  UNL     1     -35.346  14.815  -3.531  1.00 20.00     0.034 A 
HETATM   10  C2  UNL     1     -34.853  13.616  -3.990  1.00 20.00     0.142 A 
HETATM   11  O11 UNL     1     -33.563  13.754  -4.395  1.00 20.00    -0.334 OA
HETATM   12  C3  UNL     1     -33.230  15.055  -4.193  1.00 20.00     0.148 A 
ENDBRANCH   3   8
TORSDOF 1
ENDMDL
