MODEL 1
REMARK VINA RESULT:      -5.2      0.000      0.000
REMARK  2 active torsions:
REMARK  status: ('A' for Active; 'I' for Inactive)
REMARK    1  A    between atoms: C5_5  and  C9_9 
REMARK    2  A    between atoms: C9_9  and  C10_10 
ROOT
HETATM    1  C1  UNL     1     -34.549   5.154   4.084  1.00 20.00     0.131 C 
HETATM    2  C2  UNL     1     -33.918   4.341   2.983  1.00 20.00     0.079 C 
HETATM    3  C3  UNL     1     -33.138   5.401   2.215  1.00 20.00     0.013 C 
HETATM    4  C4  UNL     1     -33.975   6.556   4.160  1.00 20.00     0.055 C 
HETATM    5  C5  UNL     1     -32.718   6.413   3.284  1.00 20.00    -0.003 C 
HETATM    6  C6  UNL     1     -33.669   6.981   5.584  1.00 20.00     0.018 C 
HETATM    7  O11 UNL     1     -35.422   4.723   4.828  1.00 20.00    -0.298 OA
ENDROOT
BRANCH   5   8
HETATM    8  C9  UNL     1     -32.255   7.731   2.681  1.00 20.00     0.009 C 
BRANCH   8   9
HETATM    9  C10 UNL     1     -32.801   7.986   1.265  1.00 20.00    -0.022 C 
HETATM   10  C7  UNL     1     -33.344   9.406   1.097  1.00 20.00     0.009 C 
HETATM   11  C8  UNL     1     -31.703   7.726   0.231  1.00 20.00     0.009 C 
ENDBRANCH   8   9
ENDBRANCH   5   8
TORSDOF 2
ENDMDL
MODEL 2
REMARK VINA RESULT:      -5.0     10.614     11.518
REMARK  2 active torsions:
REMARK  status: ('A' for Active; 'I' for Inactive)
REMARK    1  A    between atoms: C5_5  and  C9_9 
REMARK    2  A    between atoms: C9_9  and  C10_10 
ROOT
HETATM    1  C1  UNL     1     -35.883  13.739  -4.257  1.00 20.00     0.131 C 
HETATM    2  C2  UNL     1     -37.199  14.423  -4.528  1.00 20.00     0.079 C 
HETATM    3  C3  UNL     1     -36.967  15.804  -3.930  1.00 20.00     0.013 C 
HETATM    4  C4  UNL     1     -34.821  14.713  -3.783  1.00 20.00     0.055 C 
HETATM    5  C5  UNL     1     -35.471  16.061  -4.135  1.00 20.00    -0.003 C 
HETATM    6  C6  UNL     1     -33.485  14.493  -4.469  1.00 20.00     0.018 C 
HETATM    7  O11 UNL     1     -35.702  12.537  -4.406  1.00 20.00    -0.298 OA
ENDROOT
BRANCH   5   8
HETATM    8  C9  UNL     1     -34.961  17.214  -3.283  1.00 20.00     0.009 C 
BRANCH   8   9
HETATM    9  C10 UNL     1     -34.276  16.761  -1.982  1.00 20.00    -0.022 C 
HETATM   10  C7  UNL     1     -32.978  17.524  -1.712  1.00 20.00     0.009 C 
HETATM   11  C8  UNL     1     -35.234  16.940  -0.801  1.00 20.00     0.009 C 
ENDBRANCH   8   9
ENDBRANCH   5   8
TORSDOF 2
ENDMDL
MODEL 3
REMARK VINA RESULT:      -4.7     10.736     12.175
REMARK  2 active torsions:
REMARK  status: ('A' for Active; 'I' for Inactive)
REMARK    1  A    between atoms: C5_5  and  C9_9 
REMARK    2  A    between atoms: C9_9  and  C10_10 
ROOT
HETATM    1  C1  UNL     1     -35.785  14.623  -5.933  1.00 20.00     0.131 C 
HETATM    2  C2  UNL     1     -36.098  13.688  -4.793  1.00 20.00     0.079 C 
HETATM    3  C3  UNL     1     -34.911  13.911  -3.866  1.00 20.00     0.013 C 
HETATM    4  C4  UNL     1     -34.640  15.563  -5.603  1.00 20.00     0.055 C 
HETATM    5  C5  UNL     1     -34.531  15.379  -4.080  1.00 20.00    -0.003 C 
HETATM    6  C6  UNL     1     -34.927  16.994  -6.017  1.00 20.00     0.018 C 
HETATM    7  O11 UNL     1     -36.391  14.620  -6.997  1.00 20.00    -0.298 OA
ENDROOT
BRANCH   5   8
HETATM    8  C9  UNL     1     -33.149  15.704  -3.533  1.00 20.00     0.009 C 
BRANCH   8   9
HETATM    9  C10 UNL     1     -33.154  16.812  -2.465  1.00 20.00    -0.022 C 
HETATM   10  C7  UNL     1     -32.888  18.195  -3.060  1.00 20.00     0.009 C 
HETATM   11  C8  UNL     1     -34.496  16.816  -1.727  1.00 20.00     0.009 C 
ENDBRANCH   8   9
ENDBRANCH   5   8
TORSDOF 2
ENDMDL
MODEL 4
REMARK VINA RESULT:      -4.5     11.099     11.887
REMARK  2 active torsions:
REMARK  status: ('A' for Active; 'I' for Inactive)
REMARK    1  A    between atoms: C5_5  and  C9_9 
REMARK    2  A    between atoms: C9_9  and  C10_10 
ROOT
HETATM    1  C1  UNL     1     -34.315  14.903  -4.915  1.00 20.00     0.131 C 
HETATM    2  C2  UNL     1     -32.966  15.021  -4.252  1.00 20.00     0.079 C 
HETATM    3  C3  UNL     1     -33.274  15.926  -3.067  1.00 20.00     0.013 C 
HETATM    4  C4  UNL     1     -35.428  15.458  -4.046  1.00 20.00     0.055 C 
HETATM    5  C5  UNL     1     -34.717  15.579  -2.688  1.00 20.00    -0.003 C 
HETATM    6  C6  UNL     1     -36.642  14.549  -4.009  1.00 20.00     0.018 C 
HETATM    7  O11 UNL     1     -34.482  14.412  -6.024  1.00 20.00    -0.298 OA
ENDROOT
BRANCH   5   8
HETATM    8  C9  UNL     1     -35.341  16.624  -1.775  1.00 20.00     0.009 C 
BRANCH   8   9
HETATM    9  C10 UNL     1     -34.374  17.755  -1.382  1.00 20.00    -0.022 C 
HETATM   10  C7  UNL     1     -34.763  19.096  -2.006  1.00 20.00     0.009 C 
HETATM   11  C8  UNL     1     -34.324  17.888   0.142  1.00 20.00     0.009 C 
ENDBRANCH   8   9
ENDBRANCH   5   8
TORSDOF 2
ENDMDL
MODEL 5
REMARK VINA RESULT:      -4.5     10.297     11.605
REMARK  2 active torsions:
REMARK  status: ('A' for Active; 'I' for Inactive)
REMARK    1  A    between atoms: C5_5  and  C9_9 
REMARK    2  A    between atoms: C9_9  and  C10_10 
ROOT
HETATM    1  C1  UNL     1     -36.597  14.255  -4.298  1.00 20.00     0.131 C 
HETATM    2  C2  UNL     1     -35.480  13.275  -4.039  1.00 20.00     0.079 C 
HETATM    3  C3  UNL     1     -34.256  14.181  -4.052  1.00 20.00     0.013 C 
HETATM    4  C4  UNL     1     -36.129  15.694  -4.194  1.00 20.00     0.055 C 
HETATM    5  C5  UNL     1     -34.766  15.518  -3.505  1.00 20.00    -0.003 C 
HETATM    6  C6  UNL     1     -37.093  16.561  -3.406  1.00 20.00     0.018 C 
HETATM    7  O11 UNL     1     -37.745  13.917  -4.559  1.00 20.00    -0.298 OA
ENDROOT
BRANCH   5   8
HETATM    8  C9  UNL     1     -33.801  16.660  -3.782  1.00 20.00     0.009 C 
BRANCH   8   9
HETATM    9  C10 UNL     1     -33.120  17.212  -2.517  1.00 20.00    -0.022 C 
HETATM   10  C7  UNL     1     -32.580  18.629  -2.718  1.00 20.00     0.009 C 
HETATM   11  C8  UNL     1     -34.108  17.197  -1.348  1.00 20.00     0.009 C 
ENDBRANCH   8   9
ENDBRANCH   5   8
TORSDOF 2
ENDMDL
MODEL 6
REMARK VINA RESULT:      -4.4     11.106     12.355
REMARK  2 active torsions:
REMARK  status: ('A' for Active; 'I' for Inactive)
REMARK    1  A    between atoms: C5_5  and  C9_9 
REMARK    2  A    between atoms: C9_9  and  C10_10 
ROOT
HETATM    1  C1  UNL     1     -36.347  15.484  -6.476  1.00 20.00     0.131 C 
HETATM    2  C2  UNL     1     -35.034  15.135  -7.131  1.00 20.00     0.079 C 
HETATM    3  C3  UNL     1     -34.093  15.065  -5.936  1.00 20.00     0.013 C 
HETATM    4  C4  UNL     1     -36.281  15.358  -4.965  1.00 20.00     0.055 C 
HETATM    5  C5  UNL     1     -34.974  14.569  -4.786  1.00 20.00    -0.003 C 
HETATM    6  C6  UNL     1     -37.494  14.651  -4.390  1.00 20.00     0.018 C 
HETATM    7  O11 UNL     1     -37.344  15.826  -7.099  1.00 20.00    -0.298 OA
ENDROOT
BRANCH   5   8
HETATM    8  C9  UNL     1     -34.324  14.784  -3.427  1.00 20.00     0.009 C 
BRANCH   8   9
HETATM    9  C10 UNL     1     -34.405  16.238  -2.930  1.00 20.00    -0.022 C 
HETATM   10  C7  UNL     1     -35.122  16.354  -1.583  1.00 20.00     0.009 C 
HETATM   11  C8  UNL     1     -32.997  16.827  -2.817  1.00 20.00     0.009 C 
ENDBRANCH   8   9
ENDBRANCH   5   8
TORSDOF 2
ENDMDL
MODEL 7
REMARK VINA RESULT:      -4.4     11.309     12.179
REMARK  2 active torsions:
REMARK  status: ('A' for Active; 'I' for Inactive)
REMARK    1  A    between atoms: C5_5  and  C9_9 
REMARK    2  A    between atoms: C9_9  and  C10_10 
ROOT
HETATM    1  C1  UNL     1     -32.128  18.323   1.547  1.00 20.00     0.131 C 
HETATM    2  C2  UNL     1     -30.857  18.493   0.754  1.00 20.00     0.079 C 
HETATM    3  C3  UNL     1     -31.339  18.261  -0.672  1.00 20.00     0.013 C 
HETATM    4  C4  UNL     1     -33.354  18.273   0.655  1.00 20.00     0.055 C 
HETATM    5  C5  UNL     1     -32.778  18.785  -0.676  1.00 20.00    -0.003 C 
HETATM    6  C6  UNL     1     -34.492  19.125   1.185  1.00 20.00     0.018 C 
HETATM    7  O11 UNL     1     -32.157  18.238   2.768  1.00 20.00    -0.298 OA
ENDROOT
BRANCH   5   8
HETATM    8  C9  UNL     1     -33.561  18.311  -1.891  1.00 20.00     0.009 C 
BRANCH   8   9
HETATM    9  C10 UNL     1     -33.693  16.780  -1.979  1.00 20.00    -0.022 C 
HETATM   10  C7  UNL     1     -35.143  16.312  -1.845  1.00 20.00     0.009 C 
HETATM   11  C8  UNL     1     -33.111  16.284  -3.305  1.00 20.00     0.009 C 
ENDBRANCH   8   9
ENDBRANCH   5   8
TORSDOF 2
ENDMDL
MODEL 8
REMARK VINA RESULT:      -4.3     11.125     11.998
REMARK  2 active torsions:
REMARK  status: ('A' for Active; 'I' for Inactive)
REMARK    1  A    between atoms: C5_5  and  C9_9 
REMARK    2  A    between atoms: C9_9  and  C10_10 
ROOT
HETATM    1  C1  UNL     1     -34.745  16.432  -1.859  1.00 20.00     0.131 C 
HETATM    2  C2  UNL     1     -33.394  17.070  -2.058  1.00 20.00     0.079 C 
HETATM    3  C3  UNL     1     -32.854  16.302  -3.258  1.00 20.00     0.013 C 
HETATM    4  C4  UNL     1     -35.129  15.536  -3.022  1.00 20.00     0.055 C 
HETATM    5  C5  UNL     1     -34.099  15.961  -4.082  1.00 20.00    -0.003 C 
HETATM    6  C6  UNL     1     -36.566  15.744  -3.464  1.00 20.00     0.018 C 
HETATM    7  O11 UNL     1     -35.445  16.623  -0.873  1.00 20.00    -0.298 OA
ENDROOT
BRANCH   5   8
HETATM    8  C9  UNL     1     -33.826  14.882  -5.119  1.00 20.00     0.009 C 
BRANCH   8   9
HETATM    9  C10 UNL     1     -34.329  15.242  -6.528  1.00 20.00    -0.022 C 
HETATM   10  C7  UNL     1     -35.678  14.595  -6.847  1.00 20.00     0.009 C 
HETATM   11  C8  UNL     1     -34.440  16.762  -6.668  1.00 20.00     0.009 C 
ENDBRANCH   8   9
ENDBRANCH   5   8
TORSDOF 2
ENDMDL
MODEL 9
REMARK VINA RESULT:      -4.2      0.859      2.016
REMARK  2 active torsions:
REMARK  status: ('A' for Active; 'I' for Inactive)
REMARK    1  A    between atoms: C5_5  and  C9_9 
REMARK    2  A    between atoms: C9_9  and  C10_10 
ROOT
HETATM    1  C1  UNL     1     -34.082   4.656   4.116  1.00 20.00     0.131 C 
HETATM    2  C2  UNL     1     -34.582   5.784   4.982  1.00 20.00     0.079 C 
HETATM    3  C3  UNL     1     -33.753   6.959   4.480  1.00 20.00     0.013 C 
HETATM    4  C4  UNL     1     -33.218   5.154   2.973  1.00 20.00     0.055 C 
HETATM    5  C5  UNL     1     -33.529   6.660   2.995  1.00 20.00    -0.003 C 
HETATM    6  C6  UNL     1     -33.562   4.489   1.653  1.00 20.00     0.018 C 
HETATM    7  O11 UNL     1     -34.350   3.478   4.318  1.00 20.00    -0.298 OA
ENDROOT
BRANCH   5   8
HETATM    8  C9  UNL     1     -32.419   7.510   2.396  1.00 20.00     0.009 C 
BRANCH   8   9
HETATM    9  C10 UNL     1     -32.765   8.091   1.014  1.00 20.00    -0.022 C 
HETATM   10  C7  UNL     1     -33.057   9.591   1.069  1.00 20.00     0.009 C 
HETATM   11  C8  UNL     1     -31.619   7.822   0.036  1.00 20.00     0.009 C 
ENDBRANCH   8   9
ENDBRANCH   5   8
TORSDOF 2
ENDMDL
