MODEL 1
REMARK VINA RESULT:      -5.9      0.000      0.000
REMARK  1 active torsions:
REMARK  status: ('A' for Active; 'I' for Inactive)
REMARK    1  A    between atoms: C7_7  and  C9_9 
ROOT
HETATM    1  C1  UNL     1     -32.922   8.777   0.335  1.00 20.00     0.012 C 
HETATM    2  C2  UNL     1     -32.662   8.111   1.300  1.00 20.00    -0.117 C 
HETATM    3  C9  UNL     1     -32.333   7.307   2.478  1.00 20.00     0.098 C 
ENDROOT
BRANCH   3   4
HETATM    4  C7  UNL     1     -33.440   6.310   2.782  1.00 20.00     0.008 C 
HETATM    5  C5  UNL     1     -32.934   4.866   2.822  1.00 20.00     0.013 C 
HETATM    6  C4  UNL     1     -34.078   4.082   3.451  1.00 20.00     0.079 C 
HETATM    7  C3  UNL     1     -34.675   5.098   4.391  1.00 20.00     0.131 C 
HETATM    8  C6  UNL     1     -34.162   6.502   4.129  1.00 20.00     0.056 C 
HETATM    9  O10 UNL     1     -35.489   4.817   5.262  1.00 20.00    -0.298 OA
HETATM   10  C8  UNL     1     -33.293   6.952   5.294  1.00 20.00     0.018 C 
ENDBRANCH   3   4
TORSDOF 1
ENDMDL
MODEL 2
REMARK VINA RESULT:      -5.0     10.852     11.701
REMARK  1 active torsions:
REMARK  status: ('A' for Active; 'I' for Inactive)
REMARK    1  A    between atoms: C7_7  and  C9_9 
ROOT
HETATM    1  C1  UNL     1     -33.931  18.067  -0.553  1.00 20.00     0.012 C 
HETATM    2  C2  UNL     1     -33.755  17.370  -1.516  1.00 20.00    -0.117 C 
HETATM    3  C9  UNL     1     -33.530  16.529  -2.692  1.00 20.00     0.098 C 
ENDROOT
BRANCH   3   4
HETATM    4  C7  UNL     1     -34.649  15.511  -2.855  1.00 20.00     0.008 C 
HETATM    5  C5  UNL     1     -35.903  16.116  -3.491  1.00 20.00     0.013 C 
HETATM    6  C4  UNL     1     -36.754  14.910  -3.867  1.00 20.00     0.079 C 
HETATM    7  C3  UNL     1     -35.707  13.877  -4.192  1.00 20.00     0.131 C 
HETATM    8  C6  UNL     1     -34.321  14.292  -3.737  1.00 20.00     0.056 C 
HETATM    9  O10 UNL     1     -35.954  12.817  -4.756  1.00 20.00    -0.298 OA
HETATM   10  C8  UNL     1     -33.444  14.561  -4.951  1.00 20.00     0.018 C 
ENDBRANCH   3   4
TORSDOF 1
ENDMDL
MODEL 3
REMARK VINA RESULT:      -4.6     11.386     12.364
REMARK  1 active torsions:
REMARK  status: ('A' for Active; 'I' for Inactive)
REMARK    1  A    between atoms: C7_7  and  C9_9 
ROOT
HETATM    1  C1  UNL     1     -34.847  16.728  -1.470  1.00 20.00     0.012 C 
HETATM    2  C2  UNL     1     -34.151  16.299  -2.350  1.00 20.00    -0.117 C 
HETATM    3  C9  UNL     1     -33.292  15.785  -3.418  1.00 20.00     0.098 C 
ENDROOT
BRANCH   3   4
HETATM    4  C7  UNL     1     -34.053  14.811  -4.305  1.00 20.00     0.008 C 
HETATM    5  C5  UNL     1     -35.393  14.389  -3.696  1.00 20.00     0.013 C 
HETATM    6  C4  UNL     1     -36.128  13.706  -4.842  1.00 20.00     0.079 C 
HETATM    7  C3  UNL     1     -35.619  14.466  -6.039  1.00 20.00     0.131 C 
HETATM    8  C6  UNL     1     -34.414  15.328  -5.710  1.00 20.00     0.056 C 
HETATM    9  O10 UNL     1     -36.122  14.388  -7.154  1.00 20.00    -0.298 OA
HETATM   10  C8  UNL     1     -34.798  16.797  -5.803  1.00 20.00     0.018 C 
ENDBRANCH   3   4
TORSDOF 1
ENDMDL
MODEL 4
REMARK VINA RESULT:      -4.5     11.145     11.876
REMARK  1 active torsions:
REMARK  status: ('A' for Active; 'I' for Inactive)
REMARK    1  A    between atoms: C7_7  and  C9_9 
ROOT
HETATM    1  C1  UNL     1     -35.185  17.346   0.781  1.00 20.00     0.012 C 
HETATM    2  C2  UNL     1     -35.374  17.276  -0.403  1.00 20.00    -0.117 C 
HETATM    3  C9  UNL     1     -35.611  17.204  -1.846  1.00 20.00     0.098 C 
ENDROOT
BRANCH   3   4
HETATM    4  C7  UNL     1     -35.209  15.844  -2.395  1.00 20.00     0.008 C 
HETATM    5  C5  UNL     1     -36.143  15.362  -3.507  1.00 20.00     0.013 C 
HETATM    6  C4  UNL     1     -35.406  14.186  -4.135  1.00 20.00     0.079 C 
HETATM    7  C3  UNL     1     -33.965  14.592  -3.966  1.00 20.00     0.131 C 
HETATM    8  C6  UNL     1     -33.800  15.762  -3.013  1.00 20.00     0.056 C 
HETATM    9  O10 UNL     1     -33.034  14.032  -4.531  1.00 20.00    -0.298 OA
HETATM   10  C8  UNL     1     -33.337  16.988  -3.786  1.00 20.00     0.018 C 
ENDBRANCH   3   4
TORSDOF 1
ENDMDL
MODEL 5
REMARK VINA RESULT:      -4.4     11.613     12.596
REMARK  1 active torsions:
REMARK  status: ('A' for Active; 'I' for Inactive)
REMARK    1  A    between atoms: C7_7  and  C9_9 
ROOT
HETATM    1  C1  UNL     1     -32.991  17.379  -1.991  1.00 20.00     0.012 C 
HETATM    2  C2  UNL     1     -33.685  16.518  -2.461  1.00 20.00    -0.117 C 
HETATM    3  C9  UNL     1     -34.531  15.464  -3.022  1.00 20.00     0.098 C 
ENDROOT
BRANCH   3   4
HETATM    4  C7  UNL     1     -34.687  15.635  -4.526  1.00 20.00     0.008 C 
HETATM    5  C5  UNL     1     -33.536  14.998  -5.310  1.00 20.00     0.013 C 
HETATM    6  C4  UNL     1     -34.028  14.979  -6.751  1.00 20.00     0.079 C 
HETATM    7  C3  UNL     1     -35.513  14.796  -6.574  1.00 20.00     0.131 C 
HETATM    8  C6  UNL     1     -35.958  15.020  -5.141  1.00 20.00     0.056 C 
HETATM    9  O10 UNL     1     -36.273  14.507  -7.490  1.00 20.00    -0.298 OA
HETATM   10  C8  UNL     1     -36.420  13.701  -4.539  1.00 20.00     0.018 C 
ENDBRANCH   3   4
TORSDOF 1
ENDMDL
MODEL 6
REMARK VINA RESULT:      -4.4     11.338     12.509
REMARK  1 active torsions:
REMARK  status: ('A' for Active; 'I' for Inactive)
REMARK    1  A    between atoms: C7_7  and  C9_9 
ROOT
HETATM    1  C1  UNL     1     -31.267  18.454  -0.536  1.00 20.00     0.012 C 
HETATM    2  C2  UNL     1     -32.367  18.178  -0.932  1.00 20.00    -0.117 C 
HETATM    3  C9  UNL     1     -33.712  17.851  -1.407  1.00 20.00     0.098 C 
ENDROOT
BRANCH   3   4
HETATM    4  C7  UNL     1     -33.706  16.561  -2.213  1.00 20.00     0.008 C 
HETATM    5  C5  UNL     1     -35.083  15.896  -2.265  1.00 20.00     0.013 C 
HETATM    6  C4  UNL     1     -34.952  14.842  -3.356  1.00 20.00     0.079 C 
HETATM    7  C3  UNL     1     -33.972  15.488  -4.301  1.00 20.00     0.131 C 
HETATM    8  C6  UNL     1     -33.289  16.697  -3.690  1.00 20.00     0.056 C 
HETATM    9  O10 UNL     1     -33.751  15.075  -5.433  1.00 20.00    -0.298 OA
HETATM   10  C8  UNL     1     -33.753  17.959  -4.402  1.00 20.00     0.018 C 
ENDBRANCH   3   4
TORSDOF 1
ENDMDL
MODEL 7
REMARK VINA RESULT:      -4.1     11.364     12.174
REMARK  1 active torsions:
REMARK  status: ('A' for Active; 'I' for Inactive)
REMARK    1  A    between atoms: C7_7  and  C9_9 
ROOT
HETATM    1  C1  UNL     1     -34.081  15.114  -6.512  1.00 20.00     0.012 C 
HETATM    2  C2  UNL     1     -34.519  14.844  -5.426  1.00 20.00    -0.117 C 
HETATM    3  C9  UNL     1     -35.062  14.507  -4.110  1.00 20.00     0.098 C 
ENDROOT
BRANCH   3   4
HETATM    4  C7  UNL     1     -34.348  15.282  -3.013  1.00 20.00     0.008 C 
HETATM    5  C5  UNL     1     -33.255  16.203  -3.562  1.00 20.00     0.013 C 
HETATM    6  C4  UNL     1     -32.901  17.108  -2.391  1.00 20.00     0.079 C 
HETATM    7  C3  UNL     1     -34.221  17.223  -1.672  1.00 20.00     0.131 C 
HETATM    8  C6  UNL     1     -35.236  16.207  -2.160  1.00 20.00     0.056 C 
HETATM    9  O10 UNL     1     -34.441  18.043  -0.789  1.00 20.00    -0.298 OA
HETATM   10  C8  UNL     1     -36.359  16.921  -2.897  1.00 20.00     0.018 C 
ENDBRANCH   3   4
TORSDOF 1
ENDMDL
MODEL 8
REMARK VINA RESULT:      -4.1     11.580     12.312
REMARK  1 active torsions:
REMARK  status: ('A' for Active; 'I' for Inactive)
REMARK    1  A    between atoms: C7_7  and  C9_9 
ROOT
HETATM    1  C1  UNL     1     -33.249  17.448  -1.849  1.00 20.00     0.012 C 
HETATM    2  C2  UNL     1     -33.723  16.579  -2.531  1.00 20.00    -0.117 C 
HETATM    3  C9  UNL     1     -34.287  15.518  -3.366  1.00 20.00     0.098 C 
ENDROOT
BRANCH   3   4
HETATM    4  C7  UNL     1     -35.804  15.489  -3.256  1.00 20.00     0.008 C 
HETATM    5  C5  UNL     1     -36.448  16.808  -3.691  1.00 20.00     0.013 C 
HETATM    6  C4  UNL     1     -37.928  16.477  -3.827  1.00 20.00     0.079 C 
HETATM    7  C3  UNL     1     -37.889  15.038  -4.270  1.00 20.00     0.131 C 
HETATM    8  C6  UNL     1     -36.515  14.416  -4.102  1.00 20.00     0.056 C 
HETATM    9  O10 UNL     1     -38.863  14.439  -4.710  1.00 20.00    -0.298 OA
HETATM   10  C8  UNL     1     -35.912  14.136  -5.470  1.00 20.00     0.018 C 
ENDBRANCH   3   4
TORSDOF 1
ENDMDL
MODEL 9
REMARK VINA RESULT:      -4.0      9.591     10.379
REMARK  1 active torsions:
REMARK  status: ('A' for Active; 'I' for Inactive)
REMARK    1  A    between atoms: C7_7  and  C9_9 
ROOT
HETATM    1  C1  UNL     1     -42.139   2.726  -3.462  1.00 20.00     0.012 C 
HETATM    2  C2  UNL     1     -42.660   3.418  -2.629  1.00 20.00    -0.117 C 
HETATM    3  C9  UNL     1     -43.305   4.251  -1.614  1.00 20.00     0.098 C 
ENDROOT
BRANCH   3   4
HETATM    4  C7  UNL     1     -42.521   5.534  -1.386  1.00 20.00     0.008 C 
HETATM    5  C5  UNL     1     -43.384   6.787  -1.565  1.00 20.00     0.013 C 
HETATM    6  C4  UNL     1     -42.538   7.912  -0.985  1.00 20.00     0.079 C 
HETATM    7  C3  UNL     1     -41.784   7.206   0.112  1.00 20.00     0.131 C 
HETATM    8  C6  UNL     1     -41.894   5.696   0.012  1.00 20.00     0.056 C 
HETATM    9  O10 UNL     1     -41.148   7.790   0.980  1.00 20.00    -0.298 OA
HETATM   10  C8  UNL     1     -42.716   5.167   1.178  1.00 20.00     0.018 C 
ENDBRANCH   3   4
TORSDOF 1
ENDMDL
