MODEL 1
REMARK VINA RESULT:      -3.7      0.000      0.000
REMARK  2 active torsions:
REMARK  status: ('A' for Active; 'I' for Inactive)
REMARK    1  A    between atoms: C4_4  and  C5_5 
REMARK    2  A    between atoms: C5_5  and  C7_7 
ROOT
HETATM    1  C3  UNL     1     -36.769  14.106  -4.531  1.00 20.00     0.207 A 
HETATM    2  C5  UNL     1     -35.389  14.713  -4.610  1.00 20.00     0.085 A 
HETATM    3  O8  UNL     1     -35.635  13.351  -4.985  1.00 20.00    -0.375 OA
ENDROOT
BRANCH   2   4
HETATM    4  C4  UNL     1     -34.516  14.891  -3.376  1.00 20.00     0.022 A 
HETATM    5  C1  UNL     1     -33.609  16.075  -3.187  1.00 20.00     0.008 A 
HETATM    6  C2  UNL     1     -34.816  15.907  -2.308  1.00 20.00     0.008 A 
ENDBRANCH   2   4
BRANCH   2   7
HETATM    7  C7  UNL     1     -35.076  15.595  -5.782  1.00 20.00     0.036 C 
HETATM    8  C6  UNL     1     -34.008  15.021  -6.671  1.00 20.00     0.008 C 
ENDBRANCH   2   7
TORSDOF 2
ENDMDL
MODEL 2
REMARK VINA RESULT:      -3.7     11.457     12.311
REMARK  2 active torsions:
REMARK  status: ('A' for Active; 'I' for Inactive)
REMARK    1  A    between atoms: C4_4  and  C5_5 
REMARK    2  A    between atoms: C5_5  and  C7_7 
ROOT
HETATM    1  C3  UNL     1     -32.011   7.361   3.262  1.00 20.00     0.207 A 
HETATM    2  C5  UNL     1     -33.128   6.356   3.413  1.00 20.00     0.085 A 
HETATM    3  O8  UNL     1     -33.102   7.297   2.331  1.00 20.00    -0.375 OA
ENDROOT
BRANCH   2   4
HETATM    4  C4  UNL     1     -34.261   6.557   4.410  1.00 20.00     0.022 A 
HETATM    5  C1  UNL     1     -34.808   5.438   5.252  1.00 20.00     0.008 A 
HETATM    6  C2  UNL     1     -34.043   6.559   5.898  1.00 20.00     0.008 A 
ENDBRANCH   2   4
BRANCH   2   7
HETATM    7  C7  UNL     1     -32.870   4.947   2.971  1.00 20.00     0.036 C 
HETATM    8  C6  UNL     1     -33.716   4.544   1.794  1.00 20.00     0.008 C 
ENDBRANCH   2   7
TORSDOF 2
ENDMDL
MODEL 3
REMARK VINA RESULT:      -3.6     17.898     19.387
REMARK  2 active torsions:
REMARK  status: ('A' for Active; 'I' for Inactive)
REMARK    1  A    between atoms: C4_4  and  C5_5 
REMARK    2  A    between atoms: C5_5  and  C7_7 
ROOT
HETATM    1  C3  UNL     1     -22.575  17.754  12.159  1.00 20.00     0.207 A 
HETATM    2  C5  UNL     1     -23.909  17.836  11.456  1.00 20.00     0.085 A 
HETATM    3  O8  UNL     1     -23.428  16.608  12.020  1.00 20.00    -0.375 OA
ENDROOT
BRANCH   2   4
HETATM    4  C4  UNL     1     -24.019  17.845   9.938  1.00 20.00     0.022 A 
HETATM    5  C1  UNL     1     -24.801  18.887   9.187  1.00 20.00     0.008 A 
HETATM    6  C2  UNL     1     -23.303  18.849   9.077  1.00 20.00     0.008 A 
ENDBRANCH   2   4
BRANCH   2   7
HETATM    7  C7  UNL     1     -25.067  18.414  12.213  1.00 20.00     0.036 C 
HETATM    8  C6  UNL     1     -26.220  17.454  12.332  1.00 20.00     0.008 C 
ENDBRANCH   2   7
TORSDOF 2
ENDMDL
MODEL 4
REMARK VINA RESULT:      -3.5     18.581     19.145
REMARK  2 active torsions:
REMARK  status: ('A' for Active; 'I' for Inactive)
REMARK    1  A    between atoms: C4_4  and  C5_5 
REMARK    2  A    between atoms: C5_5  and  C7_7 
ROOT
HETATM    1  C3  UNL     1     -24.416  15.886  11.810  1.00 20.00     0.207 A 
HETATM    2  C5  UNL     1     -24.530  17.334  11.397  1.00 20.00     0.085 A 
HETATM    3  O8  UNL     1     -23.406  16.850  12.143  1.00 20.00    -0.375 OA
ENDROOT
BRANCH   2   4
HETATM    4  C4  UNL     1     -25.421  18.316  12.144  1.00 20.00     0.022 A 
HETATM    5  C1  UNL     1     -26.410  19.207  11.446  1.00 20.00     0.008 A 
HETATM    6  C2  UNL     1     -26.896  18.094  12.332  1.00 20.00     0.008 A 
ENDBRANCH   2   4
BRANCH   2   7
HETATM    7  C7  UNL     1     -24.184  17.689   9.981  1.00 20.00     0.036 C 
HETATM    8  C6  UNL     1     -22.782  18.216   9.842  1.00 20.00     0.008 C 
ENDBRANCH   2   7
TORSDOF 2
ENDMDL
MODEL 5
REMARK VINA RESULT:      -3.5     11.459     12.212
REMARK  2 active torsions:
REMARK  status: ('A' for Active; 'I' for Inactive)
REMARK    1  A    between atoms: C4_4  and  C5_5 
REMARK    2  A    between atoms: C5_5  and  C7_7 
ROOT
HETATM    1  C3  UNL     1     -33.743   4.970   2.224  1.00 20.00     0.207 A 
HETATM    2  C5  UNL     1     -33.403   5.986   3.289  1.00 20.00     0.085 A 
HETATM    3  O8  UNL     1     -32.901   4.644   3.341  1.00 20.00    -0.375 OA
ENDROOT
BRANCH   2   4
HETATM    4  C4  UNL     1     -34.382   6.347   4.398  1.00 20.00     0.022 A 
HETATM    5  C1  UNL     1     -34.729   5.401   5.513  1.00 20.00     0.008 A 
HETATM    6  C2  UNL     1     -33.941   6.648   5.804  1.00 20.00     0.008 A 
ENDBRANCH   2   4
BRANCH   2   7
HETATM    7  C7  UNL     1     -32.340   6.997   2.981  1.00 20.00     0.036 C 
HETATM    8  C6  UNL     1     -32.624   7.772   1.723  1.00 20.00     0.008 C 
ENDBRANCH   2   7
TORSDOF 2
ENDMDL
MODEL 6
REMARK VINA RESULT:      -3.5     11.760     12.738
REMARK  2 active torsions:
REMARK  status: ('A' for Active; 'I' for Inactive)
REMARK    1  A    between atoms: C4_4  and  C5_5 
REMARK    2  A    between atoms: C5_5  and  C7_7 
ROOT
HETATM    1  C3  UNL     1     -34.415   4.281   3.936  1.00 20.00     0.207 A 
HETATM    2  C5  UNL     1     -34.207   5.693   4.427  1.00 20.00     0.085 A 
HETATM    3  O8  UNL     1     -35.506   5.206   4.063  1.00 20.00    -0.375 OA
ENDROOT
BRANCH   2   4
HETATM    4  C4  UNL     1     -33.656   6.787   3.522  1.00 20.00     0.022 A 
HETATM    5  C1  UNL     1     -32.206   7.183   3.520  1.00 20.00     0.008 A 
HETATM    6  C2  UNL     1     -32.797   6.492   2.323  1.00 20.00     0.008 A 
ENDBRANCH   2   4
BRANCH   2   7
HETATM    7  C7  UNL     1     -34.056   5.908   5.903  1.00 20.00     0.036 C 
HETATM    8  C6  UNL     1     -33.917   7.361   6.267  1.00 20.00     0.008 C 
ENDBRANCH   2   7
TORSDOF 2
ENDMDL
MODEL 7
REMARK VINA RESULT:      -3.5     10.566     12.054
REMARK  2 active torsions:
REMARK  status: ('A' for Active; 'I' for Inactive)
REMARK    1  A    between atoms: C4_4  and  C5_5 
REMARK    2  A    between atoms: C5_5  and  C7_7 
ROOT
HETATM    1  C3  UNL     1     -43.417   5.574   1.306  1.00 20.00     0.207 A 
HETATM    2  C5  UNL     1     -42.358   6.151   0.398  1.00 20.00     0.085 A 
HETATM    3  O8  UNL     1     -42.047   5.151   1.378  1.00 20.00    -0.375 OA
ENDROOT
BRANCH   2   4
HETATM    4  C4  UNL     1     -41.734   7.516   0.655  1.00 20.00     0.022 A 
HETATM    5  C1  UNL     1     -41.198   8.384  -0.449  1.00 20.00     0.008 A 
HETATM    6  C2  UNL     1     -42.428   8.804   0.307  1.00 20.00     0.008 A 
ENDBRANCH   2   4
BRANCH   2   7
HETATM    7  C7  UNL     1     -42.282   5.636  -1.008  1.00 20.00     0.036 C 
HETATM    8  C6  UNL     1     -40.986   4.930  -1.298  1.00 20.00     0.008 C 
ENDBRANCH   2   7
TORSDOF 2
ENDMDL
MODEL 8
REMARK VINA RESULT:      -3.4     10.525     12.126
REMARK  2 active torsions:
REMARK  status: ('A' for Active; 'I' for Inactive)
REMARK    1  A    between atoms: C4_4  and  C5_5 
REMARK    2  A    between atoms: C5_5  and  C7_7 
ROOT
HETATM    1  C3  UNL     1     -41.871   4.997  -1.626  1.00 20.00     0.207 A 
HETATM    2  C5  UNL     1     -41.802   6.170  -0.677  1.00 20.00     0.085 A 
HETATM    3  O8  UNL     1     -40.621   5.481  -1.112  1.00 20.00    -0.375 OA
ENDROOT
BRANCH   2   4
HETATM    4  C4  UNL     1     -42.120   6.025   0.804  1.00 20.00     0.022 A 
HETATM    5  C1  UNL     1     -43.414   6.497   1.406  1.00 20.00     0.008 A 
HETATM    6  C2  UNL     1     -43.114   5.026   1.328  1.00 20.00     0.008 A 
ENDBRANCH   2   4
BRANCH   2   7
HETATM    7  C7  UNL     1     -41.921   7.549  -1.255  1.00 20.00     0.036 C 
HETATM    8  C6  UNL     1     -41.203   8.585  -0.435  1.00 20.00     0.008 C 
ENDBRANCH   2   7
TORSDOF 2
ENDMDL
MODEL 9
REMARK VINA RESULT:      -3.4     17.530     19.078
REMARK  2 active torsions:
REMARK  status: ('A' for Active; 'I' for Inactive)
REMARK    1  A    between atoms: C4_4  and  C5_5 
REMARK    2  A    between atoms: C5_5  and  C7_7 
ROOT
HETATM    1  C3  UNL     1     -21.412  17.520   8.937  1.00 20.00     0.207 A 
HETATM    2  C5  UNL     1     -22.689  18.020   9.569  1.00 20.00     0.085 A 
HETATM    3  O8  UNL     1     -21.732  18.919   8.993  1.00 20.00    -0.375 OA
ENDROOT
BRANCH   2   4
HETATM    4  C4  UNL     1     -22.848  18.134  11.079  1.00 20.00     0.022 A 
HETATM    5  C1  UNL     1     -24.183  18.040  11.764  1.00 20.00     0.008 A 
HETATM    6  C2  UNL     1     -23.163  16.952  11.954  1.00 20.00     0.008 A 
ENDBRANCH   2   4
BRANCH   2   7
HETATM    7  C7  UNL     1     -23.954  17.920   8.770  1.00 20.00     0.036 C 
HETATM    8  C6  UNL     1     -24.571  19.263   8.491  1.00 20.00     0.008 C 
ENDBRANCH   2   7
TORSDOF 2
ENDMDL
