MODEL 1
REMARK VINA RESULT:      -4.3      0.000      0.000
REMARK  2 active torsions:
REMARK  status: ('A' for Active; 'I' for Inactive)
REMARK    1  A    between atoms: C3_3  and  C9_9 
REMARK    2  A    between atoms: C9_9  and  C10_10 
ROOT
HETATM    1  C1  UNL     1     -34.846  17.042  -1.437  1.00 20.00     0.006 C 
HETATM    2  C2  UNL     1     -34.886  15.801  -2.313  1.00 20.00     0.016 C 
HETATM    3  C3  UNL     1     -33.403  17.516  -1.598  1.00 20.00    -0.009 C 
HETATM    4  C4  UNL     1     -33.088  17.289  -3.097  1.00 20.00    -0.000 C 
HETATM    5  C5  UNL     1     -34.103  16.218  -3.552  1.00 20.00     0.062 C 
HETATM    6  C6  UNL     1     -33.206  18.534  -3.978  1.00 20.00     0.011 C 
HETATM    7 BR11 UNL     1     -33.208  14.684  -4.343  1.00 20.00    -0.091 Br
ENDROOT
BRANCH   3   8
HETATM    8  C9  UNL     1     -33.182  18.920  -1.054  1.00 20.00     0.009 C 
BRANCH   8   9
HETATM    9  C10 UNL     1     -32.249  18.960   0.165  1.00 20.00    -0.022 C 
HETATM   10  C7  UNL     1     -32.891  18.353   1.413  1.00 20.00     0.009 C 
HETATM   11  C8  UNL     1     -30.948  18.222  -0.160  1.00 20.00     0.009 C 
ENDBRANCH   8   9
ENDBRANCH   3   8
TORSDOF 2
ENDMDL
MODEL 2
REMARK VINA RESULT:      -4.3      2.550      4.845
REMARK  2 active torsions:
REMARK  status: ('A' for Active; 'I' for Inactive)
REMARK    1  A    between atoms: C3_3  and  C9_9 
REMARK    2  A    between atoms: C9_9  and  C10_10 
ROOT
HETATM    1  C1  UNL     1     -33.038  17.553  -2.305  1.00 20.00     0.006 C 
HETATM    2  C2  UNL     1     -32.732  18.111  -0.926  1.00 20.00     0.016 C 
HETATM    3  C3  UNL     1     -34.117  16.512  -2.011  1.00 20.00    -0.009 C 
HETATM    4  C4  UNL     1     -35.010  17.179  -0.935  1.00 20.00    -0.000 C 
HETATM    5  C5  UNL     1     -34.109  18.252  -0.289  1.00 20.00     0.062 C 
HETATM    6  C6  UNL     1     -36.294  17.819  -1.468  1.00 20.00     0.011 C 
HETATM    7 BR11 UNL     1     -33.997  18.017   1.638  1.00 20.00    -0.091 Br
ENDROOT
BRANCH   3   8
HETATM    8  C9  UNL     1     -34.812  16.014  -3.269  1.00 20.00     0.009 C 
BRANCH   8   9
HETATM    9  C10 UNL     1     -34.490  14.551  -3.602  1.00 20.00    -0.022 C 
HETATM   10  C7  UNL     1     -35.662  13.832  -4.272  1.00 20.00     0.009 C 
HETATM   11  C8  UNL     1     -33.258  14.488  -4.508  1.00 20.00     0.009 C 
ENDBRANCH   8   9
ENDBRANCH   3   8
TORSDOF 2
ENDMDL
MODEL 3
REMARK VINA RESULT:      -4.2      2.277      4.771
REMARK  2 active torsions:
REMARK  status: ('A' for Active; 'I' for Inactive)
REMARK    1  A    between atoms: C3_3  and  C9_9 
REMARK    2  A    between atoms: C9_9  and  C10_10 
ROOT
HETATM    1  C1  UNL     1     -33.690  17.901  -3.673  1.00 20.00     0.006 C 
HETATM    2  C2  UNL     1     -32.607  18.669  -2.933  1.00 20.00     0.016 C 
HETATM    3  C3  UNL     1     -33.839  16.638  -2.826  1.00 20.00    -0.009 C 
HETATM    4  C4  UNL     1     -33.730  17.140  -1.365  1.00 20.00    -0.000 C 
HETATM    5  C5  UNL     1     -32.983  18.486  -1.468  1.00 20.00     0.062 C 
HETATM    6  C6  UNL     1     -35.068  17.333  -0.648  1.00 20.00     0.011 C 
HETATM    7 BR11 UNL     1     -31.393  18.502  -0.349  1.00 20.00    -0.091 Br
ENDROOT
BRANCH   3   8
HETATM    8  C9  UNL     1     -35.077  15.832  -3.186  1.00 20.00     0.009 C 
BRANCH   8   9
HETATM    9  C10 UNL     1     -34.761  14.399  -3.636  1.00 20.00    -0.022 C 
HETATM   10  C7  UNL     1     -35.896  13.776  -4.450  1.00 20.00     0.009 C 
HETATM   11  C8  UNL     1     -33.470  14.392  -4.458  1.00 20.00     0.009 C 
ENDBRANCH   8   9
ENDBRANCH   3   8
TORSDOF 2
ENDMDL
MODEL 4
REMARK VINA RESULT:      -4.1      2.254      3.815
REMARK  2 active torsions:
REMARK  status: ('A' for Active; 'I' for Inactive)
REMARK    1  A    between atoms: C3_3  and  C9_9 
REMARK    2  A    between atoms: C9_9  and  C10_10 
ROOT
HETATM    1  C1  UNL     1     -33.586  14.818  -4.336  1.00 20.00     0.006 C 
HETATM    2  C2  UNL     1     -33.760  14.809  -5.845  1.00 20.00     0.016 C 
HETATM    3  C3  UNL     1     -34.697  15.763  -3.880  1.00 20.00    -0.009 C 
HETATM    4  C4  UNL     1     -35.900  15.410  -4.788  1.00 20.00    -0.000 C 
HETATM    5  C5  UNL     1     -35.271  14.738  -6.027  1.00 20.00     0.062 C 
HETATM    6  C6  UNL     1     -36.937  14.481  -4.154  1.00 20.00     0.011 C 
HETATM    7 BR11 UNL     1     -35.805  15.634  -7.668  1.00 20.00    -0.091 Br
ENDROOT
BRANCH   3   8
HETATM    8  C9  UNL     1     -34.931  15.713  -2.377  1.00 20.00     0.009 C 
BRANCH   8   9
HETATM    9  C10 UNL     1     -34.792  17.080  -1.694  1.00 20.00    -0.022 C 
HETATM   10  C7  UNL     1     -35.333  17.078  -0.263  1.00 20.00     0.009 C 
HETATM   11  C8  UNL     1     -33.322  17.507  -1.691  1.00 20.00     0.009 C 
ENDBRANCH   8   9
ENDBRANCH   3   8
TORSDOF 2
ENDMDL
MODEL 5
REMARK VINA RESULT:      -4.1      1.822      2.419
REMARK  2 active torsions:
REMARK  status: ('A' for Active; 'I' for Inactive)
REMARK    1  A    between atoms: C3_3  and  C9_9 
REMARK    2  A    between atoms: C9_9  and  C10_10 
ROOT
HETATM    1  C1  UNL     1     -35.891  17.504  -2.875  1.00 20.00     0.006 C 
HETATM    2  C2  UNL     1     -36.615  16.534  -3.793  1.00 20.00     0.016 C 
HETATM    3  C3  UNL     1     -35.015  16.576  -2.036  1.00 20.00    -0.009 C 
HETATM    4  C4  UNL     1     -34.504  15.515  -3.042  1.00 20.00    -0.000 C 
HETATM    5  C5  UNL     1     -35.524  15.551  -4.200  1.00 20.00     0.062 C 
HETATM    6  C6  UNL     1     -33.091  15.760  -3.576  1.00 20.00     0.011 C 
HETATM    7 BR11 UNL     1     -36.280  13.791  -4.534  1.00 20.00    -0.091 Br
ENDROOT
BRANCH   3   8
HETATM    8  C9  UNL     1     -33.962  17.327  -1.234  1.00 20.00     0.009 C 
BRANCH   8   9
HETATM    9  C10 UNL     1     -34.533  18.046  -0.004  1.00 20.00    -0.022 C 
HETATM   10  C7  UNL     1     -35.565  17.199   0.743  1.00 20.00     0.009 C 
HETATM   11  C8  UNL     1     -33.392  18.427   0.943  1.00 20.00     0.009 C 
ENDBRANCH   8   9
ENDBRANCH   3   8
TORSDOF 2
ENDMDL
MODEL 6
REMARK VINA RESULT:      -4.1      2.790      4.584
REMARK  2 active torsions:
REMARK  status: ('A' for Active; 'I' for Inactive)
REMARK    1  A    between atoms: C3_3  and  C9_9 
REMARK    2  A    between atoms: C9_9  and  C10_10 
ROOT
HETATM    1  C1  UNL     1     -33.687  14.795  -5.595  1.00 20.00     0.006 C 
HETATM    2  C2  UNL     1     -34.276  15.135  -6.955  1.00 20.00     0.016 C 
HETATM    3  C3  UNL     1     -34.613  15.541  -4.637  1.00 20.00    -0.009 C 
HETATM    4  C4  UNL     1     -36.027  15.348  -5.238  1.00 20.00    -0.000 C 
HETATM    5  C5  UNL     1     -35.778  15.024  -6.726  1.00 20.00     0.062 C 
HETATM    6  C6  UNL     1     -36.857  14.239  -4.590  1.00 20.00     0.011 C 
HETATM    7 BR11 UNL     1     -36.737  16.253  -7.889  1.00 20.00    -0.091 Br
ENDROOT
BRANCH   3   8
HETATM    8  C9  UNL     1     -34.419  15.123  -3.187  1.00 20.00     0.009 C 
BRANCH   8   9
HETATM    9  C10 UNL     1     -33.999  16.281  -2.271  1.00 20.00    -0.022 C 
HETATM   10  C7  UNL     1     -33.410  17.459  -3.048  1.00 20.00     0.009 C 
HETATM   11  C8  UNL     1     -35.204  16.751  -1.452  1.00 20.00     0.009 C 
ENDBRANCH   8   9
ENDBRANCH   3   8
TORSDOF 2
ENDMDL
MODEL 7
REMARK VINA RESULT:      -4.0      2.460      4.973
REMARK  2 active torsions:
REMARK  status: ('A' for Active; 'I' for Inactive)
REMARK    1  A    between atoms: C3_3  and  C9_9 
REMARK    2  A    between atoms: C9_9  and  C10_10 
ROOT
HETATM    1  C1  UNL     1     -33.104  16.987  -2.812  1.00 20.00     0.006 C 
HETATM    2  C2  UNL     1     -32.758  17.771  -1.557  1.00 20.00     0.016 C 
HETATM    3  C3  UNL     1     -34.207  16.050  -2.324  1.00 20.00    -0.009 C 
HETATM    4  C4  UNL     1     -35.061  16.924  -1.372  1.00 20.00    -0.000 C 
HETATM    5  C5  UNL     1     -34.119  18.066  -0.938  1.00 20.00     0.062 C 
HETATM    6  C6  UNL     1     -36.335  17.499  -1.994  1.00 20.00     0.011 C 
HETATM    7 BR11 UNL     1     -33.979  18.172   0.999  1.00 20.00    -0.091 Br
ENDROOT
BRANCH   3   8
HETATM    8  C9  UNL     1     -34.938  15.359  -3.465  1.00 20.00     0.009 C 
BRANCH   8   9
HETATM    9  C10 UNL     1     -34.572  15.916  -4.848  1.00 20.00    -0.022 C 
HETATM   10  C7  UNL     1     -33.934  14.861  -5.753  1.00 20.00     0.009 C 
HETATM   11  C8  UNL     1     -35.822  16.488  -5.519  1.00 20.00     0.009 C 
ENDBRANCH   8   9
ENDBRANCH   3   8
TORSDOF 2
ENDMDL
MODEL 8
REMARK VINA RESULT:      -4.0      1.754      2.481
REMARK  2 active torsions:
REMARK  status: ('A' for Active; 'I' for Inactive)
REMARK    1  A    between atoms: C3_3  and  C9_9 
REMARK    2  A    between atoms: C9_9  and  C10_10 
ROOT
HETATM    1  C1  UNL     1     -34.782  17.581  -3.883  1.00 20.00     0.006 C 
HETATM    2  C2  UNL     1     -35.950  16.821  -4.489  1.00 20.00     0.016 C 
HETATM    3  C3  UNL     1     -34.225  16.583  -2.870  1.00 20.00    -0.009 C 
HETATM    4  C4  UNL     1     -34.318  15.214  -3.588  1.00 20.00    -0.000 C 
HETATM    5  C5  UNL     1     -35.398  15.413  -4.672  1.00 20.00     0.062 C 
HETATM    6  C6  UNL     1     -33.014  14.730  -4.226  1.00 20.00     0.011 C 
HETATM    7 BR11 UNL     1     -36.819  14.096  -4.507  1.00 20.00    -0.091 Br
ENDROOT
BRANCH   3   8
HETATM    8  C9  UNL     1     -32.860  16.988  -2.335  1.00 20.00     0.009 C 
BRANCH   8   9
HETATM    9  C10 UNL     1     -32.916  18.168  -1.356  1.00 20.00    -0.022 C 
HETATM   10  C7  UNL     1     -33.986  17.985  -0.279  1.00 20.00     0.009 C 
HETATM   11  C8  UNL     1     -31.547  18.357  -0.699  1.00 20.00     0.009 C 
ENDBRANCH   8   9
ENDBRANCH   3   8
TORSDOF 2
ENDMDL
MODEL 9
REMARK VINA RESULT:      -4.0      2.425      5.061
REMARK  2 active torsions:
REMARK  status: ('A' for Active; 'I' for Inactive)
REMARK    1  A    between atoms: C3_3  and  C9_9 
REMARK    2  A    between atoms: C9_9  and  C10_10 
ROOT
HETATM    1  C1  UNL     1     -35.119  16.097  -1.692  1.00 20.00     0.006 C 
HETATM    2  C2  UNL     1     -34.276  17.339  -1.459  1.00 20.00     0.016 C 
HETATM    3  C3  UNL     1     -35.162  16.006  -3.216  1.00 20.00    -0.009 C 
HETATM    4  C4  UNL     1     -33.731  16.393  -3.665  1.00 20.00    -0.000 C 
HETATM    5  C5  UNL     1     -33.157  17.204  -2.484  1.00 20.00     0.062 C 
HETATM    6  C6  UNL     1     -32.814  15.213  -3.989  1.00 20.00     0.011 C 
HETATM    7 BR11 UNL     1     -32.543  18.957  -3.059  1.00 20.00    -0.091 Br
ENDROOT
BRANCH   3   8
HETATM    8  C9  UNL     1     -35.699  14.671  -3.710  1.00 20.00     0.009 C 
BRANCH   8   9
HETATM    9  C10 UNL     1     -36.597  14.798  -4.949  1.00 20.00    -0.022 C 
HETATM   10  C7  UNL     1     -37.251  16.176  -5.059  1.00 20.00     0.009 C 
HETATM   11  C8  UNL     1     -35.778  14.511  -6.209  1.00 20.00     0.009 C 
ENDBRANCH   8   9
ENDBRANCH   3   8
TORSDOF 2
ENDMDL
