MODEL 1
REMARK VINA RESULT:      -5.5      0.000      0.000
REMARK  2 active torsions:
REMARK  status: ('A' for Active; 'I' for Inactive)
REMARK    1  A    between atoms: C2_2  and  C10_10 
REMARK    2  A    between atoms: C7_7  and  C10_10 
ROOT
HETATM    1  C1  UNL     1     -32.868   8.350   0.717  1.00 20.00    -0.111 C 
HETATM    2  C2  UNL     1     -32.573   7.917   1.799  1.00 20.00    -0.107 C 
HETATM    3  C8  UNL     1     -33.227   8.876  -0.598  1.00 20.00     0.112 C 
ENDROOT
BRANCH   2   4
HETATM    4  C10 UNL     1     -32.227   7.388   3.119  1.00 20.00     0.099 C 
BRANCH   4   5
HETATM    5  C7  UNL     1     -33.477   7.001   3.894  1.00 20.00     0.008 C 
HETATM    6  C5  UNL     1     -33.200   6.786   5.384  1.00 20.00     0.013 C 
HETATM    7  C4  UNL     1     -34.456   6.101   5.906  1.00 20.00     0.079 C 
HETATM    8  C3  UNL     1     -34.893   5.296   4.710  1.00 20.00     0.131 C 
HETATM    9  C6  UNL     1     -34.168   5.701   3.440  1.00 20.00     0.056 C 
HETATM   10  O11 UNL     1     -35.745   4.416   4.762  1.00 20.00    -0.298 OA
HETATM   11  C9  UNL     1     -33.247   4.573   2.996  1.00 20.00     0.018 C 
ENDBRANCH   4   5
ENDBRANCH   2   4
TORSDOF 2
ENDMDL
MODEL 2
REMARK VINA RESULT:      -5.0     10.837     11.805
REMARK  2 active torsions:
REMARK  status: ('A' for Active; 'I' for Inactive)
REMARK    1  A    between atoms: C2_2  and  C10_10 
REMARK    2  A    between atoms: C7_7  and  C10_10 
ROOT
HETATM    1  C1  UNL     1     -32.229  18.143  -0.799  1.00 20.00    -0.111 C 
HETATM    2  C2  UNL     1     -33.207  17.767  -1.387  1.00 20.00    -0.107 C 
HETATM    3  C8  UNL     1     -31.039  18.600  -0.084  1.00 20.00     0.112 C 
ENDROOT
BRANCH   2   4
HETATM    4  C10 UNL     1     -34.391  17.301  -2.110  1.00 20.00     0.099 C 
BRANCH   4   5
HETATM    5  C7  UNL     1     -34.208  15.868  -2.585  1.00 20.00     0.008 C 
HETATM    6  C5  UNL     1     -33.226  15.758  -3.753  1.00 20.00     0.013 C 
HETATM    7  C4  UNL     1     -33.429  14.346  -4.285  1.00 20.00     0.079 C 
HETATM    8  C3  UNL     1     -34.893  14.117  -4.015  1.00 20.00     0.131 C 
HETATM    9  C6  UNL     1     -35.483  15.163  -3.087  1.00 20.00     0.056 C 
HETATM   10  O11 UNL     1     -35.531  13.184  -4.489  1.00 20.00    -0.298 OA
HETATM   11  C9  UNL     1     -36.468  16.031  -3.857  1.00 20.00     0.018 C 
ENDBRANCH   4   5
ENDBRANCH   2   4
TORSDOF 2
ENDMDL
MODEL 3
REMARK VINA RESULT:      -4.7     10.746     11.781
REMARK  2 active torsions:
REMARK  status: ('A' for Active; 'I' for Inactive)
REMARK    1  A    between atoms: C2_2  and  C10_10 
REMARK    2  A    between atoms: C7_7  and  C10_10 
ROOT
HETATM    1  C1  UNL     1     -34.309  17.614  -0.631  1.00 20.00    -0.111 C 
HETATM    2  C2  UNL     1     -34.127  17.055  -1.679  1.00 20.00    -0.107 C 
HETATM    3  C8  UNL     1     -34.531  18.294   0.643  1.00 20.00     0.112 C 
ENDROOT
BRANCH   2   4
HETATM    4  C10 UNL     1     -33.898  16.365  -2.949  1.00 20.00     0.099 C 
BRANCH   4   5
HETATM    5  C7  UNL     1     -34.837  15.177  -3.098  1.00 20.00     0.008 C 
HETATM    6  C5  UNL     1     -34.352  14.175  -4.148  1.00 20.00     0.013 C 
HETATM    7  C4  UNL     1     -35.550  13.266  -4.384  1.00 20.00     0.079 C 
HETATM    8  C3  UNL     1     -36.706  14.209  -4.170  1.00 20.00     0.131 C 
HETATM    9  C6  UNL     1     -36.278  15.514  -3.525  1.00 20.00     0.056 C 
HETATM   10  O11 UNL     1     -37.862  13.944  -4.480  1.00 20.00    -0.298 OA
HETATM   11  C9  UNL     1     -36.431  16.651  -4.525  1.00 20.00     0.018 C 
ENDBRANCH   4   5
ENDBRANCH   2   4
TORSDOF 2
ENDMDL
MODEL 4
REMARK VINA RESULT:      -4.7     11.238     12.121
REMARK  2 active torsions:
REMARK  status: ('A' for Active; 'I' for Inactive)
REMARK    1  A    between atoms: C2_2  and  C10_10 
REMARK    2  A    between atoms: C7_7  and  C10_10 
ROOT
HETATM    1  C1  UNL     1     -32.958  17.753  -1.416  1.00 20.00    -0.111 C 
HETATM    2  C2  UNL     1     -33.911  17.063  -1.656  1.00 20.00    -0.107 C 
HETATM    3  C8  UNL     1     -31.798  18.593  -1.122  1.00 20.00     0.112 C 
ENDROOT
BRANCH   2   4
HETATM    4  C10 UNL     1     -35.074  16.219  -1.937  1.00 20.00     0.099 C 
BRANCH   4   5
HETATM    5  C7  UNL     1     -34.786  15.264  -3.085  1.00 20.00     0.008 C 
HETATM    6  C5  UNL     1     -33.862  15.877  -4.139  1.00 20.00     0.013 C 
HETATM    7  C4  UNL     1     -33.963  14.930  -5.327  1.00 20.00     0.079 C 
HETATM    8  C3  UNL     1     -35.384  14.441  -5.218  1.00 20.00     0.131 C 
HETATM    9  C6  UNL     1     -36.017  14.789  -3.883  1.00 20.00     0.056 C 
HETATM   10  O11 UNL     1     -35.959  13.826  -6.108  1.00 20.00    -0.298 OA
HETATM   11  C9  UNL     1     -37.116  15.820  -4.093  1.00 20.00     0.018 C 
ENDBRANCH   4   5
ENDBRANCH   2   4
TORSDOF 2
ENDMDL
MODEL 5
REMARK VINA RESULT:      -4.6     10.760     11.675
REMARK  2 active torsions:
REMARK  status: ('A' for Active; 'I' for Inactive)
REMARK    1  A    between atoms: C2_2  and  C10_10 
REMARK    2  A    between atoms: C7_7  and  C10_10 
ROOT
HETATM    1  C1  UNL     1     -35.392  17.434   0.133  1.00 20.00    -0.111 C 
HETATM    2  C2  UNL     1     -34.897  17.303  -0.954  1.00 20.00    -0.107 C 
HETATM    3  C8  UNL     1     -35.994  17.593   1.455  1.00 20.00     0.112 C 
ENDROOT
BRANCH   2   4
HETATM    4  C10 UNL     1     -34.282  17.142  -2.273  1.00 20.00     0.099 C 
BRANCH   4   5
HETATM    5  C7  UNL     1     -34.292  15.684  -2.703  1.00 20.00     0.008 C 
HETATM    6  C5  UNL     1     -33.312  15.402  -3.844  1.00 20.00     0.013 C 
HETATM    7  C4  UNL     1     -33.700  14.016  -4.341  1.00 20.00     0.079 C 
HETATM    8  C3  UNL     1     -35.187  14.001  -4.099  1.00 20.00     0.131 C 
HETATM    9  C6  UNL     1     -35.643  15.147  -3.215  1.00 20.00     0.056 C 
HETATM   10  O11 UNL     1     -35.939  13.153  -4.563  1.00 20.00    -0.298 OA
HETATM   11  C9  UNL     1     -36.481  16.120  -4.032  1.00 20.00     0.018 C 
ENDBRANCH   4   5
ENDBRANCH   2   4
TORSDOF 2
ENDMDL
MODEL 6
REMARK VINA RESULT:      -4.4     10.792     11.961
REMARK  2 active torsions:
REMARK  status: ('A' for Active; 'I' for Inactive)
REMARK    1  A    between atoms: C2_2  and  C10_10 
REMARK    2  A    between atoms: C7_7  and  C10_10 
ROOT
HETATM    1  C1  UNL     1     -33.281  18.173  -0.292  1.00 20.00    -0.111 C 
HETATM    2  C2  UNL     1     -33.239  17.694  -1.393  1.00 20.00    -0.107 C 
HETATM    3  C8  UNL     1     -33.332  18.756   1.047  1.00 20.00     0.112 C 
ENDROOT
BRANCH   2   4
HETATM    4  C10 UNL     1     -33.175  17.106  -2.732  1.00 20.00     0.099 C 
BRANCH   4   5
HETATM    5  C7  UNL     1     -34.018  15.843  -2.811  1.00 20.00     0.008 C 
HETATM    6  C5  UNL     1     -33.598  14.929  -3.964  1.00 20.00     0.013 C 
HETATM    7  C4  UNL     1     -34.733  13.921  -4.081  1.00 20.00     0.079 C 
HETATM    8  C3  UNL     1     -35.926  14.745  -3.669  1.00 20.00     0.131 C 
HETATM    9  C6  UNL     1     -35.529  16.060  -3.025  1.00 20.00     0.056 C 
HETATM   10  O11 UNL     1     -37.086  14.385  -3.833  1.00 20.00    -0.298 OA
HETATM   11  C9  UNL     1     -35.916  17.213  -3.939  1.00 20.00     0.018 C 
ENDBRANCH   4   5
ENDBRANCH   2   4
TORSDOF 2
ENDMDL
MODEL 7
REMARK VINA RESULT:      -4.4      9.769     10.666
REMARK  2 active torsions:
REMARK  status: ('A' for Active; 'I' for Inactive)
REMARK    1  A    between atoms: C2_2  and  C10_10 
REMARK    2  A    between atoms: C7_7  and  C10_10 
ROOT
HETATM    1  C1  UNL     1     -42.422   3.195  -3.106  1.00 20.00    -0.111 C 
HETATM    2  C2  UNL     1     -42.855   3.859  -2.203  1.00 20.00    -0.107 C 
HETATM    3  C8  UNL     1     -41.893   2.388  -4.204  1.00 20.00     0.112 C 
ENDROOT
BRANCH   2   4
HETATM    4  C10 UNL     1     -43.372   4.667  -1.098  1.00 20.00     0.099 C 
BRANCH   4   5
HETATM    5  C7  UNL     1     -42.905   6.110  -1.215  1.00 20.00     0.008 C 
HETATM    6  C5  UNL     1     -41.379   6.233  -1.224  1.00 20.00     0.013 C 
HETATM    7  C4  UNL     1     -41.120   7.719  -1.014  1.00 20.00     0.079 C 
HETATM    8  C3  UNL     1     -42.281   8.120  -0.141  1.00 20.00     0.131 C 
HETATM    9  C6  UNL     1     -43.361   7.055  -0.087  1.00 20.00     0.056 C 
HETATM   10  O11 UNL     1     -42.344   9.190   0.451  1.00 20.00    -0.298 OA
HETATM   11  C9  UNL     1     -43.412   6.451   1.310  1.00 20.00     0.018 C 
ENDBRANCH   4   5
ENDBRANCH   2   4
TORSDOF 2
ENDMDL
MODEL 8
REMARK VINA RESULT:      -4.3     11.219     11.988
REMARK  2 active torsions:
REMARK  status: ('A' for Active; 'I' for Inactive)
REMARK    1  A    between atoms: C2_2  and  C10_10 
REMARK    2  A    between atoms: C7_7  and  C10_10 
ROOT
HETATM    1  C1  UNL     1     -33.996  17.932  -0.473  1.00 20.00    -0.111 C 
HETATM    2  C2  UNL     1     -33.612  17.423  -1.491  1.00 20.00    -0.107 C 
HETATM    3  C8  UNL     1     -34.462  18.551   0.766  1.00 20.00     0.112 C 
ENDROOT
BRANCH   2   4
HETATM    4  C10 UNL     1     -33.134  16.798  -2.726  1.00 20.00     0.099 C 
BRANCH   4   5
HETATM    5  C7  UNL     1     -34.300  16.329  -3.583  1.00 20.00     0.008 C 
HETATM    6  C5  UNL     1     -35.357  15.575  -2.774  1.00 20.00     0.013 C 
HETATM    7  C4  UNL     1     -36.241  14.918  -3.826  1.00 20.00     0.079 C 
HETATM    8  C3  UNL     1     -35.257  14.643  -4.933  1.00 20.00     0.131 C 
HETATM    9  C6  UNL     1     -33.939  15.368  -4.733  1.00 20.00     0.056 C 
HETATM   10  O11 UNL     1     -35.501  13.918  -5.890  1.00 20.00    -0.298 OA
HETATM   11  C9  UNL     1     -32.840  14.358  -4.440  1.00 20.00     0.018 C 
ENDBRANCH   4   5
ENDBRANCH   2   4
TORSDOF 2
ENDMDL
MODEL 9
REMARK VINA RESULT:      -4.3     11.111     12.412
REMARK  2 active torsions:
REMARK  status: ('A' for Active; 'I' for Inactive)
REMARK    1  A    between atoms: C2_2  and  C10_10 
REMARK    2  A    between atoms: C7_7  and  C10_10 
ROOT
HETATM    1  C1  UNL     1     -32.753  17.442  -1.973  1.00 20.00    -0.111 C 
HETATM    2  C2  UNL     1     -33.001  16.589  -2.781  1.00 20.00    -0.107 C 
HETATM    3  C8  UNL     1     -32.451  18.481  -0.990  1.00 20.00     0.112 C 
ENDROOT
BRANCH   2   4
HETATM    4  C10 UNL     1     -33.310  15.541  -3.756  1.00 20.00     0.099 C 
BRANCH   4   5
HETATM    5  C7  UNL     1     -34.813  15.342  -3.881  1.00 20.00     0.008 C 
HETATM    6  C5  UNL     1     -35.194  13.875  -4.091  1.00 20.00     0.013 C 
HETATM    7  C4  UNL     1     -36.655  13.922  -4.516  1.00 20.00     0.079 C 
HETATM    8  C3  UNL     1     -36.721  15.225  -5.269  1.00 20.00     0.131 C 
HETATM    9  C6  UNL     1     -35.491  16.086  -5.048  1.00 20.00     0.056 C 
HETATM   10  O11 UNL     1     -37.667  15.551  -5.976  1.00 20.00    -0.298 OA
HETATM   11  C9  UNL     1     -34.691  16.174  -6.339  1.00 20.00     0.018 C 
ENDBRANCH   4   5
ENDBRANCH   2   4
TORSDOF 2
ENDMDL
