MODEL 1
REMARK VINA RESULT:      -4.5      0.000      0.000
REMARK  1 active torsions:
REMARK  status: ('A' for Active; 'I' for Inactive)
REMARK    1  A    between atoms: C5_5  and  C9_9 
ROOT
HETATM    1  C1  UNL     1     -31.491  18.513  -0.734  1.00 20.00     0.012 C 
HETATM    2  C2  UNL     1     -32.207  18.150  -1.626  1.00 20.00    -0.117 C 
HETATM    3  C9  UNL     1     -33.082  17.715  -2.719  1.00 20.00     0.098 C 
ENDROOT
BRANCH   3   4
HETATM    4  C5  UNL     1     -33.478  16.250  -2.557  1.00 20.00     0.002 C 
HETATM    5  C3  UNL     1     -33.345  15.484  -3.887  1.00 20.00     0.007 C 
HETATM    6  C4  UNL     1     -34.601  14.624  -3.997  1.00 20.00     0.021 C 
HETATM    7  C7  UNL     1     -35.677  15.443  -3.294  1.00 20.00     0.086 C 
HETATM    8  C6  UNL     1     -34.923  15.981  -2.067  1.00 20.00     0.005 C 
HETATM    9 CL10 UNL     1     -36.285  16.728  -4.376  1.00 20.00    -0.125 Cl
HETATM   10  C8  UNL     1     -35.613  17.104  -1.305  1.00 20.00     0.012 C 
ENDBRANCH   3   4
TORSDOF 1
ENDMDL
MODEL 2
REMARK VINA RESULT:      -4.4      1.926      2.694
REMARK  1 active torsions:
REMARK  status: ('A' for Active; 'I' for Inactive)
REMARK    1  A    between atoms: C5_5  and  C9_9 
ROOT
HETATM    1  C1  UNL     1     -35.322  17.325   0.208  1.00 20.00     0.012 C 
HETATM    2  C2  UNL     1     -35.392  17.034  -0.954  1.00 20.00    -0.117 C 
HETATM    3  C9  UNL     1     -35.486  16.685  -2.375  1.00 20.00     0.098 C 
ENDROOT
BRANCH   3   4
HETATM    4  C5  UNL     1     -34.617  15.474  -2.702  1.00 20.00     0.002 C 
HETATM    5  C3  UNL     1     -33.221  15.902  -3.192  1.00 20.00     0.007 C 
HETATM    6  C4  UNL     1     -32.911  15.012  -4.393  1.00 20.00     0.021 C 
HETATM    7  C7  UNL     1     -34.274  14.750  -5.023  1.00 20.00     0.086 C 
HETATM    8  C6  UNL     1     -35.161  14.514  -3.790  1.00 20.00     0.005 C 
HETATM    9 CL10 UNL     1     -34.782  16.151  -6.008  1.00 20.00    -0.125 Cl
HETATM   10  C8  UNL     1     -36.663  14.536  -4.040  1.00 20.00     0.012 C 
ENDBRANCH   3   4
TORSDOF 1
ENDMDL
MODEL 3
REMARK VINA RESULT:      -4.4      1.735      3.623
REMARK  1 active torsions:
REMARK  status: ('A' for Active; 'I' for Inactive)
REMARK    1  A    between atoms: C5_5  and  C9_9 
ROOT
HETATM    1  C1  UNL     1     -34.015  15.187  -7.121  1.00 20.00     0.012 C 
HETATM    2  C2  UNL     1     -33.720  14.905  -5.993  1.00 20.00    -0.117 C 
HETATM    3  C9  UNL     1     -33.350  14.561  -4.616  1.00 20.00     0.098 C 
ENDROOT
BRANCH   3   4
HETATM    4  C5  UNL     1     -34.588  14.313  -3.760  1.00 20.00     0.002 C 
HETATM    5  C3  UNL     1     -35.826  14.032  -4.634  1.00 20.00     0.007 C 
HETATM    6  C4  UNL     1     -36.963  14.838  -4.015  1.00 20.00     0.021 C 
HETATM    7  C7  UNL     1     -36.275  16.068  -3.434  1.00 20.00     0.086 C 
HETATM    8  C6  UNL     1     -35.006  15.464  -2.810  1.00 20.00     0.005 C 
HETATM    9 CL10 UNL     1     -35.938  17.257  -4.723  1.00 20.00    -0.125 Cl
HETATM   10  C8  UNL     1     -33.924  16.459  -2.414  1.00 20.00     0.012 C 
ENDBRANCH   3   4
TORSDOF 1
ENDMDL
MODEL 4
REMARK VINA RESULT:      -4.4      1.486      2.725
REMARK  1 active torsions:
REMARK  status: ('A' for Active; 'I' for Inactive)
REMARK    1  A    between atoms: C5_5  and  C9_9 
ROOT
HETATM    1  C1  UNL     1     -32.990  17.197  -2.256  1.00 20.00     0.012 C 
HETATM    2  C2  UNL     1     -33.887  16.421  -2.441  1.00 20.00    -0.117 C 
HETATM    3  C9  UNL     1     -34.987  15.476  -2.659  1.00 20.00     0.098 C 
ENDROOT
BRANCH   3   4
HETATM    4  C5  UNL     1     -34.665  14.511  -3.795  1.00 20.00     0.002 C 
HETATM    5  C3  UNL     1     -33.507  15.036  -4.665  1.00 20.00     0.007 C 
HETATM    6  C4  UNL     1     -33.931  14.796  -6.111  1.00 20.00     0.021 C 
HETATM    7  C7  UNL     1     -35.449  14.941  -6.083  1.00 20.00     0.086 C 
HETATM    8  C6  UNL     1     -35.819  14.207  -4.784  1.00 20.00     0.005 C 
HETATM    9 CL10 UNL     1     -35.906  16.667  -6.081  1.00 20.00    -0.125 Cl
HETATM   10  C8  UNL     1     -37.238  14.432  -4.278  1.00 20.00     0.012 C 
ENDBRANCH   3   4
TORSDOF 1
ENDMDL
MODEL 5
REMARK VINA RESULT:      -4.1      1.780      2.476
REMARK  1 active torsions:
REMARK  status: ('A' for Active; 'I' for Inactive)
REMARK    1  A    between atoms: C5_5  and  C9_9 
ROOT
HETATM    1  C1  UNL     1     -32.958  17.635  -1.637  1.00 20.00     0.012 C 
HETATM    2  C2  UNL     1     -33.196  16.840  -2.503  1.00 20.00    -0.117 C 
HETATM    3  C9  UNL     1     -33.477  15.869  -3.566  1.00 20.00     0.098 C 
ENDROOT
BRANCH   3   4
HETATM    4  C5  UNL     1     -34.923  15.385  -3.499  1.00 20.00     0.002 C 
HETATM    5  C3  UNL     1     -35.025  13.880  -3.810  1.00 20.00     0.007 C 
HETATM    6  C4  UNL     1     -36.220  13.729  -4.746  1.00 20.00     0.021 C 
HETATM    7  C7  UNL     1     -36.235  15.028  -5.544  1.00 20.00     0.086 C 
HETATM    8  C6  UNL     1     -35.921  16.075  -4.463  1.00 20.00     0.005 C 
HETATM    9 CL10 UNL     1     -35.018  14.967  -6.850  1.00 20.00    -0.125 Cl
HETATM   10  C8  UNL     1     -35.544  17.460  -4.971  1.00 20.00     0.012 C 
ENDBRANCH   3   4
TORSDOF 1
ENDMDL
MODEL 6
REMARK VINA RESULT:      -4.1     14.337     16.503
REMARK  1 active torsions:
REMARK  status: ('A' for Active; 'I' for Inactive)
REMARK    1  A    between atoms: C5_5  and  C9_9 
ROOT
HETATM    1  C1  UNL     1     -24.458  19.253   6.793  1.00 20.00     0.012 C 
HETATM    2  C2  UNL     1     -24.895  18.929   7.862  1.00 20.00    -0.117 C 
HETATM    3  C9  UNL     1     -25.438  18.530   9.165  1.00 20.00     0.098 C 
ENDROOT
BRANCH   3   4
HETATM    4  C5  UNL     1     -24.466  18.867  10.291  1.00 20.00     0.002 C 
HETATM    5  C3  UNL     1     -23.104  18.178  10.081  1.00 20.00     0.007 C 
HETATM    6  C4  UNL     1     -22.704  17.623  11.444  1.00 20.00     0.021 C 
HETATM    7  C7  UNL     1     -24.031  17.272  12.108  1.00 20.00     0.086 C 
HETATM    8  C6  UNL     1     -24.912  18.472  11.722  1.00 20.00     0.005 C 
HETATM    9 CL10 UNL     1     -24.641  15.712  11.489  1.00 20.00    -0.125 Cl
HETATM   10  C8  UNL     1     -26.406  18.298  11.955  1.00 20.00     0.012 C 
ENDBRANCH   3   4
TORSDOF 1
ENDMDL
MODEL 7
REMARK VINA RESULT:      -4.0      1.973      4.562
REMARK  1 active torsions:
REMARK  status: ('A' for Active; 'I' for Inactive)
REMARK    1  A    between atoms: C5_5  and  C9_9 
ROOT
HETATM    1  C1  UNL     1     -38.149  15.062  -4.165  1.00 20.00     0.012 C 
HETATM    2  C2  UNL     1     -37.147  14.432  -4.361  1.00 20.00    -0.117 C 
HETATM    3  C9  UNL     1     -35.927  13.655  -4.604  1.00 20.00     0.098 C 
ENDROOT
BRANCH   3   4
HETATM    4  C5  UNL     1     -34.722  14.297  -3.925  1.00 20.00     0.002 C 
HETATM    5  C3  UNL     1     -35.156  15.229  -2.777  1.00 20.00     0.007 C 
HETATM    6  C4  UNL     1     -34.305  16.487  -2.918  1.00 20.00     0.021 C 
HETATM    7  C7  UNL     1     -34.074  16.613  -4.420  1.00 20.00     0.086 C 
HETATM    8  C6  UNL     1     -33.803  15.157  -4.829  1.00 20.00     0.005 C 
HETATM    9 CL10 UNL     1     -35.511  17.320  -5.211  1.00 20.00    -0.125 Cl
HETATM   10  C8  UNL     1     -33.843  14.870  -6.324  1.00 20.00     0.012 C 
ENDBRANCH   3   4
TORSDOF 1
ENDMDL
MODEL 8
REMARK VINA RESULT:      -4.0      1.507      3.578
REMARK  1 active torsions:
REMARK  status: ('A' for Active; 'I' for Inactive)
REMARK    1  A    between atoms: C5_5  and  C9_9 
ROOT
HETATM    1  C1  UNL     1     -34.295  15.047  -6.636  1.00 20.00     0.012 C 
HETATM    2  C2  UNL     1     -33.917  14.947  -5.501  1.00 20.00    -0.117 C 
HETATM    3  C9  UNL     1     -33.447  14.820  -4.118  1.00 20.00     0.098 C 
ENDROOT
BRANCH   3   4
HETATM    4  C5  UNL     1     -34.542  15.204  -3.128  1.00 20.00     0.002 C 
HETATM    5  C3  UNL     1     -35.922  15.258  -3.812  1.00 20.00     0.007 C 
HETATM    6  C4  UNL     1     -36.594  16.525  -3.292  1.00 20.00     0.021 C 
HETATM    7  C7  UNL     1     -35.437  17.490  -3.053  1.00 20.00     0.086 C 
HETATM    8  C6  UNL     1     -34.377  16.573  -2.421  1.00 20.00     0.005 C 
HETATM    9 CL10 UNL     1     -34.915  18.225  -4.595  1.00 20.00    -0.125 Cl
HETATM   10  C8  UNL     1     -32.968  17.144  -2.344  1.00 20.00     0.012 C 
ENDBRANCH   3   4
TORSDOF 1
ENDMDL
MODEL 9
REMARK VINA RESULT:      -4.0      1.757      2.832
REMARK  1 active torsions:
REMARK  status: ('A' for Active; 'I' for Inactive)
REMARK    1  A    between atoms: C5_5  and  C9_9 
ROOT
HETATM    1  C1  UNL     1     -32.691  17.859  -1.506  1.00 20.00     0.012 C 
HETATM    2  C2  UNL     1     -33.508  17.116  -1.975  1.00 20.00    -0.117 C 
HETATM    3  C9  UNL     1     -34.508  16.204  -2.540  1.00 20.00     0.098 C 
ENDROOT
BRANCH   3   4
HETATM    4  C5  UNL     1     -34.702  16.456  -4.032  1.00 20.00     0.002 C 
HETATM    5  C3  UNL     1     -36.193  16.622  -4.383  1.00 20.00     0.007 C 
HETATM    6  C4  UNL     1     -36.412  15.811  -5.657  1.00 20.00     0.021 C 
HETATM    7  C7  UNL     1     -35.424  14.656  -5.538  1.00 20.00     0.086 C 
HETATM    8  C6  UNL     1     -34.172  15.358  -4.987  1.00 20.00     0.005 C 
HETATM    9 CL10 UNL     1     -36.070  13.396  -4.450  1.00 20.00    -0.125 Cl
HETATM   10  C8  UNL     1     -33.082  14.442  -4.447  1.00 20.00     0.012 C 
ENDBRANCH   3   4
TORSDOF 1
ENDMDL
