MODEL 1
REMARK VINA RESULT:      -4.2      0.000      0.000
REMARK  3 active torsions:
REMARK  status: ('A' for Active; 'I' for Inactive)
REMARK    1  A    between atoms: C1_1  and  C4_4 
REMARK    2  A    between atoms: C1_1  and  C6_6 
REMARK    3  A    between atoms: N7_7  and  O8_8 
ROOT
HETATM    1  C1  UNL     1     -35.212  14.500  -5.107  1.00 20.00     0.043 C 
HETATM    2  N7  UNL     1     -36.025  13.517  -5.354  1.00 20.00    -0.145 NA
ENDROOT
BRANCH   1   3
HETATM    3  C4  UNL     1     -34.477  14.494  -3.789  1.00 20.00     0.036 A 
HETATM    4  C2  UNL     1     -33.498  15.579  -3.533  1.00 20.00     0.011 A 
HETATM    5  C3  UNL     1     -34.808  15.555  -2.805  1.00 20.00     0.011 A 
ENDBRANCH   1   3
BRANCH   1   6
HETATM    6  C6  UNL     1     -34.969  15.680  -6.030  1.00 20.00     0.053 C 
HETATM    7  C5  UNL     1     -34.095  15.273  -7.202  1.00 20.00     0.011 C 
ENDBRANCH   1   6
BRANCH   2   8
HETATM    8  O8  UNL     1     -36.059  12.605  -4.298  1.00 20.00    -0.266 OA
HETATM    9  H19 UNL     1     -35.997  13.196  -3.529  1.00 20.00     0.247 HD
ENDBRANCH   2   8
TORSDOF 3
ENDMDL
MODEL 2
REMARK VINA RESULT:      -4.2     11.658     12.478
REMARK  3 active torsions:
REMARK  status: ('A' for Active; 'I' for Inactive)
REMARK    1  A    between atoms: C1_1  and  C4_4 
REMARK    2  A    between atoms: C1_1  and  C6_6 
REMARK    3  A    between atoms: N7_7  and  O8_8 
ROOT
HETATM    1  C1  UNL     1     -33.487   5.946   3.635  1.00 20.00     0.043 C 
HETATM    2  N7  UNL     1     -33.483   4.786   3.051  1.00 20.00    -0.145 NA
ENDROOT
BRANCH   1   3
HETATM    3  C4  UNL     1     -34.518   6.190   4.710  1.00 20.00     0.036 A 
HETATM    4  C2  UNL     1     -34.412   5.408   5.967  1.00 20.00     0.011 A 
HETATM    5  C3  UNL     1     -34.075   6.869   5.954  1.00 20.00     0.011 A 
ENDBRANCH   1   3
BRANCH   1   6
HETATM    6  C6  UNL     1     -32.554   7.094   3.296  1.00 20.00     0.053 C 
HETATM    7  C5  UNL     1     -32.578   7.382   1.806  1.00 20.00     0.011 C 
ENDBRANCH   1   6
BRANCH   2   8
HETATM    8  O8  UNL     1     -34.483   3.955   3.557  1.00 20.00    -0.266 OA
HETATM    9  H19 UNL     1     -34.842   3.563   2.744  1.00 20.00     0.247 HD
ENDBRANCH   2   8
TORSDOF 3
ENDMDL
MODEL 3
REMARK VINA RESULT:      -4.1     17.050     18.221
REMARK  3 active torsions:
REMARK  status: ('A' for Active; 'I' for Inactive)
REMARK    1  A    between atoms: C1_1  and  C4_4 
REMARK    2  A    between atoms: C1_1  and  C6_6 
REMARK    3  A    between atoms: N7_7  and  O8_8 
ROOT
HETATM    1  C1  UNL     1     -23.022  18.057   8.323  1.00 20.00     0.043 C 
HETATM    2  N7  UNL     1     -22.424  17.881   7.183  1.00 20.00    -0.145 NA
ENDROOT
BRANCH   1   3
HETATM    3  C4  UNL     1     -22.774  17.045   9.414  1.00 20.00     0.036 A 
HETATM    4  C2  UNL     1     -22.841  17.509  10.822  1.00 20.00     0.011 A 
HETATM    5  C3  UNL     1     -23.926  16.640  10.259  1.00 20.00     0.011 A 
ENDBRANCH   1   3
BRANCH   1   6
HETATM    6  C6  UNL     1     -23.984  19.190   8.634  1.00 20.00     0.053 C 
HETATM    7  C5  UNL     1     -25.180  19.149   7.702  1.00 20.00     0.011 C 
ENDBRANCH   1   6
BRANCH   2   8
HETATM    8  O8  UNL     1     -21.632  16.732   7.194  1.00 20.00    -0.266 OA
HETATM    9  H19 UNL     1     -20.771  17.092   7.463  1.00 20.00     0.247 HD
ENDBRANCH   2   8
TORSDOF 3
ENDMDL
MODEL 4
REMARK VINA RESULT:      -4.1      1.622      1.785
REMARK  3 active torsions:
REMARK  status: ('A' for Active; 'I' for Inactive)
REMARK    1  A    between atoms: C1_1  and  C4_4 
REMARK    2  A    between atoms: C1_1  and  C6_6 
REMARK    3  A    between atoms: N7_7  and  O8_8 
ROOT
HETATM    1  C1  UNL     1     -36.327  14.608  -4.113  1.00 20.00     0.043 C 
HETATM    2  N7  UNL     1     -36.803  13.476  -4.538  1.00 20.00    -0.145 NA
ENDROOT
BRANCH   1   3
HETATM    3  C4  UNL     1     -34.975  14.597  -3.442  1.00 20.00     0.036 A 
HETATM    4  C2  UNL     1     -33.965  15.585  -3.896  1.00 20.00     0.011 A 
HETATM    5  C3  UNL     1     -34.629  15.742  -2.561  1.00 20.00     0.011 A 
ENDBRANCH   1   3
BRANCH   1   6
HETATM    6  C6  UNL     1     -37.043  15.943  -4.206  1.00 20.00     0.053 C 
HETATM    7  C5  UNL     1     -37.231  16.351  -5.656  1.00 20.00     0.011 C 
ENDBRANCH   1   6
BRANCH   2   8
HETATM    8  O8  UNL     1     -35.926  12.423  -4.276  1.00 20.00    -0.266 OA
HETATM    9  H19 UNL     1     -36.532  11.664  -4.264  1.00 20.00     0.247 HD
ENDBRANCH   2   8
TORSDOF 3
ENDMDL
MODEL 5
REMARK VINA RESULT:      -4.1      2.501      2.798
REMARK  3 active torsions:
REMARK  status: ('A' for Active; 'I' for Inactive)
REMARK    1  A    between atoms: C1_1  and  C4_4 
REMARK    2  A    between atoms: C1_1  and  C6_6 
REMARK    3  A    between atoms: N7_7  and  O8_8 
ROOT
HETATM    1  C1  UNL     1     -33.959  14.904  -3.888  1.00 20.00     0.043 C 
HETATM    2  N7  UNL     1     -33.291  14.045  -4.597  1.00 20.00    -0.145 NA
ENDROOT
BRANCH   1   3
HETATM    3  C4  UNL     1     -33.191  16.021  -3.223  1.00 20.00     0.036 A 
HETATM    4  C2  UNL     1     -33.633  17.415  -3.476  1.00 20.00     0.011 A 
HETATM    5  C3  UNL     1     -33.867  16.777  -2.139  1.00 20.00     0.011 A 
ENDBRANCH   1   3
BRANCH   1   6
HETATM    6  C6  UNL     1     -35.457  14.853  -3.644  1.00 20.00     0.053 C 
HETATM    7  C5  UNL     1     -36.098  13.756  -4.473  1.00 20.00     0.011 C 
ENDBRANCH   1   6
BRANCH   2   8
HETATM    8  O8  UNL     1     -31.927  14.339  -4.603  1.00 20.00    -0.266 OA
HETATM    9  H19 UNL     1     -31.705  14.216  -5.540  1.00 20.00     0.247 HD
ENDBRANCH   2   8
TORSDOF 3
ENDMDL
MODEL 6
REMARK VINA RESULT:      -4.0      0.901      2.855
REMARK  3 active torsions:
REMARK  status: ('A' for Active; 'I' for Inactive)
REMARK    1  A    between atoms: C1_1  and  C4_4 
REMARK    2  A    between atoms: C1_1  and  C6_6 
REMARK    3  A    between atoms: N7_7  and  O8_8 
ROOT
HETATM    1  C1  UNL     1     -34.454  14.462  -4.438  1.00 20.00     0.043 C 
HETATM    2  N7  UNL     1     -34.903  13.361  -3.914  1.00 20.00    -0.145 NA
ENDROOT
BRANCH   1   3
HETATM    3  C4  UNL     1     -35.003  14.880  -5.779  1.00 20.00     0.036 A 
HETATM    4  C2  UNL     1     -34.711  16.257  -6.252  1.00 20.00     0.011 A 
HETATM    5  C3  UNL     1     -34.040  15.078  -6.892  1.00 20.00     0.011 A 
ENDBRANCH   1   3
BRANCH   1   6
HETATM    6  C6  UNL     1     -33.387  15.347  -3.819  1.00 20.00     0.053 C 
HETATM    7  C5  UNL     1     -33.929  16.067  -2.598  1.00 20.00     0.011 C 
ENDBRANCH   1   6
BRANCH   2   8
HETATM    8  O8  UNL     1     -35.852  12.754  -4.737  1.00 20.00    -0.266 OA
HETATM    9  H19 UNL     1     -36.670  13.193  -4.450  1.00 20.00     0.247 HD
ENDBRANCH   2   8
TORSDOF 3
ENDMDL
MODEL 7
REMARK VINA RESULT:      -3.9      1.950      2.344
REMARK  3 active torsions:
REMARK  status: ('A' for Active; 'I' for Inactive)
REMARK    1  A    between atoms: C1_1  and  C4_4 
REMARK    2  A    between atoms: C1_1  and  C6_6 
REMARK    3  A    between atoms: N7_7  and  O8_8 
ROOT
HETATM    1  C1  UNL     1     -34.803  15.118  -4.733  1.00 20.00     0.043 C 
HETATM    2  N7  UNL     1     -34.194  14.649  -5.781  1.00 20.00    -0.145 NA
ENDROOT
BRANCH   1   3
HETATM    3  C4  UNL     1     -34.017  15.229  -3.450  1.00 20.00     0.036 A 
HETATM    4  C2  UNL     1     -33.503  16.566  -3.062  1.00 20.00     0.011 A 
HETATM    5  C3  UNL     1     -34.644  15.947  -2.312  1.00 20.00     0.011 A 
ENDBRANCH   1   3
BRANCH   1   6
HETATM    6  C6  UNL     1     -36.263  15.533  -4.689  1.00 20.00     0.053 C 
HETATM    7  C5  UNL     1     -37.154  14.331  -4.439  1.00 20.00     0.011 C 
ENDBRANCH   1   6
BRANCH   2   8
HETATM    8  O8  UNL     1     -32.867  14.324  -5.497  1.00 20.00    -0.266 OA
HETATM    9  H19 UNL     1     -32.397  15.095  -5.856  1.00 20.00     0.247 HD
ENDBRANCH   2   8
TORSDOF 3
ENDMDL
MODEL 8
REMARK VINA RESULT:      -3.8     11.268     12.303
REMARK  3 active torsions:
REMARK  status: ('A' for Active; 'I' for Inactive)
REMARK    1  A    between atoms: C1_1  and  C4_4 
REMARK    2  A    between atoms: C1_1  and  C6_6 
REMARK    3  A    between atoms: N7_7  and  O8_8 
ROOT
HETATM    1  C1  UNL     1     -33.643   5.825   3.627  1.00 20.00     0.043 C 
HETATM    2  N7  UNL     1     -34.121   4.658   3.315  1.00 20.00    -0.145 NA
ENDROOT
BRANCH   1   3
HETATM    3  C4  UNL     1     -32.509   6.369   2.792  1.00 20.00     0.036 A 
HETATM    4  C2  UNL     1     -32.740   7.628   2.041  1.00 20.00     0.011 A 
HETATM    5  C3  UNL     1     -31.851   7.620   3.248  1.00 20.00     0.011 A 
ENDBRANCH   1   3
BRANCH   1   6
HETATM    6  C6  UNL     1     -34.114   6.675   4.793  1.00 20.00     0.053 C 
HETATM    7  C5  UNL     1     -34.563   5.799   5.948  1.00 20.00     0.011 C 
ENDBRANCH   1   6
BRANCH   2   8
HETATM    8  O8  UNL     1     -33.457   4.112   2.216  1.00 20.00    -0.266 OA
HETATM    9  H19 UNL     1     -34.192   3.966   1.598  1.00 20.00     0.247 HD
ENDBRANCH   2   8
TORSDOF 3
ENDMDL
MODEL 9
REMARK VINA RESULT:      -3.8     19.005     19.442
REMARK  3 active torsions:
REMARK  status: ('A' for Active; 'I' for Inactive)
REMARK    1  A    between atoms: C1_1  and  C4_4 
REMARK    2  A    between atoms: C1_1  and  C6_6 
REMARK    3  A    between atoms: N7_7  and  O8_8 
ROOT
HETATM    1  C1  UNL     1     -24.205  17.506  11.029  1.00 20.00     0.043 C 
HETATM    2  N7  UNL     1     -24.486  16.607  11.923  1.00 20.00    -0.145 NA
ENDROOT
BRANCH   1   3
HETATM    3  C4  UNL     1     -22.811  17.515  10.451  1.00 20.00     0.036 A 
HETATM    4  C2  UNL     1     -22.635  17.053   9.052  1.00 20.00     0.011 A 
HETATM    5  C3  UNL     1     -22.507  18.508   9.391  1.00 20.00     0.011 A 
ENDBRANCH   1   3
BRANCH   1   6
HETATM    6  C6  UNL     1     -25.164  18.578  10.542  1.00 20.00     0.053 C 
HETATM    7  C5  UNL     1     -26.058  19.051  11.673  1.00 20.00     0.011 C 
ENDBRANCH   1   6
BRANCH   2   8
HETATM    8  O8  UNL     1     -23.388  15.787  12.186  1.00 20.00    -0.266 OA
HETATM    9  H19 UNL     1     -23.021  15.661  11.295  1.00 20.00     0.247 HD
ENDBRANCH   2   8
TORSDOF 3
ENDMDL
