MODEL 1
REMARK VINA RESULT:      -4.8      0.000      0.000
REMARK  2 active torsions:
REMARK  status: ('A' for Active; 'I' for Inactive)
REMARK    1  A    between atoms: C1_1  and  N11_11 
REMARK    2  A    between atoms: C7_7  and  C10_10 
ROOT
HETATM    1  C2  UNL     1     -33.193  15.303  -3.811  1.00 20.00     0.020 C 
HETATM    2  C3  UNL     1     -33.310  16.801  -3.530  1.00 20.00     0.006 C 
HETATM    3  C4  UNL     1     -35.836  16.516  -2.918  1.00 20.00     0.025 C 
HETATM    4  C5  UNL     1     -34.047  14.853  -4.996  1.00 20.00     0.125 C 
HETATM    5  C6  UNL     1     -36.102  16.154  -4.375  1.00 20.00     0.125 C 
HETATM    6  C7  UNL     1     -34.501  17.233  -2.656  1.00 20.00    -0.010 C 
HETATM    7  N11 UNL     1     -35.478  14.877  -4.717  1.00 20.00    -0.359 N 
ENDROOT
BRANCH   6   8
HETATM    8  C10 UNL     1     -34.150  17.128  -1.167  1.00 20.00    -0.019 C 
HETATM    9  C8  UNL     1     -33.227  18.272  -0.758  1.00 20.00     0.010 C 
HETATM   10  C9  UNL     1     -35.419  17.128  -0.322  1.00 20.00     0.010 C 
ENDBRANCH   6   8
BRANCH   7  11
HETATM   11  C1  UNL     1     -36.216  13.701  -4.687  1.00 20.00     0.350 C 
HETATM   12  O12 UNL     1     -35.803  12.567  -4.473  1.00 20.00    -0.284 OA
ENDBRANCH   7  11
TORSDOF 2
ENDMDL
MODEL 2
REMARK VINA RESULT:      -4.7      1.542      1.838
REMARK  2 active torsions:
REMARK  status: ('A' for Active; 'I' for Inactive)
REMARK    1  A    between atoms: C1_1  and  N11_11 
REMARK    2  A    between atoms: C7_7  and  C10_10 
ROOT
HETATM    1  C2  UNL     1     -34.816  13.972  -3.816  1.00 20.00     0.020 C 
HETATM    2  C3  UNL     1     -33.739  15.002  -4.157  1.00 20.00     0.006 C 
HETATM    3  C4  UNL     1     -35.471  16.942  -3.882  1.00 20.00     0.025 C 
HETATM    4  C5  UNL     1     -35.938  13.921  -4.853  1.00 20.00     0.125 C 
HETATM    5  C6  UNL     1     -36.200  16.405  -5.108  1.00 20.00     0.125 C 
HETATM    6  C7  UNL     1     -34.023  16.448  -3.714  1.00 20.00    -0.010 C 
HETATM    7  N11 UNL     1     -36.796  15.100  -4.830  1.00 20.00    -0.359 N 
ENDROOT
BRANCH   6   8
HETATM    8  C10 UNL     1     -33.574  16.672  -2.265  1.00 20.00    -0.019 C 
HETATM    9  C8  UNL     1     -32.667  17.895  -2.174  1.00 20.00     0.010 C 
HETATM   10  C9  UNL     1     -34.785  16.827  -1.352  1.00 20.00     0.010 C 
ENDBRANCH   6   8
BRANCH   7  11
HETATM   11  C1  UNL     1     -38.132  14.999  -4.462  1.00 20.00     0.350 C 
HETATM   12  O12 UNL     1     -38.814  13.982  -4.403  1.00 20.00    -0.284 OA
ENDBRANCH   7  11
TORSDOF 2
ENDMDL
MODEL 3
REMARK VINA RESULT:      -4.7      3.242      5.211
REMARK  2 active torsions:
REMARK  status: ('A' for Active; 'I' for Inactive)
REMARK    1  A    between atoms: C1_1  and  N11_11 
REMARK    2  A    between atoms: C7_7  and  C10_10 
ROOT
HETATM    1  C2  UNL     1     -34.950  17.122  -0.595  1.00 20.00     0.020 C 
HETATM    2  C3  UNL     1     -35.446  17.151  -2.041  1.00 20.00     0.006 C 
HETATM    3  C4  UNL     1     -32.983  17.052  -2.914  1.00 20.00     0.025 C 
HETATM    4  C5  UNL     1     -34.135  18.360  -0.222  1.00 20.00     0.125 C 
HETATM    5  C6  UNL     1     -32.765  18.441  -2.325  1.00 20.00     0.125 C 
HETATM    6  C7  UNL     1     -34.454  16.646  -3.105  1.00 20.00    -0.010 C 
HETATM    7  N11 UNL     1     -32.827  18.403  -0.864  1.00 20.00    -0.359 N 
ENDROOT
BRANCH   6   8
HETATM    8  C10 UNL     1     -34.547  15.123  -3.256  1.00 20.00    -0.019 C 
HETATM    9  C8  UNL     1     -35.929  14.723  -3.761  1.00 20.00     0.010 C 
HETATM   10  C9  UNL     1     -33.459  14.617  -4.198  1.00 20.00     0.010 C 
ENDBRANCH   6   8
BRANCH   7  11
HETATM   11  C1  UNL     1     -31.663  18.316  -0.112  1.00 20.00     0.350 C 
HETATM   12  O12 UNL     1     -30.508  18.392  -0.514  1.00 20.00    -0.284 OA
ENDBRANCH   7  11
TORSDOF 2
ENDMDL
MODEL 4
REMARK VINA RESULT:      -4.7      1.379      2.503
REMARK  2 active torsions:
REMARK  status: ('A' for Active; 'I' for Inactive)
REMARK    1  A    between atoms: C1_1  and  N11_11 
REMARK    2  A    between atoms: C7_7  and  C10_10 
ROOT
HETATM    1  C2  UNL     1     -36.139  16.408  -3.021  1.00 20.00     0.020 C 
HETATM    2  C3  UNL     1     -35.102  16.261  -1.907  1.00 20.00     0.006 C 
HETATM    3  C4  UNL     1     -33.221  15.846  -3.677  1.00 20.00     0.025 C 
HETATM    4  C5  UNL     1     -36.342  15.119  -3.817  1.00 20.00     0.125 C 
HETATM    5  C6  UNL     1     -33.911  14.534  -4.035  1.00 20.00     0.125 C 
HETATM    6  C7  UNL     1     -33.632  16.451  -2.323  1.00 20.00    -0.010 C 
HETATM    7  N11 UNL     1     -35.206  14.782  -4.666  1.00 20.00    -0.359 N 
ENDROOT
BRANCH   6   8
HETATM    8  C10 UNL     1     -33.244  17.934  -2.290  1.00 20.00    -0.019 C 
HETATM    9  C8  UNL     1     -32.062  18.152  -1.351  1.00 20.00     0.010 C 
HETATM   10  C9  UNL     1     -32.918  18.429  -3.694  1.00 20.00     0.010 C 
ENDBRANCH   6   8
BRANCH   7  11
HETATM   11  C1  UNL     1     -35.328  14.784  -6.050  1.00 20.00     0.350 C 
HETATM   12  O12 UNL     1     -35.956  13.993  -6.744  1.00 20.00    -0.284 OA
ENDBRANCH   7  11
TORSDOF 2
ENDMDL
MODEL 5
REMARK VINA RESULT:      -4.7     17.099     18.083
REMARK  2 active torsions:
REMARK  status: ('A' for Active; 'I' for Inactive)
REMARK    1  A    between atoms: C1_1  and  N11_11 
REMARK    2  A    between atoms: C7_7  and  C10_10 
ROOT
HETATM    1  C2  UNL     1     -22.044  17.416  11.678  1.00 20.00     0.020 C 
HETATM    2  C3  UNL     1     -23.137  18.261  12.332  1.00 20.00     0.006 C 
HETATM    3  C4  UNL     1     -24.619  18.054  10.187  1.00 20.00     0.025 C 
HETATM    4  C5  UNL     1     -21.423  18.092  10.455  1.00 20.00     0.125 C 
HETATM    5  C6  UNL     1     -23.579  18.885   9.443  1.00 20.00     0.125 C 
HETATM    6  C7  UNL     1     -24.544  18.136  11.722  1.00 20.00    -0.010 C 
HETATM    7  N11 UNL     1     -22.322  18.150   9.310  1.00 20.00    -0.359 N 
ENDROOT
BRANCH   6   8
HETATM    8  C10 UNL     1     -25.299  16.949  12.332  1.00 20.00    -0.019 C 
HETATM    9  C8  UNL     1     -26.802  17.207  12.307  1.00 20.00     0.010 C 
HETATM   10  C9  UNL     1     -24.958  15.664  11.587  1.00 20.00     0.010 C 
ENDBRANCH   6   8
BRANCH   7  11
HETATM   11  C1  UNL     1     -22.037  17.446   8.146  1.00 20.00     0.350 C 
HETATM   12  O12 UNL     1     -22.322  17.761   6.997  1.00 20.00    -0.284 OA
ENDBRANCH   7  11
TORSDOF 2
ENDMDL
MODEL 6
REMARK VINA RESULT:      -4.5      1.852      2.823
REMARK  2 active torsions:
REMARK  status: ('A' for Active; 'I' for Inactive)
REMARK    1  A    between atoms: C1_1  and  N11_11 
REMARK    2  A    between atoms: C7_7  and  C10_10 
ROOT
HETATM    1  C2  UNL     1     -36.093  15.838  -4.221  1.00 20.00     0.020 C 
HETATM    2  C3  UNL     1     -35.541  15.474  -2.843  1.00 20.00     0.006 C 
HETATM    3  C4  UNL     1     -33.093  15.728  -3.726  1.00 20.00     0.025 C 
HETATM    4  C5  UNL     1     -35.735  14.809  -5.294  1.00 20.00     0.125 C 
HETATM    5  C6  UNL     1     -33.336  14.515  -4.617  1.00 20.00     0.125 C 
HETATM    6  C7  UNL     1     -34.087  15.896  -2.564  1.00 20.00    -0.010 C 
HETATM    7  N11 UNL     1     -34.322  14.818  -5.652  1.00 20.00    -0.359 N 
ENDROOT
BRANCH   6   8
HETATM    8  C10 UNL     1     -34.028  17.338  -2.047  1.00 20.00    -0.019 C 
HETATM    9  C8  UNL     1     -34.795  17.463  -0.735  1.00 20.00     0.010 C 
HETATM   10  C9  UNL     1     -32.579  17.780  -1.872  1.00 20.00     0.010 C 
ENDBRANCH   6   8
BRANCH   7  11
HETATM   11  C1  UNL     1     -33.915  15.195  -6.926  1.00 20.00     0.350 C 
HETATM   12  O12 UNL     1     -34.045  16.292  -7.456  1.00 20.00    -0.284 OA
ENDBRANCH   7  11
TORSDOF 2
ENDMDL
MODEL 7
REMARK VINA RESULT:      -4.1      1.574      2.479
REMARK  2 active torsions:
REMARK  status: ('A' for Active; 'I' for Inactive)
REMARK    1  A    between atoms: C1_1  and  N11_11 
REMARK    2  A    between atoms: C7_7  and  C10_10 
ROOT
HETATM    1  C2  UNL     1     -36.088  17.314  -4.429  1.00 20.00     0.020 C 
HETATM    2  C3  UNL     1     -36.250  16.848  -2.983  1.00 20.00     0.006 C 
HETATM    3  C4  UNL     1     -34.679  14.807  -3.437  1.00 20.00     0.025 C 
HETATM    4  C5  UNL     1     -36.670  16.327  -5.440  1.00 20.00     0.125 C 
HETATM    5  C6  UNL     1     -35.747  14.251  -4.373  1.00 20.00     0.125 C 
HETATM    6  C7  UNL     1     -35.168  15.888  -2.457  1.00 20.00    -0.010 C 
HETATM    7  N11 UNL     1     -35.895  15.097  -5.555  1.00 20.00    -0.359 N 
ENDROOT
BRANCH   6   8
HETATM    8  C10 UNL     1     -33.963  16.669  -1.918  1.00 20.00    -0.019 C 
HETATM    9  C8  UNL     1     -32.918  16.854  -3.013  1.00 20.00     0.010 C 
HETATM   10  C9  UNL     1     -34.410  18.016  -1.362  1.00 20.00     0.010 C 
ENDBRANCH   6   8
BRANCH   7  11
HETATM   11  C1  UNL     1     -35.236  14.780  -6.737  1.00 20.00     0.350 C 
HETATM   12  O12 UNL     1     -34.027  14.763  -6.933  1.00 20.00    -0.284 OA
ENDBRANCH   7  11
TORSDOF 2
ENDMDL
MODEL 8
REMARK VINA RESULT:      -4.1      1.587      1.902
REMARK  2 active torsions:
REMARK  status: ('A' for Active; 'I' for Inactive)
REMARK    1  A    between atoms: C1_1  and  N11_11 
REMARK    2  A    between atoms: C7_7  and  C10_10 
ROOT
HETATM    1  C2  UNL     1     -34.543  14.494  -3.924  1.00 20.00     0.020 C 
HETATM    2  C3  UNL     1     -33.245  15.301  -3.916  1.00 20.00     0.006 C 
HETATM    3  C4  UNL     1     -34.597  17.531  -4.106  1.00 20.00     0.025 C 
HETATM    4  C5  UNL     1     -35.310  14.617  -5.241  1.00 20.00     0.125 C 
HETATM    5  C6  UNL     1     -35.028  17.097  -5.503  1.00 20.00     0.125 C 
HETATM    6  C7  UNL     1     -33.375  16.788  -3.540  1.00 20.00    -0.010 C 
HETATM    7  N11 UNL     1     -35.908  15.931  -5.439  1.00 20.00    -0.359 N 
ENDROOT
BRANCH   6   8
HETATM    8  C10 UNL     1     -33.328  16.971  -2.018  1.00 20.00    -0.019 C 
HETATM    9  C8  UNL     1     -32.374  18.103  -1.650  1.00 20.00     0.010 C 
HETATM   10  C9  UNL     1     -34.726  17.241  -1.473  1.00 20.00     0.010 C 
ENDBRANCH   6   8
BRANCH   7  11
HETATM   11  C1  UNL     1     -37.288  16.086  -5.474  1.00 20.00     0.350 C 
HETATM   12  O12 UNL     1     -38.139  15.225  -5.286  1.00 20.00    -0.284 OA
ENDBRANCH   7  11
TORSDOF 2
ENDMDL
MODEL 9
REMARK VINA RESULT:      -3.9      3.001      4.549
REMARK  2 active torsions:
REMARK  status: ('A' for Active; 'I' for Inactive)
REMARK    1  A    between atoms: C1_1  and  N11_11 
REMARK    2  A    between atoms: C7_7  and  C10_10 
ROOT
HETATM    1  C2  UNL     1     -33.596  18.442  -3.133  1.00 20.00     0.020 C 
HETATM    2  C3  UNL     1     -32.949  17.101  -2.788  1.00 20.00     0.006 C 
HETATM    3  C4  UNL     1     -35.240  16.190  -1.915  1.00 20.00     0.025 C 
HETATM    4  C5  UNL     1     -34.105  19.190  -1.900  1.00 20.00     0.125 C 
HETATM    5  C6  UNL     1     -35.160  17.206  -0.781  1.00 20.00     0.125 C 
HETATM    6  C7  UNL     1     -33.909  15.907  -2.634  1.00 20.00    -0.010 C 
HETATM    7  N11 UNL     1     -35.277  18.570  -1.294  1.00 20.00    -0.359 N 
ENDROOT
BRANCH   6   8
HETATM    8  C10 UNL     1     -34.193  15.257  -3.993  1.00 20.00    -0.019 C 
HETATM    9  C8  UNL     1     -32.975  14.471  -4.469  1.00 20.00     0.010 C 
HETATM   10  C9  UNL     1     -35.418  14.355  -3.904  1.00 20.00     0.010 C 
ENDBRANCH   6   8
BRANCH   7  11
HETATM   11  C1  UNL     1     -36.502  19.224  -1.285  1.00 20.00     0.350 C 
HETATM   12  O12 UNL     1     -37.372  19.164  -0.424  1.00 20.00    -0.284 OA
ENDBRANCH   7  11
TORSDOF 2
ENDMDL
