MODEL 1
REMARK VINA RESULT:      -4.4      0.000      0.000
REMARK  4 active torsions:
REMARK  status: ('A' for Active; 'I' for Inactive)
REMARK    1  A    between atoms: C3_3  and  C5_5 
REMARK    2  A    between atoms: C5_5  and  N8_8 
REMARK    3  A    between atoms: C6_6  and  C7_7 
REMARK    4  A    between atoms: C7_7  and  N8_8 
ROOT
HETATM    1  N8  UNL     1     -32.685   7.146   3.294  1.00 20.00     0.089 N 
HETATM    2  H23 UNL     1     -32.696   8.155   3.456  1.00 20.00     0.316 HD
ENDROOT
BRANCH   1   3
HETATM    3  C5  UNL     1     -32.598   6.900   1.858  1.00 20.00     0.274 C 
BRANCH   3   4
HETATM    4  C3  UNL     1     -32.266   8.151   1.118  1.00 20.00     0.014 A 
HETATM    5  C1  UNL     1     -33.089   8.570  -0.070  1.00 20.00     0.007 A 
HETATM    6  C2  UNL     1     -33.170   9.349   1.213  1.00 20.00     0.007 A 
ENDBRANCH   3   4
ENDBRANCH   1   3
BRANCH   1   7
HETATM    7  C7  UNL     1     -33.879   6.548   3.856  1.00 20.00     0.230 C 
HETATM    8  C4  UNL     1     -34.020   5.119   3.346  1.00 20.00     0.043 C 
BRANCH   7   9
HETATM    9  C6  UNL     1     -33.850   6.657   5.383  1.00 20.00     0.149 C 
HETATM   10 CL9  UNL     1     -34.714   5.329   6.201  1.00 20.00    -0.128 Cl
ENDBRANCH   7   9
ENDBRANCH   1   7
TORSDOF 4
ENDMDL
MODEL 2
REMARK VINA RESULT:      -4.3      0.943      1.191
REMARK  4 active torsions:
REMARK  status: ('A' for Active; 'I' for Inactive)
REMARK    1  A    between atoms: C3_3  and  C5_5 
REMARK    2  A    between atoms: C5_5  and  N8_8 
REMARK    3  A    between atoms: C6_6  and  C7_7 
REMARK    4  A    between atoms: C7_7  and  N8_8 
ROOT
HETATM    1  N8  UNL     1     -32.908   6.941   3.416  1.00 20.00     0.089 N 
HETATM    2  H23 UNL     1     -33.341   7.767   3.833  1.00 20.00     0.316 HD
ENDROOT
BRANCH   1   3
HETATM    3  C5  UNL     1     -32.306   7.318   2.141  1.00 20.00     0.274 C 
BRANCH   3   4
HETATM    4  C3  UNL     1     -33.252   8.126   1.318  1.00 20.00     0.014 A 
HETATM    5  C1  UNL     1     -32.837   9.471   0.789  1.00 20.00     0.007 A 
HETATM    6  C2  UNL     1     -33.006   8.312  -0.154  1.00 20.00     0.007 A 
ENDBRANCH   3   4
ENDBRANCH   1   3
BRANCH   1   7
HETATM    7  C7  UNL     1     -33.905   5.904   3.239  1.00 20.00     0.230 C 
HETATM    8  C4  UNL     1     -33.257   4.681   2.600  1.00 20.00     0.043 C 
BRANCH   7   9
HETATM    9  C6  UNL     1     -34.596   5.609   4.572  1.00 20.00     0.149 C 
HETATM   10 CL9  UNL     1     -34.020   6.638   5.908  1.00 20.00    -0.128 Cl
ENDBRANCH   7   9
ENDBRANCH   1   7
TORSDOF 4
ENDMDL
MODEL 3
REMARK VINA RESULT:      -4.0      2.659      4.690
REMARK  4 active torsions:
REMARK  status: ('A' for Active; 'I' for Inactive)
REMARK    1  A    between atoms: C3_3  and  C5_5 
REMARK    2  A    between atoms: C5_5  and  N8_8 
REMARK    3  A    between atoms: C6_6  and  C7_7 
REMARK    4  A    between atoms: C7_7  and  N8_8 
ROOT
HETATM    1  N8  UNL     1     -33.361   5.997   2.340  1.00 20.00     0.089 N 
HETATM    2  H23 UNL     1     -34.319   6.026   1.984  1.00 20.00     0.316 HD
ENDROOT
BRANCH   1   3
HETATM    3  C5  UNL     1     -33.367   5.376   3.660  1.00 20.00     0.274 C 
BRANCH   3   4
HETATM    4  C3  UNL     1     -34.499   5.883   4.488  1.00 20.00     0.014 A 
HETATM    5  C1  UNL     1     -34.900   5.163   5.746  1.00 20.00     0.007 A 
HETATM    6  C2  UNL     1     -34.233   6.508   5.830  1.00 20.00     0.007 A 
ENDBRANCH   3   4
ENDBRANCH   1   3
BRANCH   1   7
HETATM    7  C7  UNL     1     -32.821   7.341   2.395  1.00 20.00     0.230 C 
HETATM    8  C4  UNL     1     -31.651   7.377   3.371  1.00 20.00     0.043 C 
BRANCH   7   9
HETATM    9  C6  UNL     1     -32.463   7.821   0.986  1.00 20.00     0.149 C 
HETATM   10 CL9  UNL     1     -32.938   9.510   0.675  1.00 20.00    -0.128 Cl
ENDBRANCH   7   9
ENDBRANCH   1   7
TORSDOF 4
ENDMDL
MODEL 4
REMARK VINA RESULT:      -3.8     15.784     16.291
REMARK  4 active torsions:
REMARK  status: ('A' for Active; 'I' for Inactive)
REMARK    1  A    between atoms: C3_3  and  C5_5 
REMARK    2  A    between atoms: C5_5  and  N8_8 
REMARK    3  A    between atoms: C6_6  and  C7_7 
REMARK    4  A    between atoms: C7_7  and  N8_8 
ROOT
HETATM    1  N8  UNL     1     -22.691  16.983  11.574  1.00 20.00     0.089 N 
HETATM    2  H23 UNL     1     -22.382  17.409  12.450  1.00 20.00     0.316 HD
ENDROOT
BRANCH   1   3
HETATM    3  C5  UNL     1     -22.094  17.712  10.459  1.00 20.00     0.274 C 
BRANCH   3   4
HETATM    4  C3  UNL     1     -22.571  17.179   9.151  1.00 20.00     0.014 A 
HETATM    5  C1  UNL     1     -23.150  18.108   8.120  1.00 20.00     0.007 A 
HETATM    6  C2  UNL     1     -21.807  17.473   7.890  1.00 20.00     0.007 A 
ENDBRANCH   3   4
ENDBRANCH   1   3
BRANCH   1   7
HETATM    7  C7  UNL     1     -24.138  17.010  11.503  1.00 20.00     0.230 C 
HETATM    8  C4  UNL     1     -24.691  15.651  11.917  1.00 20.00     0.043 C 
BRANCH   7   9
HETATM    9  C6  UNL     1     -24.682  18.175  12.332  1.00 20.00     0.149 C 
HETATM   10 CL9  UNL     1     -26.175  18.881  11.662  1.00 20.00    -0.128 Cl
ENDBRANCH   7   9
ENDBRANCH   1   7
TORSDOF 4
ENDMDL
MODEL 5
REMARK VINA RESULT:      -3.8     15.781     16.128
REMARK  4 active torsions:
REMARK  status: ('A' for Active; 'I' for Inactive)
REMARK    1  A    between atoms: C3_3  and  C5_5 
REMARK    2  A    between atoms: C5_5  and  N8_8 
REMARK    3  A    between atoms: C6_6  and  C7_7 
REMARK    4  A    between atoms: C7_7  and  N8_8 
ROOT
HETATM    1  N8  UNL     1     -25.020  17.792   9.943  1.00 20.00     0.089 N 
HETATM    2  H23 UNL     1     -24.885  16.779   9.930  1.00 20.00     0.316 HD
ENDROOT
BRANCH   1   3
HETATM    3  C5  UNL     1     -23.883  18.427   9.284  1.00 20.00     0.274 C 
BRANCH   3   4
HETATM    4  C3  UNL     1     -22.679  17.548   9.324  1.00 20.00     0.014 A 
HETATM    5  C1  UNL     1     -21.811  17.396   8.105  1.00 20.00     0.007 A 
HETATM    6  C2  UNL     1     -21.301  18.151   9.302  1.00 20.00     0.007 A 
ENDBRANCH   3   4
ENDBRANCH   1   3
BRANCH   1   7
HETATM    7  C7  UNL     1     -25.156  18.249  11.311  1.00 20.00     0.230 C 
HETATM    8  C4  UNL     1     -26.290  19.263  11.397  1.00 20.00     0.043 C 
BRANCH   7   9
HETATM    9  C6  UNL     1     -25.328  17.051  12.249  1.00 20.00     0.149 C 
HETATM   10 CL9  UNL     1     -24.590  15.554  11.623  1.00 20.00    -0.128 Cl
ENDBRANCH   7   9
ENDBRANCH   1   7
TORSDOF 4
ENDMDL
MODEL 6
REMARK VINA RESULT:      -3.8     10.821     11.876
REMARK  4 active torsions:
REMARK  status: ('A' for Active; 'I' for Inactive)
REMARK    1  A    between atoms: C3_3  and  C5_5 
REMARK    2  A    between atoms: C5_5  and  N8_8 
REMARK    3  A    between atoms: C6_6  and  C7_7 
REMARK    4  A    between atoms: C7_7  and  N8_8 
ROOT
HETATM    1  N8  UNL     1     -33.335  14.729  -5.723  1.00 20.00     0.089 N 
HETATM    2  H23 UNL     1     -33.429  13.736  -5.945  1.00 20.00     0.316 HD
ENDROOT
BRANCH   1   3
HETATM    3  C5  UNL     1     -33.032  14.868  -4.302  1.00 20.00     0.274 C 
BRANCH   3   4
HETATM    4  C3  UNL     1     -33.697  16.072  -3.726  1.00 20.00     0.014 A 
HETATM    5  C1  UNL     1     -34.425  15.980  -2.413  1.00 20.00     0.007 A 
HETATM    6  C2  UNL     1     -33.129  16.737  -2.502  1.00 20.00     0.007 A 
ENDBRANCH   3   4
ENDBRANCH   1   3
BRANCH   1   7
HETATM    7  C7  UNL     1     -34.559  15.424  -6.068  1.00 20.00     0.230 C 
HETATM    8  C4  UNL     1     -34.305  16.337  -7.262  1.00 20.00     0.043 C 
BRANCH   7   9
HETATM    9  C6  UNL     1     -35.688  14.415  -6.294  1.00 20.00     0.149 C 
HETATM   10 CL9  UNL     1     -36.329  13.723  -4.781  1.00 20.00    -0.128 Cl
ENDBRANCH   7   9
ENDBRANCH   1   7
TORSDOF 4
ENDMDL
MODEL 7
REMARK VINA RESULT:      -3.7      0.767      1.425
REMARK  4 active torsions:
REMARK  status: ('A' for Active; 'I' for Inactive)
REMARK    1  A    between atoms: C3_3  and  C5_5 
REMARK    2  A    between atoms: C5_5  and  N8_8 
REMARK    3  A    between atoms: C6_6  and  C7_7 
REMARK    4  A    between atoms: C7_7  and  N8_8 
ROOT
HETATM    1  N8  UNL     1     -32.366   7.376   3.225  1.00 20.00     0.089 N 
HETATM    2  H23 UNL     1     -32.674   8.329   3.428  1.00 20.00     0.316 HD
ENDROOT
BRANCH   1   3
HETATM    3  C5  UNL     1     -32.701   7.058   1.840  1.00 20.00     0.274 C 
BRANCH   3   4
HETATM    4  C3  UNL     1     -32.344   8.183   0.929  1.00 20.00     0.014 A 
HETATM    5  C1  UNL     1     -33.289   8.603  -0.163  1.00 20.00     0.007 A 
HETATM    6  C2  UNL     1     -33.070   9.496   1.027  1.00 20.00     0.007 A 
ENDBRANCH   3   4
ENDBRANCH   1   3
BRANCH   1   7
HETATM    7  C7  UNL     1     -33.000   6.452   4.143  1.00 20.00     0.230 C 
HETATM    8  C4  UNL     1     -33.562   7.224   5.331  1.00 20.00     0.043 C 
BRANCH   7   9
HETATM    9  C6  UNL     1     -34.045   5.613   3.404  1.00 20.00     0.149 C 
HETATM   10 CL9  UNL     1     -35.188   4.788   4.495  1.00 20.00    -0.128 Cl
ENDBRANCH   7   9
ENDBRANCH   1   7
TORSDOF 4
ENDMDL
MODEL 8
REMARK VINA RESULT:      -3.6     16.053     16.605
REMARK  4 active torsions:
REMARK  status: ('A' for Active; 'I' for Inactive)
REMARK    1  A    between atoms: C3_3  and  C5_5 
REMARK    2  A    between atoms: C5_5  and  N8_8 
REMARK    3  A    between atoms: C6_6  and  C7_7 
REMARK    4  A    between atoms: C7_7  and  N8_8 
ROOT
HETATM    1  N8  UNL     1     -24.636  17.677  10.380  1.00 20.00     0.089 N 
HETATM    2  H23 UNL     1     -24.659  17.202   9.475  1.00 20.00     0.316 HD
ENDROOT
BRANCH   1   3
HETATM    3  C5  UNL     1     -25.426  18.901  10.289  1.00 20.00     0.274 C 
BRANCH   3   4
HETATM    4  C3  UNL     1     -26.183  19.148  11.550  1.00 20.00     0.014 A 
HETATM    5  C1  UNL     1     -27.680  19.004  11.576  1.00 20.00     0.007 A 
HETATM    6  C2  UNL     1     -26.816  18.001  12.289  1.00 20.00     0.007 A 
ENDBRANCH   3   4
ENDBRANCH   1   3
BRANCH   1   7
HETATM    7  C7  UNL     1     -23.264  17.964  10.746  1.00 20.00     0.230 C 
HETATM    8  C4  UNL     1     -22.990  17.426  12.146  1.00 20.00     0.043 C 
BRANCH   7   9
HETATM    9  C6  UNL     1     -22.312  17.420   9.679  1.00 20.00     0.149 C 
HETATM   10 CL9  UNL     1     -22.791  17.855   8.018  1.00 20.00    -0.128 Cl
ENDBRANCH   7   9
ENDBRANCH   1   7
TORSDOF 4
ENDMDL
MODEL 9
REMARK VINA RESULT:      -3.5      2.463      4.578
REMARK  4 active torsions:
REMARK  status: ('A' for Active; 'I' for Inactive)
REMARK    1  A    between atoms: C3_3  and  C5_5 
REMARK    2  A    between atoms: C5_5  and  N8_8 
REMARK    3  A    between atoms: C6_6  and  C7_7 
REMARK    4  A    between atoms: C7_7  and  N8_8 
ROOT
HETATM    1  N8  UNL     1     -33.425   7.410   3.300  1.00 20.00     0.089 N 
HETATM    2  H23 UNL     1     -33.211   8.407   3.360  1.00 20.00     0.316 HD
ENDROOT
BRANCH   1   3
HETATM    3  C5  UNL     1     -33.360   6.832   4.638  1.00 20.00     0.274 C 
BRANCH   3   4
HETATM    4  C3  UNL     1     -34.673   6.246   5.035  1.00 20.00     0.014 A 
HETATM    5  C1  UNL     1     -34.972   4.798   4.758  1.00 20.00     0.007 A 
HETATM    6  C2  UNL     1     -34.752   5.264   6.170  1.00 20.00     0.007 A 
ENDBRANCH   3   4
ENDBRANCH   1   3
BRANCH   1   7
HETATM    7  C7  UNL     1     -32.487   6.764   2.404  1.00 20.00     0.230 C 
HETATM    8  C4  UNL     1     -32.966   5.349   2.101  1.00 20.00     0.043 C 
BRANCH   7   9
HETATM    9  C6  UNL     1     -32.277   7.624   1.155  1.00 20.00     0.149 C 
HETATM   10 CL9  UNL     1     -33.201   9.149   1.186  1.00 20.00    -0.128 Cl
ENDBRANCH   7   9
ENDBRANCH   1   7
TORSDOF 4
ENDMDL
