MODEL 1
REMARK VINA RESULT:      -4.2      0.000      0.000
REMARK  3 active torsions:
REMARK  status: ('A' for Active; 'I' for Inactive)
REMARK    1  A    between atoms: C5_5  and  C7_7 
REMARK    2  A    between atoms: C5_5  and  C8_8 
REMARK    3  A    between atoms: C8_8  and  O9_9 
ROOT
HETATM    1  C1  UNL     1     -33.197  15.511  -3.555  1.00 20.00     0.001 C 
HETATM    2  C2  UNL     1     -34.267  16.246  -2.746  1.00 20.00     0.001 C 
HETATM    3  C3  UNL     1     -33.917  14.378  -4.282  1.00 20.00     0.011 C 
HETATM    4  C4  UNL     1     -35.582  15.522  -3.024  1.00 20.00     0.011 C 
HETATM    5  C5  UNL     1     -35.379  14.833  -4.380  1.00 20.00    -0.019 C 
ENDROOT
BRANCH   5   6
HETATM    6  C7  UNL     1     -35.581  15.818  -5.543  1.00 20.00     0.007 C 
HETATM    7  C6  UNL     1     -35.083  15.255  -6.832  1.00 20.00     0.006 C 
ENDBRANCH   5   6
BRANCH   5   8
HETATM    8  C8  UNL     1     -36.329  13.645  -4.556  1.00 20.00     0.173 C 
BRANCH   8   9
HETATM    9  O9  UNL     1     -35.615  12.465  -4.255  1.00 20.00    -0.400 OA
HETATM   10  H25 UNL     1     -35.158  12.611  -3.409  1.00 20.00     0.209 HD
ENDBRANCH   8   9
ENDBRANCH   5   8
TORSDOF 3
ENDMDL
MODEL 2
REMARK VINA RESULT:      -4.2      1.365      3.151
REMARK  3 active torsions:
REMARK  status: ('A' for Active; 'I' for Inactive)
REMARK    1  A    between atoms: C5_5  and  C7_7 
REMARK    2  A    between atoms: C5_5  and  C8_8 
REMARK    3  A    between atoms: C8_8  and  O9_9 
ROOT
HETATM    1  C1  UNL     1     -36.684  14.037  -4.478  1.00 20.00     0.001 C 
HETATM    2  C2  UNL     1     -36.586  15.396  -5.172  1.00 20.00     0.001 C 
HETATM    3  C3  UNL     1     -35.254  13.634  -4.128  1.00 20.00     0.011 C 
HETATM    4  C4  UNL     1     -35.101  15.750  -5.207  1.00 20.00     0.011 C 
HETATM    5  C5  UNL     1     -34.475  14.954  -4.054  1.00 20.00    -0.019 C 
ENDROOT
BRANCH   5   6
HETATM    6  C7  UNL     1     -34.694  15.657  -2.705  1.00 20.00     0.007 C 
HETATM    7  C6  UNL     1     -33.633  16.671  -2.435  1.00 20.00     0.006 C 
ENDBRANCH   5   6
BRANCH   5   8
HETATM    8  C8  UNL     1     -32.975  14.736  -4.270  1.00 20.00     0.173 C 
BRANCH   8   9
HETATM    9  O9  UNL     1     -32.763  13.363  -4.524  1.00 20.00    -0.400 OA
HETATM   10  H25 UNL     1     -32.736  13.249  -5.490  1.00 20.00     0.209 HD
ENDBRANCH   8   9
ENDBRANCH   5   8
TORSDOF 3
ENDMDL
MODEL 3
REMARK VINA RESULT:      -4.1      0.739      1.071
REMARK  3 active torsions:
REMARK  status: ('A' for Active; 'I' for Inactive)
REMARK    1  A    between atoms: C5_5  and  C7_7 
REMARK    2  A    between atoms: C5_5  and  C8_8 
REMARK    3  A    between atoms: C8_8  and  O9_9 
ROOT
HETATM    1  C1  UNL     1     -32.994  15.843  -3.438  1.00 20.00     0.001 C 
HETATM    2  C2  UNL     1     -34.064  16.359  -2.474  1.00 20.00     0.001 C 
HETATM    3  C3  UNL     1     -33.644  14.712  -4.230  1.00 20.00     0.011 C 
HETATM    4  C4  UNL     1     -35.310  15.515  -2.732  1.00 20.00     0.011 C 
HETATM    5  C5  UNL     1     -35.151  14.996  -4.167  1.00 20.00    -0.019 C 
ENDROOT
BRANCH   5   6
HETATM    6  C7  UNL     1     -35.561  16.062  -5.195  1.00 20.00     0.007 C 
HETATM    7  C6  UNL     1     -36.914  16.620  -4.897  1.00 20.00     0.006 C 
ENDBRANCH   5   6
BRANCH   5   8
HETATM    8  C8  UNL     1     -35.974  13.727  -4.402  1.00 20.00     0.173 C 
BRANCH   8   9
HETATM    9  O9  UNL     1     -35.167  12.614  -4.078  1.00 20.00    -0.400 OA
HETATM   10  H25 UNL     1     -35.091  12.070  -4.881  1.00 20.00     0.209 HD
ENDBRANCH   8   9
ENDBRANCH   5   8
TORSDOF 3
ENDMDL
MODEL 4
REMARK VINA RESULT:      -4.1      1.874      2.275
REMARK  3 active torsions:
REMARK  status: ('A' for Active; 'I' for Inactive)
REMARK    1  A    between atoms: C5_5  and  C7_7 
REMARK    2  A    between atoms: C5_5  and  C8_8 
REMARK    3  A    between atoms: C8_8  and  O9_9 
ROOT
HETATM    1  C1  UNL     1     -33.775  17.064  -1.941  1.00 20.00     0.001 C 
HETATM    2  C2  UNL     1     -35.113  16.326  -1.874  1.00 20.00     0.001 C 
HETATM    3  C3  UNL     1     -32.964  16.377  -3.036  1.00 20.00     0.011 C 
HETATM    4  C4  UNL     1     -35.046  15.228  -2.933  1.00 20.00     0.011 C 
HETATM    5  C5  UNL     1     -34.006  15.718  -3.950  1.00 20.00    -0.019 C 
ENDROOT
BRANCH   5   6
HETATM    6  C7  UNL     1     -34.617  16.737  -4.926  1.00 20.00     0.007 C 
HETATM    7  C6  UNL     1     -35.075  16.083  -6.187  1.00 20.00     0.006 C 
ENDBRANCH   5   6
BRANCH   5   8
HETATM    8  C8  UNL     1     -33.405  14.556  -4.745  1.00 20.00     0.173 C 
BRANCH   8   9
HETATM    9  O9  UNL     1     -32.012  14.547  -4.523  1.00 20.00    -0.400 OA
HETATM   10  H25 UNL     1     -31.870  14.683  -3.570  1.00 20.00     0.209 HD
ENDBRANCH   8   9
ENDBRANCH   5   8
TORSDOF 3
ENDMDL
MODEL 5
REMARK VINA RESULT:      -4.1      1.604      2.585
REMARK  3 active torsions:
REMARK  status: ('A' for Active; 'I' for Inactive)
REMARK    1  A    between atoms: C5_5  and  C7_7 
REMARK    2  A    between atoms: C5_5  and  C8_8 
REMARK    3  A    between atoms: C8_8  and  O9_9 
ROOT
HETATM    1  C1  UNL     1     -35.239  16.792  -2.604  1.00 20.00     0.001 C 
HETATM    2  C2  UNL     1     -33.792  16.390  -2.316  1.00 20.00     0.001 C 
HETATM    3  C3  UNL     1     -35.493  16.446  -4.069  1.00 20.00     0.011 C 
HETATM    4  C4  UNL     1     -33.241  15.820  -3.622  1.00 20.00     0.011 C 
HETATM    5  C5  UNL     1     -34.475  15.347  -4.402  1.00 20.00    -0.019 C 
ENDROOT
BRANCH   5   6
HETATM    6  C7  UNL     1     -34.955  13.973  -3.909  1.00 20.00     0.007 C 
HETATM    7  C6  UNL     1     -36.241  13.576  -4.554  1.00 20.00     0.006 C 
ENDBRANCH   5   6
BRANCH   5   8
HETATM    8  C8  UNL     1     -34.196  15.274  -5.905  1.00 20.00     0.173 C 
BRANCH   8   9
HETATM    9  O9  UNL     1     -33.018  14.521  -6.097  1.00 20.00    -0.400 OA
HETATM   10  H25 UNL     1     -32.560  14.478  -5.239  1.00 20.00     0.209 HD
ENDBRANCH   8   9
ENDBRANCH   5   8
TORSDOF 3
ENDMDL
MODEL 6
REMARK VINA RESULT:      -4.1     17.202     18.804
REMARK  3 active torsions:
REMARK  status: ('A' for Active; 'I' for Inactive)
REMARK    1  A    between atoms: C5_5  and  C7_7 
REMARK    2  A    between atoms: C5_5  and  C8_8 
REMARK    3  A    between atoms: C8_8  and  O9_9 
ROOT
HETATM    1  C1  UNL     1     -24.005  17.437  12.332  1.00 20.00     0.001 C 
HETATM    2  C2  UNL     1     -24.720  16.386  11.482  1.00 20.00     0.001 C 
HETATM    3  C3  UNL     1     -22.868  17.980  11.471  1.00 20.00     0.011 C 
HETATM    4  C4  UNL     1     -23.980  16.345  10.146  1.00 20.00     0.011 C 
HETATM    5  C5  UNL     1     -23.304  17.717  10.023  1.00 20.00    -0.019 C 
ENDROOT
BRANCH   5   6
HETATM    6  C7  UNL     1     -24.294  18.786   9.535  1.00 20.00     0.007 C 
HETATM    7  C6  UNL     1     -24.434  18.768   8.049  1.00 20.00     0.006 C 
ENDBRANCH   5   6
BRANCH   5   8
HETATM    8  C8  UNL     1     -22.104  17.670   9.073  1.00 20.00     0.173 C 
BRANCH   8   9
HETATM    9  O9  UNL     1     -21.751  16.318   8.878  1.00 20.00    -0.400 OA
HETATM   10  H25 UNL     1     -20.824  16.218   9.158  1.00 20.00     0.209 HD
ENDBRANCH   8   9
ENDBRANCH   5   8
TORSDOF 3
ENDMDL
MODEL 7
REMARK VINA RESULT:      -4.0     18.860     19.609
REMARK  3 active torsions:
REMARK  status: ('A' for Active; 'I' for Inactive)
REMARK    1  A    between atoms: C5_5  and  C7_7 
REMARK    2  A    between atoms: C5_5  and  C8_8 
REMARK    3  A    between atoms: C8_8  and  O9_9 
ROOT
HETATM    1  C1  UNL     1     -25.459  16.159  12.223  1.00 20.00     0.001 C 
HETATM    2  C2  UNL     1     -25.760  17.658  12.254  1.00 20.00     0.001 C 
HETATM    3  C3  UNL     1     -24.332  15.973  11.211  1.00 20.00     0.011 C 
HETATM    4  C4  UNL     1     -24.798  18.306  11.261  1.00 20.00     0.011 C 
HETATM    5  C5  UNL     1     -23.619  17.330  11.154  1.00 20.00    -0.019 C 
ENDROOT
BRANCH   5   6
HETATM    6  C7  UNL     1     -22.645  17.500  12.332  1.00 20.00     0.007 C 
HETATM    7  C6  UNL     1     -21.295  17.936  11.870  1.00 20.00     0.006 C 
ENDBRANCH   5   6
BRANCH   5   8
HETATM    8  C8  UNL     1     -22.855  17.511   9.840  1.00 20.00     0.173 C 
BRANCH   8   9
HETATM    9  O9  UNL     1     -22.705  16.242   9.241  1.00 20.00    -0.400 OA
HETATM   10  H25 UNL     1     -23.452  16.121   8.629  1.00 20.00     0.209 HD
ENDBRANCH   8   9
ENDBRANCH   5   8
TORSDOF 3
ENDMDL
MODEL 8
REMARK VINA RESULT:      -3.9     10.316     11.860
REMARK  3 active torsions:
REMARK  status: ('A' for Active; 'I' for Inactive)
REMARK    1  A    between atoms: C5_5  and  C7_7 
REMARK    2  A    between atoms: C5_5  and  C8_8 
REMARK    3  A    between atoms: C8_8  and  O9_9 
ROOT
HETATM    1  C1  UNL     1     -41.260   8.535  -0.395  1.00 20.00     0.001 C 
HETATM    2  C2  UNL     1     -42.258   8.260  -1.521  1.00 20.00     0.001 C 
HETATM    3  C3  UNL     1     -41.459   7.423   0.631  1.00 20.00     0.011 C 
HETATM    4  C4  UNL     1     -43.012   6.993  -1.121  1.00 20.00     0.011 C 
HETATM    5  C5  UNL     1     -42.071   6.257  -0.158  1.00 20.00    -0.019 C 
ENDROOT
BRANCH   5   6
HETATM    6  C7  UNL     1     -40.992   5.473  -0.921  1.00 20.00     0.007 C 
HETATM    7  C6  UNL     1     -41.595   4.478  -1.857  1.00 20.00     0.006 C 
ENDBRANCH   5   6
BRANCH   5   8
HETATM    8  C8  UNL     1     -42.838   5.299   0.757  1.00 20.00     0.173 C 
BRANCH   8   9
HETATM    9  O9  UNL     1     -41.911   4.683   1.624  1.00 20.00    -0.400 OA
HETATM   10  H25 UNL     1     -41.998   5.114   2.493  1.00 20.00     0.209 HD
ENDBRANCH   8   9
ENDBRANCH   5   8
TORSDOF 3
ENDMDL
MODEL 9
REMARK VINA RESULT:      -3.9     10.645     11.921
REMARK  3 active torsions:
REMARK  status: ('A' for Active; 'I' for Inactive)
REMARK    1  A    between atoms: C5_5  and  C7_7 
REMARK    2  A    between atoms: C5_5  and  C8_8 
REMARK    3  A    between atoms: C8_8  and  O9_9 
ROOT
HETATM    1  C1  UNL     1     -42.483   8.763  -0.387  1.00 20.00     0.001 C 
HETATM    2  C2  UNL     1     -41.505   8.306   0.695  1.00 20.00     0.001 C 
HETATM    3  C3  UNL     1     -42.614   7.596  -1.363  1.00 20.00     0.011 C 
HETATM    4  C4  UNL     1     -41.092   6.883   0.323  1.00 20.00     0.011 C 
HETATM    5  C5  UNL     1     -42.238   6.351  -0.548  1.00 20.00    -0.019 C 
ENDROOT
BRANCH   5   6
HETATM    6  C7  UNL     1     -43.417   5.871   0.313  1.00 20.00     0.007 C 
HETATM    7  C6  UNL     1     -42.957   5.013   1.445  1.00 20.00     0.006 C 
ENDBRANCH   5   6
BRANCH   5   8
HETATM    8  C8  UNL     1     -41.775   5.205  -1.451  1.00 20.00     0.173 C 
BRANCH   8   9
HETATM    9  O9  UNL     1     -40.419   4.939  -1.161  1.00 20.00    -0.400 OA
HETATM   10  H25 UNL     1     -40.391   4.485  -0.301  1.00 20.00     0.209 HD
ENDBRANCH   8   9
ENDBRANCH   5   8
TORSDOF 3
ENDMDL
