MODEL 1
REMARK VINA RESULT:      -4.2      0.000      0.000
REMARK  1 active torsions:
REMARK  status: ('A' for Active; 'I' for Inactive)
REMARK    1  A    between atoms: C1_1  and  N8_8 
ROOT
HETATM    1  C2  UNL     1     -26.316  18.811  11.266  1.00 20.00     0.022 C 
HETATM    2  C3  UNL     1     -25.324  18.347  12.328  1.00 20.00     0.032 C 
HETATM    3  C4  UNL     1     -25.407  19.263  10.136  1.00 20.00     0.126 C 
HETATM    4  C5  UNL     1     -24.195  17.674  11.515  1.00 20.00     0.027 C 
HETATM    5  C6  UNL     1     -22.849  17.874  12.220  1.00 20.00     0.038 C 
HETATM    6  C7  UNL     1     -24.475  16.176  11.330  1.00 20.00     0.038 C 
HETATM    7  N8  UNL     1     -24.258  18.376  10.219  1.00 20.00    -0.351 N 
ENDROOT
BRANCH   7   8
HETATM    8  C1  UNL     1     -23.378  18.208   9.173  1.00 20.00     0.351 C 
HETATM    9  O9  UNL     1     -22.491  18.980   8.825  1.00 20.00    -0.284 OA
ENDBRANCH   7   8
TORSDOF 1
ENDMDL
MODEL 2
REMARK VINA RESULT:      -4.2      1.900      3.017
REMARK  1 active torsions:
REMARK  status: ('A' for Active; 'I' for Inactive)
REMARK    1  A    between atoms: C1_1  and  N8_8 
ROOT
HETATM    1  C2  UNL     1     -23.377  18.303   9.180  1.00 20.00     0.022 C 
HETATM    2  C3  UNL     1     -23.236  16.927   9.824  1.00 20.00     0.032 C 
HETATM    3  C4  UNL     1     -24.722  18.778   9.701  1.00 20.00     0.126 C 
HETATM    4  C5  UNL     1     -23.845  17.111  11.233  1.00 20.00     0.027 C 
HETATM    5  C6  UNL     1     -24.513  15.809  11.690  1.00 20.00     0.038 C 
HETATM    6  C7  UNL     1     -22.768  17.532  12.242  1.00 20.00     0.038 C 
HETATM    7  N8  UNL     1     -24.819  18.199  11.031  1.00 20.00    -0.351 N 
ENDROOT
BRANCH   7   8
HETATM    8  C1  UNL     1     -25.705  18.668  11.977  1.00 20.00     0.351 C 
HETATM    9  O9  UNL     1     -26.789  19.201  11.771  1.00 20.00    -0.284 OA
ENDBRANCH   7   8
TORSDOF 1
ENDMDL
MODEL 3
REMARK VINA RESULT:      -4.1     17.734     18.611
REMARK  1 active torsions:
REMARK  status: ('A' for Active; 'I' for Inactive)
REMARK    1  A    between atoms: C1_1  and  N8_8 
ROOT
HETATM    1  C2  UNL     1     -34.269  16.220  -2.348  1.00 20.00     0.022 C 
HETATM    2  C3  UNL     1     -33.664  16.563  -3.706  1.00 20.00     0.032 C 
HETATM    3  C4  UNL     1     -35.569  15.534  -2.727  1.00 20.00     0.126 C 
HETATM    4  C5  UNL     1     -34.027  15.350  -4.592  1.00 20.00     0.027 C 
HETATM    5  C6  UNL     1     -34.243  15.805  -6.040  1.00 20.00     0.038 C 
HETATM    6  C7  UNL     1     -32.925  14.283  -4.535  1.00 20.00     0.038 C 
HETATM    7  N8  UNL     1     -35.267  14.848  -3.973  1.00 20.00    -0.351 N 
ENDROOT
BRANCH   7   8
HETATM    8  C1  UNL     1     -36.052  13.826  -4.462  1.00 20.00     0.351 C 
HETATM    9  O9  UNL     1     -35.807  12.626  -4.423  1.00 20.00    -0.284 OA
ENDBRANCH   7   8
TORSDOF 1
ENDMDL
MODEL 4
REMARK VINA RESULT:      -4.0     15.982     16.911
REMARK  1 active torsions:
REMARK  status: ('A' for Active; 'I' for Inactive)
REMARK    1  A    between atoms: C1_1  and  N8_8 
ROOT
HETATM    1  C2  UNL     1     -34.350   6.620   6.377  1.00 20.00     0.022 C 
HETATM    2  C3  UNL     1     -34.653   5.197   5.919  1.00 20.00     0.032 C 
HETATM    3  C4  UNL     1     -33.292   7.071   5.386  1.00 20.00     0.126 C 
HETATM    4  C5  UNL     1     -34.582   5.280   4.377  1.00 20.00     0.027 C 
HETATM    5  C6  UNL     1     -34.066   3.955   3.804  1.00 20.00     0.038 C 
HETATM    6  C7  UNL     1     -35.960   5.608   3.784  1.00 20.00     0.038 C 
HETATM    7  N8  UNL     1     -33.642   6.392   4.149  1.00 20.00    -0.351 N 
ENDROOT
BRANCH   7   8
HETATM    8  C1  UNL     1     -33.161   6.798   2.922  1.00 20.00     0.351 C 
HETATM    9  O9  UNL     1     -32.073   7.312   2.691  1.00 20.00    -0.284 OA
ENDBRANCH   7   8
TORSDOF 1
ENDMDL
MODEL 5
REMARK VINA RESULT:      -3.9     17.731     18.675
REMARK  1 active torsions:
REMARK  status: ('A' for Active; 'I' for Inactive)
REMARK    1  A    between atoms: C1_1  and  N8_8 
ROOT
HETATM    1  C2  UNL     1     -33.300  14.756  -4.238  1.00 20.00     0.022 C 
HETATM    2  C3  UNL     1     -33.506  15.862  -3.207  1.00 20.00     0.032 C 
HETATM    3  C4  UNL     1     -34.593  13.966  -4.142  1.00 20.00     0.126 C 
HETATM    4  C5  UNL     1     -35.004  16.220  -3.340  1.00 20.00     0.027 C 
HETATM    5  C6  UNL     1     -35.564  16.647  -1.978  1.00 20.00     0.038 C 
HETATM    6  C7  UNL     1     -35.207  17.342  -4.367  1.00 20.00     0.038 C 
HETATM    7  N8  UNL     1     -35.603  14.962  -3.821  1.00 20.00    -0.351 N 
ENDROOT
BRANCH   7   8
HETATM    8  C1  UNL     1     -36.950  14.730  -3.999  1.00 20.00     0.351 C 
HETATM    9  O9  UNL     1     -37.471  13.709  -4.430  1.00 20.00    -0.284 OA
ENDBRANCH   7   8
TORSDOF 1
ENDMDL
MODEL 6
REMARK VINA RESULT:      -3.9     18.411     19.268
REMARK  1 active torsions:
REMARK  status: ('A' for Active; 'I' for Inactive)
REMARK    1  A    between atoms: C1_1  and  N8_8 
ROOT
HETATM    1  C2  UNL     1     -35.681  17.419  -5.149  1.00 20.00     0.022 C 
HETATM    2  C3  UNL     1     -34.299  16.904  -4.761  1.00 20.00     0.032 C 
HETATM    3  C4  UNL     1     -36.406  16.151  -5.562  1.00 20.00     0.126 C 
HETATM    4  C5  UNL     1     -34.586  15.551  -4.071  1.00 20.00     0.027 C 
HETATM    5  C6  UNL     1     -33.436  14.573  -4.336  1.00 20.00     0.038 C 
HETATM    6  C7  UNL     1     -34.779  15.739  -2.560  1.00 20.00     0.038 C 
HETATM    7  N8  UNL     1     -35.846  15.119  -4.704  1.00 20.00    -0.351 N 
ENDROOT
BRANCH   7   8
HETATM    8  C1  UNL     1     -36.471  13.907  -4.503  1.00 20.00     0.351 C 
HETATM    9  O9  UNL     1     -37.677  13.703  -4.433  1.00 20.00    -0.284 OA
ENDBRANCH   7   8
TORSDOF 1
ENDMDL
MODEL 7
REMARK VINA RESULT:      -3.8     18.181     19.029
REMARK  1 active torsions:
REMARK  status: ('A' for Active; 'I' for Inactive)
REMARK    1  A    between atoms: C1_1  and  N8_8 
ROOT
HETATM    1  C2  UNL     1     -34.611  16.060  -2.317  1.00 20.00     0.022 C 
HETATM    2  C3  UNL     1     -33.827  15.640  -3.557  1.00 20.00     0.032 C 
HETATM    3  C4  UNL     1     -36.002  16.308  -2.870  1.00 20.00     0.126 C 
HETATM    4  C5  UNL     1     -34.835  14.792  -4.364  1.00 20.00     0.027 C 
HETATM    5  C6  UNL     1     -34.580  14.962  -5.866  1.00 20.00     0.038 C 
HETATM    6  C7  UNL     1     -34.734  13.310  -3.978  1.00 20.00     0.038 C 
HETATM    7  N8  UNL     1     -36.138  15.347  -3.952  1.00 20.00    -0.351 N 
ENDROOT
BRANCH   7   8
HETATM    8  C1  UNL     1     -37.363  14.993  -4.476  1.00 20.00     0.351 C 
HETATM    9  O9  UNL     1     -37.927  13.911  -4.365  1.00 20.00    -0.284 OA
ENDBRANCH   7   8
TORSDOF 1
ENDMDL
MODEL 8
REMARK VINA RESULT:      -3.8     18.487     19.399
REMARK  1 active torsions:
REMARK  status: ('A' for Active; 'I' for Inactive)
REMARK    1  A    between atoms: C1_1  and  N8_8 
ROOT
HETATM    1  C2  UNL     1     -34.790  16.586  -6.264  1.00 20.00     0.022 C 
HETATM    2  C3  UNL     1     -34.450  16.942  -4.820  1.00 20.00     0.032 C 
HETATM    3  C4  UNL     1     -35.009  15.085  -6.194  1.00 20.00     0.126 C 
HETATM    4  C5  UNL     1     -35.368  16.022  -3.984  1.00 20.00     0.027 C 
HETATM    5  C6  UNL     1     -34.672  15.638  -2.674  1.00 20.00     0.038 C 
HETATM    6  C7  UNL     1     -36.706  16.713  -3.686  1.00 20.00     0.038 C 
HETATM    7  N8  UNL     1     -35.571  14.863  -4.872  1.00 20.00    -0.351 N 
ENDROOT
BRANCH   7   8
HETATM    8  C1  UNL     1     -36.242  13.706  -4.540  1.00 20.00     0.351 C 
HETATM    9  O9  UNL     1     -35.782  12.570  -4.509  1.00 20.00    -0.284 OA
ENDBRANCH   7   8
TORSDOF 1
ENDMDL
MODEL 9
REMARK VINA RESULT:      -3.6     17.903     18.816
REMARK  1 active torsions:
REMARK  status: ('A' for Active; 'I' for Inactive)
REMARK    1  A    between atoms: C1_1  and  N8_8 
ROOT
HETATM    1  C2  UNL     1     -33.673  16.130  -2.749  1.00 20.00     0.022 C 
HETATM    2  C3  UNL     1     -35.142  15.779  -2.537  1.00 20.00     0.032 C 
HETATM    3  C4  UNL     1     -33.309  15.314  -3.977  1.00 20.00     0.126 C 
HETATM    4  C5  UNL     1     -35.710  15.672  -3.970  1.00 20.00     0.027 C 
HETATM    5  C6  UNL     1     -36.820  14.615  -4.017  1.00 20.00     0.038 C 
HETATM    6  C7  UNL     1     -36.254  17.027  -4.444  1.00 20.00     0.038 C 
HETATM    7  N8  UNL     1     -34.531  15.281  -4.764  1.00 20.00    -0.351 N 
ENDROOT
BRANCH   7   8
HETATM    8  C1  UNL     1     -34.537  14.956  -6.103  1.00 20.00     0.351 C 
HETATM    9  O9  UNL     1     -33.563  14.731  -6.812  1.00 20.00    -0.284 OA
ENDBRANCH   7   8
TORSDOF 1
ENDMDL
