MODEL 1
REMARK VINA RESULT:      -5.3      0.000      0.000
REMARK  1 active torsions:
REMARK  status: ('A' for Active; 'I' for Inactive)
REMARK    1  A    between atoms: C6_6  and  C7_7 
ROOT
HETATM    1  C1  UNL     1     -21.572  17.391   8.323  1.00 20.00     0.065 C 
HETATM    2  C7  UNL     1     -21.444  18.110   9.599  1.00 20.00     0.186 C 
HETATM    3  N8  UNL     1     -21.671  16.824   7.316  1.00 20.00    -0.197 NA
ENDROOT
BRANCH   2   4
HETATM    4  C6  UNL     1     -22.752  18.141  10.316  1.00 20.00     0.085 A 
HETATM    5  C4  UNL     1     -22.801  17.802  11.659  1.00 20.00     0.143 A 
HETATM    6  C2  UNL     1     -24.036  17.842  12.295  1.00 20.00     0.069 A 
HETATM    7  F10 UNL     1     -21.700  17.446  12.332  1.00 20.00    -0.204 F 
HETATM    8  C5  UNL     1     -25.170  18.215  11.581  1.00 20.00     0.054 A 
HETATM    9  C3  UNL     1     -25.015  18.535  10.241  1.00 20.00     0.141 A 
HETATM   10 CL11 UNL     1     -26.710  18.276  12.332  1.00 20.00    -0.083 Cl
HETATM   11  N9  UNL     1     -23.832  18.508   9.589  1.00 20.00    -0.260 NA
ENDBRANCH   2   4
TORSDOF 1
ENDMDL
MODEL 2
REMARK VINA RESULT:      -4.9      1.691      2.070
REMARK  1 active torsions:
REMARK  status: ('A' for Active; 'I' for Inactive)
REMARK    1  A    between atoms: C6_6  and  C7_7 
ROOT
HETATM    1  C1  UNL     1     -21.500  17.344   8.168  1.00 20.00     0.065 C 
HETATM    2  C7  UNL     1     -21.419  18.128   9.408  1.00 20.00     0.186 C 
HETATM    3  N8  UNL     1     -21.563  16.725   7.189  1.00 20.00    -0.197 NA
ENDROOT
BRANCH   2   4
HETATM    4  C6  UNL     1     -22.735  18.137  10.111  1.00 20.00     0.085 A 
HETATM    5  C4  UNL     1     -23.837  18.697   9.486  1.00 20.00     0.143 A 
HETATM    6  C2  UNL     1     -25.048  18.688  10.170  1.00 20.00     0.069 A 
HETATM    7  F10 UNL     1     -23.751  19.232   8.261  1.00 20.00    -0.204 F 
HETATM    8  C5  UNL     1     -25.118  18.127  11.441  1.00 20.00     0.054 A 
HETATM    9  C3  UNL     1     -23.958  17.593  11.979  1.00 20.00     0.141 A 
HETATM   10 CL11 UNL     1     -26.593  18.097  12.314  1.00 20.00    -0.083 Cl
HETATM   11  N9  UNL     1     -22.765  17.583  11.344  1.00 20.00    -0.260 NA
ENDBRANCH   2   4
TORSDOF 1
ENDMDL
MODEL 3
REMARK VINA RESULT:      -4.8     17.229     18.060
REMARK  1 active torsions:
REMARK  status: ('A' for Active; 'I' for Inactive)
REMARK    1  A    between atoms: C6_6  and  C7_7 
ROOT
HETATM    1  C1  UNL     1     -36.524  13.974  -4.328  1.00 20.00     0.065 C 
HETATM    2  C7  UNL     1     -35.064  14.009  -4.158  1.00 20.00     0.186 C 
HETATM    3  N8  UNL     1     -37.676  13.945  -4.462  1.00 20.00    -0.197 NA
ENDROOT
BRANCH   2   4
HETATM    4  C6  UNL     1     -34.662  15.174  -3.316  1.00 20.00     0.085 A 
HETATM    5  C4  UNL     1     -33.365  15.655  -3.394  1.00 20.00     0.143 A 
HETATM    6  C2  UNL     1     -33.025  16.741  -2.595  1.00 20.00     0.069 A 
HETATM    7  F10 UNL     1     -32.461  15.101  -4.211  1.00 20.00    -0.204 F 
HETATM    8  C5  UNL     1     -33.979  17.304  -1.754  1.00 20.00     0.054 A 
HETATM    9  C3  UNL     1     -35.248  16.748  -1.748  1.00 20.00     0.141 A 
HETATM   10 CL11 UNL     1     -33.596  18.644  -0.754  1.00 20.00    -0.083 Cl
HETATM   11  N9  UNL     1     -35.615  15.694  -2.511  1.00 20.00    -0.260 NA
ENDBRANCH   2   4
TORSDOF 1
ENDMDL
MODEL 4
REMARK VINA RESULT:      -4.7     16.761     17.245
REMARK  1 active torsions:
REMARK  status: ('A' for Active; 'I' for Inactive)
REMARK    1  A    between atoms: C6_6  and  C7_7 
ROOT
HETATM    1  C1  UNL     1     -32.680   8.243   1.128  1.00 20.00     0.065 C 
HETATM    2  C7  UNL     1     -32.174   6.930   1.555  1.00 20.00     0.186 C 
HETATM    3  N8  UNL     1     -33.079   9.278   0.789  1.00 20.00    -0.197 NA
ENDROOT
BRANCH   2   4
HETATM    4  C6  UNL     1     -32.941   6.430   2.733  1.00 20.00     0.085 A 
HETATM    5  C4  UNL     1     -33.438   5.137   2.722  1.00 20.00     0.143 A 
HETATM    6  C2  UNL     1     -34.149   4.704   3.837  1.00 20.00     0.069 A 
HETATM    7  F10 UNL     1     -33.246   4.321   1.679  1.00 20.00    -0.204 F 
HETATM    8  C5  UNL     1     -34.338   5.566   4.912  1.00 20.00     0.054 A 
HETATM    9  C3  UNL     1     -33.801   6.840   4.824  1.00 20.00     0.141 A 
HETATM   10 CL11 UNL     1     -35.208   5.067   6.303  1.00 20.00    -0.083 Cl
HETATM   11  N9  UNL     1     -33.105   7.296   3.758  1.00 20.00    -0.260 NA
ENDBRANCH   2   4
TORSDOF 1
ENDMDL
MODEL 5
REMARK VINA RESULT:      -4.6     15.569     16.469
REMARK  1 active torsions:
REMARK  status: ('A' for Active; 'I' for Inactive)
REMARK    1  A    between atoms: C6_6  and  C7_7 
ROOT
HETATM    1  C1  UNL     1     -31.579  18.482  -0.606  1.00 20.00     0.065 C 
HETATM    2  C7  UNL     1     -33.001  18.671  -0.926  1.00 20.00     0.186 C 
HETATM    3  N8  UNL     1     -30.457  18.333  -0.352  1.00 20.00    -0.197 NA
ENDROOT
BRANCH   2   4
HETATM    4  C6  UNL     1     -33.524  17.507  -1.698  1.00 20.00     0.085 A 
HETATM    5  C4  UNL     1     -34.755  16.966  -1.364  1.00 20.00     0.143 A 
HETATM    6  C2  UNL     1     -35.212  15.881  -2.105  1.00 20.00     0.069 A 
HETATM    7  F10 UNL     1     -35.491  17.465  -0.364  1.00 20.00    -0.204 F 
HETATM    8  C5  UNL     1     -34.435  15.377  -3.142  1.00 20.00     0.054 A 
HETATM    9  C3  UNL     1     -33.217  15.988  -3.396  1.00 20.00     0.141 A 
HETATM   10 CL11 UNL     1     -34.965  14.041  -4.077  1.00 20.00    -0.083 Cl
HETATM   11  N9  UNL     1     -32.741  17.044  -2.699  1.00 20.00    -0.260 NA
ENDBRANCH   2   4
TORSDOF 1
ENDMDL
MODEL 6
REMARK VINA RESULT:      -4.4     18.167     19.016
REMARK  1 active torsions:
REMARK  status: ('A' for Active; 'I' for Inactive)
REMARK    1  A    between atoms: C6_6  and  C7_7 
ROOT
HETATM    1  C1  UNL     1     -36.838  14.202  -4.961  1.00 20.00     0.065 C 
HETATM    2  C7  UNL     1     -35.662  14.640  -5.727  1.00 20.00     0.186 C 
HETATM    3  N8  UNL     1     -37.765  13.854  -4.357  1.00 20.00    -0.197 NA
ENDROOT
BRANCH   2   4
HETATM    4  C6  UNL     1     -34.829  15.578  -4.919  1.00 20.00     0.085 A 
HETATM    5  C4  UNL     1     -33.902  15.067  -4.025  1.00 20.00     0.143 A 
HETATM    6  C2  UNL     1     -33.143  15.970  -3.289  1.00 20.00     0.069 A 
HETATM    7  F10 UNL     1     -33.731  13.749  -3.870  1.00 20.00    -0.204 F 
HETATM    8  C5  UNL     1     -33.332  17.336  -3.465  1.00 20.00     0.054 A 
HETATM    9  C3  UNL     1     -34.286  17.745  -4.383  1.00 20.00     0.141 A 
HETATM   10 CL11 UNL     1     -32.415  18.480  -2.575  1.00 20.00    -0.083 Cl
HETATM   11  N9  UNL     1     -35.042  16.898  -5.117  1.00 20.00    -0.260 NA
ENDBRANCH   2   4
TORSDOF 1
ENDMDL
MODEL 7
REMARK VINA RESULT:      -4.3     16.117     16.616
REMARK  1 active torsions:
REMARK  status: ('A' for Active; 'I' for Inactive)
REMARK    1  A    between atoms: C6_6  and  C7_7 
ROOT
HETATM    1  C1  UNL     1     -32.650   8.286   1.094  1.00 20.00     0.065 C 
HETATM    2  C7  UNL     1     -32.102   7.035   1.639  1.00 20.00     0.186 C 
HETATM    3  N8  UNL     1     -33.082   9.272   0.662  1.00 20.00    -0.197 NA
ENDROOT
BRANCH   2   4
HETATM    4  C6  UNL     1     -32.868   6.610   2.847  1.00 20.00     0.085 A 
HETATM    5  C4  UNL     1     -32.635   7.241   4.058  1.00 20.00     0.143 A 
HETATM    6  C2  UNL     1     -33.367   6.820   5.163  1.00 20.00     0.069 A 
HETATM    7  F10 UNL     1     -31.739   8.229   4.172  1.00 20.00    -0.204 F 
HETATM    8  C5  UNL     1     -34.295   5.793   5.025  1.00 20.00     0.054 A 
HETATM    9  C3  UNL     1     -34.453   5.226   3.771  1.00 20.00     0.141 A 
HETATM   10 CL11 UNL     1     -35.216   5.247   6.365  1.00 20.00    -0.083 Cl
HETATM   11  N9  UNL     1     -33.761   5.609   2.675  1.00 20.00    -0.260 NA
ENDBRANCH   2   4
TORSDOF 1
ENDMDL
MODEL 8
REMARK VINA RESULT:      -4.2     24.263     25.044
REMARK  1 active torsions:
REMARK  status: ('A' for Active; 'I' for Inactive)
REMARK    1  A    between atoms: C6_6  and  C7_7 
ROOT
HETATM    1  C1  UNL     1     -42.538   3.895  -2.259  1.00 20.00     0.065 C 
HETATM    2  C7  UNL     1     -43.407   4.549  -1.271  1.00 20.00     0.186 C 
HETATM    3  N8  UNL     1     -41.853   3.378  -3.040  1.00 20.00    -0.197 NA
ENDROOT
BRANCH   2   4
HETATM    4  C6  UNL     1     -42.828   5.858  -0.848  1.00 20.00     0.085 A 
HETATM    5  C4  UNL     1     -42.102   5.932   0.330  1.00 20.00     0.143 A 
HETATM    6  C2  UNL     1     -41.577   7.167   0.694  1.00 20.00     0.069 A 
HETATM    7  F10 UNL     1     -41.904   4.855   1.100  1.00 20.00    -0.204 F 
HETATM    8  C5  UNL     1     -41.792   8.275  -0.120  1.00 20.00     0.054 A 
HETATM    9  C3  UNL     1     -42.533   8.096  -1.277  1.00 20.00     0.141 A 
HETATM   10 CL11 UNL     1     -41.160   9.814   0.296  1.00 20.00    -0.083 Cl
HETATM   11  N9  UNL     1     -43.058   6.912  -1.663  1.00 20.00    -0.260 NA
ENDBRANCH   2   4
TORSDOF 1
ENDMDL
MODEL 9
REMARK VINA RESULT:      -4.2     17.570     18.442
REMARK  1 active torsions:
REMARK  status: ('A' for Active; 'I' for Inactive)
REMARK    1  A    between atoms: C6_6  and  C7_7 
ROOT
HETATM    1  C1  UNL     1     -35.999  13.812  -4.555  1.00 20.00     0.065 C 
HETATM    2  C7  UNL     1     -36.198  15.265  -4.653  1.00 20.00     0.186 C 
HETATM    3  N8  UNL     1     -35.843  12.665  -4.480  1.00 20.00    -0.197 NA
ENDROOT
BRANCH   2   4
HETATM    4  C6  UNL     1     -35.186  15.989  -3.830  1.00 20.00     0.085 A 
HETATM    5  C4  UNL     1     -34.185  16.711  -4.460  1.00 20.00     0.143 A 
HETATM    6  C2  UNL     1     -33.259  17.373  -3.663  1.00 20.00     0.069 A 
HETATM    7  F10 UNL     1     -34.105  16.778  -5.795  1.00 20.00    -0.204 F 
HETATM    8  C5  UNL     1     -33.359  17.294  -2.278  1.00 20.00     0.054 A 
HETATM    9  C3  UNL     1     -34.396  16.545  -1.745  1.00 20.00     0.141 A 
HETATM   10 CL11 UNL     1     -32.235  18.097  -1.262  1.00 20.00    -0.083 Cl
HETATM   11  N9  UNL     1     -35.315  15.889  -2.487  1.00 20.00    -0.260 NA
ENDBRANCH   2   4
TORSDOF 1
ENDMDL
