MODEL 1
REMARK VINA RESULT:      -4.3      0.000      0.000
REMARK  1 active torsions:
REMARK  status: ('A' for Active; 'I' for Inactive)
REMARK    1  A    between atoms: C1_1  and  N8_8 
ROOT
HETATM    1  C2  UNL     1     -33.968  16.304  -2.269  1.00 20.00     0.008 C 
HETATM    2  C3  UNL     1     -35.492  16.378  -2.505  1.00 20.00     0.026 C 
HETATM    3  C4  UNL     1     -34.377  16.897  -4.534  1.00 20.00     0.031 C 
HETATM    4  C5  UNL     1     -33.777  14.637  -4.133  1.00 20.00     0.130 C 
HETATM    5  C6  UNL     1     -33.407  16.063  -3.687  1.00 20.00     0.006 C 
HETATM    6  C7  UNL     1     -35.606  16.146  -4.021  1.00 20.00     0.087 C 
HETATM    7  N8  UNL     1     -35.222  14.756  -4.272  1.00 20.00    -0.354 N 
ENDROOT
BRANCH   7   8
HETATM    8  C1  UNL     1     -36.081  13.720  -4.525  1.00 20.00     0.351 C 
HETATM    9  O9  UNL     1     -35.824  12.522  -4.487  1.00 20.00    -0.284 OA
ENDBRANCH   7   8
TORSDOF 1
ENDMDL
MODEL 2
REMARK VINA RESULT:      -4.2     16.852     18.150
REMARK  1 active torsions:
REMARK  status: ('A' for Active; 'I' for Inactive)
REMARK    1  A    between atoms: C1_1  and  N8_8 
ROOT
HETATM    1  C2  UNL     1     -23.266  18.016  12.135  1.00 20.00     0.008 C 
HETATM    2  C3  UNL     1     -22.359  17.658  10.938  1.00 20.00     0.026 C 
HETATM    3  C4  UNL     1     -24.307  16.305  10.854  1.00 20.00     0.031 C 
HETATM    4  C5  UNL     1     -25.144  18.504  10.545  1.00 20.00     0.130 C 
HETATM    5  C6  UNL     1     -24.663  17.560  11.662  1.00 20.00     0.006 C 
HETATM    6  C7  UNL     1     -23.358  17.067   9.928  1.00 20.00     0.087 C 
HETATM    7  N8  UNL     1     -24.213  18.166   9.477  1.00 20.00    -0.354 N 
ENDROOT
BRANCH   7   8
HETATM    8  C1  UNL     1     -24.111  18.822   8.279  1.00 20.00     0.351 C 
HETATM    9  O9  UNL     1     -23.470  18.468   7.296  1.00 20.00    -0.284 OA
ENDBRANCH   7   8
TORSDOF 1
ENDMDL
MODEL 3
REMARK VINA RESULT:      -4.1      0.789      1.950
REMARK  1 active torsions:
REMARK  status: ('A' for Active; 'I' for Inactive)
REMARK    1  A    between atoms: C1_1  and  N8_8 
ROOT
HETATM    1  C2  UNL     1     -33.866  16.991  -4.058  1.00 20.00     0.008 C 
HETATM    2  C3  UNL     1     -33.465  15.516  -3.836  1.00 20.00     0.026 C 
HETATM    3  C4  UNL     1     -35.028  16.145  -2.164  1.00 20.00     0.031 C 
HETATM    4  C5  UNL     1     -36.275  16.300  -4.176  1.00 20.00     0.130 C 
HETATM    5  C6  UNL     1     -35.238  17.088  -3.356  1.00 20.00     0.006 C 
HETATM    6  C7  UNL     1     -34.668  14.957  -3.057  1.00 20.00     0.087 C 
HETATM    7  N8  UNL     1     -35.803  14.935  -3.981  1.00 20.00    -0.354 N 
ENDROOT
BRANCH   7   8
HETATM    8  C1  UNL     1     -36.299  13.828  -4.617  1.00 20.00     0.351 C 
HETATM    9  O9  UNL     1     -35.886  12.678  -4.526  1.00 20.00    -0.284 OA
ENDBRANCH   7   8
TORSDOF 1
ENDMDL
MODEL 4
REMARK VINA RESULT:      -4.0      1.158      1.916
REMARK  1 active torsions:
REMARK  status: ('A' for Active; 'I' for Inactive)
REMARK    1  A    between atoms: C1_1  and  N8_8 
ROOT
HETATM    1  C2  UNL     1     -33.783  17.114  -4.088  1.00 20.00     0.008 C 
HETATM    2  C3  UNL     1     -34.465  16.559  -5.357  1.00 20.00     0.026 C 
HETATM    3  C4  UNL     1     -33.415  14.768  -4.206  1.00 20.00     0.031 C 
HETATM    4  C5  UNL     1     -35.094  15.493  -2.693  1.00 20.00     0.130 C 
HETATM    5  C6  UNL     1     -33.682  15.873  -3.175  1.00 20.00     0.006 C 
HETATM    6  C7  UNL     1     -34.687  15.079  -4.996  1.00 20.00     0.087 C 
HETATM    7  N8  UNL     1     -35.700  15.044  -3.939  1.00 20.00    -0.354 N 
ENDROOT
BRANCH   7   8
HETATM    8  C1  UNL     1     -37.019  14.714  -4.104  1.00 20.00     0.351 C 
HETATM    9  O9  UNL     1     -37.470  13.637  -4.477  1.00 20.00    -0.284 OA
ENDBRANCH   7   8
TORSDOF 1
ENDMDL
MODEL 5
REMARK VINA RESULT:      -4.0     11.899     12.661
REMARK  1 active torsions:
REMARK  status: ('A' for Active; 'I' for Inactive)
REMARK    1  A    between atoms: C1_1  and  N8_8 
ROOT
HETATM    1  C2  UNL     1     -34.188   4.411   5.588  1.00 20.00     0.008 C 
HETATM    2  C3  UNL     1     -33.916   4.079   4.105  1.00 20.00     0.026 C 
HETATM    3  C4  UNL     1     -35.620   5.728   4.222  1.00 20.00     0.031 C 
HETATM    4  C5  UNL     1     -33.719   6.829   5.116  1.00 20.00     0.130 C 
HETATM    5  C6  UNL     1     -34.810   5.822   5.522  1.00 20.00     0.006 C 
HETATM    6  C7  UNL     1     -34.396   5.352   3.386  1.00 20.00     0.087 C 
HETATM    7  N8  UNL     1     -33.463   6.422   3.741  1.00 20.00    -0.354 N 
ENDROOT
BRANCH   7   8
HETATM    8  C1  UNL     1     -32.464   6.914   2.943  1.00 20.00     0.351 C 
HETATM    9  O9  UNL     1     -32.596   7.522   1.887  1.00 20.00    -0.284 OA
ENDBRANCH   7   8
TORSDOF 1
ENDMDL
MODEL 6
REMARK VINA RESULT:      -3.9     10.329     11.931
REMARK  1 active torsions:
REMARK  status: ('A' for Active; 'I' for Inactive)
REMARK    1  A    between atoms: C1_1  and  N8_8 
ROOT
HETATM    1  C2  UNL     1     -43.356   5.486  -0.192  1.00 20.00     0.008 C 
HETATM    2  C3  UNL     1     -42.417   5.745   1.007  1.00 20.00     0.026 C 
HETATM    3  C4  UNL     1     -41.130   5.745  -0.987  1.00 20.00     0.031 C 
HETATM    4  C5  UNL     1     -42.563   7.618  -1.251  1.00 20.00     0.130 C 
HETATM    5  C6  UNL     1     -42.574   6.084  -1.382  1.00 20.00     0.006 C 
HETATM    6  C7  UNL     1     -41.233   6.476   0.351  1.00 20.00     0.087 C 
HETATM    7  N8  UNL     1     -41.723   7.789  -0.073  1.00 20.00    -0.354 N 
ENDROOT
BRANCH   7   8
HETATM    8  C1  UNL     1     -41.493   8.977   0.569  1.00 20.00     0.351 C 
HETATM    9  O9  UNL     1     -41.688  10.104   0.129  1.00 20.00    -0.284 OA
ENDBRANCH   7   8
TORSDOF 1
ENDMDL
MODEL 7
REMARK VINA RESULT:      -3.9      1.246      1.281
REMARK  1 active torsions:
REMARK  status: ('A' for Active; 'I' for Inactive)
REMARK    1  A    between atoms: C1_1  and  N8_8 
ROOT
HETATM    1  C2  UNL     1     -34.826  15.888  -2.313  1.00 20.00     0.008 C 
HETATM    2  C3  UNL     1     -35.869  16.452  -3.302  1.00 20.00     0.026 C 
HETATM    3  C4  UNL     1     -33.716  17.219  -3.940  1.00 20.00     0.031 C 
HETATM    4  C5  UNL     1     -33.578  14.868  -4.235  1.00 20.00     0.130 C 
HETATM    5  C6  UNL     1     -33.514  15.934  -3.125  1.00 20.00     0.006 C 
HETATM    6  C7  UNL     1     -35.023  16.724  -4.558  1.00 20.00     0.087 C 
HETATM    7  N8  UNL     1     -34.618  15.422  -5.091  1.00 20.00    -0.354 N 
ENDROOT
BRANCH   7   8
HETATM    8  C1  UNL     1     -35.171  14.791  -6.174  1.00 20.00     0.351 C 
HETATM    9  O9  UNL     1     -35.963  13.856  -6.159  1.00 20.00    -0.284 OA
ENDBRANCH   7   8
TORSDOF 1
ENDMDL
MODEL 8
REMARK VINA RESULT:      -3.8     10.457     11.610
REMARK  1 active torsions:
REMARK  status: ('A' for Active; 'I' for Inactive)
REMARK    1  A    between atoms: C1_1  and  N8_8 
ROOT
HETATM    1  C2  UNL     1     -41.427   8.963   0.114  1.00 20.00     0.008 C 
HETATM    2  C3  UNL     1     -41.053   7.687   0.899  1.00 20.00     0.026 C 
HETATM    3  C4  UNL     1     -43.417   7.824   0.739  1.00 20.00     0.031 C 
HETATM    4  C5  UNL     1     -42.722   7.564  -1.515  1.00 20.00     0.130 C 
HETATM    5  C6  UNL     1     -42.838   8.643  -0.423  1.00 20.00     0.006 C 
HETATM    6  C7  UNL     1     -42.289   6.794   0.689  1.00 20.00     0.087 C 
HETATM    7  N8  UNL     1     -42.306   6.413  -0.725  1.00 20.00    -0.354 N 
ENDROOT
BRANCH   7   8
HETATM    8  C1  UNL     1     -41.926   5.199  -1.233  1.00 20.00     0.351 C 
HETATM    9  O9  UNL     1     -40.794   4.853  -1.548  1.00 20.00    -0.284 OA
ENDBRANCH   7   8
TORSDOF 1
ENDMDL
MODEL 9
REMARK VINA RESULT:      -3.8      1.540      2.369
REMARK  1 active torsions:
REMARK  status: ('A' for Active; 'I' for Inactive)
REMARK    1  A    between atoms: C1_1  and  N8_8 
ROOT
HETATM    1  C2  UNL     1     -33.241  14.755  -4.184  1.00 20.00     0.008 C 
HETATM    2  C3  UNL     1     -34.611  14.067  -3.997  1.00 20.00     0.026 C 
HETATM    3  C4  UNL     1     -34.468  15.907  -2.505  1.00 20.00     0.031 C 
HETATM    4  C5  UNL     1     -34.412  16.924  -4.648  1.00 20.00     0.130 C 
HETATM    5  C6  UNL     1     -33.494  16.184  -3.658  1.00 20.00     0.006 C 
HETATM    6  C7  UNL     1     -35.474  15.198  -3.411  1.00 20.00     0.087 C 
HETATM    7  N8  UNL     1     -35.658  16.189  -4.472  1.00 20.00    -0.354 N 
ENDROOT
BRANCH   7   8
HETATM    8  C1  UNL     1     -36.788  16.355  -5.228  1.00 20.00     0.351 C 
HETATM    9  O9  UNL     1     -37.443  15.478  -5.779  1.00 20.00    -0.284 OA
ENDBRANCH   7   8
TORSDOF 1
ENDMDL
