MODEL 1
REMARK VINA RESULT:      -5.4      0.000      0.000
REMARK  3 active torsions:
REMARK  status: ('A' for Active; 'I' for Inactive)
REMARK    1  A    between atoms: C1_1  and  C2_2 
REMARK    2  A    between atoms: C1_1  and  C3_3 
REMARK    3  A    between atoms: C2_2  and  C4_4 
ROOT
HETATM    1  C2  UNL     1     -33.945   6.415   4.455  1.00 20.00     0.196 C 
ENDROOT
BRANCH   1   2
HETATM    2  C1  UNL     1     -33.242   6.187   3.126  1.00 20.00     0.148 C 
HETATM    3  O5  UNL     1     -33.506   5.225   2.407  1.00 20.00    -0.296 OA
BRANCH   2   4
HETATM    4  C3  UNL     1     -32.209   7.231   2.760  1.00 20.00     0.193 C 
HETATM    5 CL9  UNL     1     -32.628   8.019   1.231  1.00 20.00    -0.123 Cl
ENDBRANCH   2   4
ENDBRANCH   1   2
BRANCH   1   6
HETATM    6  C4  UNL     1     -34.910   5.308   4.815  1.00 20.00     0.394 C 
HETATM    7  F6  UNL     1     -36.066   5.417   4.127  1.00 20.00    -0.171 F 
HETATM    8  F7  UNL     1     -35.213   5.359   6.132  1.00 20.00    -0.171 F 
HETATM    9  F8  UNL     1     -34.382   4.092   4.566  1.00 20.00    -0.171 F 
ENDBRANCH   1   6
TORSDOF 3
ENDMDL
MODEL 2
REMARK VINA RESULT:      -5.2      1.742      1.915
REMARK  3 active torsions:
REMARK  status: ('A' for Active; 'I' for Inactive)
REMARK    1  A    between atoms: C1_1  and  C2_2 
REMARK    2  A    between atoms: C1_1  and  C3_3 
REMARK    3  A    between atoms: C2_2  and  C4_4 
ROOT
HETATM    1  C2  UNL     1     -34.475   6.151   4.465  1.00 20.00     0.196 C 
ENDROOT
BRANCH   1   2
HETATM    2  C1  UNL     1     -34.057   4.926   3.668  1.00 20.00     0.148 C 
HETATM    3  O5  UNL     1     -34.411   3.792   3.984  1.00 20.00    -0.296 OA
BRANCH   2   4
HETATM    4  C3  UNL     1     -33.185   5.212   2.463  1.00 20.00     0.193 C 
HETATM    5 CL9  UNL     1     -32.627   6.891   2.476  1.00 20.00    -0.123 Cl
ENDBRANCH   2   4
ENDBRANCH   1   2
BRANCH   1   6
HETATM    6  C4  UNL     1     -34.447   5.927   5.960  1.00 20.00     0.394 C 
HETATM    7  F6  UNL     1     -35.510   5.204   6.372  1.00 20.00    -0.171 F 
HETATM    8  F7  UNL     1     -34.480   7.110   6.613  1.00 20.00    -0.171 F 
HETATM    9  F8  UNL     1     -33.324   5.283   6.341  1.00 20.00    -0.171 F 
ENDBRANCH   1   6
TORSDOF 3
ENDMDL
MODEL 3
REMARK VINA RESULT:      -5.0      2.970      3.674
REMARK  3 active torsions:
REMARK  status: ('A' for Active; 'I' for Inactive)
REMARK    1  A    between atoms: C1_1  and  C2_2 
REMARK    2  A    between atoms: C1_1  and  C3_3 
REMARK    3  A    between atoms: C2_2  and  C4_4 
ROOT
HETATM    1  C2  UNL     1     -34.359   6.212   3.433  1.00 20.00     0.196 C 
ENDROOT
BRANCH   1   2
HETATM    2  C1  UNL     1     -34.492   5.007   4.352  1.00 20.00     0.148 C 
HETATM    3  O5  UNL     1     -34.403   3.855   3.931  1.00 20.00    -0.296 OA
BRANCH   2   4
HETATM    4  C3  UNL     1     -34.733   5.336   5.809  1.00 20.00     0.193 C 
HETATM    5 CL9  UNL     1     -34.035   6.909   6.222  1.00 20.00    -0.123 Cl
ENDBRANCH   2   4
ENDBRANCH   1   2
BRANCH   1   6
HETATM    6  C4  UNL     1     -32.989   6.335   2.808  1.00 20.00     0.394 C 
HETATM    7  F6  UNL     1     -32.118   6.942   3.642  1.00 20.00    -0.171 F 
HETATM    8  F7  UNL     1     -33.052   7.074   1.678  1.00 20.00    -0.171 F 
HETATM    9  F8  UNL     1     -32.485   5.128   2.477  1.00 20.00    -0.171 F 
ENDBRANCH   1   6
TORSDOF 3
ENDMDL
MODEL 4
REMARK VINA RESULT:      -4.6      3.265      3.949
REMARK  3 active torsions:
REMARK  status: ('A' for Active; 'I' for Inactive)
REMARK    1  A    between atoms: C1_1  and  C2_2 
REMARK    2  A    between atoms: C1_1  and  C3_3 
REMARK    3  A    between atoms: C2_2  and  C4_4 
ROOT
HETATM    1  C2  UNL     1     -34.071   6.927   3.603  1.00 20.00     0.196 C 
ENDROOT
BRANCH   1   2
HETATM    2  C1  UNL     1     -34.019   6.470   5.053  1.00 20.00     0.148 C 
HETATM    3  O5  UNL     1     -33.421   7.111   5.915  1.00 20.00    -0.296 OA
BRANCH   2   4
HETATM    4  C3  UNL     1     -34.758   5.183   5.347  1.00 20.00     0.193 C 
HETATM    5 CL9  UNL     1     -34.415   3.964   4.110  1.00 20.00    -0.123 Cl
ENDBRANCH   2   4
ENDBRANCH   1   2
BRANCH   1   6
HETATM    6  C4  UNL     1     -32.727   6.877   2.915  1.00 20.00     0.394 C 
HETATM    7  F6  UNL     1     -31.758   7.422   3.681  1.00 20.00    -0.171 F 
HETATM    8  F7  UNL     1     -32.767   7.570   1.755  1.00 20.00    -0.171 F 
HETATM    9  F8  UNL     1     -32.368   5.610   2.619  1.00 20.00    -0.171 F 
ENDBRANCH   1   6
TORSDOF 3
ENDMDL
MODEL 5
REMARK VINA RESULT:      -4.5      8.711      9.369
REMARK  3 active torsions:
REMARK  status: ('A' for Active; 'I' for Inactive)
REMARK    1  A    between atoms: C1_1  and  C2_2 
REMARK    2  A    between atoms: C1_1  and  C3_3 
REMARK    3  A    between atoms: C2_2  and  C4_4 
ROOT
HETATM    1  C2  UNL     1     -41.666   7.612  -1.117  1.00 20.00     0.196 C 
ENDROOT
BRANCH   1   2
HETATM    2  C1  UNL     1     -41.602   6.105  -0.925  1.00 20.00     0.148 C 
HETATM    3  O5  UNL     1     -40.573   5.465  -1.135  1.00 20.00    -0.296 OA
BRANCH   2   4
HETATM    4  C3  UNL     1     -42.889   5.463  -0.454  1.00 20.00     0.193 C 
HETATM    5 CL9  UNL     1     -42.800   5.069   1.269  1.00 20.00    -0.123 Cl
ENDBRANCH   2   4
ENDBRANCH   1   2
BRANCH   1   6
HETATM    6  C4  UNL     1     -41.639   8.379   0.185  1.00 20.00     0.394 C 
HETATM    7  F6  UNL     1     -40.971   7.704   1.143  1.00 20.00    -0.171 F 
HETATM    8  F7  UNL     1     -42.896   8.587   0.634  1.00 20.00    -0.171 F 
HETATM    9  F8  UNL     1     -41.055   9.587   0.035  1.00 20.00    -0.171 F 
ENDBRANCH   1   6
TORSDOF 3
ENDMDL
MODEL 6
REMARK VINA RESULT:      -4.5      2.048      2.431
REMARK  3 active torsions:
REMARK  status: ('A' for Active; 'I' for Inactive)
REMARK    1  A    between atoms: C1_1  and  C2_2 
REMARK    2  A    between atoms: C1_1  and  C3_3 
REMARK    3  A    between atoms: C2_2  and  C4_4 
ROOT
HETATM    1  C2  UNL     1     -34.537   6.071   4.446  1.00 20.00     0.196 C 
ENDROOT
BRANCH   1   2
HETATM    2  C1  UNL     1     -33.247   6.706   3.951  1.00 20.00     0.148 C 
HETATM    3  O5  UNL     1     -32.619   7.517   4.629  1.00 20.00    -0.296 OA
BRANCH   2   4
HETATM    4  C3  UNL     1     -32.801   6.262   2.575  1.00 20.00     0.193 C 
HETATM    5 CL9  UNL     1     -33.153   4.545   2.324  1.00 20.00    -0.123 Cl
ENDBRANCH   2   4
ENDBRANCH   1   2
BRANCH   1   6
HETATM    6  C4  UNL     1     -34.520   5.766   5.926  1.00 20.00     0.394 C 
HETATM    7  F6  UNL     1     -33.412   5.078   6.276  1.00 20.00    -0.171 F 
HETATM    8  F7  UNL     1     -35.590   5.013   6.264  1.00 20.00    -0.171 F 
HETATM    9  F8  UNL     1     -34.567   6.894   6.665  1.00 20.00    -0.171 F 
ENDBRANCH   1   6
TORSDOF 3
ENDMDL
MODEL 7
REMARK VINA RESULT:      -4.4      3.712      4.434
REMARK  3 active torsions:
REMARK  status: ('A' for Active; 'I' for Inactive)
REMARK    1  A    between atoms: C1_1  and  C2_2 
REMARK    2  A    between atoms: C1_1  and  C3_3 
REMARK    3  A    between atoms: C2_2  and  C4_4 
ROOT
HETATM    1  C2  UNL     1     -32.228   7.472   2.603  1.00 20.00     0.196 C 
ENDROOT
BRANCH   1   2
HETATM    2  C1  UNL     1     -33.070   6.261   2.973  1.00 20.00     0.148 C 
HETATM    3  O5  UNL     1     -32.975   5.193   2.371  1.00 20.00    -0.296 OA
BRANCH   2   4
HETATM    4  C3  UNL     1     -34.019   6.470   4.134  1.00 20.00     0.193 C 
HETATM    5 CL9  UNL     1     -35.053   5.053   4.364  1.00 20.00    -0.123 Cl
ENDBRANCH   2   4
ENDBRANCH   1   2
BRANCH   1   6
HETATM    6  C4  UNL     1     -32.525   8.002   1.219  1.00 20.00     0.394 C 
HETATM    7  F6  UNL     1     -31.507   7.757   0.367  1.00 20.00    -0.171 F 
HETATM    8  F7  UNL     1     -32.709   9.341   1.259  1.00 20.00    -0.171 F 
HETATM    9  F8  UNL     1     -33.646   7.452   0.709  1.00 20.00    -0.171 F 
ENDBRANCH   1   6
TORSDOF 3
ENDMDL
MODEL 8
REMARK VINA RESULT:      -4.4     11.841     12.289
REMARK  3 active torsions:
REMARK  status: ('A' for Active; 'I' for Inactive)
REMARK    1  A    between atoms: C1_1  and  C2_2 
REMARK    2  A    between atoms: C1_1  and  C3_3 
REMARK    3  A    between atoms: C2_2  and  C4_4 
ROOT
HETATM    1  C2  UNL     1     -35.894  14.913  -3.537  1.00 20.00     0.196 C 
ENDROOT
BRANCH   1   2
HETATM    2  C1  UNL     1     -35.827  13.948  -4.711  1.00 20.00     0.148 C 
HETATM    3  O5  UNL     1     -35.792  12.730  -4.550  1.00 20.00    -0.296 OA
BRANCH   2   4
HETATM    4  C3  UNL     1     -35.815  14.600  -6.077  1.00 20.00     0.193 C 
HETATM    5 CL9  UNL     1     -34.155  14.864  -6.631  1.00 20.00    -0.123 Cl
ENDBRANCH   2   4
ENDBRANCH   1   2
BRANCH   1   6
HETATM    6  C4  UNL     1     -34.558  15.535  -3.201  1.00 20.00     0.394 C 
HETATM    7  F6  UNL     1     -34.466  15.828  -1.887  1.00 20.00    -0.171 F 
HETATM    8  F7  UNL     1     -34.390  16.687  -3.888  1.00 20.00    -0.171 F 
HETATM    9  F8  UNL     1     -33.536  14.715  -3.524  1.00 20.00    -0.171 F 
ENDBRANCH   1   6
TORSDOF 3
ENDMDL
MODEL 9
REMARK VINA RESULT:      -4.4     11.841     12.291
REMARK  3 active torsions:
REMARK  status: ('A' for Active; 'I' for Inactive)
REMARK    1  A    between atoms: C1_1  and  C2_2 
REMARK    2  A    between atoms: C1_1  and  C3_3 
REMARK    3  A    between atoms: C2_2  and  C4_4 
ROOT
HETATM    1  C2  UNL     1     -35.966  14.889  -3.580  1.00 20.00     0.196 C 
ENDROOT
BRANCH   1   2
HETATM    2  C1  UNL     1     -35.873  13.913  -4.743  1.00 20.00     0.148 C 
HETATM    3  O5  UNL     1     -35.813  12.698  -4.569  1.00 20.00    -0.296 OA
BRANCH   2   4
HETATM    4  C3  UNL     1     -35.866  14.551  -6.116  1.00 20.00     0.193 C 
HETATM    5 CL9  UNL     1     -34.211  14.892  -6.642  1.00 20.00    -0.123 Cl
ENDBRANCH   2   4
ENDBRANCH   1   2
BRANCH   1   6
HETATM    6  C4  UNL     1     -34.639  15.521  -3.226  1.00 20.00     0.394 C 
HETATM    7  F6  UNL     1     -33.607  14.704  -3.525  1.00 20.00    -0.171 F 
HETATM    8  F7  UNL     1     -34.581  15.781  -1.901  1.00 20.00    -0.171 F 
HETATM    9  F8  UNL     1     -34.457  16.688  -3.878  1.00 20.00    -0.171 F 
ENDBRANCH   1   6
TORSDOF 3
ENDMDL
