MODEL 1
REMARK VINA RESULT:      -3.6      0.000      0.000
REMARK  1 active torsions:
REMARK  status: ('A' for Active; 'I' for Inactive)
REMARK    1  A    between atoms: C2_2  and  C3_3 
ROOT
HETATM    1  C1  UNL     1     -34.168  15.386  -5.072  1.00 20.00     0.112 C 
HETATM    2  C2  UNL     1     -34.980  14.964  -4.097  1.00 20.00     0.090 C 
HETATM    3 CL6  UNL     1     -34.241  14.890  -6.714  1.00 20.00    -0.095 Cl
HETATM    4 CL7  UNL     1     -34.837  15.516  -2.463  1.00 20.00    -0.080 Cl
ENDROOT
BRANCH   2   5
HETATM    5  C3  UNL     1     -36.076  13.976  -4.356  1.00 20.00     0.167 C 
HETATM    6  C4  UNL     1     -37.506  14.457  -4.410  1.00 20.00     0.097 C 
HETATM    7  O5  UNL     1     -35.820  12.783  -4.524  1.00 20.00    -0.292 OA
ENDBRANCH   2   5
TORSDOF 1
ENDMDL
MODEL 2
REMARK VINA RESULT:      -3.5      0.606      2.362
REMARK  1 active torsions:
REMARK  status: ('A' for Active; 'I' for Inactive)
REMARK    1  A    between atoms: C2_2  and  C3_3 
ROOT
HETATM    1  C1  UNL     1     -34.323  15.561  -4.381  1.00 20.00     0.112 C 
HETATM    2  C2  UNL     1     -35.083  14.820  -5.194  1.00 20.00     0.090 C 
HETATM    3 CL6  UNL     1     -34.415  15.568  -2.666  1.00 20.00    -0.095 Cl
HETATM    4 CL7  UNL     1     -34.925  14.871  -6.918  1.00 20.00    -0.080 Cl
ENDROOT
BRANCH   2   5
HETATM    5  C3  UNL     1     -36.130  13.888  -4.666  1.00 20.00     0.167 C 
HETATM    6  C4  UNL     1     -37.492  14.432  -4.310  1.00 20.00     0.097 C 
HETATM    7  O5  UNL     1     -35.888  12.688  -4.523  1.00 20.00    -0.292 OA
ENDBRANCH   2   5
TORSDOF 1
ENDMDL
MODEL 3
REMARK VINA RESULT:      -3.5     11.785     12.602
REMARK  1 active torsions:
REMARK  status: ('A' for Active; 'I' for Inactive)
REMARK    1  A    between atoms: C2_2  and  C3_3 
ROOT
HETATM    1  C1  UNL     1     -33.751   6.890   5.013  1.00 20.00     0.112 C 
HETATM    2  C2  UNL     1     -33.489   6.394   3.800  1.00 20.00     0.090 C 
HETATM    3 CL6  UNL     1     -34.559   6.053   6.277  1.00 20.00    -0.095 Cl
HETATM    4 CL7  UNL     1     -32.667   7.307   2.580  1.00 20.00    -0.080 Cl
ENDROOT
BRANCH   2   5
HETATM    5  C3  UNL     1     -33.891   5.005   3.410  1.00 20.00     0.167 C 
HETATM    6  C4  UNL     1     -33.205   4.337   2.243  1.00 20.00     0.097 C 
HETATM    7  O5  UNL     1     -34.772   4.409   4.031  1.00 20.00    -0.292 OA
ENDBRANCH   2   5
TORSDOF 1
ENDMDL
MODEL 4
REMARK VINA RESULT:      -3.5     11.742     12.312
REMARK  1 active torsions:
REMARK  status: ('A' for Active; 'I' for Inactive)
REMARK    1  A    between atoms: C2_2  and  C3_3 
ROOT
HETATM    1  C1  UNL     1     -32.985   7.084   3.789  1.00 20.00     0.112 C 
HETATM    2  C2  UNL     1     -33.841   6.463   4.608  1.00 20.00     0.090 C 
HETATM    3 CL6  UNL     1     -32.736   6.700   2.134  1.00 20.00    -0.095 Cl
HETATM    4 CL7  UNL     1     -34.032   6.913   6.269  1.00 20.00    -0.080 Cl
ENDROOT
BRANCH   2   5
HETATM    5  C3  UNL     1     -34.699   5.327   4.141  1.00 20.00     0.167 C 
HETATM    6  C4  UNL     1     -34.058   3.999   3.821  1.00 20.00     0.097 C 
HETATM    7  O5  UNL     1     -35.917   5.470   4.018  1.00 20.00    -0.292 OA
ENDBRANCH   2   5
TORSDOF 1
ENDMDL
MODEL 5
REMARK VINA RESULT:      -3.5     11.138     11.983
REMARK  1 active torsions:
REMARK  status: ('A' for Active; 'I' for Inactive)
REMARK    1  A    between atoms: C2_2  and  C3_3 
ROOT
HETATM    1  C1  UNL     1     -34.020   5.873   4.417  1.00 20.00     0.112 C 
HETATM    2  C2  UNL     1     -33.315   5.930   3.282  1.00 20.00     0.090 C 
HETATM    3 CL6  UNL     1     -34.061   7.092   5.625  1.00 20.00    -0.095 Cl
HETATM    4 CL7  UNL     1     -33.328   4.654   2.113  1.00 20.00    -0.080 Cl
ENDROOT
BRANCH   2   5
HETATM    5  C3  UNL     1     -32.459   7.113   2.942  1.00 20.00     0.167 C 
HETATM    6  C4  UNL     1     -32.610   7.770   1.591  1.00 20.00     0.097 C 
HETATM    7  O5  UNL     1     -31.641   7.549   3.753  1.00 20.00    -0.292 OA
ENDBRANCH   2   5
TORSDOF 1
ENDMDL
MODEL 6
REMARK VINA RESULT:      -3.3      1.865      2.613
REMARK  1 active torsions:
REMARK  status: ('A' for Active; 'I' for Inactive)
REMARK    1  A    between atoms: C2_2  and  C3_3 
ROOT
HETATM    1  C1  UNL     1     -35.974  15.608  -3.131  1.00 20.00     0.112 C 
HETATM    2  C2  UNL     1     -36.709  14.909  -4.002  1.00 20.00     0.090 C 
HETATM    3 CL6  UNL     1     -34.267  15.510  -2.965  1.00 20.00    -0.095 Cl
HETATM    4 CL7  UNL     1     -38.430  15.067  -4.105  1.00 20.00    -0.080 Cl
ENDROOT
BRANCH   2   5
HETATM    5  C3  UNL     1     -36.089  13.933  -4.955  1.00 20.00     0.167 C 
HETATM    6  C4  UNL     1     -35.662  14.406  -6.323  1.00 20.00     0.097 C 
HETATM    7  O5  UNL     1     -35.927  12.756  -4.631  1.00 20.00    -0.292 OA
ENDBRANCH   2   5
TORSDOF 1
ENDMDL
MODEL 7
REMARK VINA RESULT:      -3.3     18.383     19.170
REMARK  1 active torsions:
REMARK  status: ('A' for Active; 'I' for Inactive)
REMARK    1  A    between atoms: C2_2  and  C3_3 
ROOT
HETATM    1  C1  UNL     1     -24.725  18.541  10.019  1.00 20.00     0.112 C 
HETATM    2  C2  UNL     1     -23.476  18.125  10.255  1.00 20.00     0.090 C 
HETATM    3 CL6  UNL     1     -25.291  19.203   8.539  1.00 20.00    -0.095 Cl
HETATM    4 CL7  UNL     1     -22.986  17.468  11.780  1.00 20.00    -0.080 Cl
ENDROOT
BRANCH   2   5
HETATM    5  C3  UNL     1     -22.407  18.200   9.207  1.00 20.00     0.167 C 
HETATM    6  C4  UNL     1     -22.042  16.955   8.435  1.00 20.00     0.097 C 
HETATM    7  O5  UNL     1     -21.831  19.263   8.973  1.00 20.00    -0.292 OA
ENDBRANCH   2   5
TORSDOF 1
ENDMDL
MODEL 8
REMARK VINA RESULT:      -3.3      1.818      2.250
REMARK  1 active torsions:
REMARK  status: ('A' for Active; 'I' for Inactive)
REMARK    1  A    between atoms: C2_2  and  C3_3 
ROOT
HETATM    1  C1  UNL     1     -35.493  14.810  -6.298  1.00 20.00     0.112 C 
HETATM    2  C2  UNL     1     -35.790  14.487  -5.035  1.00 20.00     0.090 C 
HETATM    3 CL6  UNL     1     -33.908  14.997  -6.932  1.00 20.00    -0.095 Cl
HETATM    4 CL7  UNL     1     -37.419  14.318  -4.476  1.00 20.00    -0.080 Cl
ENDROOT
BRANCH   2   5
HETATM    5  C3  UNL     1     -34.723  14.247  -4.010  1.00 20.00     0.167 C 
HETATM    6  C4  UNL     1     -34.399  15.334  -3.013  1.00 20.00     0.097 C 
HETATM    7  O5  UNL     1     -34.115  13.176  -3.976  1.00 20.00    -0.292 OA
ENDBRANCH   2   5
TORSDOF 1
ENDMDL
MODEL 9
REMARK VINA RESULT:      -3.3     18.942     19.596
REMARK  1 active torsions:
REMARK  status: ('A' for Active; 'I' for Inactive)
REMARK    1  A    between atoms: C2_2  and  C3_3 
ROOT
HETATM    1  C1  UNL     1     -22.533  18.182   9.741  1.00 20.00     0.112 C 
HETATM    2  C2  UNL     1     -22.945  17.821  10.961  1.00 20.00     0.090 C 
HETATM    3 CL6  UNL     1     -23.514  18.233   8.333  1.00 20.00    -0.095 Cl
HETATM    4 CL7  UNL     1     -21.887  17.797  12.332  1.00 20.00    -0.080 Cl
ENDROOT
BRANCH   2   5
HETATM    5  C3  UNL     1     -24.361  17.409  11.227  1.00 20.00     0.167 C 
HETATM    6  C4  UNL     1     -24.671  15.954  11.485  1.00 20.00     0.097 C 
HETATM    7  O5  UNL     1     -25.266  18.244  11.236  1.00 20.00    -0.292 OA
ENDBRANCH   2   5
TORSDOF 1
ENDMDL
