MODEL 1
REMARK VINA RESULT:      -4.4      0.000      0.000
REMARK  5 active torsions:
REMARK  status: ('A' for Active; 'I' for Inactive)
REMARK    1  A    between atoms: C2_2  and  C9_9 
REMARK    2  A    between atoms: C3_3  and  C8_8 
REMARK    3  A    between atoms: C4_4  and  C10_10 
REMARK    4  A    between atoms: C8_8  and  C9_9 
REMARK    5  A    between atoms: C10_10  and  O11_11 
ROOT
HETATM    1  C3  UNL     1     -33.737  15.344  -3.515  1.00 20.00    -0.027 C 
HETATM    2  C4  UNL     1     -34.322  14.221  -3.962  1.00 20.00     0.006 C 
ENDROOT
BRANCH   1   3
HETATM    3  C8  UNL     1     -34.373  16.705  -3.599  1.00 20.00     0.035 C 
BRANCH   3   4
HETATM    4  C9  UNL     1     -34.358  17.448  -2.249  1.00 20.00     0.006 C 
HETATM    5  C5  UNL     1     -32.915  17.642  -1.774  1.00 20.00     0.014 C 
BRANCH   4   6
HETATM    6  C2  UNL     1     -35.134  16.693  -1.196  1.00 20.00    -0.032 C 
HETATM    7  C1  UNL     1     -35.409  17.179   0.021  1.00 20.00     0.007 C 
ENDBRANCH   4   6
ENDBRANCH   3   4
ENDBRANCH   1   3
BRANCH   2   8
HETATM    8  C10 UNL     1     -35.682  14.097  -4.613  1.00 20.00     0.068 C 
HETATM    9  C6  UNL     1     -36.829  14.818  -3.897  1.00 20.00     0.050 C 
HETATM   10  C7  UNL     1     -35.594  14.587  -6.061  1.00 20.00     0.050 C 
BRANCH   8  11
HETATM   11  O11 UNL     1     -36.013  12.704  -4.664  1.00 20.00    -0.387 OA
HETATM   12  H29 UNL     1     -35.523  12.339  -5.414  1.00 20.00     0.211 HD
ENDBRANCH   8  11
ENDBRANCH   2   8
TORSDOF 5
ENDMDL
MODEL 2
REMARK VINA RESULT:      -4.4      1.191      1.597
REMARK  5 active torsions:
REMARK  status: ('A' for Active; 'I' for Inactive)
REMARK    1  A    between atoms: C2_2  and  C9_9 
REMARK    2  A    between atoms: C3_3  and  C8_8 
REMARK    3  A    between atoms: C4_4  and  C10_10 
REMARK    4  A    between atoms: C8_8  and  C9_9 
REMARK    5  A    between atoms: C10_10  and  O11_11 
ROOT
HETATM    1  C3  UNL     1     -34.543  14.387  -3.662  1.00 20.00    -0.027 C 
HETATM    2  C4  UNL     1     -35.295  14.098  -4.736  1.00 20.00     0.006 C 
ENDROOT
BRANCH   1   3
HETATM    3  C8  UNL     1     -33.544  15.513  -3.624  1.00 20.00     0.035 C 
BRANCH   3   4
HETATM    4  C9  UNL     1     -34.048  16.721  -2.811  1.00 20.00     0.006 C 
HETATM    5  C5  UNL     1     -32.868  17.433  -2.143  1.00 20.00     0.014 C 
BRANCH   4   6
HETATM    6  C2  UNL     1     -35.040  16.298  -1.752  1.00 20.00    -0.032 C 
HETATM    7  C1  UNL     1     -35.337  17.030  -0.672  1.00 20.00     0.007 C 
ENDBRANCH   4   6
ENDBRANCH   3   4
ENDBRANCH   1   3
BRANCH   2   8
HETATM    8  C10 UNL     1     -35.296  14.813  -6.070  1.00 20.00     0.068 C 
HETATM    9  C6  UNL     1     -35.997  16.176  -6.092  1.00 20.00     0.050 C 
HETATM   10  C7  UNL     1     -33.853  14.970  -6.558  1.00 20.00     0.050 C 
BRANCH   8  11
HETATM   11  O11 UNL     1     -35.965  13.968  -7.014  1.00 20.00    -0.387 OA
HETATM   12  H29 UNL     1     -35.627  14.217  -7.885  1.00 20.00     0.211 HD
ENDBRANCH   8  11
ENDBRANCH   2   8
TORSDOF 5
ENDMDL
MODEL 3
REMARK VINA RESULT:      -4.4      1.529      2.312
REMARK  5 active torsions:
REMARK  status: ('A' for Active; 'I' for Inactive)
REMARK    1  A    between atoms: C2_2  and  C9_9 
REMARK    2  A    between atoms: C3_3  and  C8_8 
REMARK    3  A    between atoms: C4_4  and  C10_10 
REMARK    4  A    between atoms: C8_8  and  C9_9 
REMARK    5  A    between atoms: C10_10  and  O11_11 
ROOT
HETATM    1  C3  UNL     1     -33.634  14.636  -4.308  1.00 20.00    -0.027 C 
HETATM    2  C4  UNL     1     -33.694  14.781  -5.641  1.00 20.00     0.006 C 
ENDROOT
BRANCH   1   3
HETATM    3  C8  UNL     1     -34.813  14.837  -3.395  1.00 20.00     0.035 C 
BRANCH   3   4
HETATM    4  C9  UNL     1     -34.545  15.897  -2.310  1.00 20.00     0.006 C 
HETATM    5  C5  UNL     1     -35.737  16.853  -2.204  1.00 20.00     0.014 C 
BRANCH   4   6
HETATM    6  C2  UNL     1     -33.295  16.690  -2.611  1.00 20.00    -0.032 C 
HETATM    7  C1  UNL     1     -32.803  17.644  -1.811  1.00 20.00     0.007 C 
ENDBRANCH   4   6
ENDBRANCH   3   4
ENDBRANCH   1   3
BRANCH   2   8
HETATM    8  C10 UNL     1     -34.905  15.159  -6.466  1.00 20.00     0.068 C 
HETATM    9  C6  UNL     1     -35.724  16.342  -5.938  1.00 20.00     0.050 C 
HETATM   10  C7  UNL     1     -34.467  15.440  -7.906  1.00 20.00     0.050 C 
BRANCH   8  11
HETATM   11  O11 UNL     1     -35.773  14.019  -6.510  1.00 20.00    -0.387 OA
HETATM   12  H29 UNL     1     -35.530  13.468  -5.753  1.00 20.00     0.211 HD
ENDBRANCH   8  11
ENDBRANCH   2   8
TORSDOF 5
ENDMDL
MODEL 4
REMARK VINA RESULT:      -4.3      1.663      2.323
REMARK  5 active torsions:
REMARK  status: ('A' for Active; 'I' for Inactive)
REMARK    1  A    between atoms: C2_2  and  C9_9 
REMARK    2  A    between atoms: C3_3  and  C8_8 
REMARK    3  A    between atoms: C4_4  and  C10_10 
REMARK    4  A    between atoms: C8_8  and  C9_9 
REMARK    5  A    between atoms: C10_10  and  O11_11 
ROOT
HETATM    1  C3  UNL     1     -33.589  16.364  -2.475  1.00 20.00    -0.027 C 
HETATM    2  C4  UNL     1     -33.158  15.827  -3.627  1.00 20.00     0.006 C 
ENDROOT
BRANCH   1   3
HETATM    3  C8  UNL     1     -35.007  16.250  -1.981  1.00 20.00     0.035 C 
BRANCH   3   4
HETATM    4  C9  UNL     1     -35.241  17.033  -0.675  1.00 20.00     0.006 C 
HETATM    5  C5  UNL     1     -36.507  17.886  -0.794  1.00 20.00     0.014 C 
BRANCH   4   6
HETATM    6  C2  UNL     1     -34.066  17.924  -0.347  1.00 20.00    -0.032 C 
HETATM    7  C1  UNL     1     -33.752  18.321   0.892  1.00 20.00     0.007 C 
ENDBRANCH   4   6
ENDBRANCH   3   4
ENDBRANCH   1   3
BRANCH   2   8
HETATM    8  C10 UNL     1     -33.971  15.030  -4.623  1.00 20.00     0.068 C 
HETATM    9  C6  UNL     1     -34.788  13.872  -4.039  1.00 20.00     0.050 C 
HETATM   10  C7  UNL     1     -34.900  15.977  -5.389  1.00 20.00     0.050 C 
BRANCH   8  11
HETATM   11  O11 UNL     1     -33.061  14.475  -5.581  1.00 20.00    -0.387 OA
HETATM   12  H29 UNL     1     -32.194  14.852  -5.377  1.00 20.00     0.211 HD
ENDBRANCH   8  11
ENDBRANCH   2   8
TORSDOF 5
ENDMDL
MODEL 5
REMARK VINA RESULT:      -4.3     10.866     11.813
REMARK  5 active torsions:
REMARK  status: ('A' for Active; 'I' for Inactive)
REMARK    1  A    between atoms: C2_2  and  C9_9 
REMARK    2  A    between atoms: C3_3  and  C8_8 
REMARK    3  A    between atoms: C4_4  and  C10_10 
REMARK    4  A    between atoms: C8_8  and  C9_9 
REMARK    5  A    between atoms: C10_10  and  O11_11 
ROOT
HETATM    1  C3  UNL     1     -33.305   5.032   2.658  1.00 20.00    -0.027 C 
HETATM    2  C4  UNL     1     -33.832   4.572   3.804  1.00 20.00     0.006 C 
ENDROOT
BRANCH   1   3
HETATM    3  C8  UNL     1     -33.589   6.402   2.102  1.00 20.00     0.035 C 
BRANCH   3   4
HETATM    4  C9  UNL     1     -32.312   7.250   1.945  1.00 20.00     0.006 C 
HETATM    5  C5  UNL     1     -31.741   7.598   3.323  1.00 20.00     0.014 C 
BRANCH   4   6
HETATM    6  C2  UNL     1     -32.587   8.525   1.183  1.00 20.00    -0.032 C 
HETATM    7  C1  UNL     1     -33.215   8.568   0.002  1.00 20.00     0.007 C 
ENDBRANCH   4   6
ENDBRANCH   3   4
ENDBRANCH   1   3
BRANCH   2   8
HETATM    8  C10 UNL     1     -34.776   5.303   4.734  1.00 20.00     0.068 C 
HETATM    9  C6  UNL     1     -34.167   6.475   5.512  1.00 20.00     0.050 C 
HETATM   10  C7  UNL     1     -35.989   5.792   3.937  1.00 20.00     0.050 C 
BRANCH   8  11
HETATM   11  O11 UNL     1     -35.262   4.355   5.692  1.00 20.00    -0.387 OA
HETATM   12  H29 UNL     1     -35.459   4.860   6.493  1.00 20.00     0.211 HD
ENDBRANCH   8  11
ENDBRANCH   2   8
TORSDOF 5
ENDMDL
MODEL 6
REMARK VINA RESULT:      -4.1      1.567      2.546
REMARK  5 active torsions:
REMARK  status: ('A' for Active; 'I' for Inactive)
REMARK    1  A    between atoms: C2_2  and  C9_9 
REMARK    2  A    between atoms: C3_3  and  C8_8 
REMARK    3  A    between atoms: C4_4  and  C10_10 
REMARK    4  A    between atoms: C8_8  and  C9_9 
REMARK    5  A    between atoms: C10_10  and  O11_11 
ROOT
HETATM    1  C3  UNL     1     -34.651  15.982  -2.270  1.00 20.00    -0.027 C 
HETATM    2  C4  UNL     1     -35.081  15.160  -3.241  1.00 20.00     0.006 C 
ENDROOT
BRANCH   1   3
HETATM    3  C8  UNL     1     -33.443  16.869  -2.404  1.00 20.00     0.035 C 
BRANCH   3   4
HETATM    4  C9  UNL     1     -33.252  17.794  -1.187  1.00 20.00     0.006 C 
HETATM    5  C5  UNL     1     -34.294  18.917  -1.213  1.00 20.00     0.014 C 
BRANCH   4   6
HETATM    6  C2  UNL     1     -31.868  18.398  -1.163  1.00 20.00    -0.032 C 
HETATM    7  C1  UNL     1     -31.055  18.362  -0.100  1.00 20.00     0.007 C 
ENDBRANCH   4   6
ENDBRANCH   3   4
ENDBRANCH   1   3
BRANCH   2   8
HETATM    8  C10 UNL     1     -34.468  14.965  -4.610  1.00 20.00     0.068 C 
HETATM    9  C6  UNL     1     -34.486  16.194  -5.526  1.00 20.00     0.050 C 
HETATM   10  C7  UNL     1     -33.029  14.465  -4.451  1.00 20.00     0.050 C 
BRANCH   8  11
HETATM   11  O11 UNL     1     -35.200  13.925  -5.269  1.00 20.00    -0.387 OA
HETATM   12  H29 UNL     1     -34.644  13.628  -6.003  1.00 20.00     0.211 HD
ENDBRANCH   8  11
ENDBRANCH   2   8
TORSDOF 5
ENDMDL
MODEL 7
REMARK VINA RESULT:      -3.9      1.965      2.660
REMARK  5 active torsions:
REMARK  status: ('A' for Active; 'I' for Inactive)
REMARK    1  A    between atoms: C2_2  and  C9_9 
REMARK    2  A    between atoms: C3_3  and  C8_8 
REMARK    3  A    between atoms: C4_4  and  C10_10 
REMARK    4  A    between atoms: C8_8  and  C9_9 
REMARK    5  A    between atoms: C10_10  and  O11_11 
ROOT
HETATM    1  C3  UNL     1     -33.620  16.398  -2.451  1.00 20.00    -0.027 C 
HETATM    2  C4  UNL     1     -33.151  15.891  -3.602  1.00 20.00     0.006 C 
ENDROOT
BRANCH   1   3
HETATM    3  C8  UNL     1     -35.028  16.190  -1.961  1.00 20.00     0.035 C 
BRANCH   3   4
HETATM    4  C9  UNL     1     -35.869  17.479  -2.019  1.00 20.00     0.006 C 
HETATM    5  C5  UNL     1     -36.382  17.835  -0.621  1.00 20.00     0.014 C 
BRANCH   4   6
HETATM    6  C2  UNL     1     -37.043  17.330  -2.959  1.00 20.00    -0.032 C 
HETATM    7  C1  UNL     1     -37.343  18.207  -3.924  1.00 20.00     0.007 C 
ENDBRANCH   4   6
ENDBRANCH   3   4
ENDBRANCH   1   3
BRANCH   2   8
HETATM    8  C10 UNL     1     -33.907  15.041  -4.601  1.00 20.00     0.068 C 
HETATM    9  C6  UNL     1     -34.803  13.952  -4.001  1.00 20.00     0.050 C 
HETATM   10  C7  UNL     1     -34.741  15.951  -5.507  1.00 20.00     0.050 C 
BRANCH   8  11
HETATM   11  O11 UNL     1     -32.941  14.393  -5.437  1.00 20.00    -0.387 OA
HETATM   12  H29 UNL     1     -32.212  14.135  -4.856  1.00 20.00     0.211 HD
ENDBRANCH   8  11
ENDBRANCH   2   8
TORSDOF 5
ENDMDL
MODEL 8
REMARK VINA RESULT:      -3.9     10.738     12.831
REMARK  5 active torsions:
REMARK  status: ('A' for Active; 'I' for Inactive)
REMARK    1  A    between atoms: C2_2  and  C9_9 
REMARK    2  A    between atoms: C3_3  and  C8_8 
REMARK    3  A    between atoms: C4_4  and  C10_10 
REMARK    4  A    between atoms: C8_8  and  C9_9 
REMARK    5  A    between atoms: C10_10  and  O11_11 
ROOT
HETATM    1  C3  UNL     1     -41.228   5.809   0.230  1.00 20.00    -0.027 C 
HETATM    2  C4  UNL     1     -41.368   7.086   0.618  1.00 20.00     0.006 C 
ENDROOT
BRANCH   1   3
HETATM    3  C8  UNL     1     -41.456   5.338  -1.181  1.00 20.00     0.035 C 
BRANCH   3   4
HETATM    4  C9  UNL     1     -42.900   4.851  -1.414  1.00 20.00     0.006 C 
HETATM    5  C5  UNL     1     -43.417   4.129  -0.166  1.00 20.00     0.014 C 
BRANCH   4   6
HETATM    6  C2  UNL     1     -42.983   3.919  -2.600  1.00 20.00    -0.032 C 
HETATM    7  C1  UNL     1     -41.975   3.140  -3.011  1.00 20.00     0.007 C 
ENDBRANCH   4   6
ENDBRANCH   3   4
ENDBRANCH   1   3
BRANCH   2   8
HETATM    8  C10 UNL     1     -41.767   8.264  -0.244  1.00 20.00     0.068 C 
HETATM    9  C6  UNL     1     -43.273   8.452  -0.457  1.00 20.00     0.050 C 
HETATM   10  C7  UNL     1     -41.169   9.545   0.346  1.00 20.00     0.050 C 
BRANCH   8  11
HETATM   11  O11 UNL     1     -41.168   8.081  -1.533  1.00 20.00    -0.387 OA
HETATM   12  H29 UNL     1     -41.884   7.813  -2.126  1.00 20.00     0.211 HD
ENDBRANCH   8  11
ENDBRANCH   2   8
TORSDOF 5
ENDMDL
MODEL 9
REMARK VINA RESULT:      -3.9      1.919      2.762
REMARK  5 active torsions:
REMARK  status: ('A' for Active; 'I' for Inactive)
REMARK    1  A    between atoms: C2_2  and  C9_9 
REMARK    2  A    between atoms: C3_3  and  C8_8 
REMARK    3  A    between atoms: C4_4  and  C10_10 
REMARK    4  A    between atoms: C8_8  and  C9_9 
REMARK    5  A    between atoms: C10_10  and  O11_11 
ROOT
HETATM    1  C3  UNL     1     -34.537  16.857  -1.492  1.00 20.00    -0.027 C 
HETATM    2  C4  UNL     1     -35.008  15.855  -2.251  1.00 20.00     0.006 C 
ENDROOT
BRANCH   1   3
HETATM    3  C8  UNL     1     -33.448  17.797  -1.935  1.00 20.00     0.035 C 
BRANCH   3   4
HETATM    4  C9  UNL     1     -32.870  18.622  -0.769  1.00 20.00     0.006 C 
HETATM    5  C5  UNL     1     -31.392  18.279  -0.565  1.00 20.00     0.014 C 
BRANCH   4   6
HETATM    6  C2  UNL     1     -33.625  18.366   0.514  1.00 20.00    -0.032 C 
HETATM    7  C1  UNL     1     -33.045  18.286   1.718  1.00 20.00     0.007 C 
ENDBRANCH   4   6
ENDBRANCH   3   4
ENDBRANCH   1   3
BRANCH   2   8
HETATM    8  C10 UNL     1     -34.562  15.480  -3.647  1.00 20.00     0.068 C 
HETATM    9  C6  UNL     1     -33.049  15.345  -3.847  1.00 20.00     0.050 C 
HETATM   10  C7  UNL     1     -35.253  14.178  -4.063  1.00 20.00     0.050 C 
BRANCH   8  11
HETATM   11  O11 UNL     1     -35.026  16.500  -4.540  1.00 20.00    -0.387 OA
HETATM   12  H29 UNL     1     -35.617  16.061  -5.166  1.00 20.00     0.211 HD
ENDBRANCH   8  11
ENDBRANCH   2   8
TORSDOF 5
ENDMDL
