MODEL 1
REMARK VINA RESULT:      -4.8      0.000      0.000
REMARK  0 active torsions:
REMARK  status: ('A' for Active; 'I' for Inactive)
ROOT
HETATM    1  C1  UNL     1     -34.188  16.051  -2.853  1.00 20.00    -0.074 C 
HETATM    2  C2  UNL     1     -34.186  16.873  -1.801  1.00 20.00    -0.085 C 
HETATM    3  C3  UNL     1     -33.028  15.792  -3.783  1.00 20.00     0.039 C 
HETATM    4  C4  UNL     1     -35.878  15.764  -4.617  1.00 20.00     0.009 C 
HETATM    5  C5  UNL     1     -34.736  15.501  -5.618  1.00 20.00     0.005 C 
HETATM    6  C6  UNL     1     -34.554  13.957  -3.814  1.00 20.00     0.014 C 
HETATM    7  C7  UNL     1     -35.333  15.172  -3.308  1.00 20.00     0.015 C 
HETATM    8  C8  UNL     1     -33.674  14.785  -4.757  1.00 20.00    -0.010 C 
HETATM    9  C9  UNL     1     -35.399  17.061  -0.933  1.00 20.00     0.043 C 
HETATM   10  C10 UNL     1     -32.971  17.666  -1.409  1.00 20.00     0.043 C 
ENDROOT
TORSDOF 0
ENDMDL
MODEL 2
REMARK VINA RESULT:      -4.7     15.260     17.479
REMARK  0 active torsions:
REMARK  status: ('A' for Active; 'I' for Inactive)
ROOT
HETATM    1  C1  UNL     1     -23.882  17.898   9.485  1.00 20.00    -0.074 C 
HETATM    2  C2  UNL     1     -23.454  18.201   8.257  1.00 20.00    -0.085 C 
HETATM    3  C3  UNL     1     -25.114  18.447  10.160  1.00 20.00     0.039 C 
HETATM    4  C4  UNL     1     -22.616  17.710  11.586  1.00 20.00     0.009 C 
HETATM    5  C5  UNL     1     -23.840  18.277  12.331  1.00 20.00     0.005 C 
HETATM    6  C6  UNL     1     -24.506  16.344  11.110  1.00 20.00     0.014 C 
HETATM    7  C7  UNL     1     -23.252  16.907  10.440  1.00 20.00     0.015 C 
HETATM    8  C8  UNL     1     -25.031  17.724  11.520  1.00 20.00    -0.010 C 
HETATM    9  C9  UNL     1     -22.208  17.596   7.673  1.00 20.00     0.043 C 
HETATM   10  C10 UNL     1     -24.189  19.168   7.371  1.00 20.00     0.043 C 
ENDROOT
TORSDOF 0
ENDMDL
MODEL 3
REMARK VINA RESULT:      -4.6      0.987      2.407
REMARK  0 active torsions:
REMARK  status: ('A' for Active; 'I' for Inactive)
ROOT
HETATM    1  C1  UNL     1     -34.039  16.907  -2.337  1.00 20.00    -0.074 C 
HETATM    2  C2  UNL     1     -33.410  17.694  -1.460  1.00 20.00    -0.085 C 
HETATM    3  C3  UNL     1     -35.282  16.094  -2.072  1.00 20.00     0.039 C 
HETATM    4  C4  UNL     1     -33.113  15.276  -3.929  1.00 20.00     0.009 C 
HETATM    5  C5  UNL     1     -34.356  14.396  -3.693  1.00 20.00     0.005 C 
HETATM    6  C6  UNL     1     -35.063  16.556  -4.404  1.00 20.00     0.014 C 
HETATM    7  C7  UNL     1     -33.670  16.702  -3.790  1.00 20.00     0.015 C 
HETATM    8  C8  UNL     1     -35.476  15.429  -3.451  1.00 20.00    -0.010 C 
HETATM    9  C9  UNL     1     -32.173  18.466  -1.824  1.00 20.00     0.043 C 
HETATM   10  C10 UNL     1     -33.895  17.862  -0.048  1.00 20.00     0.043 C 
ENDROOT
TORSDOF 0
ENDMDL
MODEL 4
REMARK VINA RESULT:      -4.5     15.209     17.478
REMARK  0 active torsions:
REMARK  status: ('A' for Active; 'I' for Inactive)
ROOT
HETATM    1  C1  UNL     1     -24.134  18.069  10.020  1.00 20.00    -0.074 C 
HETATM    2  C2  UNL     1     -24.485  18.587   8.840  1.00 20.00    -0.085 C 
HETATM    3  C3  UNL     1     -22.831  17.378  10.337  1.00 20.00     0.039 C 
HETATM    4  C4  UNL     1     -25.438  16.678  11.574  1.00 20.00     0.009 C 
HETATM    5  C5  UNL     1     -24.142  15.927  11.932  1.00 20.00     0.005 C 
HETATM    6  C6  UNL     1     -23.821  18.253  12.325  1.00 20.00     0.014 C 
HETATM    7  C7  UNL     1     -24.944  18.107  11.297  1.00 20.00     0.015 C 
HETATM    8  C8  UNL     1     -23.061  17.022  11.821  1.00 20.00    -0.010 C 
HETATM    9  C9  UNL     1     -25.812  19.259   8.626  1.00 20.00     0.043 C 
HETATM   10  C10 UNL     1     -23.576  18.536   7.644  1.00 20.00     0.043 C 
ENDROOT
TORSDOF 0
ENDMDL
MODEL 5
REMARK VINA RESULT:      -4.4      1.264      3.636
REMARK  0 active torsions:
REMARK  status: ('A' for Active; 'I' for Inactive)
ROOT
HETATM    1  C1  UNL     1     -34.171  16.104  -3.124  1.00 20.00    -0.074 C 
HETATM    2  C2  UNL     1     -34.140  14.936  -3.770  1.00 20.00    -0.085 C 
HETATM    3  C3  UNL     1     -33.001  17.031  -2.904  1.00 20.00     0.039 C 
HETATM    4  C4  UNL     1     -35.247  16.692  -0.992  1.00 20.00     0.009 C 
HETATM    5  C5  UNL     1     -34.074  17.649  -0.705  1.00 20.00     0.005 C 
HETATM    6  C6  UNL     1     -35.058  18.236  -2.792  1.00 20.00     0.014 C 
HETATM    7  C7  UNL     1     -35.389  16.768  -2.520  1.00 20.00     0.015 C 
HETATM    8  C8  UNL     1     -33.689  18.160  -2.109  1.00 20.00    -0.010 C 
HETATM    9  C9  UNL     1     -35.367  14.083  -3.936  1.00 20.00     0.043 C 
HETATM   10  C10 UNL     1     -32.877  14.391  -4.375  1.00 20.00     0.043 C 
ENDROOT
TORSDOF 0
ENDMDL
MODEL 6
REMARK VINA RESULT:      -4.3      1.168      1.505
REMARK  0 active torsions:
REMARK  status: ('A' for Active; 'I' for Inactive)
ROOT
HETATM    1  C1  UNL     1     -34.953  15.550  -3.670  1.00 20.00    -0.074 C 
HETATM    2  C2  UNL     1     -34.399  16.203  -2.646  1.00 20.00    -0.085 C 
HETATM    3  C3  UNL     1     -34.280  15.206  -4.976  1.00 20.00     0.039 C 
HETATM    4  C4  UNL     1     -37.170  15.833  -4.698  1.00 20.00     0.009 C 
HETATM    5  C5  UNL     1     -36.539  15.498  -6.063  1.00 20.00     0.005 C 
HETATM    6  C6  UNL     1     -36.095  13.715  -4.549  1.00 20.00     0.014 C 
HETATM    7  C7  UNL     1     -36.352  14.974  -3.721  1.00 20.00     0.015 C 
HETATM    8  C8  UNL     1     -35.435  14.483  -5.700  1.00 20.00    -0.010 C 
HETATM    9  C9  UNL     1     -35.158  16.498  -1.382  1.00 20.00     0.043 C 
HETATM   10  C10 UNL     1     -32.978  16.691  -2.685  1.00 20.00     0.043 C 
ENDROOT
TORSDOF 0
ENDMDL
MODEL 7
REMARK VINA RESULT:      -4.3      1.365      3.824
REMARK  0 active torsions:
REMARK  status: ('A' for Active; 'I' for Inactive)
ROOT
HETATM    1  C1  UNL     1     -34.125  15.961  -3.052  1.00 20.00    -0.074 C 
HETATM    2  C2  UNL     1     -34.000  14.828  -3.748  1.00 20.00    -0.085 C 
HETATM    3  C3  UNL     1     -35.346  16.404  -2.284  1.00 20.00     0.039 C 
HETATM    4  C4  UNL     1     -33.470  18.254  -3.653  1.00 20.00     0.009 C 
HETATM    5  C5  UNL     1     -34.707  18.768  -2.892  1.00 20.00     0.005 C 
HETATM    6  C6  UNL     1     -33.384  17.450  -1.416  1.00 20.00     0.014 C 
HETATM    7  C7  UNL     1     -33.058  17.014  -2.845  1.00 20.00     0.015 C 
HETATM    8  C8  UNL     1     -34.850  17.758  -1.735  1.00 20.00    -0.010 C 
HETATM    9  C9  UNL     1     -32.736  14.477  -4.481  1.00 20.00     0.043 C 
HETATM   10  C10 UNL     1     -35.115  13.825  -3.847  1.00 20.00     0.043 C 
ENDROOT
TORSDOF 0
ENDMDL
MODEL 8
REMARK VINA RESULT:      -4.3      1.770      3.474
REMARK  0 active torsions:
REMARK  status: ('A' for Active; 'I' for Inactive)
ROOT
HETATM    1  C1  UNL     1     -33.706  17.795  -0.894  1.00 20.00    -0.074 C 
HETATM    2  C2  UNL     1     -32.845  18.283   0.002  1.00 20.00    -0.085 C 
HETATM    3  C3  UNL     1     -35.052  17.182  -0.594  1.00 20.00     0.039 C 
HETATM    4  C4  UNL     1     -33.296  16.344  -2.838  1.00 20.00     0.009 C 
HETATM    5  C5  UNL     1     -34.657  15.671  -2.577  1.00 20.00     0.005 C 
HETATM    6  C6  UNL     1     -34.989  18.016  -2.830  1.00 20.00     0.014 C 
HETATM    7  C7  UNL     1     -33.539  17.796  -2.398  1.00 20.00     0.015 C 
HETATM    8  C8  UNL     1     -35.517  16.826  -2.022  1.00 20.00    -0.010 C 
HETATM    9  C9  UNL     1     -31.524  18.876  -0.401  1.00 20.00     0.043 C 
HETATM   10  C10 UNL     1     -33.136  18.274   1.476  1.00 20.00     0.043 C 
ENDROOT
TORSDOF 0
ENDMDL
MODEL 9
REMARK VINA RESULT:      -4.3     11.416     12.664
REMARK  0 active torsions:
REMARK  status: ('A' for Active; 'I' for Inactive)
ROOT
HETATM    1  C1  UNL     1     -33.508   6.494   3.977  1.00 20.00    -0.074 C 
HETATM    2  C2  UNL     1     -32.605   7.156   3.250  1.00 20.00    -0.085 C 
HETATM    3  C3  UNL     1     -33.769   6.675   5.452  1.00 20.00     0.039 C 
HETATM    4  C4  UNL     1     -34.041   4.093   4.011  1.00 20.00     0.009 C 
HETATM    5  C5  UNL     1     -34.313   4.212   5.523  1.00 20.00     0.005 C 
HETATM    6  C6  UNL     1     -35.692   5.770   4.365  1.00 20.00     0.014 C 
HETATM    7  C7  UNL     1     -34.490   5.460   3.471  1.00 20.00     0.015 C 
HETATM    8  C8  UNL     1     -34.890   5.636   5.664  1.00 20.00    -0.010 C 
HETATM    9  C9  UNL     1     -32.422   6.901   1.780  1.00 20.00     0.043 C 
HETATM   10  C10 UNL     1     -31.709   8.203   3.850  1.00 20.00     0.043 C 
ENDROOT
TORSDOF 0
ENDMDL
