MODEL 1
REMARK VINA RESULT:      -4.1      0.000      0.000
REMARK  0 active torsions:
REMARK  status: ('A' for Active; 'I' for Inactive)
ROOT
HETATM    1  C1  UNL     1     -22.345  17.189   8.692  1.00 20.00     0.102 C 
HETATM    2  C2  UNL     1     -24.358  18.573   8.465  1.00 20.00     0.075 A 
HETATM    3  C3  UNL     1     -23.483  17.853   9.249  1.00 20.00     0.075 A 
HETATM    4  C4  UNL     1     -23.860  17.869  10.624  1.00 20.00     0.084 A 
HETATM    5  C5  UNL     1     -25.008  18.600  10.837  1.00 20.00     0.097 A 
HETATM    6  N6  UNL     1     -21.423  16.650   8.241  1.00 20.00    -0.191 NA
HETATM    7  S7  UNL     1     -25.627  19.263   9.384  1.00 20.00    -0.086 SA
HETATM    8 CL8  UNL     1     -22.969  17.063  11.851  1.00 20.00    -0.080 Cl
HETATM    9 CL9  UNL     1     -25.834  18.899  12.312  1.00 20.00    -0.074 Cl
ENDROOT
TORSDOF 0
ENDMDL
MODEL 2
REMARK VINA RESULT:      -3.9     16.757     17.429
REMARK  0 active torsions:
REMARK  status: ('A' for Active; 'I' for Inactive)
ROOT
HETATM    1  C1  UNL     1     -35.598  13.855  -4.182  1.00 20.00     0.102 C 
HETATM    2  C2  UNL     1     -36.106  15.854  -2.854  1.00 20.00     0.075 A 
HETATM    3  C3  UNL     1     -35.197  15.048  -3.504  1.00 20.00     0.075 A 
HETATM    4  C4  UNL     1     -33.868  15.554  -3.405  1.00 20.00     0.084 A 
HETATM    5  C5  UNL     1     -33.812  16.726  -2.684  1.00 20.00     0.097 A 
HETATM    6  N6  UNL     1     -35.925  12.888  -4.733  1.00 20.00    -0.191 NA
HETATM    7  S7  UNL     1     -35.358  17.213  -2.129  1.00 20.00    -0.086 SA
HETATM    8 CL8  UNL     1     -32.511  14.773  -4.112  1.00 20.00    -0.080 Cl
HETATM    9 CL9  UNL     1     -32.445  17.692  -2.304  1.00 20.00    -0.074 Cl
ENDROOT
TORSDOF 0
ENDMDL
MODEL 3
REMARK VINA RESULT:      -3.9      3.416      4.373
REMARK  0 active torsions:
REMARK  status: ('A' for Active; 'I' for Inactive)
ROOT
HETATM    1  C1  UNL     1     -26.356  18.748  11.450  1.00 20.00     0.102 C 
HETATM    2  C2  UNL     1     -24.173  18.056  12.332  1.00 20.00     0.075 A 
HETATM    3  C3  UNL     1     -24.970  18.438  11.275  1.00 20.00     0.075 A 
HETATM    4  C4  UNL     1     -24.248  18.479  10.047  1.00 20.00     0.084 A 
HETATM    5  C5  UNL     1     -22.926  18.126  10.213  1.00 20.00     0.097 A 
HETATM    6  N6  UNL     1     -27.479  18.999  11.592  1.00 20.00    -0.191 NA
HETATM    7  S7  UNL     1     -22.562  17.748  11.843  1.00 20.00    -0.086 SA
HETATM    8 CL8  UNL     1     -24.964  18.920   8.550  1.00 20.00    -0.080 Cl
HETATM    9 CL9  UNL     1     -21.682  18.029   9.033  1.00 20.00    -0.074 Cl
ENDROOT
TORSDOF 0
ENDMDL
MODEL 4
REMARK VINA RESULT:      -3.8     17.401     18.182
REMARK  0 active torsions:
REMARK  status: ('A' for Active; 'I' for Inactive)
ROOT
HETATM    1  C1  UNL     1     -37.051  14.416  -4.186  1.00 20.00     0.102 C 
HETATM    2  C2  UNL     1     -34.647  14.163  -4.601  1.00 20.00     0.075 A 
HETATM    3  C3  UNL     1     -35.692  14.816  -3.987  1.00 20.00     0.075 A 
HETATM    4  C4  UNL     1     -35.243  15.892  -3.167  1.00 20.00     0.084 A 
HETATM    5  C5  UNL     1     -33.871  16.019  -3.186  1.00 20.00     0.097 A 
HETATM    6  N6  UNL     1     -38.153  14.091  -4.347  1.00 20.00    -0.191 NA
HETATM    7  S7  UNL     1     -33.131  14.845  -4.190  1.00 20.00    -0.086 SA
HETATM    8 CL8  UNL     1     -36.308  16.897  -2.269  1.00 20.00    -0.080 Cl
HETATM    9 CL9  UNL     1     -32.885  17.159  -2.364  1.00 20.00    -0.074 Cl
ENDROOT
TORSDOF 0
ENDMDL
MODEL 5
REMARK VINA RESULT:      -3.7     17.398     18.127
REMARK  0 active torsions:
REMARK  status: ('A' for Active; 'I' for Inactive)
ROOT
HETATM    1  C1  UNL     1     -35.421  13.911  -4.205  1.00 20.00     0.102 C 
HETATM    2  C2  UNL     1     -34.807  15.577  -2.512  1.00 20.00     0.075 A 
HETATM    3  C3  UNL     1     -34.893  15.186  -3.831  1.00 20.00     0.075 A 
HETATM    4  C4  UNL     1     -34.404  16.188  -4.719  1.00 20.00     0.084 A 
HETATM    5  C5  UNL     1     -33.963  17.306  -4.045  1.00 20.00     0.097 A 
HETATM    6  N6  UNL     1     -35.850  12.876  -4.508  1.00 20.00    -0.191 NA
HETATM    7  S7  UNL     1     -34.139  17.145  -2.349  1.00 20.00    -0.086 SA
HETATM    8 CL8  UNL     1     -34.379  15.999  -6.426  1.00 20.00    -0.080 Cl
HETATM    9 CL9  UNL     1     -33.296  18.754  -4.683  1.00 20.00    -0.074 Cl
ENDROOT
TORSDOF 0
ENDMDL
MODEL 6
REMARK VINA RESULT:      -3.7     17.641     18.356
REMARK  0 active torsions:
REMARK  status: ('A' for Active; 'I' for Inactive)
ROOT
HETATM    1  C1  UNL     1     -37.545  14.779  -4.125  1.00 20.00     0.102 C 
HETATM    2  C2  UNL     1     -36.954  17.019  -3.318  1.00 20.00     0.075 A 
HETATM    3  C3  UNL     1     -36.589  15.734  -3.656  1.00 20.00     0.075 A 
HETATM    4  C4  UNL     1     -35.193  15.510  -3.482  1.00 20.00     0.084 A 
HETATM    5  C5  UNL     1     -34.543  16.633  -3.015  1.00 20.00     0.097 A 
HETATM    6  N6  UNL     1     -38.321  14.005  -4.505  1.00 20.00    -0.191 NA
HETATM    7  S7  UNL     1     -35.616  17.949  -2.791  1.00 20.00    -0.086 SA
HETATM    8 CL8  UNL     1     -34.432  14.008  -3.820  1.00 20.00    -0.080 Cl
HETATM    9 CL9  UNL     1     -32.877  16.841  -2.657  1.00 20.00    -0.074 Cl
ENDROOT
TORSDOF 0
ENDMDL
MODEL 7
REMARK VINA RESULT:      -3.6     18.028     18.587
REMARK  0 active torsions:
REMARK  status: ('A' for Active; 'I' for Inactive)
ROOT
HETATM    1  C1  UNL     1     -36.210  13.868  -4.328  1.00 20.00     0.102 C 
HETATM    2  C2  UNL     1     -37.839  15.701  -4.290  1.00 20.00     0.075 A 
HETATM    3  C3  UNL     1     -36.611  15.185  -3.940  1.00 20.00     0.075 A 
HETATM    4  C4  UNL     1     -35.840  16.108  -3.175  1.00 20.00     0.084 A 
HETATM    5  C5  UNL     1     -36.509  17.296  -2.971  1.00 20.00     0.097 A 
HETATM    6  N6  UNL     1     -35.885  12.800  -4.643  1.00 20.00    -0.191 NA
HETATM    7  S7  UNL     1     -38.060  17.293  -3.698  1.00 20.00    -0.086 SA
HETATM    8 CL8  UNL     1     -34.264  15.758  -2.590  1.00 20.00    -0.080 Cl
HETATM    9 CL9  UNL     1     -35.988  18.691  -2.117  1.00 20.00    -0.074 Cl
ENDROOT
TORSDOF 0
ENDMDL
MODEL 8
REMARK VINA RESULT:      -3.5     17.263     17.986
REMARK  0 active torsions:
REMARK  status: ('A' for Active; 'I' for Inactive)
ROOT
HETATM    1  C1  UNL     1     -35.486  13.869  -4.209  1.00 20.00     0.102 C 
HETATM    2  C2  UNL     1     -33.609  15.312  -3.567  1.00 20.00     0.075 A 
HETATM    3  C3  UNL     1     -34.957  15.127  -3.781  1.00 20.00     0.075 A 
HETATM    4  C4  UNL     1     -35.707  16.312  -3.526  1.00 20.00     0.084 A 
HETATM    5  C5  UNL     1     -34.903  17.357  -3.126  1.00 20.00     0.097 A 
HETATM    6  N6  UNL     1     -35.915  12.849  -4.556  1.00 20.00    -0.191 NA
HETATM    7  S7  UNL     1     -33.251  16.908  -3.060  1.00 20.00    -0.086 SA
HETATM    8 CL8  UNL     1     -37.413  16.401  -3.703  1.00 20.00    -0.080 Cl
HETATM    9 CL9  UNL     1     -35.350  18.962  -2.713  1.00 20.00    -0.074 Cl
ENDROOT
TORSDOF 0
ENDMDL
MODEL 9
REMARK VINA RESULT:      -3.5     17.955     18.536
REMARK  0 active torsions:
REMARK  status: ('A' for Active; 'I' for Inactive)
ROOT
HETATM    1  C1  UNL     1     -35.640  13.936  -4.715  1.00 20.00     0.102 C 
HETATM    2  C2  UNL     1     -35.204  15.829  -6.214  1.00 20.00     0.075 A 
HETATM    3  C3  UNL     1     -35.222  15.284  -4.948  1.00 20.00     0.075 A 
HETATM    4  C4  UNL     1     -34.784  16.212  -3.959  1.00 20.00     0.084 A 
HETATM    5  C5  UNL     1     -34.448  17.431  -4.507  1.00 20.00     0.097 A 
HETATM    6  N6  UNL     1     -35.980  12.843  -4.527  1.00 20.00    -0.191 NA
HETATM    7  S7  UNL     1     -34.662  17.453  -6.206  1.00 20.00    -0.086 SA
HETATM    8 CL8  UNL     1     -34.694  15.830  -2.288  1.00 20.00    -0.080 Cl
HETATM    9 CL9  UNL     1     -33.875  18.844  -3.717  1.00 20.00    -0.074 Cl
ENDROOT
TORSDOF 0
ENDMDL
