MODEL 1
REMARK VINA RESULT:      -4.0      0.000      0.000
REMARK  4 active torsions:
REMARK  status: ('A' for Active; 'I' for Inactive)
REMARK    1  A    between atoms: C3_3  and  C7_7 
REMARK    2  A    between atoms: C6_6  and  C7_7 
REMARK    3  A    between atoms: C6_6  and  N9_9 
REMARK    4  A    between atoms: C8_8  and  N9_9 
ROOT
HETATM    1  C6  UNL     1     -33.102   5.971   2.336  1.00 20.00     0.290 C 
ENDROOT
BRANCH   1   2
HETATM    2  C7  UNL     1     -32.748   7.459   2.372  1.00 20.00     0.114 C 
HETATM    3 CL10 UNL     1     -31.443   7.764   3.558  1.00 20.00    -0.123 Cl
BRANCH   2   4
HETATM    4  C3  UNL     1     -32.344   8.016   1.012  1.00 20.00     0.006 A 
HETATM    5  C1  UNL     1     -33.390   8.296  -0.032  1.00 20.00     0.006 A 
HETATM    6  C2  UNL     1     -32.680   9.435   0.646  1.00 20.00     0.006 A 
ENDBRANCH   2   4
ENDBRANCH   1   2
BRANCH   1   7
HETATM    7  N9  UNL     1     -33.296   5.430   3.661  1.00 20.00     0.088 N 
HETATM    8  H26 UNL     1     -32.446   5.559   4.217  1.00 20.00     0.316 HD
BRANCH   7   9
HETATM    9  C8  UNL     1     -34.406   6.085   4.348  1.00 20.00     0.212 C 
HETATM   10  C4  UNL     1     -33.955   6.499   5.742  1.00 20.00     0.042 C 
HETATM   11  C5  UNL     1     -35.588   5.128   4.400  1.00 20.00     0.042 C 
ENDBRANCH   7   9
ENDBRANCH   1   7
TORSDOF 4
ENDMDL
MODEL 2
REMARK VINA RESULT:      -3.9     11.003     12.248
REMARK  4 active torsions:
REMARK  status: ('A' for Active; 'I' for Inactive)
REMARK    1  A    between atoms: C3_3  and  C7_7 
REMARK    2  A    between atoms: C6_6  and  C7_7 
REMARK    3  A    between atoms: C6_6  and  N9_9 
REMARK    4  A    between atoms: C8_8  and  N9_9 
ROOT
HETATM    1  C6  UNL     1     -33.369  14.645  -4.547  1.00 20.00     0.290 C 
ENDROOT
BRANCH   1   2
HETATM    2  C7  UNL     1     -33.940  15.870  -3.830  1.00 20.00     0.114 C 
HETATM    3 CL10 UNL     1     -35.323  15.402  -2.795  1.00 20.00    -0.123 Cl
BRANCH   2   4
HETATM    4  C3  UNL     1     -32.906  16.617  -2.996  1.00 20.00     0.006 A 
HETATM    5  C1  UNL     1     -32.837  18.119  -3.043  1.00 20.00     0.006 A 
HETATM    6  C2  UNL     1     -33.337  17.427  -1.805  1.00 20.00     0.006 A 
ENDBRANCH   2   4
ENDBRANCH   1   2
BRANCH   1   7
HETATM    7  N9  UNL     1     -33.271  14.852  -5.974  1.00 20.00     0.088 N 
HETATM    8  H26 UNL     1     -33.219  13.948  -6.453  1.00 20.00     0.316 HD
BRANCH   7   9
HETATM    9  C8  UNL     1     -34.425  15.586  -6.487  1.00 20.00     0.212 C 
HETATM   10  C4  UNL     1     -35.593  14.624  -6.654  1.00 20.00     0.042 C 
HETATM   11  C5  UNL     1     -34.045  16.244  -7.805  1.00 20.00     0.042 C 
ENDBRANCH   7   9
ENDBRANCH   1   7
TORSDOF 4
ENDMDL
MODEL 3
REMARK VINA RESULT:      -3.9      1.743      4.719
REMARK  4 active torsions:
REMARK  status: ('A' for Active; 'I' for Inactive)
REMARK    1  A    between atoms: C3_3  and  C7_7 
REMARK    2  A    between atoms: C6_6  and  C7_7 
REMARK    3  A    between atoms: C6_6  and  N9_9 
REMARK    4  A    between atoms: C8_8  and  N9_9 
ROOT
HETATM    1  C6  UNL     1     -32.356   7.142   2.902  1.00 20.00     0.290 C 
ENDROOT
BRANCH   1   2
HETATM    2  C7  UNL     1     -33.521   6.151   2.922  1.00 20.00     0.114 C 
HETATM    3 CL10 UNL     1     -32.991   4.548   2.327  1.00 20.00    -0.123 Cl
BRANCH   2   4
HETATM    4  C3  UNL     1     -34.161   6.001   4.297  1.00 20.00     0.006 A 
HETATM    5  C1  UNL     1     -35.579   5.517   4.423  1.00 20.00     0.006 A 
HETATM    6  C2  UNL     1     -34.442   4.634   4.856  1.00 20.00     0.006 A 
ENDBRANCH   2   4
ENDBRANCH   1   2
BRANCH   1   7
HETATM    7  N9  UNL     1     -32.049   7.587   1.562  1.00 20.00     0.088 N 
HETATM    8  H26 UNL     1     -31.864   6.778   0.961  1.00 20.00     0.316 HD
BRANCH   7   9
HETATM    9  C8  UNL     1     -33.152   8.353   0.987  1.00 20.00     0.212 C 
HETATM   10  C4  UNL     1     -33.157   8.161  -0.523  1.00 20.00     0.042 C 
HETATM   11  C5  UNL     1     -32.988   9.816   1.369  1.00 20.00     0.042 C 
ENDBRANCH   7   9
ENDBRANCH   1   7
TORSDOF 4
ENDMDL
MODEL 4
REMARK VINA RESULT:      -3.8      1.604      4.434
REMARK  4 active torsions:
REMARK  status: ('A' for Active; 'I' for Inactive)
REMARK    1  A    between atoms: C3_3  and  C7_7 
REMARK    2  A    between atoms: C6_6  and  C7_7 
REMARK    3  A    between atoms: C6_6  and  N9_9 
REMARK    4  A    between atoms: C8_8  and  N9_9 
ROOT
HETATM    1  C6  UNL     1     -32.555   7.655   3.093  1.00 20.00     0.290 C 
ENDROOT
BRANCH   1   2
HETATM    2  C7  UNL     1     -33.020   6.550   4.041  1.00 20.00     0.114 C 
HETATM    3 CL10 UNL     1     -33.526   7.243   5.612  1.00 20.00    -0.123 Cl
BRANCH   2   4
HETATM    4  C3  UNL     1     -34.149   5.700   3.470  1.00 20.00     0.006 A 
HETATM    5  C1  UNL     1     -34.241   4.237   3.806  1.00 20.00     0.006 A 
HETATM    6  C2  UNL     1     -35.249   5.202   4.365  1.00 20.00     0.006 A 
ENDBRANCH   2   4
ENDBRANCH   1   2
BRANCH   1   7
HETATM    7  N9  UNL     1     -32.631   7.247   1.709  1.00 20.00     0.088 N 
HETATM    8  H26 UNL     1     -33.523   6.777   1.533  1.00 20.00     0.316 HD
BRANCH   7   9
HETATM    9  C8  UNL     1     -32.521   8.392   0.808  1.00 20.00     0.212 C 
HETATM   10  C4  UNL     1     -33.095   9.623   1.495  1.00 20.00     0.042 C 
HETATM   11  C5  UNL     1     -33.257   8.074  -0.485  1.00 20.00     0.042 C 
ENDBRANCH   7   9
ENDBRANCH   1   7
TORSDOF 4
ENDMDL
MODEL 5
REMARK VINA RESULT:      -3.7     10.668     12.133
REMARK  4 active torsions:
REMARK  status: ('A' for Active; 'I' for Inactive)
REMARK    1  A    between atoms: C3_3  and  C7_7 
REMARK    2  A    between atoms: C6_6  and  C7_7 
REMARK    3  A    between atoms: C6_6  and  N9_9 
REMARK    4  A    between atoms: C8_8  and  N9_9 
ROOT
HETATM    1  C6  UNL     1     -35.778  14.393  -5.047  1.00 20.00     0.290 C 
ENDROOT
BRANCH   1   2
HETATM    2  C7  UNL     1     -34.779  14.607  -3.908  1.00 20.00     0.114 C 
HETATM    3 CL10 UNL     1     -33.109  14.300  -4.474  1.00 20.00    -0.123 Cl
BRANCH   2   4
HETATM    4  C3  UNL     1     -34.863  15.996  -3.286  1.00 20.00     0.006 A 
HETATM    5  C1  UNL     1     -34.997  16.151  -1.796  1.00 20.00     0.006 A 
HETATM    6  C2  UNL     1     -33.714  16.533  -2.479  1.00 20.00     0.006 A 
ENDBRANCH   2   4
ENDBRANCH   1   2
BRANCH   1   7
HETATM    7  N9  UNL     1     -35.140  14.445  -6.342  1.00 20.00     0.088 N 
HETATM    8  H26 UNL     1     -35.367  13.601  -6.875  1.00 20.00     0.316 HD
BRANCH   7   9
HETATM    9  C8  UNL     1     -35.577  15.611  -7.106  1.00 20.00     0.212 C 
HETATM   10  C4  UNL     1     -34.474  16.660  -7.086  1.00 20.00     0.042 C 
HETATM   11  C5  UNL     1     -36.869  16.141  -6.502  1.00 20.00     0.042 C 
ENDBRANCH   7   9
ENDBRANCH   1   7
TORSDOF 4
ENDMDL
MODEL 6
REMARK VINA RESULT:      -3.7     10.703     11.742
REMARK  4 active torsions:
REMARK  status: ('A' for Active; 'I' for Inactive)
REMARK    1  A    between atoms: C3_3  and  C7_7 
REMARK    2  A    between atoms: C6_6  and  C7_7 
REMARK    3  A    between atoms: C6_6  and  N9_9 
REMARK    4  A    between atoms: C8_8  and  N9_9 
ROOT
HETATM    1  C6  UNL     1     -33.440  18.004  -2.817  1.00 20.00     0.290 C 
ENDROOT
BRANCH   1   2
HETATM    2  C7  UNL     1     -33.651  16.498  -2.651  1.00 20.00     0.114 C 
HETATM    3 CL10 UNL     1     -35.071  16.175  -1.611  1.00 20.00    -0.123 Cl
BRANCH   2   4
HETATM    4  C3  UNL     1     -33.807  15.761  -3.975  1.00 20.00     0.006 A 
HETATM    5  C1  UNL     1     -32.937  14.576  -4.290  1.00 20.00     0.006 A 
HETATM    6  C2  UNL     1     -34.400  14.380  -4.007  1.00 20.00     0.006 A 
ENDBRANCH   2   4
ENDBRANCH   1   2
BRANCH   1   7
HETATM    7  N9  UNL     1     -32.253  18.462  -2.135  1.00 20.00     0.088 N 
HETATM    8  H26 UNL     1     -32.120  19.464  -2.300  1.00 20.00     0.316 HD
BRANCH   7   9
HETATM    9  C8  UNL     1     -32.344  18.236  -0.694  1.00 20.00     0.212 C 
HETATM   10  C4  UNL     1     -33.290  19.263  -0.088  1.00 20.00     0.042 C 
HETATM   11  C5  UNL     1     -30.950  18.328  -0.091  1.00 20.00     0.042 C 
ENDBRANCH   7   9
ENDBRANCH   1   7
TORSDOF 4
ENDMDL
MODEL 7
REMARK VINA RESULT:      -3.7     10.997     12.180
REMARK  4 active torsions:
REMARK  status: ('A' for Active; 'I' for Inactive)
REMARK    1  A    between atoms: C3_3  and  C7_7 
REMARK    2  A    between atoms: C6_6  and  C7_7 
REMARK    3  A    between atoms: C6_6  and  N9_9 
REMARK    4  A    between atoms: C8_8  and  N9_9 
ROOT
HETATM    1  C6  UNL     1     -33.987  14.695  -4.516  1.00 20.00     0.290 C 
ENDROOT
BRANCH   1   2
HETATM    2  C7  UNL     1     -34.226  15.974  -3.712  1.00 20.00     0.114 C 
HETATM    3 CL10 UNL     1     -35.259  15.637  -2.290  1.00 20.00    -0.123 Cl
BRANCH   2   4
HETATM    4  C3  UNL     1     -32.938  16.653  -3.261  1.00 20.00     0.006 A 
HETATM    5  C1  UNL     1     -32.810  18.150  -3.321  1.00 20.00     0.006 A 
HETATM    6  C2  UNL     1     -32.911  17.456  -1.991  1.00 20.00     0.006 A 
ENDBRANCH   2   4
ENDBRANCH   1   2
BRANCH   1   7
HETATM    7  N9  UNL     1     -33.283  14.955  -5.750  1.00 20.00     0.088 N 
HETATM    8  H26 UNL     1     -32.617  14.200  -5.937  1.00 20.00     0.316 HD
BRANCH   7   9
HETATM    9  C8  UNL     1     -34.204  15.055  -6.879  1.00 20.00     0.212 C 
HETATM   10  C4  UNL     1     -34.235  16.497  -7.370  1.00 20.00     0.042 C 
HETATM   11  C5  UNL     1     -35.580  14.581  -6.438  1.00 20.00     0.042 C 
ENDBRANCH   7   9
ENDBRANCH   1   7
TORSDOF 4
ENDMDL
MODEL 8
REMARK VINA RESULT:      -3.7     10.880     11.394
REMARK  4 active torsions:
REMARK  status: ('A' for Active; 'I' for Inactive)
REMARK    1  A    between atoms: C3_3  and  C7_7 
REMARK    2  A    between atoms: C6_6  and  C7_7 
REMARK    3  A    between atoms: C6_6  and  N9_9 
REMARK    4  A    between atoms: C8_8  and  N9_9 
ROOT
HETATM    1  C6  UNL     1     -33.954  14.765  -4.519  1.00 20.00     0.290 C 
ENDROOT
BRANCH   1   2
HETATM    2  C7  UNL     1     -33.792  16.057  -3.717  1.00 20.00     0.114 C 
HETATM    3 CL10 UNL     1     -34.407  17.456  -4.650  1.00 20.00    -0.123 Cl
BRANCH   2   4
HETATM    4  C3  UNL     1     -34.472  16.011  -2.354  1.00 20.00     0.006 A 
HETATM    5  C1  UNL     1     -34.224  17.099  -1.346  1.00 20.00     0.006 A 
HETATM    6  C2  UNL     1     -35.563  16.989  -2.019  1.00 20.00     0.006 A 
ENDBRANCH   2   4
ENDBRANCH   1   2
BRANCH   1   7
HETATM    7  N9  UNL     1     -35.000  13.925  -3.984  1.00 20.00     0.088 N 
HETATM    8  H26 UNL     1     -35.334  14.309  -3.095  1.00 20.00     0.316 HD
BRANCH   7   9
HETATM    9  C8  UNL     1     -36.131  13.828  -4.904  1.00 20.00     0.212 C 
HETATM   10  C4  UNL     1     -35.739  14.443  -6.241  1.00 20.00     0.042 C 
HETATM   11  C5  UNL     1     -37.329  14.534  -4.289  1.00 20.00     0.042 C 
ENDBRANCH   7   9
ENDBRANCH   1   7
TORSDOF 4
ENDMDL
MODEL 9
REMARK VINA RESULT:      -3.7      1.279      4.596
REMARK  4 active torsions:
REMARK  status: ('A' for Active; 'I' for Inactive)
REMARK    1  A    between atoms: C3_3  and  C7_7 
REMARK    2  A    between atoms: C6_6  and  C7_7 
REMARK    3  A    between atoms: C6_6  and  N9_9 
REMARK    4  A    between atoms: C8_8  and  N9_9 
ROOT
HETATM    1  C6  UNL     1     -32.991   6.444   2.213  1.00 20.00     0.290 C 
ENDROOT
BRANCH   1   2
HETATM    2  C7  UNL     1     -32.922   6.442   3.741  1.00 20.00     0.114 C 
HETATM    3 CL10 UNL     1     -32.009   7.865   4.329  1.00 20.00    -0.123 Cl
BRANCH   2   4
HETATM    4  C3  UNL     1     -34.292   6.400   4.407  1.00 20.00     0.006 A 
HETATM    5  C1  UNL     1     -34.854   5.096   4.901  1.00 20.00     0.006 A 
HETATM    6  C2  UNL     1     -34.408   6.143   5.884  1.00 20.00     0.006 A 
ENDBRANCH   2   4
ENDBRANCH   1   2
BRANCH   1   7
HETATM    7  N9  UNL     1     -32.317   7.588   1.644  1.00 20.00     0.088 N 
HETATM    8  H26 UNL     1     -31.597   7.276   0.985  1.00 20.00     0.316 HD
BRANCH   7   9
HETATM    9  C8  UNL     1     -33.251   8.460   0.935  1.00 20.00     0.212 C 
HETATM   10  C4  UNL     1     -33.139   8.199  -0.561  1.00 20.00     0.042 C 
HETATM   11  C5  UNL     1     -32.932   9.907   1.279  1.00 20.00     0.042 C 
ENDBRANCH   7   9
ENDBRANCH   1   7
TORSDOF 4
ENDMDL
