MODEL 1
REMARK VINA RESULT:      -3.6      0.000      0.000
REMARK  1 active torsions:
REMARK  status: ('A' for Active; 'I' for Inactive)
REMARK    1  A    between atoms: C1_1  and  C4_4 
ROOT
HETATM    1  C2  UNL     1     -35.183  16.137  -5.104  1.00 20.00     0.042 C 
HETATM    2  C3  UNL     1     -33.517  14.374  -4.392  1.00 20.00     0.042 C 
HETATM    3  C4  UNL     1     -34.920  14.944  -4.184  1.00 20.00     0.105 C 
HETATM    4 CL7  UNL     1     -35.015  15.541  -2.482  1.00 20.00    -0.110 Cl
ENDROOT
BRANCH   3   5
HETATM    5  C1  UNL     1     -35.998  13.858  -4.351  1.00 20.00     0.241 C 
HETATM    6  O5  UNL     1     -35.732  12.665  -4.479  1.00 20.00    -0.278 OA
HETATM    7 CL6  UNL     1     -37.631  14.487  -4.341  1.00 20.00    -0.042 Cl
ENDBRANCH   3   5
TORSDOF 1
ENDMDL
MODEL 2
REMARK VINA RESULT:      -3.6      1.269      1.759
REMARK  1 active torsions:
REMARK  status: ('A' for Active; 'I' for Inactive)
REMARK    1  A    between atoms: C1_1  and  C4_4 
ROOT
HETATM    1  C2  UNL     1     -33.516  14.357  -4.374  1.00 20.00     0.042 C 
HETATM    2  C3  UNL     1     -35.031  15.562  -2.748  1.00 20.00     0.042 C 
HETATM    3  C4  UNL     1     -34.918  14.917  -4.130  1.00 20.00     0.105 C 
HETATM    4 CL7  UNL     1     -35.206  16.210  -5.357  1.00 20.00    -0.110 Cl
ENDROOT
BRANCH   3   5
HETATM    5  C1  UNL     1     -35.997  13.838  -4.336  1.00 20.00     0.241 C 
HETATM    6  O5  UNL     1     -35.732  12.651  -4.508  1.00 20.00    -0.278 OA
HETATM    7 CL6  UNL     1     -37.630  14.468  -4.301  1.00 20.00    -0.042 Cl
ENDBRANCH   3   5
TORSDOF 1
ENDMDL
MODEL 3
REMARK VINA RESULT:      -3.4     12.103     12.697
REMARK  1 active torsions:
REMARK  status: ('A' for Active; 'I' for Inactive)
REMARK    1  A    between atoms: C1_1  and  C4_4 
ROOT
HETATM    1  C2  UNL     1     -35.891   5.776   3.875  1.00 20.00     0.042 C 
HETATM    2  C3  UNL     1     -34.776   5.161   6.060  1.00 20.00     0.042 C 
HETATM    3  C4  UNL     1     -34.573   5.425   4.567  1.00 20.00     0.105 C 
HETATM    4 CL7  UNL     1     -33.960   3.897   3.825  1.00 20.00    -0.110 Cl
ENDROOT
BRANCH   3   5
HETATM    5  C1  UNL     1     -33.507   6.511   4.330  1.00 20.00     0.241 C 
HETATM    6  O5  UNL     1     -33.142   7.293   5.205  1.00 20.00    -0.278 OA
HETATM    7 CL6  UNL     1     -32.872   6.522   2.699  1.00 20.00    -0.042 Cl
ENDBRANCH   3   5
TORSDOF 1
ENDMDL
MODEL 4
REMARK VINA RESULT:      -3.4     12.062     12.670
REMARK  1 active torsions:
REMARK  status: ('A' for Active; 'I' for Inactive)
REMARK    1  A    between atoms: C1_1  and  C4_4 
ROOT
HETATM    1  C2  UNL     1     -34.789   5.091   6.043  1.00 20.00     0.042 C 
HETATM    2  C3  UNL     1     -34.059   4.078   3.845  1.00 20.00     0.042 C 
HETATM    3  C4  UNL     1     -34.538   5.344   4.556  1.00 20.00     0.105 C 
HETATM    4 CL7  UNL     1     -36.113   5.821   3.812  1.00 20.00    -0.110 Cl
ENDROOT
BRANCH   3   5
HETATM    5  C1  UNL     1     -33.557   6.512   4.343  1.00 20.00     0.241 C 
HETATM    6  O5  UNL     1     -33.265   7.311   5.230  1.00 20.00    -0.278 OA
HETATM    7 CL6  UNL     1     -32.904   6.589   2.722  1.00 20.00    -0.042 Cl
ENDBRANCH   3   5
TORSDOF 1
ENDMDL
MODEL 5
REMARK VINA RESULT:      -3.4     12.021     12.677
REMARK  1 active torsions:
REMARK  status: ('A' for Active; 'I' for Inactive)
REMARK    1  A    between atoms: C1_1  and  C4_4 
ROOT
HETATM    1  C2  UNL     1     -34.022   4.086   3.811  1.00 20.00     0.042 C 
HETATM    2  C3  UNL     1     -35.911   5.765   3.866  1.00 20.00     0.042 C 
HETATM    3  C4  UNL     1     -34.550   5.374   4.444  1.00 20.00     0.105 C 
HETATM    4 CL7  UNL     1     -34.782   5.057   6.207  1.00 20.00    -0.110 Cl
ENDROOT
BRANCH   3   5
HETATM    5  C1  UNL     1     -33.534   6.523   4.313  1.00 20.00     0.241 C 
HETATM    6  O5  UNL     1     -33.256   7.279   5.241  1.00 20.00    -0.278 OA
HETATM    7 CL6  UNL     1     -32.816   6.644   2.722  1.00 20.00    -0.042 Cl
ENDBRANCH   3   5
TORSDOF 1
ENDMDL
MODEL 6
REMARK VINA RESULT:      -3.3     10.146     11.293
REMARK  1 active torsions:
REMARK  status: ('A' for Active; 'I' for Inactive)
REMARK    1  A    between atoms: C1_1  and  C4_4 
ROOT
HETATM    1  C2  UNL     1     -40.931   5.555  -0.940  1.00 20.00     0.042 C 
HETATM    2  C3  UNL     1     -43.390   5.293  -1.463  1.00 20.00     0.042 C 
HETATM    3  C4  UNL     1     -42.333   6.133  -0.745  1.00 20.00     0.105 C 
HETATM    4 CL7  UNL     1     -42.703   6.074   1.022  1.00 20.00    -0.110 Cl
ENDROOT
BRANCH   3   5
HETATM    5  C1  UNL     1     -42.398   7.608  -1.180  1.00 20.00     0.241 C 
HETATM    6  O5  UNL     1     -43.224   8.034  -1.983  1.00 20.00    -0.278 OA
HETATM    7 CL6  UNL     1     -41.184   8.614  -0.420  1.00 20.00    -0.042 Cl
ENDBRANCH   3   5
TORSDOF 1
ENDMDL
MODEL 7
REMARK VINA RESULT:      -3.2      1.912      2.750
REMARK  1 active torsions:
REMARK  status: ('A' for Active; 'I' for Inactive)
REMARK    1  A    between atoms: C1_1  and  C4_4 
ROOT
HETATM    1  C2  UNL     1     -35.185  15.829  -2.559  1.00 20.00     0.042 C 
HETATM    2  C3  UNL     1     -36.913  14.696  -4.017  1.00 20.00     0.042 C 
HETATM    3  C4  UNL     1     -35.447  15.109  -3.883  1.00 20.00     0.105 C 
HETATM    4 CL7  UNL     1     -35.088  16.275  -5.215  1.00 20.00    -0.110 Cl
ENDROOT
BRANCH   3   5
HETATM    5  C1  UNL     1     -34.505  13.904  -4.061  1.00 20.00     0.241 C 
HETATM    6  O5  UNL     1     -34.886  12.739  -3.971  1.00 20.00    -0.278 OA
HETATM    7 CL6  UNL     1     -32.849  14.355  -4.402  1.00 20.00    -0.042 Cl
ENDBRANCH   3   5
TORSDOF 1
ENDMDL
MODEL 8
REMARK VINA RESULT:      -3.1      1.598      1.696
REMARK  1 active torsions:
REMARK  status: ('A' for Active; 'I' for Inactive)
REMARK    1  A    between atoms: C1_1  and  C4_4 
ROOT
HETATM    1  C2  UNL     1     -35.097  16.807  -4.529  1.00 20.00     0.042 C 
HETATM    2  C3  UNL     1     -32.936  16.287  -3.324  1.00 20.00     0.042 C 
HETATM    3  C4  UNL     1     -34.374  15.840  -3.590  1.00 20.00     0.105 C 
HETATM    4 CL7  UNL     1     -35.249  15.864  -2.010  1.00 20.00    -0.110 Cl
ENDROOT
BRANCH   3   5
HETATM    5  C1  UNL     1     -34.425  14.397  -4.122  1.00 20.00     0.241 C 
HETATM    6  O5  UNL     1     -33.417  13.750  -4.400  1.00 20.00    -0.278 OA
HETATM    7 CL6  UNL     1     -36.050  13.771  -4.292  1.00 20.00    -0.042 Cl
ENDBRANCH   3   5
TORSDOF 1
ENDMDL
MODEL 9
REMARK VINA RESULT:      -3.1     11.772     12.361
REMARK  1 active torsions:
REMARK  status: ('A' for Active; 'I' for Inactive)
REMARK    1  A    between atoms: C1_1  and  C4_4 
ROOT
HETATM    1  C2  UNL     1     -35.747   5.779   3.930  1.00 20.00     0.042 C 
HETATM    2  C3  UNL     1     -33.883   6.829   5.276  1.00 20.00     0.042 C 
HETATM    3  C4  UNL     1     -34.276   5.688   4.338  1.00 20.00     0.105 C 
HETATM    4 CL7  UNL     1     -34.059   4.141   5.245  1.00 20.00    -0.110 Cl
ENDROOT
BRANCH   3   5
HETATM    5  C1  UNL     1     -33.355   5.632   3.106  1.00 20.00     0.241 C 
HETATM    6  O5  UNL     1     -33.261   4.641   2.385  1.00 20.00    -0.278 OA
HETATM    7 CL6  UNL     1     -32.458   7.110   2.834  1.00 20.00    -0.042 Cl
ENDBRANCH   3   5
TORSDOF 1
ENDMDL
