MODEL 1
REMARK VINA RESULT:      -4.5      0.000      0.000
REMARK  2 active torsions:
REMARK  status: ('A' for Active; 'I' for Inactive)
REMARK    1  A    between atoms: C1_1  and  C3_3 
REMARK    2  A    between atoms: C2_2  and  C5_5 
ROOT
HETATM    1  C1  UNL     1     -32.927   6.132   3.029  1.00 20.00     0.004 C 
HETATM    2  C2  UNL     1     -34.048   6.220   3.758  1.00 20.00     0.049 C 
ENDROOT
BRANCH   1   3
HETATM    3  C3  UNL     1     -32.453   7.214   2.193  1.00 20.00     0.007 C 
HETATM    4  C4  UNL     1     -33.250   7.891   1.360  1.00 20.00     0.056 C 
HETATM    5 BR8  UNL     1     -32.679   9.283   0.274  1.00 20.00    -0.064 Br
ENDBRANCH   1   3
BRANCH   2   6
HETATM    6  C5  UNL     1     -34.493   5.077   4.604  1.00 20.00     0.145 C 
HETATM    7  C6  UNL     1     -34.822   5.388   6.040  1.00 20.00     0.096 C 
HETATM    8  O7  UNL     1     -34.564   3.929   4.169  1.00 20.00    -0.294 OA
ENDBRANCH   2   6
TORSDOF 2
ENDMDL
MODEL 2
REMARK VINA RESULT:      -4.3     11.061     11.443
REMARK  2 active torsions:
REMARK  status: ('A' for Active; 'I' for Inactive)
REMARK    1  A    between atoms: C1_1  and  C3_3 
REMARK    2  A    between atoms: C2_2  and  C5_5 
ROOT
HETATM    1  C1  UNL     1     -34.708  15.527  -3.024  1.00 20.00     0.004 C 
HETATM    2  C2  UNL     1     -34.626  14.485  -3.862  1.00 20.00     0.049 C 
ENDROOT
BRANCH   1   3
HETATM    3  C3  UNL     1     -33.549  16.285  -2.605  1.00 20.00     0.007 C 
HETATM    4  C4  UNL     1     -33.628  17.338  -1.784  1.00 20.00     0.056 C 
HETATM    5 BR8  UNL     1     -32.165  18.333  -1.226  1.00 20.00    -0.064 Br
ENDBRANCH   1   3
BRANCH   2   6
HETATM    6  C5  UNL     1     -35.851  13.739  -4.264  1.00 20.00     0.145 C 
HETATM    7  C6  UNL     1     -37.136  14.521  -4.301  1.00 20.00     0.096 C 
HETATM    8  O7  UNL     1     -35.829  12.538  -4.528  1.00 20.00    -0.294 OA
ENDBRANCH   2   6
TORSDOF 2
ENDMDL
MODEL 3
REMARK VINA RESULT:      -4.0     11.238     11.596
REMARK  2 active torsions:
REMARK  status: ('A' for Active; 'I' for Inactive)
REMARK    1  A    between atoms: C1_1  and  C3_3 
REMARK    2  A    between atoms: C2_2  and  C5_5 
ROOT
HETATM    1  C1  UNL     1     -34.438  15.356  -3.239  1.00 20.00     0.004 C 
HETATM    2  C2  UNL     1     -35.646  14.872  -3.557  1.00 20.00     0.049 C 
ENDROOT
BRANCH   1   3
HETATM    3  C3  UNL     1     -34.237  16.307  -2.167  1.00 20.00     0.007 C 
HETATM    4  C4  UNL     1     -35.189  16.612  -1.279  1.00 20.00     0.056 C 
HETATM    5 BR8  UNL     1     -34.968  17.825   0.108  1.00 20.00    -0.064 Br
ENDBRANCH   1   3
BRANCH   2   6
HETATM    6  C5  UNL     1     -35.799  13.892  -4.670  1.00 20.00     0.145 C 
HETATM    7  C6  UNL     1     -35.880  14.460  -6.062  1.00 20.00     0.096 C 
HETATM    8  O7  UNL     1     -35.884  12.682  -4.470  1.00 20.00    -0.294 OA
ENDBRANCH   2   6
TORSDOF 2
ENDMDL
MODEL 4
REMARK VINA RESULT:      -3.9      3.552      4.951
REMARK  2 active torsions:
REMARK  status: ('A' for Active; 'I' for Inactive)
REMARK    1  A    between atoms: C1_1  and  C3_3 
REMARK    2  A    between atoms: C2_2  and  C5_5 
ROOT
HETATM    1  C1  UNL     1     -33.249   6.273   2.177  1.00 20.00     0.004 C 
HETATM    2  C2  UNL     1     -32.584   7.435   2.169  1.00 20.00     0.049 C 
ENDROOT
BRANCH   1   3
HETATM    3  C3  UNL     1     -33.563   5.562   3.398  1.00 20.00     0.007 C 
HETATM    4  C4  UNL     1     -34.301   6.094   4.378  1.00 20.00     0.056 C 
HETATM    5 BR8  UNL     1     -34.724   5.215   5.957  1.00 20.00    -0.064 Br
ENDBRANCH   1   3
BRANCH   2   6
HETATM    6  C5  UNL     1     -32.287   8.128   0.884  1.00 20.00     0.145 C 
HETATM    7  C6  UNL     1     -33.100   9.358   0.576  1.00 20.00     0.096 C 
HETATM    8  O7  UNL     1     -31.442   7.711   0.094  1.00 20.00    -0.294 OA
ENDBRANCH   2   6
TORSDOF 2
ENDMDL
MODEL 5
REMARK VINA RESULT:      -3.7     11.766     12.360
REMARK  2 active torsions:
REMARK  status: ('A' for Active; 'I' for Inactive)
REMARK    1  A    between atoms: C1_1  and  C3_3 
REMARK    2  A    between atoms: C2_2  and  C5_5 
ROOT
HETATM    1  C1  UNL     1     -34.079  16.420  -2.228  1.00 20.00     0.004 C 
HETATM    2  C2  UNL     1     -32.927  17.079  -2.409  1.00 20.00     0.049 C 
ENDROOT
BRANCH   1   3
HETATM    3  C3  UNL     1     -34.518  15.359  -3.109  1.00 20.00     0.007 C 
HETATM    4  C4  UNL     1     -35.789  15.218  -3.499  1.00 20.00     0.056 C 
HETATM    5 BR8  UNL     1     -36.388  13.871  -4.626  1.00 20.00    -0.064 Br
ENDBRANCH   1   3
BRANCH   2   6
HETATM    6  C5  UNL     1     -32.520  18.163  -1.472  1.00 20.00     0.145 C 
HETATM    7  C6  UNL     1     -33.349  18.325  -0.226  1.00 20.00     0.096 C 
HETATM    8  O7  UNL     1     -31.573  18.912  -1.708  1.00 20.00    -0.294 OA
ENDBRANCH   2   6
TORSDOF 2
ENDMDL
MODEL 6
REMARK VINA RESULT:      -3.7     15.886     16.548
REMARK  2 active torsions:
REMARK  status: ('A' for Active; 'I' for Inactive)
REMARK    1  A    between atoms: C1_1  and  C3_3 
REMARK    2  A    between atoms: C2_2  and  C5_5 
ROOT
HETATM    1  C1  UNL     1     -24.752  19.193   8.118  1.00 20.00     0.004 C 
HETATM    2  C2  UNL     1     -23.677  18.394   8.167  1.00 20.00     0.049 C 
ENDROOT
BRANCH   1   3
HETATM    3  C3  UNL     1     -25.757  19.087   7.082  1.00 20.00     0.007 C 
HETATM    4  C4  UNL     1     -25.483  19.262   5.785  1.00 20.00     0.056 C 
HETATM    5 BR8  UNL     1     -26.743  19.134   4.429  1.00 20.00    -0.064 Br
ENDBRANCH   1   3
BRANCH   2   6
HETATM    6  C5  UNL     1     -22.672  18.542   9.256  1.00 20.00     0.145 C 
HETATM    7  C6  UNL     1     -23.047  17.980  10.602  1.00 20.00     0.096 C 
HETATM    8  O7  UNL     1     -21.599  19.118   9.084  1.00 20.00    -0.294 OA
ENDBRANCH   2   6
TORSDOF 2
ENDMDL
MODEL 7
REMARK VINA RESULT:      -3.7     11.299     11.616
REMARK  2 active torsions:
REMARK  status: ('A' for Active; 'I' for Inactive)
REMARK    1  A    between atoms: C1_1  and  C3_3 
REMARK    2  A    between atoms: C2_2  and  C5_5 
ROOT
HETATM    1  C1  UNL     1     -35.009  15.967  -2.198  1.00 20.00     0.004 C 
HETATM    2  C2  UNL     1     -34.060  15.550  -3.047  1.00 20.00     0.049 C 
ENDROOT
BRANCH   1   3
HETATM    3  C3  UNL     1     -34.784  17.024  -1.236  1.00 20.00     0.007 C 
HETATM    4  C4  UNL     1     -35.446  17.103  -0.077  1.00 20.00     0.056 C 
HETATM    5 BR8  UNL     1     -35.186  18.442   1.181  1.00 20.00    -0.064 Br
ENDBRANCH   1   3
BRANCH   2   6
HETATM    6  C5  UNL     1     -34.343  14.459  -4.021  1.00 20.00     0.145 C 
HETATM    7  C6  UNL     1     -35.788  14.084  -4.215  1.00 20.00     0.096 C 
HETATM    8  O7  UNL     1     -33.447  13.868  -4.621  1.00 20.00    -0.294 OA
ENDBRANCH   2   6
TORSDOF 2
ENDMDL
MODEL 8
REMARK VINA RESULT:      -3.4     15.806     16.298
REMARK  2 active torsions:
REMARK  status: ('A' for Active; 'I' for Inactive)
REMARK    1  A    between atoms: C1_1  and  C3_3 
REMARK    2  A    between atoms: C2_2  and  C5_5 
ROOT
HETATM    1  C1  UNL     1     -24.546  18.746   9.405  1.00 20.00     0.004 C 
HETATM    2  C2  UNL     1     -24.157  17.607   9.993  1.00 20.00     0.049 C 
ENDROOT
BRANCH   1   3
HETATM    3  C3  UNL     1     -24.695  18.872   7.971  1.00 20.00     0.007 C 
HETATM    4  C4  UNL     1     -25.879  19.050   7.377  1.00 20.00     0.056 C 
HETATM    5 BR8  UNL     1     -26.109  19.216   5.543  1.00 20.00    -0.064 Br
ENDBRANCH   1   3
BRANCH   2   6
HETATM    6  C5  UNL     1     -24.021  17.528  11.475  1.00 20.00     0.145 C 
HETATM    7  C6  UNL     1     -25.006  18.326  12.286  1.00 20.00     0.096 C 
HETATM    8  O7  UNL     1     -23.136  16.870  12.018  1.00 20.00    -0.294 OA
ENDBRANCH   2   6
TORSDOF 2
ENDMDL
MODEL 9
REMARK VINA RESULT:      -3.4     10.372     10.748
REMARK  2 active torsions:
REMARK  status: ('A' for Active; 'I' for Inactive)
REMARK    1  A    between atoms: C1_1  and  C3_3 
REMARK    2  A    between atoms: C2_2  and  C5_5 
ROOT
HETATM    1  C1  UNL     1     -41.843   4.201  -1.976  1.00 20.00     0.004 C 
HETATM    2  C2  UNL     1     -42.812   3.486  -2.564  1.00 20.00     0.049 C 
ENDROOT
BRANCH   1   3
HETATM    3  C3  UNL     1     -42.117   5.368  -1.166  1.00 20.00     0.007 C 
HETATM    4  C4  UNL     1     -41.154   6.086  -0.579  1.00 20.00     0.056 C 
HETATM    5 BR8  UNL     1     -41.467   7.587   0.467  1.00 20.00    -0.064 Br
ENDBRANCH   1   3
BRANCH   2   6
HETATM    6  C5  UNL     1     -42.478   2.290  -3.387  1.00 20.00     0.145 C 
HETATM    7  C6  UNL     1     -41.725   2.541  -4.667  1.00 20.00     0.096 C 
HETATM    8  O7  UNL     1     -42.818   1.154  -3.062  1.00 20.00    -0.294 OA
ENDBRANCH   2   6
TORSDOF 2
ENDMDL
