MODEL 1
REMARK VINA RESULT:      -5.2      0.000      0.000
REMARK  1 active torsions:
REMARK  status: ('A' for Active; 'I' for Inactive)
REMARK    1  A    between atoms: C5_5  and  C8_8 
ROOT
HETATM    1  C1  UNL     1     -33.066  15.469  -3.798  1.00 20.00     0.047 C 
HETATM    2  C2  UNL     1     -32.978  16.635  -3.146  1.00 20.00    -0.009 C 
HETATM    3  C3  UNL     1     -34.318  14.679  -3.754  1.00 20.00     0.149 C 
HETATM    4  C6  UNL     1     -35.513  15.261  -3.036  1.00 20.00     0.084 C 
HETATM    5  C7  UNL     1     -35.078  16.135  -1.867  1.00 20.00     0.025 C 
HETATM    6  C8  UNL     1     -34.067  17.229  -2.276  1.00 20.00    -0.003 C 
HETATM    7  C11 UNL     1     -34.761  18.360  -3.053  1.00 20.00     0.024 C 
HETATM    8  O12 UNL     1     -34.382  13.604  -4.348  1.00 20.00    -0.293 OA
ENDROOT
BRANCH   6   9
HETATM    9  C5  UNL     1     -33.473  17.819  -1.020  1.00 20.00    -0.076 C 
HETATM   10  C4  UNL     1     -34.221  18.007   0.084  1.00 20.00    -0.027 C 
HETATM   11  C9  UNL     1     -35.653  17.698   0.267  1.00 20.00     0.036 C 
HETATM   12  C10 UNL     1     -32.014  18.168  -1.109  1.00 20.00     0.044 C 
ENDBRANCH   6   9
TORSDOF 1
ENDMDL
MODEL 2
REMARK VINA RESULT:      -5.2      0.548      1.683
REMARK  1 active torsions:
REMARK  status: ('A' for Active; 'I' for Inactive)
REMARK    1  A    between atoms: C5_5  and  C8_8 
ROOT
HETATM    1  C1  UNL     1     -32.946  15.733  -3.494  1.00 20.00     0.047 C 
HETATM    2  C2  UNL     1     -33.082  16.807  -2.707  1.00 20.00    -0.009 C 
HETATM    3  C3  UNL     1     -34.123  14.903  -3.840  1.00 20.00     0.149 C 
HETATM    4  C6  UNL     1     -35.485  15.348  -3.360  1.00 20.00     0.084 C 
HETATM    5  C7  UNL     1     -35.384  16.077  -2.026  1.00 20.00     0.025 C 
HETATM    6  C8  UNL     1     -34.376  17.248  -2.054  1.00 20.00    -0.003 C 
HETATM    7  C11 UNL     1     -34.942  18.446  -2.833  1.00 20.00     0.024 C 
HETATM    8  O12 UNL     1     -33.983  13.912  -4.555  1.00 20.00    -0.293 OA
ENDROOT
BRANCH   6   9
HETATM    9  C5  UNL     1     -34.124  17.689  -0.633  1.00 20.00    -0.076 C 
HETATM   10  C4  UNL     1     -33.004  18.358  -0.297  1.00 20.00    -0.027 C 
HETATM   11  C9  UNL     1     -31.892  18.757  -1.182  1.00 20.00     0.036 C 
HETATM   12  C10 UNL     1     -35.205  17.326   0.347  1.00 20.00     0.044 C 
ENDBRANCH   6   9
TORSDOF 1
ENDMDL
MODEL 3
REMARK VINA RESULT:      -5.1      2.193      4.259
REMARK  1 active torsions:
REMARK  status: ('A' for Active; 'I' for Inactive)
REMARK    1  A    between atoms: C5_5  and  C8_8 
ROOT
HETATM    1  C1  UNL     1     -35.078  16.765  -1.117  1.00 20.00     0.047 C 
HETATM    2  C2  UNL     1     -35.314  16.125  -2.269  1.00 20.00    -0.009 C 
HETATM    3  C3  UNL     1     -33.882  17.626  -0.970  1.00 20.00     0.149 C 
HETATM    4  C6  UNL     1     -32.992  17.835  -2.172  1.00 20.00     0.084 C 
HETATM    5  C7  UNL     1     -32.985  16.604  -3.070  1.00 20.00     0.025 C 
HETATM    6  C8  UNL     1     -34.404  16.149  -3.479  1.00 20.00    -0.003 C 
HETATM    7  C11 UNL     1     -35.004  17.094  -4.533  1.00 20.00     0.024 C 
HETATM    8  O12 UNL     1     -33.671  18.200   0.098  1.00 20.00    -0.293 OA
ENDROOT
BRANCH   6   9
HETATM    9  C5  UNL     1     -34.301  14.772  -4.089  1.00 20.00    -0.076 C 
HETATM   10  C4  UNL     1     -35.402  14.042  -4.352  1.00 20.00    -0.027 C 
HETATM   11  C9  UNL     1     -36.811  14.415  -4.116  1.00 20.00     0.036 C 
HETATM   12  C10 UNL     1     -32.901  14.302  -4.367  1.00 20.00     0.044 C 
ENDBRANCH   6   9
TORSDOF 1
ENDMDL
MODEL 4
REMARK VINA RESULT:      -4.9      1.953      3.258
REMARK  1 active torsions:
REMARK  status: ('A' for Active; 'I' for Inactive)
REMARK    1  A    between atoms: C5_5  and  C8_8 
ROOT
HETATM    1  C1  UNL     1     -36.238  14.036  -5.211  1.00 20.00     0.047 C 
HETATM    2  C2  UNL     1     -35.064  14.678  -5.182  1.00 20.00    -0.009 C 
HETATM    3  C3  UNL     1     -37.380  14.524  -4.403  1.00 20.00     0.149 C 
HETATM    4  C6  UNL     1     -37.214  15.807  -3.623  1.00 20.00     0.084 C 
HETATM    5  C7  UNL     1     -35.773  15.986  -3.161  1.00 20.00     0.025 C 
HETATM    6  C8  UNL     1     -34.753  15.883  -4.318  1.00 20.00    -0.003 C 
HETATM    7  C11 UNL     1     -34.782  17.145  -5.195  1.00 20.00     0.024 C 
HETATM    8  O12 UNL     1     -38.450  13.919  -4.430  1.00 20.00    -0.293 OA
ENDROOT
BRANCH   6   9
HETATM    9  C5  UNL     1     -33.372  15.759  -3.720  1.00 20.00    -0.076 C 
HETATM   10  C4  UNL     1     -32.935  16.627  -2.788  1.00 20.00    -0.027 C 
HETATM   11  C9  UNL     1     -33.661  17.777  -2.214  1.00 20.00     0.036 C 
HETATM   12  C10 UNL     1     -32.553  14.613  -4.244  1.00 20.00     0.044 C 
ENDBRANCH   6   9
TORSDOF 1
ENDMDL
MODEL 5
REMARK VINA RESULT:      -4.8      1.740      3.416
REMARK  1 active torsions:
REMARK  status: ('A' for Active; 'I' for Inactive)
REMARK    1  A    between atoms: C5_5  and  C8_8 
ROOT
HETATM    1  C1  UNL     1     -36.556  14.810  -4.057  1.00 20.00     0.047 C 
HETATM    2  C2  UNL     1     -36.200  16.035  -3.651  1.00 20.00    -0.009 C 
HETATM    3  C3  UNL     1     -35.534  13.751  -4.229  1.00 20.00     0.149 C 
HETATM    4  C6  UNL     1     -34.105  14.061  -3.850  1.00 20.00     0.084 C 
HETATM    5  C7  UNL     1     -33.781  15.530  -4.086  1.00 20.00     0.025 C 
HETATM    6  C8  UNL     1     -34.777  16.486  -3.392  1.00 20.00    -0.003 C 
HETATM    7  C11 UNL     1     -34.538  16.527  -1.874  1.00 20.00     0.024 C 
HETATM    8  O12 UNL     1     -35.873  12.633  -4.613  1.00 20.00    -0.293 OA
ENDROOT
BRANCH   6   9
HETATM    9  C5  UNL     1     -34.559  17.876  -3.939  1.00 20.00    -0.076 C 
HETATM   10  C4  UNL     1     -34.582  18.117  -5.264  1.00 20.00    -0.027 C 
HETATM   11  C9  UNL     1     -34.808  17.147  -6.353  1.00 20.00     0.036 C 
HETATM   12  C10 UNL     1     -34.319  18.937  -2.902  1.00 20.00     0.044 C 
ENDBRANCH   6   9
TORSDOF 1
ENDMDL
MODEL 6
REMARK VINA RESULT:      -4.8      1.548      3.090
REMARK  1 active torsions:
REMARK  status: ('A' for Active; 'I' for Inactive)
REMARK    1  A    between atoms: C5_5  and  C8_8 
ROOT
HETATM    1  C1  UNL     1     -36.783  14.813  -4.118  1.00 20.00     0.047 C 
HETATM    2  C2  UNL     1     -36.507  16.007  -3.581  1.00 20.00    -0.009 C 
HETATM    3  C3  UNL     1     -35.712  13.806  -4.298  1.00 20.00     0.149 C 
HETATM    4  C6  UNL     1     -34.329  14.124  -3.780  1.00 20.00     0.084 C 
HETATM    5  C7  UNL     1     -34.044  15.618  -3.862  1.00 20.00     0.025 C 
HETATM    6  C8  UNL     1     -35.127  16.477  -3.170  1.00 20.00    -0.003 C 
HETATM    7  C11 UNL     1     -35.007  16.390  -1.640  1.00 20.00     0.024 C 
HETATM    8  O12 UNL     1     -35.977  12.716  -4.803  1.00 20.00    -0.293 OA
ENDROOT
BRANCH   6   9
HETATM    9  C5  UNL     1     -34.919  17.917  -3.576  1.00 20.00    -0.076 C 
HETATM   10  C4  UNL     1     -33.801  18.584  -3.231  1.00 20.00    -0.027 C 
HETATM   11  C9  UNL     1     -32.652  18.080  -2.453  1.00 20.00     0.036 C 
HETATM   12  C10 UNL     1     -36.039  18.521  -4.374  1.00 20.00     0.044 C 
ENDBRANCH   6   9
TORSDOF 1
ENDMDL
MODEL 7
REMARK VINA RESULT:      -4.7      1.863      2.771
REMARK  1 active torsions:
REMARK  status: ('A' for Active; 'I' for Inactive)
REMARK    1  A    between atoms: C5_5  and  C8_8 
ROOT
HETATM    1  C1  UNL     1     -35.663  14.121  -4.260  1.00 20.00     0.047 C 
HETATM    2  C2  UNL     1     -35.193  14.851  -3.241  1.00 20.00    -0.009 C 
HETATM    3  C3  UNL     1     -35.533  14.607  -5.653  1.00 20.00     0.149 C 
HETATM    4  C6  UNL     1     -34.780  15.893  -5.900  1.00 20.00     0.084 C 
HETATM    5  C7  UNL     1     -34.940  16.855  -4.730  1.00 20.00     0.025 C 
HETATM    6  C8  UNL     1     -34.560  16.221  -3.373  1.00 20.00    -0.003 C 
HETATM    7  C11 UNL     1     -33.035  16.079  -3.237  1.00 20.00     0.024 C 
HETATM    8  O12 UNL     1     -35.978  13.932  -6.579  1.00 20.00    -0.293 OA
ENDROOT
BRANCH   6   9
HETATM    9  C5  UNL     1     -35.045  17.132  -2.272  1.00 20.00    -0.076 C 
HETATM   10  C4  UNL     1     -36.325  17.549  -2.224  1.00 20.00    -0.027 C 
HETATM   11  C9  UNL     1     -37.416  17.222  -3.163  1.00 20.00     0.036 C 
HETATM   12  C10 UNL     1     -34.002  17.523  -1.263  1.00 20.00     0.044 C 
ENDBRANCH   6   9
TORSDOF 1
ENDMDL
MODEL 8
REMARK VINA RESULT:      -4.7      1.633      2.356
REMARK  1 active torsions:
REMARK  status: ('A' for Active; 'I' for Inactive)
REMARK    1  A    between atoms: C5_5  and  C8_8 
ROOT
HETATM    1  C1  UNL     1     -34.287  14.166  -4.075  1.00 20.00     0.047 C 
HETATM    2  C2  UNL     1     -33.851  15.432  -4.096  1.00 20.00    -0.009 C 
HETATM    3  C3  UNL     1     -35.702  13.855  -4.383  1.00 20.00     0.149 C 
HETATM    4  C6  UNL     1     -36.612  14.984  -4.808  1.00 20.00     0.084 C 
HETATM    5  C7  UNL     1     -36.207  16.294  -4.143  1.00 20.00     0.025 C 
HETATM    6  C8  UNL     1     -34.718  16.645  -4.361  1.00 20.00    -0.003 C 
HETATM    7  C11 UNL     1     -34.470  17.129  -5.799  1.00 20.00     0.024 C 
HETATM    8  O12 UNL     1     -36.092  12.689  -4.350  1.00 20.00    -0.293 OA
ENDROOT
BRANCH   6   9
HETATM    9  C5  UNL     1     -34.355  17.767  -3.419  1.00 20.00    -0.076 C 
HETATM   10  C4  UNL     1     -34.559  17.659  -2.092  1.00 20.00    -0.027 C 
HETATM   11  C9  UNL     1     -35.133  16.514  -1.358  1.00 20.00     0.036 C 
HETATM   12  C10 UNL     1     -33.761  18.982  -4.076  1.00 20.00     0.044 C 
ENDBRANCH   6   9
TORSDOF 1
ENDMDL
MODEL 9
REMARK VINA RESULT:      -4.7      2.365      4.390
REMARK  1 active torsions:
REMARK  status: ('A' for Active; 'I' for Inactive)
REMARK    1  A    between atoms: C5_5  and  C8_8 
ROOT
HETATM    1  C1  UNL     1     -33.232  17.398  -1.862  1.00 20.00     0.047 C 
HETATM    2  C2  UNL     1     -34.224  16.546  -2.147  1.00 20.00    -0.009 C 
HETATM    3  C3  UNL     1     -32.855  18.459  -2.824  1.00 20.00     0.149 C 
HETATM    4  C6  UNL     1     -33.672  18.611  -4.086  1.00 20.00     0.084 C 
HETATM    5  C7  UNL     1     -34.217  17.266  -4.551  1.00 20.00     0.025 C 
HETATM    6  C8  UNL     1     -35.001  16.520  -3.448  1.00 20.00    -0.003 C 
HETATM    7  C11 UNL     1     -36.377  17.163  -3.216  1.00 20.00     0.024 C 
HETATM    8  O12 UNL     1     -31.935  19.229  -2.555  1.00 20.00    -0.293 OA
ENDROOT
BRANCH   6   9
HETATM    9  C5  UNL     1     -35.218  15.097  -3.902  1.00 20.00    -0.076 C 
HETATM   10  C4  UNL     1     -34.183  14.310  -4.254  1.00 20.00    -0.027 C 
HETATM   11  C9  UNL     1     -32.748  14.657  -4.263  1.00 20.00     0.036 C 
HETATM   12  C10 UNL     1     -36.653  14.650  -3.927  1.00 20.00     0.044 C 
ENDBRANCH   6   9
TORSDOF 1
ENDMDL
