MODEL 1
REMARK VINA RESULT:      -4.8      0.000      0.000
REMARK  3 active torsions:
REMARK  status: ('A' for Active; 'I' for Inactive)
REMARK    1  A    between atoms: C2_2  and  C8_8 
REMARK    2  A    between atoms: C4_4  and  C7_7 
REMARK    3  A    between atoms: C7_7  and  C8_8 
ROOT
HETATM    1  C7  UNL     1     -34.936   5.717   3.498  1.00 20.00     0.034 C 
ENDROOT
BRANCH   1   2
HETATM    2  C4  UNL     1     -34.813   4.830   4.707  1.00 20.00    -0.030 C 
HETATM    3  C3  UNL     1     -34.463   5.272   5.924  1.00 20.00    -0.035 C 
HETATM    4  C5  UNL     1     -34.151   6.699   6.232  1.00 20.00     0.035 C 
ENDBRANCH   1   2
BRANCH   1   5
HETATM    5  C8  UNL     1     -33.737   5.584   2.539  1.00 20.00     0.007 C 
HETATM    6  C6  UNL     1     -33.074   4.216   2.716  1.00 20.00     0.014 C 
BRANCH   5   7
HETATM    7  C2  UNL     1     -32.715   6.669   2.778  1.00 20.00    -0.032 C 
HETATM    8  C1  UNL     1     -32.415   7.624   1.889  1.00 20.00     0.007 C 
ENDBRANCH   5   7
ENDBRANCH   1   5
TORSDOF 3
ENDMDL
MODEL 2
REMARK VINA RESULT:      -4.6      0.886      2.385
REMARK  3 active torsions:
REMARK  status: ('A' for Active; 'I' for Inactive)
REMARK    1  A    between atoms: C2_2  and  C8_8 
REMARK    2  A    between atoms: C4_4  and  C7_7 
REMARK    3  A    between atoms: C7_7  and  C8_8 
ROOT
HETATM    1  C7  UNL     1     -33.915   7.006   3.794  1.00 20.00     0.034 C 
ENDROOT
BRANCH   1   2
HETATM    2  C4  UNL     1     -33.537   7.153   5.243  1.00 20.00    -0.030 C 
HETATM    3  C3  UNL     1     -33.997   6.356   6.219  1.00 20.00    -0.035 C 
HETATM    4  C5  UNL     1     -34.942   5.223   5.990  1.00 20.00     0.035 C 
ENDBRANCH   1   2
BRANCH   1   5
HETATM    5  C8  UNL     1     -32.730   6.568   2.912  1.00 20.00     0.007 C 
HETATM    6  C6  UNL     1     -32.491   7.599   1.807  1.00 20.00     0.014 C 
BRANCH   5   7
HETATM    7  C2  UNL     1     -32.974   5.215   2.290  1.00 20.00    -0.032 C 
HETATM    8  C1  UNL     1     -33.750   4.270   2.835  1.00 20.00     0.007 C 
ENDBRANCH   5   7
ENDBRANCH   1   5
TORSDOF 3
ENDMDL
MODEL 3
REMARK VINA RESULT:      -4.6      1.064      4.207
REMARK  3 active torsions:
REMARK  status: ('A' for Active; 'I' for Inactive)
REMARK    1  A    between atoms: C2_2  and  C8_8 
REMARK    2  A    between atoms: C4_4  and  C7_7 
REMARK    3  A    between atoms: C7_7  and  C8_8 
ROOT
HETATM    1  C7  UNL     1     -33.320   6.142   2.913  1.00 20.00     0.034 C 
ENDROOT
BRANCH   1   2
HETATM    2  C4  UNL     1     -32.149   7.075   2.761  1.00 20.00    -0.030 C 
HETATM    3  C3  UNL     1     -32.058   8.007   1.802  1.00 20.00    -0.035 C 
HETATM    4  C5  UNL     1     -33.107   8.238   0.764  1.00 20.00     0.035 C 
ENDBRANCH   1   2
BRANCH   1   5
HETATM    5  C8  UNL     1     -34.197   6.482   4.134  1.00 20.00     0.007 C 
HETATM    6  C6  UNL     1     -33.351   7.160   5.214  1.00 20.00     0.014 C 
BRANCH   5   7
HETATM    7  C2  UNL     1     -34.847   5.247   4.709  1.00 20.00    -0.032 C 
HETATM    8  C1  UNL     1     -34.843   4.937   6.011  1.00 20.00     0.007 C 
ENDBRANCH   5   7
ENDBRANCH   1   5
TORSDOF 3
ENDMDL
MODEL 4
REMARK VINA RESULT:      -4.5      1.025      4.072
REMARK  3 active torsions:
REMARK  status: ('A' for Active; 'I' for Inactive)
REMARK    1  A    between atoms: C2_2  and  C8_8 
REMARK    2  A    between atoms: C4_4  and  C7_7 
REMARK    3  A    between atoms: C7_7  and  C8_8 
ROOT
HETATM    1  C7  UNL     1     -33.283   7.099   3.089  1.00 20.00     0.034 C 
ENDROOT
BRANCH   1   2
HETATM    2  C4  UNL     1     -32.216   7.136   2.030  1.00 20.00    -0.030 C 
HETATM    3  C3  UNL     1     -32.202   8.014   1.016  1.00 20.00    -0.035 C 
HETATM    4  C5  UNL     1     -33.242   9.065   0.812  1.00 20.00     0.035 C 
ENDBRANCH   1   2
BRANCH   1   5
HETATM    5  C8  UNL     1     -33.508   5.684   3.658  1.00 20.00     0.007 C 
HETATM    6  C6  UNL     1     -33.551   4.663   2.519  1.00 20.00     0.014 C 
BRANCH   5   7
HETATM    7  C2  UNL     1     -34.790   5.604   4.451  1.00 20.00    -0.032 C 
HETATM    8  C1  UNL     1     -34.843   5.343   5.763  1.00 20.00     0.007 C 
ENDBRANCH   5   7
ENDBRANCH   1   5
TORSDOF 3
ENDMDL
MODEL 5
REMARK VINA RESULT:      -4.5      0.765      3.439
REMARK  3 active torsions:
REMARK  status: ('A' for Active; 'I' for Inactive)
REMARK    1  A    between atoms: C2_2  and  C8_8 
REMARK    2  A    between atoms: C4_4  and  C7_7 
REMARK    3  A    between atoms: C7_7  and  C8_8 
ROOT
HETATM    1  C7  UNL     1     -33.525   4.620   3.840  1.00 20.00     0.034 C 
ENDROOT
BRANCH   1   2
HETATM    2  C4  UNL     1     -33.571   5.334   2.516  1.00 20.00    -0.030 C 
HETATM    3  C3  UNL     1     -32.928   6.483   2.266  1.00 20.00    -0.035 C 
HETATM    4  C5  UNL     1     -32.085   7.200   3.269  1.00 20.00     0.035 C 
ENDBRANCH   1   2
BRANCH   1   5
HETATM    5  C8  UNL     1     -34.829   4.776   4.646  1.00 20.00     0.007 C 
HETATM    6  C6  UNL     1     -35.836   5.614   3.854  1.00 20.00     0.014 C 
BRANCH   5   7
HETATM    7  C2  UNL     1     -34.578   5.428   5.984  1.00 20.00    -0.032 C 
HETATM    8  C1  UNL     1     -34.109   6.673   6.133  1.00 20.00     0.007 C 
ENDBRANCH   5   7
ENDBRANCH   1   5
TORSDOF 3
ENDMDL
MODEL 6
REMARK VINA RESULT:      -4.4      0.984      1.901
REMARK  3 active torsions:
REMARK  status: ('A' for Active; 'I' for Inactive)
REMARK    1  A    between atoms: C2_2  and  C8_8 
REMARK    2  A    between atoms: C4_4  and  C7_7 
REMARK    3  A    between atoms: C7_7  and  C8_8 
ROOT
HETATM    1  C7  UNL     1     -33.961   6.633   3.305  1.00 20.00     0.034 C 
ENDROOT
BRANCH   1   2
HETATM    2  C4  UNL     1     -34.322   5.198   3.578  1.00 20.00    -0.030 C 
HETATM    3  C3  UNL     1     -34.665   4.732   4.787  1.00 20.00    -0.035 C 
HETATM    4  C5  UNL     1     -34.732   5.578   6.016  1.00 20.00     0.035 C 
ENDBRANCH   1   2
BRANCH   1   5
HETATM    5  C8  UNL     1     -32.527   6.792   2.763  1.00 20.00     0.007 C 
HETATM    6  C6  UNL     1     -31.703   7.667   3.711  1.00 20.00     0.014 C 
BRANCH   5   7
HETATM    7  C2  UNL     1     -32.523   7.408   1.384  1.00 20.00    -0.032 C 
HETATM    8  C1  UNL     1     -32.876   8.673   1.129  1.00 20.00     0.007 C 
ENDBRANCH   5   7
ENDBRANCH   1   5
TORSDOF 3
ENDMDL
MODEL 7
REMARK VINA RESULT:      -4.1      0.963      3.400
REMARK  3 active torsions:
REMARK  status: ('A' for Active; 'I' for Inactive)
REMARK    1  A    between atoms: C2_2  and  C8_8 
REMARK    2  A    between atoms: C4_4  and  C7_7 
REMARK    3  A    between atoms: C7_7  and  C8_8 
ROOT
HETATM    1  C7  UNL     1     -34.478   6.693   3.980  1.00 20.00     0.034 C 
ENDROOT
BRANCH   1   2
HETATM    2  C4  UNL     1     -33.040   7.017   4.282  1.00 20.00    -0.030 C 
HETATM    3  C3  UNL     1     -32.148   7.388   3.352  1.00 20.00    -0.035 C 
HETATM    4  C5  UNL     1     -32.468   7.527   1.901  1.00 20.00     0.035 C 
ENDBRANCH   1   2
BRANCH   1   5
HETATM    5  C8  UNL     1     -34.916   5.335   4.561  1.00 20.00     0.007 C 
HETATM    6  C6  UNL     1     -34.688   5.315   6.074  1.00 20.00     0.014 C 
BRANCH   5   7
HETATM    7  C2  UNL     1     -34.159   4.193   3.926  1.00 20.00    -0.032 C 
HETATM    8  C1  UNL     1     -33.727   4.194   2.659  1.00 20.00     0.007 C 
ENDBRANCH   5   7
ENDBRANCH   1   5
TORSDOF 3
ENDMDL
MODEL 8
REMARK VINA RESULT:      -3.7     11.458     12.464
REMARK  3 active torsions:
REMARK  status: ('A' for Active; 'I' for Inactive)
REMARK    1  A    between atoms: C2_2  and  C8_8 
REMARK    2  A    between atoms: C4_4  and  C7_7 
REMARK    3  A    between atoms: C7_7  and  C8_8 
ROOT
HETATM    1  C7  UNL     1     -33.163  15.753  -3.608  1.00 20.00     0.034 C 
ENDROOT
BRANCH   1   2
HETATM    2  C4  UNL     1     -34.087  16.201  -2.508  1.00 20.00    -0.030 C 
HETATM    3  C3  UNL     1     -33.795  17.183  -1.643  1.00 20.00    -0.035 C 
HETATM    4  C5  UNL     1     -32.518  17.956  -1.662  1.00 20.00     0.035 C 
ENDBRANCH   1   2
BRANCH   1   5
HETATM    5  C8  UNL     1     -33.732  14.572  -4.418  1.00 20.00     0.007 C 
HETATM    6  C6  UNL     1     -33.987  15.004  -5.864  1.00 20.00     0.014 C 
BRANCH   5   7
HETATM    7  C2  UNL     1     -35.017  14.057  -3.816  1.00 20.00    -0.032 C 
HETATM    8  C1  UNL     1     -36.095  13.716  -4.532  1.00 20.00     0.007 C 
ENDBRANCH   5   7
ENDBRANCH   1   5
TORSDOF 3
ENDMDL
MODEL 9
REMARK VINA RESULT:      -3.7      8.656     10.016
REMARK  3 active torsions:
REMARK  status: ('A' for Active; 'I' for Inactive)
REMARK    1  A    between atoms: C2_2  and  C8_8 
REMARK    2  A    between atoms: C4_4  and  C7_7 
REMARK    3  A    between atoms: C7_7  and  C8_8 
ROOT
HETATM    1  C7  UNL     1     -41.313   5.380  -1.164  1.00 20.00     0.034 C 
ENDROOT
BRANCH   1   2
HETATM    2  C4  UNL     1     -42.723   4.940  -1.450  1.00 20.00    -0.030 C 
HETATM    3  C3  UNL     1     -43.037   3.947  -2.295  1.00 20.00    -0.035 C 
HETATM    4  C5  UNL     1     -42.028   3.153  -3.058  1.00 20.00     0.035 C 
ENDBRANCH   1   2
BRANCH   1   5
HETATM    5  C8  UNL     1     -41.237   6.454  -0.061  1.00 20.00     0.007 C 
HETATM    6  C6  UNL     1     -42.415   6.298   0.903  1.00 20.00     0.014 C 
BRANCH   5   7
HETATM    7  C2  UNL     1     -41.250   7.846  -0.645  1.00 20.00    -0.032 C 
HETATM    8  C1  UNL     1     -41.686   8.929   0.010  1.00 20.00     0.007 C 
ENDBRANCH   5   7
ENDBRANCH   1   5
TORSDOF 3
ENDMDL
