MODEL 1
REMARK VINA RESULT:      -3.8      0.000      0.000
REMARK  0 active torsions:
REMARK  status: ('A' for Active; 'I' for Inactive)
ROOT
HETATM    1  C1  UNL     1     -34.050   6.394   4.345  1.00 20.00     0.001 C 
HETATM    2  C2  UNL     1     -33.394   6.101   3.212  1.00 20.00     0.076 C 
HETATM    3  C3  UNL     1     -34.829   5.462   5.219  1.00 20.00     0.038 C 
HETATM    4 CL4  UNL     1     -33.345   4.501   2.551  1.00 20.00    -0.076 Cl
HETATM    5 BR5  UNL     1     -32.470   7.416   2.251  1.00 20.00    -0.038 Br
ENDROOT
TORSDOF 0
ENDMDL
MODEL 2
REMARK VINA RESULT:      -3.6      2.787      3.355
REMARK  0 active torsions:
REMARK  status: ('A' for Active; 'I' for Inactive)
ROOT
HETATM    1  C1  UNL     1     -33.302   6.321   3.001  1.00 20.00     0.001 C 
HETATM    2  C2  UNL     1     -33.824   6.223   4.233  1.00 20.00     0.076 C 
HETATM    3  C3  UNL     1     -32.279   7.298   2.516  1.00 20.00     0.038 C 
HETATM    4 CL4  UNL     1     -33.362   7.277   5.527  1.00 20.00    -0.076 Cl
HETATM    5 BR5  UNL     1     -35.107   4.924   4.650  1.00 20.00    -0.038 Br
ENDROOT
TORSDOF 0
ENDMDL
MODEL 3
REMARK VINA RESULT:      -3.6      2.196      2.779
REMARK  0 active torsions:
REMARK  status: ('A' for Active; 'I' for Inactive)
ROOT
HETATM    1  C1  UNL     1     -33.265   6.856   3.383  1.00 20.00     0.001 C 
HETATM    2  C2  UNL     1     -33.748   5.612   3.520  1.00 20.00     0.076 C 
HETATM    3  C3  UNL     1     -32.334   7.366   2.328  1.00 20.00     0.038 C 
HETATM    4 CL4  UNL     1     -33.342   4.330   2.429  1.00 20.00    -0.076 Cl
HETATM    5 BR5  UNL     1     -34.910   5.164   4.918  1.00 20.00    -0.038 Br
ENDROOT
TORSDOF 0
ENDMDL
MODEL 4
REMARK VINA RESULT:      -3.5      1.930      1.932
REMARK  0 active torsions:
REMARK  status: ('A' for Active; 'I' for Inactive)
ROOT
HETATM    1  C1  UNL     1     -34.314   5.450   3.710  1.00 20.00     0.001 C 
HETATM    2  C2  UNL     1     -33.484   6.492   3.873  1.00 20.00     0.076 C 
HETATM    3  C3  UNL     1     -35.165   4.788   4.747  1.00 20.00     0.038 C 
HETATM    4 CL4  UNL     1     -33.260   7.276   5.400  1.00 20.00    -0.076 Cl
HETATM    5 BR5  UNL     1     -32.493   7.184   2.442  1.00 20.00    -0.038 Br
ENDROOT
TORSDOF 0
ENDMDL
MODEL 5
REMARK VINA RESULT:      -3.0      2.067      2.085
REMARK  0 active torsions:
REMARK  status: ('A' for Active; 'I' for Inactive)
ROOT
HETATM    1  C1  UNL     1     -34.121   6.037   4.764  1.00 20.00     0.001 C 
HETATM    2  C2  UNL     1     -33.354   6.117   3.666  1.00 20.00     0.076 C 
HETATM    3  C3  UNL     1     -34.131   6.957   5.944  1.00 20.00     0.038 C 
HETATM    4 CL4  UNL     1     -32.187   7.376   3.435  1.00 20.00    -0.076 Cl
HETATM    5 BR5  UNL     1     -33.489   4.858   2.286  1.00 20.00    -0.038 Br
ENDROOT
TORSDOF 0
ENDMDL
MODEL 6
REMARK VINA RESULT:      -3.0      9.171      9.241
REMARK  0 active torsions:
REMARK  status: ('A' for Active; 'I' for Inactive)
ROOT
HETATM    1  C1  UNL     1     -41.183   8.162  -0.379  1.00 20.00     0.001 C 
HETATM    2  C2  UNL     1     -41.661   6.945  -0.075  1.00 20.00     0.076 C 
HETATM    3  C3  UNL     1     -41.519   9.466   0.273  1.00 20.00     0.038 C 
HETATM    4 CL4  UNL     1     -42.808   6.686   1.195  1.00 20.00    -0.076 Cl
HETATM    5 BR5  UNL     1     -41.116   5.420  -1.015  1.00 20.00    -0.038 Br
ENDROOT
TORSDOF 0
ENDMDL
MODEL 7
REMARK VINA RESULT:      -3.0      2.476      2.850
REMARK  0 active torsions:
REMARK  status: ('A' for Active; 'I' for Inactive)
ROOT
HETATM    1  C1  UNL     1     -33.932   5.176   3.492  1.00 20.00     0.001 C 
HETATM    2  C2  UNL     1     -33.491   6.278   4.119  1.00 20.00     0.076 C 
HETATM    3  C3  UNL     1     -33.522   4.662   2.148  1.00 20.00     0.038 C 
HETATM    4 CL4  UNL     1     -32.309   7.335   3.424  1.00 20.00    -0.076 Cl
HETATM    5 BR5  UNL     1     -34.130   6.759   5.812  1.00 20.00    -0.038 Br
ENDROOT
TORSDOF 0
ENDMDL
MODEL 8
REMARK VINA RESULT:      -3.0      9.202      9.293
REMARK  0 active torsions:
REMARK  status: ('A' for Active; 'I' for Inactive)
ROOT
HETATM    1  C1  UNL     1     -42.061   7.742   0.579  1.00 20.00     0.001 C 
HETATM    2  C2  UNL     1     -41.978   6.428   0.321  1.00 20.00     0.076 C 
HETATM    3  C3  UNL     1     -41.308   8.854  -0.081  1.00 20.00     0.038 C 
HETATM    4 CL4  UNL     1     -40.923   5.781  -0.890  1.00 20.00    -0.076 Cl
HETATM    5 BR5  UNL     1     -43.009   5.181   1.264  1.00 20.00    -0.038 Br
ENDROOT
TORSDOF 0
ENDMDL
MODEL 9
REMARK VINA RESULT:      -3.0     16.902     17.077
REMARK  0 active torsions:
REMARK  status: ('A' for Active; 'I' for Inactive)
ROOT
HETATM    1  C1  UNL     1     -23.989  16.577  10.624  1.00 20.00     0.001 C 
HETATM    2  C2  UNL     1     -22.959  17.425  10.766  1.00 20.00     0.076 C 
HETATM    3  C3  UNL     1     -24.686  15.797  11.693  1.00 20.00     0.038 C 
HETATM    4 CL4  UNL     1     -22.238  17.767  12.303  1.00 20.00    -0.076 Cl
HETATM    5 BR5  UNL     1     -22.215  18.313   9.294  1.00 20.00    -0.038 Br
ENDROOT
TORSDOF 0
ENDMDL
