MODEL 1
REMARK VINA RESULT:      -4.4      0.000      0.000
REMARK  2 active torsions:
REMARK  status: ('A' for Active; 'I' for Inactive)
REMARK    1  A    between atoms: C1_1  and  C4_4 
REMARK    2  A    between atoms: C4_4  and  C6_6 
ROOT
HETATM    1  C2  UNL     1     -34.175  14.912  -5.743  1.00 20.00     0.062 A 
HETATM    2  C3  UNL     1     -33.520  14.359  -4.520  1.00 20.00     0.190 A 
HETATM    3  C4  UNL     1     -34.986  14.714  -4.477  1.00 20.00     0.081 A 
HETATM    4  F9  UNL     1     -32.628  15.177  -3.849  1.00 20.00    -0.248 F 
ENDROOT
BRANCH   3   5
HETATM    5  C1  UNL     1     -35.918  13.592  -4.477  1.00 20.00     0.184 C 
HETATM    6  O7  UNL     1     -35.421  12.480  -4.142  1.00 20.00    -0.647 OA
HETATM    7  O8  UNL     1     -37.100  13.884  -4.813  1.00 20.00    -0.647 OA
ENDBRANCH   3   5
BRANCH   3   8
HETATM    8  C6  UNL     1     -35.384  15.949  -3.712  1.00 20.00     0.019 C 
HETATM    9  C5  UNL     1     -35.147  15.809  -2.236  1.00 20.00     0.006 C 
ENDBRANCH   3   8
TORSDOF 2
ENDMDL
MODEL 2
REMARK VINA RESULT:      -4.4      0.170      1.091
REMARK  2 active torsions:
REMARK  status: ('A' for Active; 'I' for Inactive)
REMARK    1  A    between atoms: C1_1  and  C4_4 
REMARK    2  A    between atoms: C4_4  and  C6_6 
ROOT
HETATM    1  C2  UNL     1     -34.372  14.965  -5.821  1.00 20.00     0.062 A 
HETATM    2  C3  UNL     1     -33.675  14.377  -4.638  1.00 20.00     0.190 A 
HETATM    3  C4  UNL     1     -35.136  14.744  -4.530  1.00 20.00     0.081 A 
HETATM    4  F9  UNL     1     -32.750  15.171  -3.983  1.00 20.00    -0.248 F 
ENDROOT
BRANCH   3   5
HETATM    5  C1  UNL     1     -36.077  13.630  -4.520  1.00 20.00     0.184 C 
HETATM    6  O7  UNL     1     -37.277  13.938  -4.768  1.00 20.00    -0.647 OA
HETATM    7  O8  UNL     1     -35.565  12.505  -4.265  1.00 20.00    -0.647 OA
ENDBRANCH   3   5
BRANCH   3   8
HETATM    8  C6  UNL     1     -35.492  15.964  -3.721  1.00 20.00     0.019 C 
HETATM    9  C5  UNL     1     -35.151  15.807  -2.267  1.00 20.00     0.006 C 
ENDBRANCH   3   8
TORSDOF 2
ENDMDL
MODEL 3
REMARK VINA RESULT:      -4.4      1.452      2.797
REMARK  2 active torsions:
REMARK  status: ('A' for Active; 'I' for Inactive)
REMARK    1  A    between atoms: C1_1  and  C4_4 
REMARK    2  A    between atoms: C4_4  and  C6_6 
ROOT
HETATM    1  C2  UNL     1     -35.024  15.275  -3.072  1.00 20.00     0.062 A 
HETATM    2  C3  UNL     1     -36.057  16.044  -3.829  1.00 20.00     0.190 A 
HETATM    3  C4  UNL     1     -35.473  14.792  -4.438  1.00 20.00     0.081 A 
HETATM    4  F9  UNL     1     -35.681  17.267  -4.359  1.00 20.00    -0.248 F 
ENDROOT
BRANCH   3   5
HETATM    5  C1  UNL     1     -36.343  13.622  -4.454  1.00 20.00     0.184 C 
HETATM    6  O7  UNL     1     -37.580  13.871  -4.488  1.00 20.00    -0.647 OA
HETATM    7  O8  UNL     1     -35.739  12.512  -4.432  1.00 20.00    -0.647 OA
ENDBRANCH   3   5
BRANCH   3   8
HETATM    8  C6  UNL     1     -34.505  14.956  -5.581  1.00 20.00     0.019 C 
HETATM    9  C5  UNL     1     -35.198  15.039  -6.910  1.00 20.00     0.006 C 
ENDBRANCH   3   8
TORSDOF 2
ENDMDL
MODEL 4
REMARK VINA RESULT:      -4.4      1.221      1.369
REMARK  2 active torsions:
REMARK  status: ('A' for Active; 'I' for Inactive)
REMARK    1  A    between atoms: C1_1  and  C4_4 
REMARK    2  A    between atoms: C4_4  and  C6_6 
ROOT
HETATM    1  C2  UNL     1     -36.102  15.421  -6.372  1.00 20.00     0.062 A 
HETATM    2  C3  UNL     1     -34.793  14.846  -5.940  1.00 20.00     0.190 A 
HETATM    3  C4  UNL     1     -35.921  14.949  -4.942  1.00 20.00     0.081 A 
HETATM    4  F9  UNL     1     -33.724  15.716  -5.813  1.00 20.00    -0.248 F 
ENDROOT
BRANCH   3   5
HETATM    5  C1  UNL     1     -36.580  13.698  -4.588  1.00 20.00     0.184 C 
HETATM    6  O7  UNL     1     -35.829  12.683  -4.558  1.00 20.00    -0.647 OA
HETATM    7  O8  UNL     1     -37.818  13.798  -4.357  1.00 20.00    -0.647 OA
ENDBRANCH   3   5
BRANCH   3   8
HETATM    8  C6  UNL     1     -35.815  16.007  -3.875  1.00 20.00     0.019 C 
HETATM    9  C5  UNL     1     -34.936  15.582  -2.733  1.00 20.00     0.006 C 
ENDBRANCH   3   8
TORSDOF 2
ENDMDL
MODEL 5
REMARK VINA RESULT:      -4.2     17.481     18.630
REMARK  2 active torsions:
REMARK  status: ('A' for Active; 'I' for Inactive)
REMARK    1  A    between atoms: C1_1  and  C4_4 
REMARK    2  A    between atoms: C4_4  and  C6_6 
ROOT
HETATM    1  C2  UNL     1     -23.100  17.753  11.471  1.00 20.00     0.062 A 
HETATM    2  C3  UNL     1     -23.740  16.638  10.712  1.00 20.00     0.190 A 
HETATM    3  C4  UNL     1     -23.403  17.923   9.995  1.00 20.00     0.081 A 
HETATM    4  F9  UNL     1     -25.071  16.366  10.977  1.00 20.00    -0.248 F 
ENDROOT
BRANCH   3   5
HETATM    5  C1  UNL     1     -22.258  17.872   9.093  1.00 20.00     0.184 C 
HETATM    6  O7  UNL     1     -21.624  18.957   8.967  1.00 20.00    -0.647 OA
HETATM    7  O8  UNL     1     -22.054  16.746   8.558  1.00 20.00    -0.647 OA
ENDBRANCH   3   5
BRANCH   3   8
HETATM    8  C6  UNL     1     -24.542  18.836   9.624  1.00 20.00     0.019 C 
HETATM    9  C5  UNL     1     -24.926  18.714   8.177  1.00 20.00     0.006 C 
ENDBRANCH   3   8
TORSDOF 2
ENDMDL
MODEL 6
REMARK VINA RESULT:      -4.0      1.959      2.638
REMARK  2 active torsions:
REMARK  status: ('A' for Active; 'I' for Inactive)
REMARK    1  A    between atoms: C1_1  and  C4_4 
REMARK    2  A    between atoms: C4_4  and  C6_6 
ROOT
HETATM    1  C2  UNL     1     -37.525  15.471  -4.070  1.00 20.00     0.062 A 
HETATM    2  C3  UNL     1     -36.610  16.188  -5.008  1.00 20.00     0.190 A 
HETATM    3  C4  UNL     1     -36.114  14.958  -4.287  1.00 20.00     0.081 A 
HETATM    4  F9  UNL     1     -36.125  17.422  -4.608  1.00 20.00    -0.248 F 
ENDROOT
BRANCH   3   5
HETATM    5  C1  UNL     1     -35.984  13.750  -5.094  1.00 20.00     0.184 C 
HETATM    6  O7  UNL     1     -35.959  13.937  -6.342  1.00 20.00    -0.647 OA
HETATM    7  O8  UNL     1     -35.913  12.676  -4.433  1.00 20.00    -0.647 OA
ENDBRANCH   3   5
BRANCH   3   8
HETATM    8  C6  UNL     1     -35.128  15.155  -3.165  1.00 20.00     0.019 C 
HETATM    9  C5  UNL     1     -33.722  15.331  -3.662  1.00 20.00     0.006 C 
ENDBRANCH   3   8
TORSDOF 2
ENDMDL
MODEL 7
REMARK VINA RESULT:      -3.9      1.823      2.297
REMARK  2 active torsions:
REMARK  status: ('A' for Active; 'I' for Inactive)
REMARK    1  A    between atoms: C1_1  and  C4_4 
REMARK    2  A    between atoms: C4_4  and  C6_6 
ROOT
HETATM    1  C2  UNL     1     -34.530  15.717  -4.372  1.00 20.00     0.062 A 
HETATM    2  C3  UNL     1     -34.939  14.948  -3.159  1.00 20.00     0.190 A 
HETATM    3  C4  UNL     1     -35.853  14.976  -4.360  1.00 20.00     0.081 A 
HETATM    4  F9  UNL     1     -35.307  15.673  -2.038  1.00 20.00    -0.248 F 
ENDROOT
BRANCH   3   5
HETATM    5  C1  UNL     1     -35.914  13.751  -5.148  1.00 20.00     0.184 C 
HETATM    6  O7  UNL     1     -36.021  13.919  -6.395  1.00 20.00    -0.647 OA
HETATM    7  O8  UNL     1     -35.851  12.684  -4.476  1.00 20.00    -0.647 OA
ENDBRANCH   3   5
BRANCH   3   8
HETATM    8  C6  UNL     1     -37.107  15.806  -4.264  1.00 20.00     0.019 C 
HETATM    9  C5  UNL     1     -38.346  14.963  -4.169  1.00 20.00     0.006 C 
ENDBRANCH   3   8
TORSDOF 2
ENDMDL
MODEL 8
REMARK VINA RESULT:      -3.9      1.362      1.553
REMARK  2 active torsions:
REMARK  status: ('A' for Active; 'I' for Inactive)
REMARK    1  A    between atoms: C1_1  and  C4_4 
REMARK    2  A    between atoms: C4_4  and  C6_6 
ROOT
HETATM    1  C2  UNL     1     -33.672  14.937  -4.791  1.00 20.00     0.062 A 
HETATM    2  C3  UNL     1     -34.350  14.598  -3.504  1.00 20.00     0.190 A 
HETATM    3  C4  UNL     1     -35.185  14.989  -4.699  1.00 20.00     0.081 A 
HETATM    4  F9  UNL     1     -34.231  15.502  -2.463  1.00 20.00    -0.248 F 
ENDROOT
BRANCH   3   5
HETATM    5  C1  UNL     1     -35.908  13.907  -5.357  1.00 20.00     0.184 C 
HETATM    6  O7  UNL     1     -36.095  12.877  -4.651  1.00 20.00    -0.647 OA
HETATM    7  O8  UNL     1     -36.253  14.148  -6.548  1.00 20.00    -0.647 OA
ENDBRANCH   3   5
BRANCH   3   8
HETATM    8  C6  UNL     1     -35.829  16.351  -4.685  1.00 20.00     0.019 C 
HETATM    9  C5  UNL     1     -37.132  16.361  -3.939  1.00 20.00     0.006 C 
ENDBRANCH   3   8
TORSDOF 2
ENDMDL
MODEL 9
REMARK VINA RESULT:      -3.8     11.967     12.645
REMARK  2 active torsions:
REMARK  status: ('A' for Active; 'I' for Inactive)
REMARK    1  A    between atoms: C1_1  and  C4_4 
REMARK    2  A    between atoms: C4_4  and  C6_6 
ROOT
HETATM    1  C2  UNL     1     -35.593   5.246   3.947  1.00 20.00     0.062 A 
HETATM    2  C3  UNL     1     -34.268   4.561   3.859  1.00 20.00     0.190 A 
HETATM    3  C4  UNL     1     -34.340   5.966   4.408  1.00 20.00     0.081 A 
HETATM    4  F9  UNL     1     -33.728   4.377   2.598  1.00 20.00    -0.248 F 
ENDROOT
BRANCH   3   5
HETATM    5  C1  UNL     1     -34.166   6.101   5.849  1.00 20.00     0.184 C 
HETATM    6  O7  UNL     1     -33.976   7.280   6.260  1.00 20.00    -0.647 OA
HETATM    7  O8  UNL     1     -34.231   5.018   6.495  1.00 20.00    -0.647 OA
ENDBRANCH   3   5
BRANCH   3   8
HETATM    8  C6  UNL     1     -33.827   7.083   3.536  1.00 20.00     0.019 C 
HETATM    9  C5  UNL     1     -32.361   6.948   3.238  1.00 20.00     0.006 C 
ENDBRANCH   3   8
TORSDOF 2
ENDMDL
