MODEL 1
REMARK VINA RESULT:      -5.1      0.000      0.000
REMARK  2 active torsions:
REMARK  status: ('A' for Active; 'I' for Inactive)
REMARK    1  A    between atoms: C6_6  and  C9_9 
REMARK    2  A    between atoms: C9_9  and  C10_10 
ROOT
HETATM    1  C1  UNL     1     -33.836   4.369   3.300  1.00 20.00     0.002 C 
HETATM    2  C2  UNL     1     -33.251   5.281   2.220  1.00 20.00     0.005 C 
HETATM    3  C3  UNL     1     -33.427   7.432   3.644  1.00 20.00     0.006 C 
HETATM    4  C4  UNL     1     -35.096   4.950   3.937  1.00 20.00     0.020 C 
HETATM    5  C5  UNL     1     -33.644   6.812   5.024  1.00 20.00     0.020 C 
HETATM    6  C6  UNL     1     -32.558   6.555   2.725  1.00 20.00    -0.014 C 
HETATM    7  C7  UNL     1     -34.851   5.879   5.126  1.00 20.00     0.082 C 
HETATM    8 CL11 UNL     1     -34.693   4.911   6.634  1.00 20.00    -0.125 Cl
ENDROOT
BRANCH   6   9
HETATM    9  C9  UNL     1     -32.088   7.382   1.520  1.00 20.00     0.004 C 
BRANCH   9  10
HETATM   10  C10 UNL     1     -32.989   8.590   1.303  1.00 20.00    -0.004 C 
HETATM   11  C8  UNL     1     -33.318   8.766  -0.171  1.00 20.00     0.005 C 
ENDBRANCH   9  10
ENDBRANCH   6   9
TORSDOF 2
ENDMDL
MODEL 2
REMARK VINA RESULT:      -4.5     10.847     12.050
REMARK  2 active torsions:
REMARK  status: ('A' for Active; 'I' for Inactive)
REMARK    1  A    between atoms: C6_6  and  C9_9 
REMARK    2  A    between atoms: C9_9  and  C10_10 
ROOT
HETATM    1  C1  UNL     1     -35.166  16.975  -0.638  1.00 20.00     0.002 C 
HETATM    2  C2  UNL     1     -35.255  16.254  -1.984  1.00 20.00     0.005 C 
HETATM    3  C3  UNL     1     -33.060  17.263  -2.907  1.00 20.00     0.006 C 
HETATM    4  C4  UNL     1     -34.826  18.455  -0.787  1.00 20.00     0.020 C 
HETATM    5  C5  UNL     1     -32.451  17.790  -1.608  1.00 20.00     0.020 C 
HETATM    6  C6  UNL     1     -33.917  16.003  -2.697  1.00 20.00    -0.014 C 
HETATM    7  C7  UNL     1     -33.331  18.775  -0.839  1.00 20.00     0.082 C 
HETATM    8 CL11 UNL     1     -32.683  18.929   0.833  1.00 20.00    -0.125 Cl
ENDROOT
BRANCH   6   9
HETATM    9  C9  UNL     1     -34.189  15.334  -4.051  1.00 20.00     0.004 C 
BRANCH   9  10
HETATM   10  C10 UNL     1     -34.767  13.938  -3.864  1.00 20.00    -0.004 C 
HETATM   11  C8  UNL     1     -36.087  13.793  -4.604  1.00 20.00     0.005 C 
ENDBRANCH   9  10
ENDBRANCH   6   9
TORSDOF 2
ENDMDL
MODEL 3
REMARK VINA RESULT:      -4.4     11.502     12.213
REMARK  2 active torsions:
REMARK  status: ('A' for Active; 'I' for Inactive)
REMARK    1  A    between atoms: C6_6  and  C9_9 
REMARK    2  A    between atoms: C9_9  and  C10_10 
ROOT
HETATM    1  C1  UNL     1     -33.287  15.149  -4.040  1.00 20.00     0.002 C 
HETATM    2  C2  UNL     1     -32.964  16.301  -3.086  1.00 20.00     0.005 C 
HETATM    3  C3  UNL     1     -35.438  16.905  -2.641  1.00 20.00     0.006 C 
HETATM    4  C4  UNL     1     -34.343  15.526  -5.076  1.00 20.00     0.020 C 
HETATM    5  C5  UNL     1     -36.114  15.644  -3.177  1.00 20.00     0.020 C 
HETATM    6  C6  UNL     1     -34.046  16.631  -2.047  1.00 20.00    -0.014 C 
HETATM    7  C7  UNL     1     -35.791  15.311  -4.634  1.00 20.00     0.082 C 
HETATM    8 CL11 UNL     1     -36.278  13.607  -4.948  1.00 20.00    -0.125 Cl
ENDROOT
BRANCH   6   9
HETATM    9  C9  UNL     1     -33.593  17.842  -1.220  1.00 20.00     0.004 C 
BRANCH   9  10
HETATM   10  C10 UNL     1     -32.190  18.280  -1.618  1.00 20.00    -0.004 C 
HETATM   11  C8  UNL     1     -31.278  18.355  -0.404  1.00 20.00     0.005 C 
ENDBRANCH   9  10
ENDBRANCH   6   9
TORSDOF 2
ENDMDL
MODEL 4
REMARK VINA RESULT:      -4.2     11.481     12.641
REMARK  2 active torsions:
REMARK  status: ('A' for Active; 'I' for Inactive)
REMARK    1  A    between atoms: C6_6  and  C9_9 
REMARK    2  A    between atoms: C9_9  and  C10_10 
ROOT
HETATM    1  C1  UNL     1     -35.512  16.541  -2.012  1.00 20.00     0.002 C 
HETATM    2  C2  UNL     1     -34.797  17.142  -0.801  1.00 20.00     0.005 C 
HETATM    3  C3  UNL     1     -32.585  17.588  -2.063  1.00 20.00     0.006 C 
HETATM    4  C4  UNL     1     -34.652  15.519  -2.751  1.00 20.00     0.020 C 
HETATM    5  C5  UNL     1     -33.074  17.443  -3.503  1.00 20.00     0.020 C 
HETATM    6  C6  UNL     1     -33.668  18.135  -1.117  1.00 20.00    -0.014 C 
HETATM    7  C7  UNL     1     -33.732  16.101  -3.825  1.00 20.00     0.082 C 
HETATM    8 CL11 UNL     1     -34.633  16.268  -5.374  1.00 20.00    -0.125 Cl
ENDROOT
BRANCH   6   9
HETATM    9  C9  UNL     1     -33.019  18.590   0.198  1.00 20.00     0.004 C 
BRANCH   9  10
HETATM   10  C10 UNL     1     -31.548  18.923  -0.006  1.00 20.00    -0.004 C 
HETATM   11  C8  UNL     1     -30.692  18.294   1.080  1.00 20.00     0.005 C 
ENDBRANCH   9  10
ENDBRANCH   6   9
TORSDOF 2
ENDMDL
MODEL 5
REMARK VINA RESULT:      -4.1     11.060     12.108
REMARK  2 active torsions:
REMARK  status: ('A' for Active; 'I' for Inactive)
REMARK    1  A    between atoms: C6_6  and  C9_9 
REMARK    2  A    between atoms: C9_9  and  C10_10 
ROOT
HETATM    1  C1  UNL     1     -35.498  13.851  -4.171  1.00 20.00     0.002 C 
HETATM    2  C2  UNL     1     -34.247  14.640  -3.783  1.00 20.00     0.005 C 
HETATM    3  C3  UNL     1     -35.484  16.900  -3.568  1.00 20.00     0.006 C 
HETATM    4  C4  UNL     1     -36.325  14.553  -5.245  1.00 20.00     0.020 C 
HETATM    5  C5  UNL     1     -36.928  16.402  -3.521  1.00 20.00     0.020 C 
HETATM    6  C6  UNL     1     -34.489  15.906  -2.946  1.00 20.00    -0.014 C 
HETATM    7  C7  UNL     1     -37.354  15.554  -4.719  1.00 20.00     0.082 C 
HETATM    8 CL11 UNL     1     -38.878  14.695  -4.294  1.00 20.00    -0.125 Cl
ENDROOT
BRANCH   6   9
HETATM    9  C9  UNL     1     -33.146  16.608  -2.701  1.00 20.00     0.004 C 
BRANCH   9  10
HETATM   10  C10 UNL     1     -33.265  17.638  -1.586  1.00 20.00    -0.004 C 
HETATM   11  C8  UNL     1     -31.908  18.234  -1.249  1.00 20.00     0.005 C 
ENDBRANCH   9  10
ENDBRANCH   6   9
TORSDOF 2
ENDMDL
MODEL 6
REMARK VINA RESULT:      -4.1     11.353     12.795
REMARK  2 active torsions:
REMARK  status: ('A' for Active; 'I' for Inactive)
REMARK    1  A    between atoms: C6_6  and  C9_9 
REMARK    2  A    between atoms: C9_9  and  C10_10 
ROOT
HETATM    1  C1  UNL     1     -34.333  17.511  -4.916  1.00 20.00     0.002 C 
HETATM    2  C2  UNL     1     -33.888  18.070  -3.564  1.00 20.00     0.005 C 
HETATM    3  C3  UNL     1     -34.750  16.046  -2.206  1.00 20.00     0.006 C 
HETATM    4  C4  UNL     1     -35.759  16.965  -4.883  1.00 20.00     0.020 C 
HETATM    5  C5  UNL     1     -34.947  15.038  -3.338  1.00 20.00     0.020 C 
HETATM    6  C6  UNL     1     -33.597  17.027  -2.473  1.00 20.00    -0.014 C 
HETATM    7  C7  UNL     1     -35.882  15.502  -4.455  1.00 20.00     0.082 C 
HETATM    8 CL11 UNL     1     -35.643  14.428  -5.879  1.00 20.00    -0.125 Cl
ENDROOT
BRANCH   6   9
HETATM    9  C9  UNL     1     -33.228  17.753  -1.172  1.00 20.00     0.004 C 
BRANCH   9  10
HETATM   10  C10 UNL     1     -31.924  18.524  -1.328  1.00 20.00    -0.004 C 
HETATM   11  C8  UNL     1     -31.036  18.343  -0.109  1.00 20.00     0.005 C 
ENDBRANCH   9  10
ENDBRANCH   6   9
TORSDOF 2
ENDMDL
MODEL 7
REMARK VINA RESULT:      -4.0     11.307     12.738
REMARK  2 active torsions:
REMARK  status: ('A' for Active; 'I' for Inactive)
REMARK    1  A    between atoms: C6_6  and  C9_9 
REMARK    2  A    between atoms: C9_9  and  C10_10 
ROOT
HETATM    1  C1  UNL     1     -35.209  14.957  -3.108  1.00 20.00     0.002 C 
HETATM    2  C2  UNL     1     -34.625  16.048  -2.209  1.00 20.00     0.005 C 
HETATM    3  C3  UNL     1     -33.707  17.464  -4.168  1.00 20.00     0.006 C 
HETATM    4  C4  UNL     1     -34.232  14.506  -4.191  1.00 20.00     0.020 C 
HETATM    5  C5  UNL     1     -34.473  16.831  -5.328  1.00 20.00     0.020 C 
HETATM    6  C6  UNL     1     -34.494  17.440  -2.847  1.00 20.00    -0.014 C 
HETATM    7  C7  UNL     1     -34.274  15.323  -5.483  1.00 20.00     0.082 C 
HETATM    8 CL11 UNL     1     -35.563  14.688  -6.565  1.00 20.00    -0.125 Cl
ENDROOT
BRANCH   6   9
HETATM    9  C9  UNL     1     -33.837  18.393  -1.839  1.00 20.00     0.004 C 
BRANCH   9  10
HETATM   10  C10 UNL     1     -32.329  18.443  -2.040  1.00 20.00    -0.004 C 
HETATM   11  C8  UNL     1     -31.598  18.293  -0.716  1.00 20.00     0.005 C 
ENDBRANCH   9  10
ENDBRANCH   6   9
TORSDOF 2
ENDMDL
MODEL 8
REMARK VINA RESULT:      -4.0     11.138     12.014
REMARK  2 active torsions:
REMARK  status: ('A' for Active; 'I' for Inactive)
REMARK    1  A    between atoms: C6_6  and  C9_9 
REMARK    2  A    between atoms: C9_9  and  C10_10 
ROOT
HETATM    1  C1  UNL     1     -35.301  17.022  -0.091  1.00 20.00     0.002 C 
HETATM    2  C2  UNL     1     -35.022  16.815  -1.581  1.00 20.00     0.005 C 
HETATM    3  C3  UNL     1     -32.849  18.215  -1.584  1.00 20.00     0.006 C 
HETATM    4  C4  UNL     1     -35.145  18.480   0.336  1.00 20.00     0.020 C 
HETATM    5  C5  UNL     1     -32.586  18.290  -0.081  1.00 20.00     0.020 C 
HETATM    6  C6  UNL     1     -33.548  16.911  -2.004  1.00 20.00    -0.014 C 
HETATM    7  C7  UNL     1     -33.728  18.888   0.742  1.00 20.00     0.082 C 
HETATM    8 CL11 UNL     1     -33.450  18.487   2.474  1.00 20.00    -0.125 Cl
ENDROOT
BRANCH   6   9
HETATM    9  C9  UNL     1     -33.453  16.743  -3.527  1.00 20.00     0.004 C 
BRANCH   9  10
HETATM   10  C10 UNL     1     -34.080  15.429  -3.971  1.00 20.00    -0.004 C 
HETATM   11  C8  UNL     1     -33.013  14.438  -4.408  1.00 20.00     0.005 C 
ENDBRANCH   9  10
ENDBRANCH   6   9
TORSDOF 2
ENDMDL
MODEL 9
REMARK VINA RESULT:      -3.9      9.235     10.253
REMARK  2 active torsions:
REMARK  status: ('A' for Active; 'I' for Inactive)
REMARK    1  A    between atoms: C6_6  and  C9_9 
REMARK    2  A    between atoms: C9_9  and  C10_10 
ROOT
HETATM    1  C1  UNL     1     -40.395   6.272  -0.382  1.00 20.00     0.002 C 
HETATM    2  C2  UNL     1     -41.110   5.055  -0.971  1.00 20.00     0.005 C 
HETATM    3  C3  UNL     1     -43.414   6.218  -1.124  1.00 20.00     0.006 C 
HETATM    4  C4  UNL     1     -41.179   6.916   0.759  1.00 20.00     0.020 C 
HETATM    5  C5  UNL     1     -42.982   7.674  -0.953  1.00 20.00     0.020 C 
HETATM    6  C6  UNL     1     -42.350   5.358  -1.827  1.00 20.00    -0.014 C 
HETATM    7  C7  UNL     1     -42.203   7.966   0.331  1.00 20.00     0.082 C 
HETATM    8 CL11 UNL     1     -41.400   9.566   0.155  1.00 20.00    -0.125 Cl
ENDROOT
BRANCH   6   9
HETATM    9  C9  UNL     1     -42.979   4.034  -2.283  1.00 20.00     0.004 C 
BRANCH   9  10
HETATM   10  C10 UNL     1     -41.981   3.200  -3.074  1.00 20.00    -0.004 C 
HETATM   11  C8  UNL     1     -42.573   1.851  -3.446  1.00 20.00     0.005 C 
ENDBRANCH   9  10
ENDBRANCH   6   9
TORSDOF 2
ENDMDL
