MODEL 1
REMARK VINA RESULT:      -4.7      0.000      0.000
REMARK  1 active torsions:
REMARK  status: ('A' for Active; 'I' for Inactive)
REMARK    1  A    between atoms: C3_3  and  C8_8 
ROOT
HETATM    1  C1  UNL     1     -31.846  18.463   0.045  1.00 20.00     0.022 A 
HETATM    2  C2  UNL     1     -33.801  18.217   1.276  1.00 20.00     0.057 A 
HETATM    3  C3  UNL     1     -33.238  18.159   0.021  1.00 20.00    -0.045 A 
HETATM    4  C4  UNL     1     -31.399  18.742   1.317  1.00 20.00    -0.021 A 
HETATM    5  C10 UNL     1     -30.033  19.101   1.756  1.00 20.00     0.056 C 
HETATM    6  S11 UNL     1     -32.655  18.636   2.477  1.00 20.00    -0.106 SA
ENDROOT
BRANCH   3   7
HETATM    7  C8  UNL     1     -34.005  17.814  -1.238  1.00 20.00     0.033 C 
HETATM    8  C6  UNL     1     -35.082  16.740  -1.005  1.00 20.00     0.010 C 
HETATM    9  C5  UNL     1     -35.229  16.074  -2.364  1.00 20.00     0.002 C 
HETATM   10  C7  UNL     1     -33.789  15.963  -2.847  1.00 20.00     0.016 C 
HETATM   11  C9  UNL     1     -33.121  17.252  -2.372  1.00 20.00     0.066 C 
HETATM   12 BR12 UNL     1     -33.042  18.538  -3.850  1.00 20.00    -0.090 Br
ENDBRANCH   3   7
TORSDOF 1
ENDMDL
MODEL 2
REMARK VINA RESULT:      -4.7      2.423      3.516
REMARK  1 active torsions:
REMARK  status: ('A' for Active; 'I' for Inactive)
REMARK    1  A    between atoms: C3_3  and  C8_8 
ROOT
HETATM    1  C1  UNL     1     -33.115  17.241  -2.071  1.00 20.00     0.022 A 
HETATM    2  C2  UNL     1     -35.190  16.684  -1.184  1.00 20.00     0.057 A 
HETATM    3  C3  UNL     1     -34.283  16.432  -2.189  1.00 20.00    -0.045 A 
HETATM    4  C4  UNL     1     -33.176  18.080  -0.981  1.00 20.00    -0.021 A 
HETATM    5  C10 UNL     1     -32.174  19.066  -0.520  1.00 20.00     0.056 C 
HETATM    6  S11 UNL     1     -34.634  17.891  -0.104  1.00 20.00    -0.106 SA
ENDROOT
BRANCH   3   7
HETATM    7  C8  UNL     1     -34.498  15.416  -3.290  1.00 20.00     0.033 C 
HETATM    8  C6  UNL     1     -33.210  15.098  -4.070  1.00 20.00     0.010 C 
HETATM    9  C5  UNL     1     -33.712  14.668  -5.439  1.00 20.00     0.002 C 
HETATM   10  C7  UNL     1     -34.836  15.657  -5.717  1.00 20.00     0.016 C 
HETATM   11  C9  UNL     1     -35.513  15.865  -4.363  1.00 20.00     0.066 C 
HETATM   12 BR12 UNL     1     -37.126  14.756  -4.256  1.00 20.00    -0.090 Br
ENDBRANCH   3   7
TORSDOF 1
ENDMDL
MODEL 3
REMARK VINA RESULT:      -4.7      3.045      5.391
REMARK  1 active torsions:
REMARK  status: ('A' for Active; 'I' for Inactive)
REMARK    1  A    between atoms: C3_3  and  C8_8 
ROOT
HETATM    1  C1  UNL     1     -35.281  15.656  -2.652  1.00 20.00     0.022 A 
HETATM    2  C2  UNL     1     -33.118  16.406  -3.053  1.00 20.00     0.057 A 
HETATM    3  C3  UNL     1     -34.267  16.601  -2.319  1.00 20.00    -0.045 A 
HETATM    4  C4  UNL     1     -34.868  14.776  -3.627  1.00 20.00    -0.021 A 
HETATM    5  C10 UNL     1     -35.621  13.660  -4.240  1.00 20.00     0.056 C 
HETATM    6  S11 UNL     1     -33.264  15.090  -4.138  1.00 20.00    -0.106 SA
ENDROOT
BRANCH   3   7
HETATM    7  C8  UNL     1     -34.435  17.689  -1.280  1.00 20.00     0.033 C 
HETATM    8  C6  UNL     1     -33.098  18.146  -0.671  1.00 20.00     0.010 C 
HETATM    9  C5  UNL     1     -33.484  18.656   0.708  1.00 20.00     0.002 C 
HETATM   10  C7  UNL     1     -34.503  17.628   1.180  1.00 20.00     0.016 C 
HETATM   11  C9  UNL     1     -35.301  17.270  -0.073  1.00 20.00     0.066 C 
HETATM   12 BR12 UNL     1     -36.988  18.268  -0.088  1.00 20.00    -0.090 Br
ENDBRANCH   3   7
TORSDOF 1
ENDMDL
MODEL 4
REMARK VINA RESULT:      -4.6      2.924      3.946
REMARK  1 active torsions:
REMARK  status: ('A' for Active; 'I' for Inactive)
REMARK    1  A    between atoms: C3_3  and  C8_8 
ROOT
HETATM    1  C1  UNL     1     -35.215  16.622  -1.121  1.00 20.00     0.022 A 
HETATM    2  C2  UNL     1     -33.189  17.258  -2.066  1.00 20.00     0.057 A 
HETATM    3  C3  UNL     1     -34.277  16.421  -2.176  1.00 20.00    -0.045 A 
HETATM    4  C4  UNL     1     -34.808  17.605  -0.247  1.00 20.00    -0.021 A 
HETATM    5  C10 UNL     1     -35.495  18.104   0.964  1.00 20.00     0.056 C 
HETATM    6  S11 UNL     1     -33.300  18.281  -0.698  1.00 20.00    -0.106 SA
ENDROOT
BRANCH   3   7
HETATM    7  C8  UNL     1     -34.459  15.406  -3.284  1.00 20.00     0.033 C 
HETATM    8  C6  UNL     1     -33.162  15.138  -4.067  1.00 20.00     0.010 C 
HETATM    9  C5  UNL     1     -33.651  14.700  -5.439  1.00 20.00     0.002 C 
HETATM   10  C7  UNL     1     -34.808  15.652  -5.708  1.00 20.00     0.016 C 
HETATM   11  C9  UNL     1     -35.491  15.826  -4.352  1.00 20.00     0.066 C 
HETATM   12 BR12 UNL     1     -37.064  14.661  -4.251  1.00 20.00    -0.090 Br
ENDBRANCH   3   7
TORSDOF 1
ENDMDL
MODEL 5
REMARK VINA RESULT:      -4.5      1.059      1.484
REMARK  1 active torsions:
REMARK  status: ('A' for Active; 'I' for Inactive)
REMARK    1  A    between atoms: C3_3  and  C8_8 
ROOT
HETATM    1  C1  UNL     1     -33.233  18.367   1.282  1.00 20.00     0.022 A 
HETATM    2  C2  UNL     1     -31.456  18.402  -0.215  1.00 20.00     0.057 A 
HETATM    3  C3  UNL     1     -32.815  18.230  -0.073  1.00 20.00    -0.045 A 
HETATM    4  C4  UNL     1     -32.177  18.639   2.124  1.00 20.00    -0.021 A 
HETATM    5  C10 UNL     1     -32.197  18.848   3.588  1.00 20.00     0.056 C 
HETATM    6  S11 UNL     1     -30.690  18.729   1.281  1.00 20.00    -0.106 SA
ENDROOT
BRANCH   3   7
HETATM    7  C8  UNL     1     -33.756  17.929  -1.220  1.00 20.00     0.033 C 
HETATM    8  C6  UNL     1     -34.889  16.966  -0.827  1.00 20.00     0.010 C 
HETATM    9  C5  UNL     1     -35.257  16.287  -2.137  1.00 20.00     0.002 C 
HETATM   10  C7  UNL     1     -33.902  16.033  -2.783  1.00 20.00     0.016 C 
HETATM   11  C9  UNL     1     -33.069  17.264  -2.433  1.00 20.00     0.066 C 
HETATM   12 BR12 UNL     1     -33.055  18.504  -3.951  1.00 20.00    -0.090 Br
ENDBRANCH   3   7
TORSDOF 1
ENDMDL
MODEL 6
REMARK VINA RESULT:      -4.3      1.491      1.832
REMARK  1 active torsions:
REMARK  status: ('A' for Active; 'I' for Inactive)
REMARK    1  A    between atoms: C3_3  and  C8_8 
ROOT
HETATM    1  C1  UNL     1     -33.790  18.301   0.197  1.00 20.00     0.022 A 
HETATM    2  C2  UNL     1     -31.932  18.174  -1.194  1.00 20.00     0.057 A 
HETATM    3  C3  UNL     1     -33.288  17.952  -1.090  1.00 20.00    -0.045 A 
HETATM    4  C4  UNL     1     -32.800  18.777   1.027  1.00 20.00    -0.021 A 
HETATM    5  C10 UNL     1     -32.915  19.239   2.427  1.00 20.00     0.056 C 
HETATM    6  S11 UNL     1     -31.272  18.802   0.255  1.00 20.00    -0.106 SA
ENDROOT
BRANCH   3   7
HETATM    7  C8  UNL     1     -34.144  17.401  -2.210  1.00 20.00     0.033 C 
HETATM    8  C6  UNL     1     -34.851  16.088  -1.830  1.00 20.00     0.010 C 
HETATM    9  C5  UNL     1     -35.053  15.387  -3.164  1.00 20.00     0.002 C 
HETATM   10  C7  UNL     1     -33.740  15.647  -3.889  1.00 20.00     0.016 C 
HETATM   11  C9  UNL     1     -33.355  17.072  -3.495  1.00 20.00     0.066 C 
HETATM   12 BR12 UNL     1     -33.868  18.312  -4.924  1.00 20.00    -0.090 Br
ENDBRANCH   3   7
TORSDOF 1
ENDMDL
MODEL 7
REMARK VINA RESULT:      -4.2      1.865      2.198
REMARK  1 active torsions:
REMARK  status: ('A' for Active; 'I' for Inactive)
REMARK    1  A    between atoms: C3_3  and  C8_8 
ROOT
HETATM    1  C1  UNL     1     -33.861  17.893   0.351  1.00 20.00     0.022 A 
HETATM    2  C2  UNL     1     -36.154  17.637   0.071  1.00 20.00     0.057 A 
HETATM    3  C3  UNL     1     -34.925  17.593  -0.549  1.00 20.00    -0.045 A 
HETATM    4  C4  UNL     1     -34.318  18.154   1.624  1.00 20.00    -0.021 A 
HETATM    5  C10 UNL     1     -33.537  18.503   2.830  1.00 20.00     0.056 C 
HETATM    6  S11 UNL     1     -36.023  18.037   1.730  1.00 20.00    -0.106 SA
ENDROOT
BRANCH   3   7
HETATM    7  C8  UNL     1     -34.724  17.266  -2.013  1.00 20.00     0.033 C 
HETATM    8  C6  UNL     1     -35.196  15.847  -2.378  1.00 20.00     0.010 C 
HETATM    9  C5  UNL     1     -34.341  15.480  -3.581  1.00 20.00     0.002 C 
HETATM   10  C7  UNL     1     -32.968  16.014  -3.200  1.00 20.00     0.016 C 
HETATM   11  C9  UNL     1     -33.251  17.326  -2.470  1.00 20.00     0.066 C 
HETATM   12 BR12 UNL     1     -32.997  18.833  -3.697  1.00 20.00    -0.090 Br
ENDBRANCH   3   7
TORSDOF 1
ENDMDL
MODEL 8
REMARK VINA RESULT:      -4.2      2.731      3.995
REMARK  1 active torsions:
REMARK  status: ('A' for Active; 'I' for Inactive)
REMARK    1  A    between atoms: C3_3  and  C8_8 
ROOT
HETATM    1  C1  UNL     1     -34.946  16.965  -1.189  1.00 20.00     0.022 A 
HETATM    2  C2  UNL     1     -33.436  16.744  -2.942  1.00 20.00     0.057 A 
HETATM    3  C3  UNL     1     -34.673  16.379  -2.459  1.00 20.00    -0.045 A 
HETATM    4  C4  UNL     1     -33.908  17.756  -0.750  1.00 20.00    -0.021 A 
HETATM    5  C10 UNL     1     -33.805  18.529   0.506  1.00 20.00     0.056 C 
HETATM    6  S11 UNL     1     -32.610  17.790  -1.868  1.00 20.00    -0.106 SA
ENDROOT
BRANCH   3   7
HETATM    7  C8  UNL     1     -35.632  15.462  -3.189  1.00 20.00     0.033 C 
HETATM    8  C6  UNL     1     -34.941  14.218  -3.773  1.00 20.00     0.010 C 
HETATM    9  C5  UNL     1     -35.819  13.837  -4.955  1.00 20.00     0.002 C 
HETATM   10  C7  UNL     1     -36.155  15.185  -5.578  1.00 20.00     0.016 C 
HETATM   11  C9  UNL     1     -36.338  16.127  -4.390  1.00 20.00     0.066 C 
HETATM   12 BR12 UNL     1     -38.248  16.338  -4.003  1.00 20.00    -0.090 Br
ENDBRANCH   3   7
TORSDOF 1
ENDMDL
MODEL 9
REMARK VINA RESULT:      -4.1      1.804      2.481
REMARK  1 active torsions:
REMARK  status: ('A' for Active; 'I' for Inactive)
REMARK    1  A    between atoms: C3_3  and  C8_8 
ROOT
HETATM    1  C1  UNL     1     -32.618  17.814  -1.737  1.00 20.00     0.022 A 
HETATM    2  C2  UNL     1     -34.719  17.663  -0.754  1.00 20.00     0.057 A 
HETATM    3  C3  UNL     1     -33.980  17.424  -1.892  1.00 20.00    -0.045 A 
HETATM    4  C4  UNL     1     -32.368  18.336  -0.487  1.00 20.00    -0.021 A 
HETATM    5  C10 UNL     1     -31.093  18.849   0.059  1.00 20.00     0.056 C 
HETATM    6  S11 UNL     1     -33.772  18.354   0.494  1.00 20.00    -0.106 SA
ENDROOT
BRANCH   3   7
HETATM    7  C8  UNL     1     -34.546  16.820  -3.158  1.00 20.00     0.033 C 
HETATM    8  C6  UNL     1     -36.010  17.220  -3.409  1.00 20.00     0.010 C 
HETATM    9  C5  UNL     1     -36.565  16.068  -4.232  1.00 20.00     0.002 C 
HETATM   10  C7  UNL     1     -35.961  14.845  -3.557  1.00 20.00     0.016 C 
HETATM   11  C9  UNL     1     -34.548  15.276  -3.166  1.00 20.00     0.066 C 
HETATM   12 BR12 UNL     1     -33.266  14.617  -4.494  1.00 20.00    -0.090 Br
ENDBRANCH   3   7
TORSDOF 1
ENDMDL
