MODEL 1
REMARK VINA RESULT:      -4.7      0.000      0.000
REMARK  1 active torsions:
REMARK  status: ('A' for Active; 'I' for Inactive)
REMARK    1  A    between atoms: C3_3  and  C8_8 
ROOT
HETATM    1  C1  UNL     1     -33.005  16.605  -2.707  1.00 20.00     0.022 A 
HETATM    2  C2  UNL     1     -35.138  16.661  -1.788  1.00 20.00     0.057 A 
HETATM    3  C3  UNL     1     -33.881  17.225  -1.770  1.00 20.00    -0.046 A 
HETATM    4  C4  UNL     1     -33.623  15.591  -3.404  1.00 20.00    -0.021 A 
HETATM    5  C10 UNL     1     -33.057  14.716  -4.453  1.00 20.00     0.056 C 
HETATM    6  S11 UNL     1     -35.257  15.390  -2.929  1.00 20.00    -0.106 SA
ENDROOT
BRANCH   3   7
HETATM    7  C8  UNL     1     -33.479  18.368  -0.864  1.00 20.00     0.020 C 
HETATM    8  C5  UNL     1     -34.128  18.273   0.529  1.00 20.00     0.010 C 
HETATM    9  C6  UNL     1     -33.064  18.785   1.490  1.00 20.00     0.016 C 
HETATM   10  C9  UNL     1     -31.785  18.245   0.882  1.00 20.00     0.058 C 
HETATM   11  C7  UNL     1     -31.959  18.480  -0.612  1.00 20.00     0.025 C 
HETATM   12 BR12 UNL     1     -30.229  19.156   1.575  1.00 20.00    -0.091 Br
ENDBRANCH   3   7
TORSDOF 1
ENDMDL
MODEL 2
REMARK VINA RESULT:      -4.7      3.851      5.979
REMARK  1 active torsions:
REMARK  status: ('A' for Active; 'I' for Inactive)
REMARK    1  A    between atoms: C3_3  and  C8_8 
ROOT
HETATM    1  C1  UNL     1     -32.962  16.775  -2.724  1.00 20.00     0.022 A 
HETATM    2  C2  UNL     1     -35.081  16.264  -1.918  1.00 20.00     0.057 A 
HETATM    3  C3  UNL     1     -34.139  15.991  -2.887  1.00 20.00    -0.046 A 
HETATM    4  C4  UNL     1     -33.046  17.618  -1.639  1.00 20.00    -0.021 A 
HETATM    5  C10 UNL     1     -32.042  18.583  -1.140  1.00 20.00     0.056 C 
HETATM    6  S11 UNL     1     -34.542  17.462  -0.819  1.00 20.00    -0.106 SA
ENDROOT
BRANCH   3   7
HETATM    7  C8  UNL     1     -34.333  14.977  -3.993  1.00 20.00     0.020 C 
HETATM    8  C5  UNL     1     -35.675  14.230  -3.881  1.00 20.00     0.010 C 
HETATM    9  C6  UNL     1     -36.130  14.028  -5.320  1.00 20.00     0.016 C 
HETATM   10  C9  UNL     1     -35.691  15.316  -5.987  1.00 20.00     0.058 C 
HETATM   11  C7  UNL     1     -34.301  15.571  -5.419  1.00 20.00     0.025 C 
HETATM   12 BR12 UNL     1     -35.660  15.146  -7.911  1.00 20.00    -0.091 Br
ENDBRANCH   3   7
TORSDOF 1
ENDMDL
MODEL 3
REMARK VINA RESULT:      -4.7      3.954      6.147
REMARK  1 active torsions:
REMARK  status: ('A' for Active; 'I' for Inactive)
REMARK    1  A    between atoms: C3_3  and  C8_8 
ROOT
HETATM    1  C1  UNL     1     -35.101  16.160  -1.830  1.00 20.00     0.022 A 
HETATM    2  C2  UNL     1     -33.093  16.892  -2.743  1.00 20.00     0.057 A 
HETATM    3  C3  UNL     1     -34.151  16.019  -2.882  1.00 20.00    -0.046 A 
HETATM    4  C4  UNL     1     -34.735  17.133  -0.927  1.00 20.00    -0.021 A 
HETATM    5  C10 UNL     1     -35.448  17.576   0.292  1.00 20.00     0.056 C 
HETATM    6  S11 UNL     1     -33.249  17.874  -1.349  1.00 20.00    -0.106 SA
ENDROOT
BRANCH   3   7
HETATM    7  C8  UNL     1     -34.288  15.029  -4.017  1.00 20.00     0.020 C 
HETATM    8  C5  UNL     1     -35.578  14.193  -3.918  1.00 20.00     0.010 C 
HETATM    9  C6  UNL     1     -36.032  14.006  -5.359  1.00 20.00     0.016 C 
HETATM   10  C9  UNL     1     -35.683  15.339  -5.990  1.00 20.00     0.058 C 
HETATM   11  C7  UNL     1     -34.308  15.667  -5.424  1.00 20.00     0.025 C 
HETATM   12 BR12 UNL     1     -35.659  15.229  -7.918  1.00 20.00    -0.091 Br
ENDBRANCH   3   7
TORSDOF 1
ENDMDL
MODEL 4
REMARK VINA RESULT:      -4.6      3.485      5.555
REMARK  1 active torsions:
REMARK  status: ('A' for Active; 'I' for Inactive)
REMARK    1  A    between atoms: C3_3  and  C8_8 
ROOT
HETATM    1  C1  UNL     1     -34.780  17.399  -0.590  1.00 20.00     0.022 A 
HETATM    2  C2  UNL     1     -32.644  18.058  -1.227  1.00 20.00     0.057 A 
HETATM    3  C3  UNL     1     -33.808  17.439  -1.630  1.00 20.00    -0.046 A 
HETATM    4  C4  UNL     1     -34.324  17.987   0.569  1.00 20.00    -0.021 A 
HETATM    5  C10 UNL     1     -35.026  18.145   1.861  1.00 20.00     0.056 C 
HETATM    6  S11 UNL     1     -32.728  18.587   0.400  1.00 20.00    -0.106 SA
ENDROOT
BRANCH   3   7
HETATM    7  C8  UNL     1     -34.028  16.870  -3.014  1.00 20.00     0.020 C 
HETATM    8  C5  UNL     1     -32.920  15.883  -3.429  1.00 20.00     0.010 C 
HETATM    9  C6  UNL     1     -33.638  14.808  -4.234  1.00 20.00     0.016 C 
HETATM   10  C9  UNL     1     -34.955  14.670  -3.496  1.00 20.00     0.058 C 
HETATM   11  C7  UNL     1     -35.358  16.105  -3.188  1.00 20.00     0.025 C 
HETATM   12 BR12 UNL     1     -36.281  13.766  -4.572  1.00 20.00    -0.091 Br
ENDBRANCH   3   7
TORSDOF 1
ENDMDL
MODEL 5
REMARK VINA RESULT:      -4.6      3.390      5.386
REMARK  1 active torsions:
REMARK  status: ('A' for Active; 'I' for Inactive)
REMARK    1  A    between atoms: C3_3  and  C8_8 
ROOT
HETATM    1  C1  UNL     1     -32.576  18.078  -1.150  1.00 20.00     0.022 A 
HETATM    2  C2  UNL     1     -34.755  17.497  -0.590  1.00 20.00     0.057 A 
HETATM    3  C3  UNL     1     -33.800  17.492  -1.583  1.00 20.00    -0.046 A 
HETATM    4  C4  UNL     1     -32.641  18.509   0.156  1.00 20.00    -0.021 A 
HETATM    5  C10 UNL     1     -31.589  19.164   0.964  1.00 20.00     0.056 C 
HETATM    6  S11 UNL     1     -34.174  18.206   0.857  1.00 20.00    -0.106 SA
ENDROOT
BRANCH   3   7
HETATM    7  C8  UNL     1     -34.024  16.931  -2.970  1.00 20.00     0.020 C 
HETATM    8  C5  UNL     1     -32.924  15.937  -3.389  1.00 20.00     0.010 C 
HETATM    9  C6  UNL     1     -33.650  14.872  -4.199  1.00 20.00     0.016 C 
HETATM   10  C9  UNL     1     -34.968  14.741  -3.462  1.00 20.00     0.058 C 
HETATM   11  C7  UNL     1     -35.360  16.178  -3.148  1.00 20.00     0.025 C 
HETATM   12 BR12 UNL     1     -36.301  13.853  -4.543  1.00 20.00    -0.091 Br
ENDBRANCH   3   7
TORSDOF 1
ENDMDL
MODEL 6
REMARK VINA RESULT:      -4.5      2.794      3.814
REMARK  1 active torsions:
REMARK  status: ('A' for Active; 'I' for Inactive)
REMARK    1  A    between atoms: C3_3  and  C8_8 
ROOT
HETATM    1  C1  UNL     1     -34.567  17.080  -5.057  1.00 20.00     0.022 A 
HETATM    2  C2  UNL     1     -33.805  14.884  -5.081  1.00 20.00     0.057 A 
HETATM    3  C3  UNL     1     -34.018  16.003  -4.304  1.00 20.00    -0.046 A 
HETATM    4  C4  UNL     1     -34.752  16.746  -6.380  1.00 20.00    -0.021 A 
HETATM    5  C10 UNL     1     -35.294  17.581  -7.474  1.00 20.00     0.056 C 
HETATM    6  S11 UNL     1     -34.265  15.137  -6.711  1.00 20.00    -0.106 SA
ENDROOT
BRANCH   3   7
HETATM    7  C8  UNL     1     -33.707  16.078  -2.825  1.00 20.00     0.020 C 
HETATM    8  C5  UNL     1     -32.869  17.317  -2.461  1.00 20.00     0.010 C 
HETATM    9  C6  UNL     1     -33.391  17.754  -1.099  1.00 20.00     0.016 C 
HETATM   10  C9  UNL     1     -34.878  17.480  -1.214  1.00 20.00     0.058 C 
HETATM   11  C7  UNL     1     -34.951  16.129  -1.911  1.00 20.00     0.025 C 
HETATM   12 BR12 UNL     1     -35.729  17.441   0.519  1.00 20.00    -0.091 Br
ENDBRANCH   3   7
TORSDOF 1
ENDMDL
MODEL 7
REMARK VINA RESULT:      -4.5      1.517      1.848
REMARK  1 active torsions:
REMARK  status: ('A' for Active; 'I' for Inactive)
REMARK    1  A    between atoms: C3_3  and  C8_8 
ROOT
HETATM    1  C1  UNL     1     -35.275  15.812  -2.867  1.00 20.00     0.022 A 
HETATM    2  C2  UNL     1     -33.030  16.104  -3.389  1.00 20.00     0.057 A 
HETATM    3  C3  UNL     1     -34.094  16.580  -2.655  1.00 20.00    -0.046 A 
HETATM    4  C4  UNL     1     -35.070  14.780  -3.755  1.00 20.00    -0.021 A 
HETATM    5  C10 UNL     1     -36.039  13.768  -4.232  1.00 20.00     0.056 C 
HETATM    6  S11 UNL     1     -33.457  14.737  -4.329  1.00 20.00    -0.106 SA
ENDROOT
BRANCH   3   7
HETATM    7  C8  UNL     1     -34.018  17.776  -1.732  1.00 20.00     0.020 C 
HETATM    8  C5  UNL     1     -34.717  17.524  -0.382  1.00 20.00     0.010 C 
HETATM    9  C6  UNL     1     -33.859  18.255   0.642  1.00 20.00     0.016 C 
HETATM   10  C9  UNL     1     -32.455  18.023   0.120  1.00 20.00     0.058 C 
HETATM   11  C7  UNL     1     -32.582  18.226  -1.384  1.00 20.00     0.025 C 
HETATM   12 BR12 UNL     1     -31.192  19.254   0.906  1.00 20.00    -0.091 Br
ENDBRANCH   3   7
TORSDOF 1
ENDMDL
MODEL 8
REMARK VINA RESULT:      -4.5      1.674      2.095
REMARK  1 active torsions:
REMARK  status: ('A' for Active; 'I' for Inactive)
REMARK    1  A    between atoms: C3_3  and  C8_8 
ROOT
HETATM    1  C1  UNL     1     -35.177  15.898  -2.265  1.00 20.00     0.022 A 
HETATM    2  C2  UNL     1     -33.137  16.978  -2.535  1.00 20.00     0.057 A 
HETATM    3  C3  UNL     1     -34.328  16.959  -1.840  1.00 20.00    -0.046 A 
HETATM    4  C4  UNL     1     -34.606  15.146  -3.267  1.00 20.00    -0.021 A 
HETATM    5  C10 UNL     1     -35.163  13.968  -3.968  1.00 20.00     0.056 C 
HETATM    6  S11 UNL     1     -33.049  15.719  -3.693  1.00 20.00    -0.106 SA
ENDROOT
BRANCH   3   7
HETATM    7  C8  UNL     1     -34.690  17.949  -0.755  1.00 20.00     0.020 C 
HETATM    8  C5  UNL     1     -35.804  17.426   0.172  1.00 20.00     0.010 C 
HETATM    9  C6  UNL     1     -35.437  17.948   1.554  1.00 20.00     0.016 C 
HETATM   10  C9  UNL     1     -33.924  17.842   1.554  1.00 20.00     0.058 C 
HETATM   11  C7  UNL     1     -33.519  18.338   0.173  1.00 20.00     0.025 C 
HETATM   12 BR12 UNL     1     -33.137  18.908   2.960  1.00 20.00    -0.091 Br
ENDBRANCH   3   7
TORSDOF 1
ENDMDL
MODEL 9
REMARK VINA RESULT:      -4.5      2.387      3.480
REMARK  1 active torsions:
REMARK  status: ('A' for Active; 'I' for Inactive)
REMARK    1  A    between atoms: C3_3  and  C8_8 
ROOT
HETATM    1  C1  UNL     1     -33.839  15.686  -5.078  1.00 20.00     0.022 A 
HETATM    2  C2  UNL     1     -35.766  14.790  -4.138  1.00 20.00     0.057 A 
HETATM    3  C3  UNL     1     -34.581  15.446  -3.886  1.00 20.00    -0.046 A 
HETATM    4  C4  UNL     1     -34.484  15.205  -6.196  1.00 20.00    -0.021 A 
HETATM    5  C10 UNL     1     -34.046  15.257  -7.608  1.00 20.00     0.056 C 
HETATM    6  S11 UNL     1     -35.980  14.467  -5.806  1.00 20.00    -0.106 SA
ENDROOT
BRANCH   3   7
HETATM    7  C8  UNL     1     -34.120  15.863  -2.507  1.00 20.00     0.020 C 
HETATM    8  C5  UNL     1     -33.031  16.950  -2.552  1.00 20.00     0.010 C 
HETATM    9  C6  UNL     1     -33.327  17.848  -1.358  1.00 20.00     0.016 C 
HETATM   10  C9  UNL     1     -34.842  17.870  -1.332  1.00 20.00     0.058 C 
HETATM   11  C7  UNL     1     -35.238  16.425  -1.601  1.00 20.00     0.025 C 
HETATM   12 BR12 UNL     1     -35.515  18.495   0.368  1.00 20.00    -0.091 Br
ENDBRANCH   3   7
TORSDOF 1
ENDMDL
