MODEL 1
REMARK VINA RESULT:      -5.0      0.000      0.000
REMARK  1 active torsions:
REMARK  status: ('A' for Active; 'I' for Inactive)
REMARK    1  A    between atoms: C8_8  and  C11_11 
ROOT
HETATM    1  C1  UNL     1     -36.676  14.458  -4.488  1.00 20.00     0.064 C 
HETATM    2  C2  UNL     1     -34.705  17.722  -5.051  1.00 20.00     0.002 C 
HETATM    3  C3  UNL     1     -35.850  16.711  -4.998  1.00 20.00     0.019 C 
HETATM    4  C4  UNL     1     -34.742  15.243  -3.185  1.00 20.00     0.019 C 
HETATM    5  C5  UNL     1     -34.253  18.170  -3.663  1.00 20.00     0.005 C 
HETATM    6  C6  UNL     1     -33.314  15.784  -3.246  1.00 20.00     0.006 C 
HETATM    7  C7  UNL     1     -35.460  15.298  -4.543  1.00 20.00     0.093 C 
HETATM    8  C8  UNL     1     -33.166  17.296  -3.023  1.00 20.00    -0.011 C 
HETATM    9  N12 UNL     1     -37.630  13.799  -4.444  1.00 20.00    -0.197 NA
ENDROOT
BRANCH   8  10
HETATM   10  C11 UNL     1     -33.067  17.620  -1.528  1.00 20.00    -0.019 C 
HETATM   11  C9  UNL     1     -31.861  18.513  -1.257  1.00 20.00     0.010 C 
HETATM   12  C10 UNL     1     -34.352  18.282  -1.043  1.00 20.00     0.010 C 
ENDBRANCH   8  10
TORSDOF 1
ENDMDL
MODEL 2
REMARK VINA RESULT:      -5.0      1.351      1.951
REMARK  1 active torsions:
REMARK  status: ('A' for Active; 'I' for Inactive)
REMARK    1  A    between atoms: C8_8  and  C11_11 
ROOT
HETATM    1  C1  UNL     1     -37.130  14.358  -4.123  1.00 20.00     0.064 C 
HETATM    2  C2  UNL     1     -33.291  14.695  -4.155  1.00 20.00     0.002 C 
HETATM    3  C3  UNL     1     -34.725  14.414  -4.603  1.00 20.00     0.019 C 
HETATM    4  C4  UNL     1     -35.794  15.995  -2.863  1.00 20.00     0.019 C 
HETATM    5  C5  UNL     1     -33.010  16.185  -3.982  1.00 20.00     0.005 C 
HETATM    6  C6  UNL     1     -34.603  16.201  -1.928  1.00 20.00     0.006 C 
HETATM    7  C7  UNL     1     -35.800  14.608  -3.526  1.00 20.00     0.093 C 
HETATM    8  C8  UNL     1     -33.327  16.745  -2.588  1.00 20.00    -0.011 C 
HETATM    9  N12 UNL     1     -38.173  14.161  -4.592  1.00 20.00    -0.197 NA
ENDROOT
BRANCH   8  10
HETATM   10  C11 UNL     1     -33.355  18.278  -2.649  1.00 20.00    -0.019 C 
HETATM   11  C9  UNL     1     -32.259  18.864  -1.766  1.00 20.00     0.010 C 
HETATM   12  C10 UNL     1     -33.203  18.753  -4.090  1.00 20.00     0.010 C 
ENDBRANCH   8  10
TORSDOF 1
ENDMDL
MODEL 3
REMARK VINA RESULT:      -4.8      2.906      5.079
REMARK  1 active torsions:
REMARK  status: ('A' for Active; 'I' for Inactive)
REMARK    1  A    between atoms: C8_8  and  C11_11 
ROOT
HETATM    1  C1  UNL     1     -34.096  18.164   1.389  1.00 20.00     0.064 C 
HETATM    2  C2  UNL     1     -32.667  18.139  -2.190  1.00 20.00     0.002 C 
HETATM    3  C3  UNL     1     -32.755  18.183  -0.664  1.00 20.00     0.019 C 
HETATM    4  C4  UNL     1     -35.053  17.008  -0.560  1.00 20.00     0.019 C 
HETATM    5  C5  UNL     1     -33.017  16.767  -2.760  1.00 20.00     0.005 C 
HETATM    6  C6  UNL     1     -35.481  17.139  -2.022  1.00 20.00     0.006 C 
HETATM    7  C7  UNL     1     -34.176  18.179  -0.087  1.00 20.00     0.093 C 
HETATM    8  C8  UNL     1     -34.508  16.551  -3.054  1.00 20.00    -0.011 C 
HETATM    9  N12 UNL     1     -34.033  18.153   2.548  1.00 20.00    -0.197 NA
ENDROOT
BRANCH   8  10
HETATM   10  C11 UNL     1     -34.774  15.055  -3.265  1.00 20.00    -0.019 C 
HETATM   11  C9  UNL     1     -36.176  14.839  -3.823  1.00 20.00     0.010 C 
HETATM   12  C10 UNL     1     -33.722  14.457  -4.192  1.00 20.00     0.010 C 
ENDBRANCH   8  10
TORSDOF 1
ENDMDL
MODEL 4
REMARK VINA RESULT:      -4.7      2.096      2.910
REMARK  1 active torsions:
REMARK  status: ('A' for Active; 'I' for Inactive)
REMARK    1  A    between atoms: C8_8  and  C11_11 
ROOT
HETATM    1  C1  UNL     1     -33.653  14.956  -4.031  1.00 20.00     0.064 C 
HETATM    2  C2  UNL     1     -35.697  17.057  -1.528  1.00 20.00     0.002 C 
HETATM    3  C3  UNL     1     -35.218  15.887  -2.387  1.00 20.00     0.019 C 
HETATM    4  C4  UNL     1     -32.801  16.771  -2.605  1.00 20.00     0.019 C 
HETATM    5  C5  UNL     1     -34.737  17.380  -0.387  1.00 20.00     0.005 C 
HETATM    6  C6  UNL     1     -33.006  18.212  -2.137  1.00 20.00     0.006 C 
HETATM    7  C7  UNL     1     -34.035  16.193  -3.316  1.00 20.00     0.093 C 
HETATM    8  C8  UNL     1     -33.623  18.376  -0.741  1.00 20.00    -0.011 C 
HETATM    9  N12 UNL     1     -33.353  13.986  -4.593  1.00 20.00    -0.197 NA
ENDROOT
BRANCH   8  10
HETATM   10  C11 UNL     1     -32.539  18.334   0.344  1.00 20.00    -0.019 C 
HETATM   11  C9  UNL     1     -31.386  19.262  -0.023  1.00 20.00     0.010 C 
HETATM   12  C10 UNL     1     -33.131  18.713   1.697  1.00 20.00     0.010 C 
ENDBRANCH   8  10
TORSDOF 1
ENDMDL
MODEL 5
REMARK VINA RESULT:      -4.6      1.379      2.132
REMARK  1 active torsions:
REMARK  status: ('A' for Active; 'I' for Inactive)
REMARK    1  A    between atoms: C8_8  and  C11_11 
ROOT
HETATM    1  C1  UNL     1     -37.730  15.317  -4.616  1.00 20.00     0.064 C 
HETATM    2  C2  UNL     1     -34.068  14.240  -4.082  1.00 20.00     0.002 C 
HETATM    3  C3  UNL     1     -35.425  14.487  -4.741  1.00 20.00     0.019 C 
HETATM    4  C4  UNL     1     -36.091  16.391  -3.129  1.00 20.00     0.019 C 
HETATM    5  C5  UNL     1     -33.296  15.532  -3.827  1.00 20.00     0.005 C 
HETATM    6  C6  UNL     1     -35.054  16.177  -2.026  1.00 20.00     0.006 C 
HETATM    7  C7  UNL     1     -36.502  15.084  -3.826  1.00 20.00     0.093 C 
HETATM    8  C8  UNL     1     -33.587  16.205  -2.479  1.00 20.00    -0.011 C 
HETATM    9  N12 UNL     1     -38.693  15.499  -5.236  1.00 20.00    -0.197 NA
ENDROOT
BRANCH   8  10
HETATM   10  C11 UNL     1     -33.049  17.641  -2.499  1.00 20.00    -0.019 C 
HETATM   11  C9  UNL     1     -33.249  18.263  -3.877  1.00 20.00     0.010 C 
HETATM   12  C10 UNL     1     -33.733  18.477  -1.422  1.00 20.00     0.010 C 
ENDBRANCH   8  10
TORSDOF 1
ENDMDL
MODEL 6
REMARK VINA RESULT:      -4.5      3.686      5.998
REMARK  1 active torsions:
REMARK  status: ('A' for Active; 'I' for Inactive)
REMARK    1  A    between atoms: C8_8  and  C11_11 
ROOT
HETATM    1  C1  UNL     1     -32.515  18.231   2.948  1.00 20.00     0.064 C 
HETATM    2  C2  UNL     1     -31.702  18.846  -0.768  1.00 20.00     0.002 C 
HETATM    3  C3  UNL     1     -31.540  18.519   0.716  1.00 20.00     0.019 C 
HETATM    4  C4  UNL     1     -33.999  17.797   1.035  1.00 20.00     0.019 C 
HETATM    5  C5  UNL     1     -32.437  17.749  -1.534  1.00 20.00     0.005 C 
HETATM    6  C6  UNL     1     -34.608  18.367  -0.246  1.00 20.00     0.006 C 
HETATM    7  C7  UNL     1     -32.818  18.631   1.558  1.00 20.00     0.093 C 
HETATM    8  C8  UNL     1     -33.966  17.890  -1.557  1.00 20.00    -0.011 C 
HETATM    9  N12 UNL     1     -32.277  17.917   4.040  1.00 20.00    -0.197 NA
ENDROOT
BRANCH   8  10
HETATM   10  C11 UNL     1     -34.592  16.570  -2.023  1.00 20.00    -0.019 C 
HETATM   11  C9  UNL     1     -35.978  16.817  -2.608  1.00 20.00     0.010 C 
HETATM   12  C10 UNL     1     -33.687  15.885  -3.042  1.00 20.00     0.010 C 
ENDBRANCH   8  10
TORSDOF 1
ENDMDL
MODEL 7
REMARK VINA RESULT:      -4.4      1.316      1.793
REMARK  1 active torsions:
REMARK  status: ('A' for Active; 'I' for Inactive)
REMARK    1  A    between atoms: C8_8  and  C11_11 
ROOT
HETATM    1  C1  UNL     1     -35.341  13.881  -4.375  1.00 20.00     0.064 C 
HETATM    2  C2  UNL     1     -34.538  17.602  -4.979  1.00 20.00     0.002 C 
HETATM    3  C3  UNL     1     -35.159  16.211  -5.117  1.00 20.00     0.019 C 
HETATM    4  C4  UNL     1     -34.674  15.528  -2.674  1.00 20.00     0.019 C 
HETATM    5  C5  UNL     1     -35.001  18.329  -3.719  1.00 20.00     0.005 C 
HETATM    6  C6  UNL     1     -33.668  16.613  -2.293  1.00 20.00     0.006 C 
HETATM    7  C7  UNL     1     -34.606  15.146  -4.161  1.00 20.00     0.093 C 
HETATM    8  C8  UNL     1     -34.152  18.060  -2.468  1.00 20.00    -0.011 C 
HETATM    9  N12 UNL     1     -35.917  12.888  -4.543  1.00 20.00    -0.197 NA
ENDROOT
BRANCH   8  10
HETATM   10  C11 UNL     1     -34.912  18.537  -1.225  1.00 20.00    -0.019 C 
HETATM   11  C9  UNL     1     -36.412  18.340  -1.412  1.00 20.00     0.010 C 
HETATM   12  C10 UNL     1     -34.418  17.796   0.014  1.00 20.00     0.010 C 
ENDBRANCH   8  10
TORSDOF 1
ENDMDL
MODEL 8
REMARK VINA RESULT:      -4.2      1.947      3.206
REMARK  1 active torsions:
REMARK  status: ('A' for Active; 'I' for Inactive)
REMARK    1  A    between atoms: C8_8  and  C11_11 
ROOT
HETATM    1  C1  UNL     1     -34.040  14.847  -4.001  1.00 20.00     0.064 C 
HETATM    2  C2  UNL     1     -32.767  17.900  -2.022  1.00 20.00     0.002 C 
HETATM    3  C3  UNL     1     -32.973  16.884  -3.146  1.00 20.00     0.019 C 
HETATM    4  C4  UNL     1     -35.287  16.112  -2.299  1.00 20.00     0.019 C 
HETATM    5  C5  UNL     1     -33.994  18.778  -1.793  1.00 20.00     0.005 C 
HETATM    6  C6  UNL     1     -35.260  16.697  -0.888  1.00 20.00     0.006 C 
HETATM    7  C7  UNL     1     -33.894  15.705  -2.805  1.00 20.00     0.093 C 
HETATM    8  C8  UNL     1     -35.019  18.211  -0.800  1.00 20.00    -0.011 C 
HETATM    9  N12 UNL     1     -34.153  14.174  -4.940  1.00 20.00    -0.197 NA
ENDROOT
BRANCH   8  10
HETATM   10  C11 UNL     1     -36.338  18.982  -0.934  1.00 20.00    -0.019 C 
HETATM   11  C9  UNL     1     -36.644  19.261  -2.401  1.00 20.00     0.010 C 
HETATM   12  C10 UNL     1     -37.475  18.202  -0.281  1.00 20.00     0.010 C 
ENDBRANCH   8  10
TORSDOF 1
ENDMDL
MODEL 9
REMARK VINA RESULT:      -4.2      2.439      4.739
REMARK  1 active torsions:
REMARK  status: ('A' for Active; 'I' for Inactive)
REMARK    1  A    between atoms: C8_8  and  C11_11 
ROOT
HETATM    1  C1  UNL     1     -36.923  18.002  -0.637  1.00 20.00     0.064 C 
HETATM    2  C2  UNL     1     -33.966  16.255  -2.384  1.00 20.00     0.002 C 
HETATM    3  C3  UNL     1     -34.955  16.701  -1.308  1.00 20.00     0.019 C 
HETATM    4  C4  UNL     1     -36.835  17.271  -2.984  1.00 20.00     0.019 C 
HETATM    5  C5  UNL     1     -34.595  15.311  -3.406  1.00 20.00     0.005 C 
HETATM    6  C6  UNL     1     -36.031  17.291  -4.284  1.00 20.00     0.006 C 
HETATM    7  C7  UNL     1     -36.011  17.716  -1.765  1.00 20.00     0.093 C 
HETATM    8  C8  UNL     1     -35.257  16.005  -4.605  1.00 20.00    -0.011 C 
HETATM    9  N12 UNL     1     -37.638  18.227   0.249  1.00 20.00    -0.197 NA
ENDROOT
BRANCH   8  10
HETATM   10  C11 UNL     1     -36.148  15.001  -5.346  1.00 20.00    -0.019 C 
HETATM   11  C9  UNL     1     -35.592  14.723  -6.738  1.00 20.00     0.010 C 
HETATM   12  C10 UNL     1     -36.272  13.710  -4.543  1.00 20.00     0.010 C 
ENDBRANCH   8  10
TORSDOF 1
ENDMDL
