MODEL 1
REMARK VINA RESULT:      -5.4      0.000      0.000
REMARK  1 active torsions:
REMARK  status: ('A' for Active; 'I' for Inactive)
REMARK    1  A    between atoms: C8_8  and  C11_11 
ROOT
HETATM    1  C1  UNL     1     -37.033  14.317  -4.582  1.00 20.00     0.064 C 
HETATM    2  C2  UNL     1     -33.312  14.851  -4.076  1.00 20.00     0.002 C 
HETATM    3  C3  UNL     1     -34.596  14.040  -4.241  1.00 20.00     0.019 C 
HETATM    4  C4  UNL     1     -35.609  16.272  -5.126  1.00 20.00     0.019 C 
HETATM    5  C5  UNL     1     -33.392  16.011  -3.073  1.00 20.00     0.005 C 
HETATM    6  C6  UNL     1     -35.646  17.032  -3.800  1.00 20.00     0.006 C 
HETATM    7  C7  UNL     1     -35.701  14.742  -5.053  1.00 20.00     0.093 C 
HETATM    8  C8  UNL     1     -34.796  16.470  -2.653  1.00 20.00    -0.011 C 
HETATM    9  N12 UNL     1     -38.080  13.983  -4.211  1.00 20.00    -0.197 NA
ENDROOT
BRANCH   8  10
HETATM   10  C11 UNL     1     -34.689  17.519  -1.537  1.00 20.00    -0.019 C 
HETATM   11  C9  UNL     1     -35.380  17.019  -0.272  1.00 20.00     0.010 C 
HETATM   12  C10 UNL     1     -33.227  17.852  -1.262  1.00 20.00     0.010 C 
ENDBRANCH   8  10
TORSDOF 1
ENDMDL
MODEL 2
REMARK VINA RESULT:      -5.2      2.976      5.160
REMARK  1 active torsions:
REMARK  status: ('A' for Active; 'I' for Inactive)
REMARK    1  A    between atoms: C8_8  and  C11_11 
ROOT
HETATM    1  C1  UNL     1     -31.702  18.451  -0.728  1.00 20.00     0.064 C 
HETATM    2  C2  UNL     1     -35.424  17.717  -0.727  1.00 20.00     0.002 C 
HETATM    3  C3  UNL     1     -34.064  18.039  -0.110  1.00 20.00     0.019 C 
HETATM    4  C4  UNL     1     -33.378  18.682  -2.541  1.00 20.00     0.019 C 
HETATM    5  C5  UNL     1     -35.423  16.581  -1.761  1.00 20.00     0.005 C 
HETATM    6  C6  UNL     1     -33.353  17.274  -3.136  1.00 20.00     0.006 C 
HETATM    7  C7  UNL     1     -33.101  18.805  -1.036  1.00 20.00     0.093 C 
HETATM    8  C8  UNL     1     -34.060  16.169  -2.339  1.00 20.00    -0.011 C 
HETATM    9  N12 UNL     1     -30.603  18.171  -0.486  1.00 20.00    -0.197 NA
ENDROOT
BRANCH   8  10
HETATM   10  C11 UNL     1     -34.225  14.927  -3.226  1.00 20.00    -0.019 C 
HETATM   11  C9  UNL     1     -35.618  14.901  -3.846  1.00 20.00     0.010 C 
HETATM   12  C10 UNL     1     -33.149  14.901  -4.305  1.00 20.00     0.010 C 
ENDBRANCH   8  10
TORSDOF 1
ENDMDL
MODEL 3
REMARK VINA RESULT:      -4.7      1.767      3.388
REMARK  1 active torsions:
REMARK  status: ('A' for Active; 'I' for Inactive)
REMARK    1  A    between atoms: C8_8  and  C11_11 
ROOT
HETATM    1  C1  UNL     1     -36.216  14.054  -4.234  1.00 20.00     0.064 C 
HETATM    2  C2  UNL     1     -33.583  16.367  -2.785  1.00 20.00     0.002 C 
HETATM    3  C3  UNL     1     -34.791  15.434  -2.752  1.00 20.00     0.019 C 
HETATM    4  C4  UNL     1     -33.999  14.711  -5.128  1.00 20.00     0.019 C 
HETATM    5  C5  UNL     1     -33.617  17.447  -3.876  1.00 20.00     0.005 C 
HETATM    6  C6  UNL     1     -34.359  15.995  -5.874  1.00 20.00     0.006 C 
HETATM    7  C7  UNL     1     -34.823  14.380  -3.876  1.00 20.00     0.093 C 
HETATM    8  C8  UNL     1     -34.619  17.245  -5.023  1.00 20.00    -0.011 C 
HETATM    9  N12 UNL     1     -37.312  13.798  -4.516  1.00 20.00    -0.197 NA
ENDROOT
BRANCH   8  10
HETATM   10  C11 UNL     1     -34.631  18.485  -5.928  1.00 20.00    -0.019 C 
HETATM   11  C9  UNL     1     -34.110  18.130  -7.318  1.00 20.00     0.010 C 
HETATM   12  C10 UNL     1     -36.037  19.069  -6.008  1.00 20.00     0.010 C 
ENDBRANCH   8  10
TORSDOF 1
ENDMDL
MODEL 4
REMARK VINA RESULT:      -4.6      1.370      2.033
REMARK  1 active torsions:
REMARK  status: ('A' for Active; 'I' for Inactive)
REMARK    1  A    between atoms: C8_8  and  C11_11 
ROOT
HETATM    1  C1  UNL     1     -35.998  13.824  -4.858  1.00 20.00     0.064 C 
HETATM    2  C2  UNL     1     -34.510  17.194  -5.759  1.00 20.00     0.002 C 
HETATM    3  C3  UNL     1     -34.823  15.711  -5.948  1.00 20.00     0.019 C 
HETATM    4  C4  UNL     1     -36.628  16.102  -4.109  1.00 20.00     0.019 C 
HETATM    5  C5  UNL     1     -33.994  17.585  -4.366  1.00 20.00     0.005 C 
HETATM    6  C6  UNL     1     -35.686  16.284  -2.918  1.00 20.00     0.006 C 
HETATM    7  C7  UNL     1     -36.122  15.236  -5.270  1.00 20.00     0.093 C 
HETATM    8  C8  UNL     1     -34.212  16.569  -3.235  1.00 20.00    -0.011 C 
HETATM    9  N12 UNL     1     -35.901  12.715  -4.534  1.00 20.00    -0.197 NA
ENDROOT
BRANCH   8  10
HETATM   10  C11 UNL     1     -33.501  17.047  -1.962  1.00 20.00    -0.019 C 
HETATM   11  C9  UNL     1     -32.582  18.223  -2.278  1.00 20.00     0.010 C 
HETATM   12  C10 UNL     1     -34.522  17.427  -0.896  1.00 20.00     0.010 C 
ENDBRANCH   8  10
TORSDOF 1
ENDMDL
MODEL 5
REMARK VINA RESULT:      -4.6      1.982      3.063
REMARK  1 active torsions:
REMARK  status: ('A' for Active; 'I' for Inactive)
REMARK    1  A    between atoms: C8_8  and  C11_11 
ROOT
HETATM    1  C1  UNL     1     -34.714  15.014  -6.878  1.00 20.00     0.064 C 
HETATM    2  C2  UNL     1     -37.328  16.450  -4.533  1.00 20.00     0.002 C 
HETATM    3  C3  UNL     1     -36.543  16.320  -5.837  1.00 20.00     0.019 C 
HETATM    4  C4  UNL     1     -35.783  14.021  -4.873  1.00 20.00     0.019 C 
HETATM    5  C5  UNL     1     -36.476  16.491  -3.256  1.00 20.00     0.005 C 
HETATM    6  C6  UNL     1     -34.865  14.544  -3.769  1.00 20.00     0.006 C 
HETATM    7  C7  UNL     1     -35.968  14.916  -6.106  1.00 20.00     0.093 C 
HETATM    8  C8  UNL     1     -35.019  16.019  -3.377  1.00 20.00    -0.011 C 
HETATM    9  N12 UNL     1     -33.728  15.092  -7.484  1.00 20.00    -0.197 NA
ENDROOT
BRANCH   8  10
HETATM   10  C11 UNL     1     -34.278  16.276  -2.057  1.00 20.00    -0.019 C 
HETATM   11  C9  UNL     1     -33.076  17.185  -2.294  1.00 20.00     0.010 C 
HETATM   12  C10 UNL     1     -35.224  16.883  -1.028  1.00 20.00     0.010 C 
ENDBRANCH   8  10
TORSDOF 1
ENDMDL
MODEL 6
REMARK VINA RESULT:      -4.5      2.024      2.913
REMARK  1 active torsions:
REMARK  status: ('A' for Active; 'I' for Inactive)
REMARK    1  A    between atoms: C8_8  and  C11_11 
ROOT
HETATM    1  C1  UNL     1     -34.332  15.606  -6.591  1.00 20.00     0.064 C 
HETATM    2  C2  UNL     1     -36.102  15.187  -3.262  1.00 20.00     0.002 C 
HETATM    3  C3  UNL     1     -35.994  15.460  -4.761  1.00 20.00     0.019 C 
HETATM    4  C4  UNL     1     -33.622  14.403  -4.542  1.00 20.00     0.019 C 
HETATM    5  C5  UNL     1     -35.095  15.941  -2.383  1.00 20.00     0.005 C 
HETATM    6  C6  UNL     1     -32.954  15.535  -3.762  1.00 20.00     0.006 C 
HETATM    7  C7  UNL     1     -34.795  14.786  -5.455  1.00 20.00     0.093 C 
HETATM    8  C8  UNL     1     -33.880  16.559  -3.091  1.00 20.00    -0.011 C 
HETATM    9  N12 UNL     1     -33.968  16.251  -7.483  1.00 20.00    -0.197 NA
ENDROOT
BRANCH   8  10
HETATM   10  C11 UNL     1     -33.070  17.402  -2.097  1.00 20.00    -0.019 C 
HETATM   11  C9  UNL     1     -32.549  18.665  -2.775  1.00 20.00     0.010 C 
HETATM   12  C10 UNL     1     -33.923  17.751  -0.881  1.00 20.00     0.010 C 
ENDBRANCH   8  10
TORSDOF 1
ENDMDL
MODEL 7
REMARK VINA RESULT:      -4.5      2.443      4.111
REMARK  1 active torsions:
REMARK  status: ('A' for Active; 'I' for Inactive)
REMARK    1  A    between atoms: C8_8  and  C11_11 
ROOT
HETATM    1  C1  UNL     1     -33.057  17.568  -3.311  1.00 20.00     0.064 C 
HETATM    2  C2  UNL     1     -34.448  14.096  -3.937  1.00 20.00     0.002 C 
HETATM    3  C3  UNL     1     -33.447  15.242  -4.065  1.00 20.00     0.019 C 
HETATM    4  C4  UNL     1     -34.683  16.236  -1.996  1.00 20.00     0.019 C 
HETATM    5  C5  UNL     1     -35.920  14.483  -4.141  1.00 20.00     0.005 C 
HETATM    6  C6  UNL     1     -35.992  16.614  -2.689  1.00 20.00     0.006 C 
HETATM    7  C7  UNL     1     -33.418  16.209  -2.866  1.00 20.00     0.093 C 
HETATM    8  C8  UNL     1     -36.262  15.979  -4.060  1.00 20.00    -0.011 C 
HETATM    9  N12 UNL     1     -32.774  18.637  -3.662  1.00 20.00    -0.197 NA
ENDROOT
BRANCH   8  10
HETATM   10  C11 UNL     1     -37.732  16.198  -4.441  1.00 20.00    -0.019 C 
HETATM   11  C9  UNL     1     -38.528  14.911  -4.245  1.00 20.00     0.010 C 
HETATM   12  C10 UNL     1     -38.328  17.336  -3.621  1.00 20.00     0.010 C 
ENDBRANCH   8  10
TORSDOF 1
ENDMDL
MODEL 8
REMARK VINA RESULT:      -4.5      2.005      4.322
REMARK  1 active torsions:
REMARK  status: ('A' for Active; 'I' for Inactive)
REMARK    1  A    between atoms: C8_8  and  C11_11 
ROOT
HETATM    1  C1  UNL     1     -36.320  18.821  -1.764  1.00 20.00     0.064 C 
HETATM    2  C2  UNL     1     -32.672  17.812  -2.012  1.00 20.00     0.002 C 
HETATM    3  C3  UNL     1     -33.854  18.779  -1.989  1.00 20.00     0.019 C 
HETATM    4  C4  UNL     1     -35.170  16.770  -0.976  1.00 20.00     0.019 C 
HETATM    5  C5  UNL     1     -32.846  16.583  -2.915  1.00 20.00     0.005 C 
HETATM    6  C6  UNL     1     -35.238  15.902  -2.232  1.00 20.00     0.006 C 
HETATM    7  C7  UNL     1     -35.072  18.288  -1.184  1.00 20.00     0.093 C 
HETATM    8  C8  UNL     1     -34.275  16.254  -3.374  1.00 20.00    -0.011 C 
HETATM    9  N12 UNL     1     -37.300  19.240  -2.221  1.00 20.00    -0.197 NA
ENDROOT
BRANCH   8  10
HETATM   10  C11 UNL     1     -34.244  15.103  -4.388  1.00 20.00    -0.019 C 
HETATM   11  C9  UNL     1     -32.864  14.455  -4.413  1.00 20.00     0.010 C 
HETATM   12  C10 UNL     1     -35.321  14.075  -4.055  1.00 20.00     0.010 C 
ENDBRANCH   8  10
TORSDOF 1
ENDMDL
MODEL 9
REMARK VINA RESULT:      -4.4      1.560      2.454
REMARK  1 active torsions:
REMARK  status: ('A' for Active; 'I' for Inactive)
REMARK    1  A    between atoms: C8_8  and  C11_11 
ROOT
HETATM    1  C1  UNL     1     -38.794  16.507  -4.044  1.00 20.00     0.064 C 
HETATM    2  C2  UNL     1     -36.205  13.798  -4.637  1.00 20.00     0.002 C 
HETATM    3  C3  UNL     1     -37.592  14.361  -4.330  1.00 20.00     0.019 C 
HETATM    4  C4  UNL     1     -36.622  16.604  -5.236  1.00 20.00     0.019 C 
HETATM    5  C5  UNL     1     -35.052  14.418  -3.835  1.00 20.00     0.005 C 
HETATM    6  C6  UNL     1     -35.672  16.911  -4.078  1.00 20.00     0.006 C 
HETATM    7  C7  UNL     1     -37.863  15.761  -4.912  1.00 20.00     0.093 C 
HETATM    8  C8  UNL     1     -35.336  15.752  -3.128  1.00 20.00    -0.011 C 
HETATM    9  N12 UNL     1     -39.525  17.093  -3.360  1.00 20.00    -0.197 NA
ENDROOT
BRANCH   8  10
HETATM   10  C11 UNL     1     -34.138  16.143  -2.252  1.00 20.00    -0.019 C 
HETATM   11  C9  UNL     1     -32.999  16.671  -3.118  1.00 20.00     0.010 C 
HETATM   12  C10 UNL     1     -34.556  17.178  -1.214  1.00 20.00     0.010 C 
ENDBRANCH   8  10
TORSDOF 1
ENDMDL
