MODEL 1
REMARK VINA RESULT:      -4.8      0.000      0.000
REMARK  2 active torsions:
REMARK  status: ('A' for Active; 'I' for Inactive)
REMARK    1  A    between atoms: C4_4  and  C9_9 
REMARK    2  A    between atoms: C5_5  and  S11_11 
ROOT
HETATM    1  C1  UNL     1     -35.742  13.869  -4.298  1.00 20.00     0.080 C 
HETATM    2  C2  UNL     1     -34.349  15.991  -4.497  1.00 20.00     0.041 C 
HETATM    3  C3  UNL     1     -35.341  15.735  -2.612  1.00 20.00     0.041 C 
HETATM    4  C4  UNL     1     -33.853  15.852  -3.034  1.00 20.00    -0.006 C 
HETATM    5  C5  UNL     1     -35.661  15.292  -4.062  1.00 20.00     0.097 C 
HETATM    6  N10 UNL     1     -35.807  12.726  -4.487  1.00 20.00    -0.196 NA
ENDROOT
BRANCH   5   7
HETATM    7  S11 UNL     1     -37.146  16.125  -4.730  1.00 20.00    -0.148 SA
HETATM    8  C8  UNL     1     -38.367  14.890  -4.240  1.00 20.00     0.091 C 
ENDBRANCH   5   7
BRANCH   4   9
HETATM    9  C9  UNL     1     -33.079  17.026  -2.466  1.00 20.00    -0.019 C 
HETATM   10  C6  UNL     1     -32.908  18.129  -3.514  1.00 20.00     0.010 C 
HETATM   11  C7  UNL     1     -33.769  17.585  -1.220  1.00 20.00     0.010 C 
ENDBRANCH   4   9
TORSDOF 2
ENDMDL
MODEL 2
REMARK VINA RESULT:      -4.7      1.379      2.078
REMARK  2 active torsions:
REMARK  status: ('A' for Active; 'I' for Inactive)
REMARK    1  A    between atoms: C4_4  and  C9_9 
REMARK    2  A    between atoms: C5_5  and  S11_11 
ROOT
HETATM    1  C1  UNL     1     -35.599  13.943  -4.431  1.00 20.00     0.080 C 
HETATM    2  C2  UNL     1     -33.988  15.610  -3.380  1.00 20.00     0.041 C 
HETATM    3  C3  UNL     1     -36.060  16.157  -3.262  1.00 20.00     0.041 C 
HETATM    4  C4  UNL     1     -34.963  15.873  -2.202  1.00 20.00    -0.006 C 
HETATM    5  C5  UNL     1     -35.224  15.328  -4.270  1.00 20.00     0.097 C 
HETATM    6  N10 UNL     1     -35.901  12.830  -4.560  1.00 20.00    -0.196 NA
ENDROOT
BRANCH   5   7
HETATM    7  S11 UNL     1     -35.102  16.140  -5.904  1.00 20.00    -0.148 SA
HETATM    8  C8  UNL     1     -33.946  14.986  -6.671  1.00 20.00     0.091 C 
ENDBRANCH   5   7
BRANCH   4   9
HETATM    9  C9  UNL     1     -34.609  17.015  -1.271  1.00 20.00    -0.019 C 
HETATM   10  C6  UNL     1     -33.258  17.630  -1.644  1.00 20.00     0.010 C 
HETATM   11  C7  UNL     1     -35.699  18.091  -1.284  1.00 20.00     0.010 C 
ENDBRANCH   4   9
TORSDOF 2
ENDMDL
MODEL 3
REMARK VINA RESULT:      -4.6      1.687      1.828
REMARK  2 active torsions:
REMARK  status: ('A' for Active; 'I' for Inactive)
REMARK    1  A    between atoms: C4_4  and  C9_9 
REMARK    2  A    between atoms: C5_5  and  S11_11 
ROOT
HETATM    1  C1  UNL     1     -36.885  14.412  -4.477  1.00 20.00     0.080 C 
HETATM    2  C2  UNL     1     -34.518  14.678  -3.576  1.00 20.00     0.041 C 
HETATM    3  C3  UNL     1     -35.551  16.519  -3.961  1.00 20.00     0.041 C 
HETATM    4  C4  UNL     1     -34.947  15.874  -2.686  1.00 20.00    -0.006 C 
HETATM    5  C5  UNL     1     -35.619  15.101  -4.581  1.00 20.00     0.097 C 
HETATM    6  N10 UNL     1     -37.902  13.860  -4.393  1.00 20.00    -0.196 NA
ENDROOT
BRANCH   5   7
HETATM    7  S11 UNL     1     -35.028  15.070  -6.311  1.00 20.00    -0.148 SA
HETATM    8  C8  UNL     1     -36.484  15.804  -7.085  1.00 20.00     0.091 C 
ENDBRANCH   5   7
BRANCH   4   9
HETATM    9  C9  UNL     1     -33.834  16.643  -2.001  1.00 20.00    -0.019 C 
HETATM   10  C6  UNL     1     -32.986  17.407  -3.022  1.00 20.00     0.010 C 
HETATM   11  C7  UNL     1     -34.398  17.608  -0.956  1.00 20.00     0.010 C 
ENDBRANCH   4   9
TORSDOF 2
ENDMDL
MODEL 4
REMARK VINA RESULT:      -4.4      1.150      1.623
REMARK  2 active torsions:
REMARK  status: ('A' for Active; 'I' for Inactive)
REMARK    1  A    between atoms: C4_4  and  C9_9 
REMARK    2  A    between atoms: C5_5  and  S11_11 
ROOT
HETATM    1  C1  UNL     1     -34.671  14.329  -3.793  1.00 20.00     0.080 C 
HETATM    2  C2  UNL     1     -33.943  16.766  -3.694  1.00 20.00     0.041 C 
HETATM    3  C3  UNL     1     -35.152  16.116  -2.045  1.00 20.00     0.041 C 
HETATM    4  C4  UNL     1     -33.711  16.678  -2.163  1.00 20.00    -0.006 C 
HETATM    5  C5  UNL     1     -35.053  15.697  -3.533  1.00 20.00     0.097 C 
HETATM    6  N10 UNL     1     -34.364  13.229  -4.002  1.00 20.00    -0.196 NA
ENDROOT
BRANCH   5   7
HETATM    7  S11 UNL     1     -36.563  16.118  -4.475  1.00 20.00    -0.148 SA
HETATM    8  C8  UNL     1     -37.409  14.531  -4.312  1.00 20.00     0.091 C 
ENDBRANCH   5   7
BRANCH   4   9
HETATM    9  C9  UNL     1     -33.432  17.982  -1.443  1.00 20.00    -0.019 C 
HETATM   10  C6  UNL     1     -34.135  18.020  -0.083  1.00 20.00     0.010 C 
HETATM   11  C7  UNL     1     -31.927  18.199  -1.264  1.00 20.00     0.010 C 
ENDBRANCH   4   9
TORSDOF 2
ENDMDL
MODEL 5
REMARK VINA RESULT:      -4.1      1.381      1.611
REMARK  2 active torsions:
REMARK  status: ('A' for Active; 'I' for Inactive)
REMARK    1  A    between atoms: C4_4  and  C9_9 
REMARK    2  A    between atoms: C5_5  and  S11_11 
ROOT
HETATM    1  C1  UNL     1     -34.297  15.212  -5.367  1.00 20.00     0.080 C 
HETATM    2  C2  UNL     1     -34.190  17.384  -4.044  1.00 20.00     0.041 C 
HETATM    3  C3  UNL     1     -34.210  15.599  -2.853  1.00 20.00     0.041 C 
HETATM    4  C4  UNL     1     -33.198  16.763  -3.026  1.00 20.00    -0.006 C 
HETATM    5  C5  UNL     1     -34.790  15.969  -4.241  1.00 20.00     0.097 C 
HETATM    6  N10 UNL     1     -33.901  14.603  -6.272  1.00 20.00    -0.196 NA
ENDROOT
BRANCH   5   7
HETATM    7  S11 UNL     1     -36.619  15.986  -4.247  1.00 20.00    -0.148 SA
HETATM    8  C8  UNL     1     -36.883  14.215  -4.478  1.00 20.00     0.091 C 
ENDBRANCH   5   7
BRANCH   4   9
HETATM    9  C9  UNL     1     -32.894  17.585  -1.788  1.00 20.00    -0.019 C 
HETATM   10  C6  UNL     1     -32.360  18.969  -2.166  1.00 20.00     0.010 C 
HETATM   11  C7  UNL     1     -34.136  17.722  -0.903  1.00 20.00     0.010 C 
ENDBRANCH   4   9
TORSDOF 2
ENDMDL
MODEL 6
REMARK VINA RESULT:      -3.9      3.042      4.737
REMARK  2 active torsions:
REMARK  status: ('A' for Active; 'I' for Inactive)
REMARK    1  A    between atoms: C4_4  and  C9_9 
REMARK    2  A    between atoms: C5_5  and  S11_11 
ROOT
HETATM    1  C1  UNL     1     -32.369  18.165  -1.751  1.00 20.00     0.080 C 
HETATM    2  C2  UNL     1     -34.070  16.318  -2.173  1.00 20.00     0.041 C 
HETATM    3  C3  UNL     1     -33.324  17.282  -3.939  1.00 20.00     0.041 C 
HETATM    4  C4  UNL     1     -33.284  15.823  -3.416  1.00 20.00    -0.006 C 
HETATM    5  C5  UNL     1     -33.544  17.744  -2.477  1.00 20.00     0.097 C 
HETATM    6  N10 UNL     1     -31.424  18.504  -1.168  1.00 20.00    -0.196 NA
ENDROOT
BRANCH   5   7
HETATM    7  S11 UNL     1     -34.856  19.011  -2.338  1.00 20.00    -0.148 SA
HETATM    8  C8  UNL     1     -34.772  19.263  -0.553  1.00 20.00     0.091 C 
ENDBRANCH   5   7
BRANCH   4   9
HETATM    9  C9  UNL     1     -33.966  14.776  -4.275  1.00 20.00    -0.019 C 
HETATM   10  C6  UNL     1     -35.367  14.458  -3.746  1.00 20.00     0.010 C 
HETATM   11  C7  UNL     1     -34.045  15.233  -5.734  1.00 20.00     0.010 C 
ENDBRANCH   4   9
TORSDOF 2
ENDMDL
MODEL 7
REMARK VINA RESULT:      -3.8      1.654      2.199
REMARK  2 active torsions:
REMARK  status: ('A' for Active; 'I' for Inactive)
REMARK    1  A    between atoms: C4_4  and  C9_9 
REMARK    2  A    between atoms: C5_5  and  S11_11 
ROOT
HETATM    1  C1  UNL     1     -37.841  14.870  -4.354  1.00 20.00     0.080 C 
HETATM    2  C2  UNL     1     -35.448  15.384  -5.055  1.00 20.00     0.041 C 
HETATM    3  C3  UNL     1     -35.975  16.045  -3.082  1.00 20.00     0.041 C 
HETATM    4  C4  UNL     1     -34.918  15.053  -3.635  1.00 20.00    -0.006 C 
HETATM    5  C5  UNL     1     -36.773  15.841  -4.395  1.00 20.00     0.097 C 
HETATM    6  N10 UNL     1     -38.699  14.089  -4.322  1.00 20.00    -0.196 NA
ENDROOT
BRANCH   5   7
HETATM    7  S11 UNL     1     -37.385  17.419  -5.087  1.00 20.00    -0.148 SA
HETATM    8  C8  UNL     1     -38.927  17.520  -4.154  1.00 20.00     0.091 C 
ENDBRANCH   5   7
BRANCH   4   9
HETATM    9  C9  UNL     1     -33.465  15.389  -3.359  1.00 20.00    -0.019 C 
HETATM   10  C6  UNL     1     -32.538  14.668  -4.341  1.00 20.00     0.010 C 
HETATM   11  C7  UNL     1     -33.230  16.900  -3.425  1.00 20.00     0.010 C 
ENDBRANCH   4   9
TORSDOF 2
ENDMDL
MODEL 8
REMARK VINA RESULT:      -3.8      2.748      4.526
REMARK  2 active torsions:
REMARK  status: ('A' for Active; 'I' for Inactive)
REMARK    1  A    between atoms: C4_4  and  C9_9 
REMARK    2  A    between atoms: C5_5  and  S11_11 
ROOT
HETATM    1  C1  UNL     1     -35.043  17.189  -0.730  1.00 20.00     0.080 C 
HETATM    2  C2  UNL     1     -35.785  16.401  -3.034  1.00 20.00     0.041 C 
HETATM    3  C3  UNL     1     -33.709  16.085  -2.595  1.00 20.00     0.041 C 
HETATM    4  C4  UNL     1     -34.890  15.138  -2.935  1.00 20.00    -0.006 C 
HETATM    5  C5  UNL     1     -34.753  17.137  -2.143  1.00 20.00     0.097 C 
HETATM    6  N10 UNL     1     -35.276  17.231   0.407  1.00 20.00    -0.196 NA
ENDROOT
BRANCH   5   7
HETATM    7  S11 UNL     1     -34.366  18.811  -2.768  1.00 20.00    -0.148 SA
HETATM    8  C8  UNL     1     -33.135  19.263  -1.527  1.00 20.00     0.091 C 
ENDBRANCH   5   7
BRANCH   4   9
HETATM    9  C9  UNL     1     -34.749  14.307  -4.195  1.00 20.00    -0.019 C 
HETATM   10  C6  UNL     1     -36.094  13.703  -4.607  1.00 20.00     0.010 C 
HETATM   11  C7  UNL     1     -34.173  15.142  -5.342  1.00 20.00     0.010 C 
ENDBRANCH   4   9
TORSDOF 2
ENDMDL
MODEL 9
REMARK VINA RESULT:      -3.6     15.768     17.687
REMARK  2 active torsions:
REMARK  status: ('A' for Active; 'I' for Inactive)
REMARK    1  A    between atoms: C4_4  and  C9_9 
REMARK    2  A    between atoms: C5_5  and  S11_11 
ROOT
HETATM    1  C1  UNL     1     -22.447  17.761   7.619  1.00 20.00     0.080 C 
HETATM    2  C2  UNL     1     -22.949  18.527   9.995  1.00 20.00     0.041 C 
HETATM    3  C3  UNL     1     -24.140  16.882   9.304  1.00 20.00     0.041 C 
HETATM    4  C4  UNL     1     -23.134  17.062  10.471  1.00 20.00    -0.006 C 
HETATM    5  C5  UNL     1     -23.457  18.081   8.601  1.00 20.00     0.097 C 
HETATM    6  N10 UNL     1     -21.636  17.504   6.830  1.00 20.00    -0.196 NA
ENDROOT
BRANCH   5   7
HETATM    7  S11 UNL     1     -24.669  19.255   7.896  1.00 20.00    -0.148 SA
HETATM    8  C8  UNL     1     -24.333  18.943   6.150  1.00 20.00     0.091 C 
ENDBRANCH   5   7
BRANCH   4   9
HETATM    9  C9  UNL     1     -23.681  16.870  11.872  1.00 20.00    -0.019 C 
HETATM   10  C6  UNL     1     -24.460  18.105  12.332  1.00 20.00     0.010 C 
HETATM   11  C7  UNL     1     -24.572  15.627  11.946  1.00 20.00     0.010 C 
ENDBRANCH   4   9
TORSDOF 2
ENDMDL
