MODEL 1
REMARK VINA RESULT:      -4.1      0.000      0.000
REMARK  1 active torsions:
REMARK  status: ('A' for Active; 'I' for Inactive)
REMARK    1  A    between atoms: C6_6  and  S9_9 
ROOT
HETATM    1  C1  UNL     1     -35.732  13.899  -4.530  1.00 20.00     0.080 C 
HETATM    2  C2  UNL     1     -34.875  15.881  -2.343  1.00 20.00     0.003 C 
HETATM    3  C3  UNL     1     -33.637  15.721  -3.223  1.00 20.00     0.003 C 
HETATM    4  C4  UNL     1     -36.062  16.030  -3.298  1.00 20.00     0.036 C 
HETATM    5  C5  UNL     1     -34.130  15.790  -4.670  1.00 20.00     0.036 C 
HETATM    6  C6  UNL     1     -35.599  15.366  -4.599  1.00 20.00     0.096 C 
HETATM    7  N8  UNL     1     -35.836  12.745  -4.476  1.00 20.00    -0.196 NA
ENDROOT
BRANCH   6   8
HETATM    8  S9  UNL     1     -36.532  16.007  -6.031  1.00 20.00    -0.148 SA
HETATM    9  C7  UNL     1     -35.690  15.066  -7.321  1.00 20.00     0.091 C 
ENDBRANCH   6   8
TORSDOF 1
ENDMDL
MODEL 2
REMARK VINA RESULT:      -4.0      0.926      1.234
REMARK  1 active torsions:
REMARK  status: ('A' for Active; 'I' for Inactive)
REMARK    1  A    between atoms: C6_6  and  S9_9 
ROOT
HETATM    1  C1  UNL     1     -35.760  13.923  -4.533  1.00 20.00     0.080 C 
HETATM    2  C2  UNL     1     -34.743  15.858  -2.372  1.00 20.00     0.003 C 
HETATM    3  C3  UNL     1     -33.573  15.719  -3.345  1.00 20.00     0.003 C 
HETATM    4  C4  UNL     1     -35.997  16.026  -3.233  1.00 20.00     0.036 C 
HETATM    5  C5  UNL     1     -34.172  15.819  -4.749  1.00 20.00     0.036 C 
HETATM    6  C6  UNL     1     -35.632  15.392  -4.579  1.00 20.00     0.096 C 
HETATM    7  N8  UNL     1     -35.860  12.769  -4.497  1.00 20.00    -0.196 NA
ENDROOT
BRANCH   6   8
HETATM    8  S9  UNL     1     -36.668  16.063  -5.924  1.00 20.00    -0.148 SA
HETATM    9  C7  UNL     1     -37.237  17.556  -5.083  1.00 20.00     0.091 C 
ENDBRANCH   6   8
TORSDOF 1
ENDMDL
MODEL 3
REMARK VINA RESULT:      -3.9      1.252      1.482
REMARK  1 active torsions:
REMARK  status: ('A' for Active; 'I' for Inactive)
REMARK    1  A    between atoms: C6_6  and  S9_9 
ROOT
HETATM    1  C1  UNL     1     -36.523  14.456  -4.496  1.00 20.00     0.080 C 
HETATM    2  C2  UNL     1     -35.894  17.003  -2.896  1.00 20.00     0.003 C 
HETATM    3  C3  UNL     1     -35.052  15.915  -2.232  1.00 20.00     0.003 C 
HETATM    4  C4  UNL     1     -35.732  16.809  -4.405  1.00 20.00     0.036 C 
HETATM    5  C5  UNL     1     -34.412  15.117  -3.370  1.00 20.00     0.036 C 
HETATM    6  C6  UNL     1     -35.342  15.336  -4.567  1.00 20.00     0.096 C 
HETATM    7  N8  UNL     1     -37.452  13.764  -4.440  1.00 20.00    -0.196 NA
ENDROOT
BRANCH   6   8
HETATM    8  S9  UNL     1     -34.456  15.059  -6.139  1.00 20.00    -0.148 SA
HETATM    9  C7  UNL     1     -35.839  15.350  -7.262  1.00 20.00     0.091 C 
ENDBRANCH   6   8
TORSDOF 1
ENDMDL
MODEL 4
REMARK VINA RESULT:      -3.9      1.688      2.799
REMARK  1 active torsions:
REMARK  status: ('A' for Active; 'I' for Inactive)
REMARK    1  A    between atoms: C6_6  and  S9_9 
ROOT
HETATM    1  C1  UNL     1     -36.698  14.599  -4.242  1.00 20.00     0.080 C 
HETATM    2  C2  UNL     1     -33.631  14.434  -4.342  1.00 20.00     0.003 C 
HETATM    3  C3  UNL     1     -34.025  15.079  -5.670  1.00 20.00     0.003 C 
HETATM    4  C4  UNL     1     -34.475  15.121  -3.266  1.00 20.00     0.036 C 
HETATM    5  C5  UNL     1     -35.082  16.133  -5.336  1.00 20.00     0.036 C 
HETATM    6  C6  UNL     1     -35.698  15.659  -4.016  1.00 20.00     0.096 C 
HETATM    7  N8  UNL     1     -37.485  13.766  -4.419  1.00 20.00    -0.196 NA
ENDROOT
BRANCH   6   8
HETATM    8  S9  UNL     1     -36.461  17.052  -3.116  1.00 20.00    -0.148 SA
HETATM    9  C7  UNL     1     -35.460  16.961  -1.617  1.00 20.00     0.091 C 
ENDBRANCH   6   8
TORSDOF 1
ENDMDL
MODEL 5
REMARK VINA RESULT:      -3.8     18.423     19.149
REMARK  1 active torsions:
REMARK  status: ('A' for Active; 'I' for Inactive)
REMARK    1  A    between atoms: C6_6  and  S9_9 
ROOT
HETATM    1  C1  UNL     1     -24.345  18.623   9.566  1.00 20.00     0.080 C 
HETATM    2  C2  UNL     1     -24.514  17.292  12.331  1.00 20.00     0.003 C 
HETATM    3  C3  UNL     1     -24.750  16.153  11.342  1.00 20.00     0.003 C 
HETATM    4  C4  UNL     1     -23.341  18.104  11.778  1.00 20.00     0.036 C 
HETATM    5  C5  UNL     1     -23.703  16.322  10.239  1.00 20.00     0.036 C 
HETATM    6  C6  UNL     1     -23.339  17.808  10.274  1.00 20.00     0.096 C 
HETATM    7  N8  UNL     1     -25.135  19.263   9.009  1.00 20.00    -0.196 NA
ENDROOT
BRANCH   6   8
HETATM    8  S9  UNL     1     -21.688  18.093   9.550  1.00 20.00    -0.148 SA
HETATM    9  C7  UNL     1     -21.999  17.372   7.924  1.00 20.00     0.091 C 
ENDBRANCH   6   8
TORSDOF 1
ENDMDL
MODEL 6
REMARK VINA RESULT:      -3.8      2.168      2.779
REMARK  1 active torsions:
REMARK  status: ('A' for Active; 'I' for Inactive)
REMARK    1  A    between atoms: C6_6  and  S9_9 
ROOT
HETATM    1  C1  UNL     1     -35.481  16.419  -5.041  1.00 20.00     0.080 C 
HETATM    2  C2  UNL     1     -32.970  15.957  -3.330  1.00 20.00     0.003 C 
HETATM    3  C3  UNL     1     -34.027  16.440  -2.339  1.00 20.00     0.003 C 
HETATM    4  C4  UNL     1     -33.665  14.932  -4.230  1.00 20.00     0.036 C 
HETATM    5  C5  UNL     1     -35.310  15.679  -2.678  1.00 20.00     0.036 C 
HETATM    6  C6  UNL     1     -35.153  15.290  -4.150  1.00 20.00     0.096 C 
HETATM    7  N8  UNL     1     -35.741  17.306  -5.741  1.00 20.00    -0.196 NA
ENDROOT
BRANCH   6   8
HETATM    8  S9  UNL     1     -36.198  13.851  -4.560  1.00 20.00    -0.148 SA
HETATM    9  C7  UNL     1     -37.807  14.627  -4.299  1.00 20.00     0.091 C 
ENDBRANCH   6   8
TORSDOF 1
ENDMDL
MODEL 7
REMARK VINA RESULT:      -3.8      1.774      3.176
REMARK  1 active torsions:
REMARK  status: ('A' for Active; 'I' for Inactive)
REMARK    1  A    between atoms: C6_6  and  S9_9 
ROOT
HETATM    1  C1  UNL     1     -36.273  14.409  -4.429  1.00 20.00     0.080 C 
HETATM    2  C2  UNL     1     -34.049  14.996  -6.468  1.00 20.00     0.003 C 
HETATM    3  C3  UNL     1     -35.020  16.166  -6.611  1.00 20.00     0.003 C 
HETATM    4  C4  UNL     1     -33.875  14.766  -4.964  1.00 20.00     0.036 C 
HETATM    5  C5  UNL     1     -35.382  16.598  -5.188  1.00 20.00     0.036 C 
HETATM    6  C6  UNL     1     -35.142  15.351  -4.332  1.00 20.00     0.096 C 
HETATM    7  N8  UNL     1     -37.163  13.669  -4.504  1.00 20.00    -0.196 NA
ENDROOT
BRANCH   6   8
HETATM    8  S9  UNL     1     -34.859  15.803  -2.587  1.00 20.00    -0.148 SA
HETATM    9  C7  UNL     1     -33.227  16.550  -2.783  1.00 20.00     0.091 C 
ENDBRANCH   6   8
TORSDOF 1
ENDMDL
MODEL 8
REMARK VINA RESULT:      -3.6     18.367     19.312
REMARK  1 active torsions:
REMARK  status: ('A' for Active; 'I' for Inactive)
REMARK    1  A    between atoms: C6_6  and  S9_9 
ROOT
HETATM    1  C1  UNL     1     -24.744  18.360   9.971  1.00 20.00     0.080 C 
HETATM    2  C2  UNL     1     -24.059  15.933  11.729  1.00 20.00     0.003 C 
HETATM    3  C3  UNL     1     -23.009  16.981  12.095  1.00 20.00     0.003 C 
HETATM    4  C4  UNL     1     -25.398  16.672  11.672  1.00 20.00     0.036 C 
HETATM    5  C5  UNL     1     -23.762  18.304  12.251  1.00 20.00     0.036 C 
HETATM    6  C6  UNL     1     -25.025  18.133  11.402  1.00 20.00     0.096 C 
HETATM    7  N8  UNL     1     -24.523  18.538   8.847  1.00 20.00    -0.196 NA
ENDROOT
BRANCH   6   8
HETATM    8  S9  UNL     1     -26.345  19.263  11.962  1.00 20.00    -0.148 SA
HETATM    9  C7  UNL     1     -27.672  18.048  12.104  1.00 20.00     0.091 C 
ENDBRANCH   6   8
TORSDOF 1
ENDMDL
MODEL 9
REMARK VINA RESULT:      -3.6     11.138     12.079
REMARK  1 active torsions:
REMARK  status: ('A' for Active; 'I' for Inactive)
REMARK    1  A    between atoms: C6_6  and  S9_9 
ROOT
HETATM    1  C1  UNL     1     -42.882   6.045   0.942  1.00 20.00     0.080 C 
HETATM    2  C2  UNL     1     -43.340   8.724  -0.493  1.00 20.00     0.003 C 
HETATM    3  C3  UNL     1     -42.081   8.947   0.343  1.00 20.00     0.003 C 
HETATM    4  C4  UNL     1     -43.181   7.351  -1.150  1.00 20.00     0.036 C 
HETATM    5  C5  UNL     1     -41.213   7.702   0.147  1.00 20.00     0.036 C 
HETATM    6  C6  UNL     1     -42.200   6.599  -0.243  1.00 20.00     0.096 C 
HETATM    7  N8  UNL     1     -43.417   5.610   1.874  1.00 20.00    -0.196 NA
ENDROOT
BRANCH   6   8
HETATM    8  S9  UNL     1     -41.356   5.261  -1.155  1.00 20.00    -0.148 SA
HETATM    9  C7  UNL     1     -42.823   4.442  -1.815  1.00 20.00     0.091 C 
ENDBRANCH   6   8
TORSDOF 1
ENDMDL
