MODEL 1
REMARK VINA RESULT:      -4.2      0.000      0.000
REMARK  2 active torsions:
REMARK  status: ('A' for Active; 'I' for Inactive)
REMARK    1  A    between atoms: C5_5  and  S11_11 
REMARK    2  A    between atoms: C9_9  and  S11_11 
ROOT
HETATM    1  C1  UNL     1     -36.563  14.587  -5.077  1.00 20.00     0.080 C 
HETATM    2  C2  UNL     1     -35.471  15.015  -7.846  1.00 20.00     0.005 C 
HETATM    3  C3  UNL     1     -34.571  15.057  -6.592  1.00 20.00     0.036 C 
HETATM    4  C4  UNL     1     -36.384  16.051  -7.153  1.00 20.00     0.036 C 
HETATM    5  C5  UNL     1     -35.797  15.576  -5.799  1.00 20.00     0.097 C 
HETATM    6  N10 UNL     1     -37.178  13.793  -4.496  1.00 20.00    -0.196 NA
ENDROOT
BRANCH   5   7
HETATM    7  S11 UNL     1     -35.372  16.972  -4.698  1.00 20.00    -0.135 SA
BRANCH   7   8
HETATM    8  C9  UNL     1     -34.287  16.052  -3.540  1.00 20.00    -0.001 C 
HETATM    9  C6  UNL     1     -33.858  14.741  -4.205  1.00 20.00     0.026 C 
HETATM   10  C7  UNL     1     -33.061  16.918  -3.234  1.00 20.00     0.026 C 
HETATM   11  C8  UNL     1     -35.070  15.767  -2.255  1.00 20.00     0.026 C 
ENDBRANCH   7   8
ENDBRANCH   5   7
TORSDOF 2
ENDMDL
MODEL 2
REMARK VINA RESULT:      -4.1      1.544      2.159
REMARK  2 active torsions:
REMARK  status: ('A' for Active; 'I' for Inactive)
REMARK    1  A    between atoms: C5_5  and  S11_11 
REMARK    2  A    between atoms: C9_9  and  S11_11 
ROOT
HETATM    1  C1  UNL     1     -36.199  14.103  -4.777  1.00 20.00     0.080 C 
HETATM    2  C2  UNL     1     -38.459  16.059  -4.451  1.00 20.00     0.005 C 
HETATM    3  C3  UNL     1     -37.616  15.987  -5.741  1.00 20.00     0.036 C 
HETATM    4  C4  UNL     1     -37.138  16.192  -3.663  1.00 20.00     0.036 C 
HETATM    5  C5  UNL     1     -36.421  15.528  -4.867  1.00 20.00     0.097 C 
HETATM    6  N10 UNL     1     -36.019  12.959  -4.706  1.00 20.00    -0.196 NA
ENDROOT
BRANCH   5   7
HETATM    7  S11 UNL     1     -34.867  16.383  -5.308  1.00 20.00    -0.135 SA
BRANCH   7   8
HETATM    8  C9  UNL     1     -33.896  15.911  -3.824  1.00 20.00    -0.001 C 
HETATM    9  C6  UNL     1     -33.001  14.721  -4.181  1.00 20.00     0.026 C 
HETATM   10  C7  UNL     1     -33.043  17.112  -3.404  1.00 20.00     0.026 C 
HETATM   11  C8  UNL     1     -34.867  15.531  -2.702  1.00 20.00     0.026 C 
ENDBRANCH   7   8
ENDBRANCH   5   7
TORSDOF 2
ENDMDL
MODEL 3
REMARK VINA RESULT:      -4.1      1.542      2.467
REMARK  2 active torsions:
REMARK  status: ('A' for Active; 'I' for Inactive)
REMARK    1  A    between atoms: C5_5  and  S11_11 
REMARK    2  A    between atoms: C9_9  and  S11_11 
ROOT
HETATM    1  C1  UNL     1     -36.194  14.105  -4.775  1.00 20.00     0.080 C 
HETATM    2  C2  UNL     1     -38.440  16.077  -4.449  1.00 20.00     0.005 C 
HETATM    3  C3  UNL     1     -37.597  15.999  -5.739  1.00 20.00     0.036 C 
HETATM    4  C4  UNL     1     -37.119  16.200  -3.660  1.00 20.00     0.036 C 
HETATM    5  C5  UNL     1     -36.406  15.531  -4.864  1.00 20.00     0.097 C 
HETATM    6  N10 UNL     1     -36.023  12.959  -4.703  1.00 20.00    -0.196 NA
ENDROOT
BRANCH   5   7
HETATM    7  S11 UNL     1     -34.846  16.375  -5.304  1.00 20.00    -0.135 SA
BRANCH   7   8
HETATM    8  C9  UNL     1     -33.881  15.901  -3.817  1.00 20.00    -0.001 C 
HETATM    9  C6  UNL     1     -34.856  15.515  -2.701  1.00 20.00     0.026 C 
HETATM   10  C7  UNL     1     -32.988  14.710  -4.179  1.00 20.00     0.026 C 
HETATM   11  C8  UNL     1     -33.024  17.096  -3.387  1.00 20.00     0.026 C 
ENDBRANCH   7   8
ENDBRANCH   5   7
TORSDOF 2
ENDMDL
MODEL 4
REMARK VINA RESULT:      -4.1      1.059      3.526
REMARK  2 active torsions:
REMARK  status: ('A' for Active; 'I' for Inactive)
REMARK    1  A    between atoms: C5_5  and  S11_11 
REMARK    2  A    between atoms: C9_9  and  S11_11 
ROOT
HETATM    1  C1  UNL     1     -36.467  14.634  -4.377  1.00 20.00     0.080 C 
HETATM    2  C2  UNL     1     -34.812  15.917  -2.219  1.00 20.00     0.005 C 
HETATM    3  C3  UNL     1     -36.018  16.633  -2.864  1.00 20.00     0.036 C 
HETATM    4  C4  UNL     1     -34.264  15.679  -3.642  1.00 20.00     0.036 C 
HETATM    5  C5  UNL     1     -35.714  15.848  -4.166  1.00 20.00     0.097 C 
HETATM    6  N10 UNL     1     -37.073  13.659  -4.547  1.00 20.00    -0.196 NA
ENDROOT
BRANCH   5   7
HETATM    7  S11 UNL     1     -35.796  16.908  -5.653  1.00 20.00    -0.135 SA
BRANCH   7   8
HETATM    8  C9  UNL     1     -34.887  15.799  -6.798  1.00 20.00    -0.001 C 
HETATM    9  C6  UNL     1     -35.902  14.942  -7.560  1.00 20.00     0.026 C 
HETATM   10  C7  UNL     1     -34.084  16.665  -7.772  1.00 20.00     0.026 C 
HETATM   11  C8  UNL     1     -33.947  14.910  -5.978  1.00 20.00     0.026 C 
ENDBRANCH   7   8
ENDBRANCH   5   7
TORSDOF 2
ENDMDL
MODEL 5
REMARK VINA RESULT:      -4.0      1.062      3.687
REMARK  2 active torsions:
REMARK  status: ('A' for Active; 'I' for Inactive)
REMARK    1  A    between atoms: C5_5  and  S11_11 
REMARK    2  A    between atoms: C9_9  and  S11_11 
ROOT
HETATM    1  C1  UNL     1     -36.507  14.667  -4.351  1.00 20.00     0.080 C 
HETATM    2  C2  UNL     1     -34.849  15.948  -2.194  1.00 20.00     0.005 C 
HETATM    3  C3  UNL     1     -36.042  16.673  -2.852  1.00 20.00     0.036 C 
HETATM    4  C4  UNL     1     -34.296  15.693  -3.613  1.00 20.00     0.036 C 
HETATM    5  C5  UNL     1     -35.740  15.874  -4.146  1.00 20.00     0.097 C 
HETATM    6  N10 UNL     1     -37.122  13.697  -4.517  1.00 20.00    -0.196 NA
ENDROOT
BRANCH   5   7
HETATM    7  S11 UNL     1     -35.803  16.924  -5.641  1.00 20.00    -0.135 SA
BRANCH   7   8
HETATM    8  C9  UNL     1     -34.883  15.804  -6.767  1.00 20.00    -0.001 C 
HETATM    9  C6  UNL     1     -33.965  14.909  -5.928  1.00 20.00     0.026 C 
HETATM   10  C7  UNL     1     -35.898  14.952  -7.536  1.00 20.00     0.026 C 
HETATM   11  C8  UNL     1     -34.058  16.653  -7.738  1.00 20.00     0.026 C 
ENDBRANCH   7   8
ENDBRANCH   5   7
TORSDOF 2
ENDMDL
MODEL 6
REMARK VINA RESULT:      -3.9      1.916      2.672
REMARK  2 active torsions:
REMARK  status: ('A' for Active; 'I' for Inactive)
REMARK    1  A    between atoms: C5_5  and  S11_11 
REMARK    2  A    between atoms: C9_9  and  S11_11 
ROOT
HETATM    1  C1  UNL     1     -37.443  15.025  -4.376  1.00 20.00     0.080 C 
HETATM    2  C2  UNL     1     -38.521  17.770  -3.791  1.00 20.00     0.005 C 
HETATM    3  C3  UNL     1     -37.911  17.402  -5.160  1.00 20.00     0.036 C 
HETATM    4  C4  UNL     1     -37.228  17.239  -3.136  1.00 20.00     0.036 C 
HETATM    5  C5  UNL     1     -36.994  16.397  -4.417  1.00 20.00     0.097 C 
HETATM    6  N10 UNL     1     -37.803  13.922  -4.343  1.00 20.00    -0.196 NA
ENDROOT
BRANCH   5   7
HETATM    7  S11 UNL     1     -35.262  16.478  -4.995  1.00 20.00    -0.135 SA
BRANCH   7   8
HETATM    8  C9  UNL     1     -34.490  15.588  -3.588  1.00 20.00    -0.001 C 
HETATM    9  C6  UNL     1     -34.497  14.088  -3.893  1.00 20.00     0.026 C 
HETATM   10  C7  UNL     1     -33.053  16.093  -3.428  1.00 20.00     0.026 C 
HETATM   11  C8  UNL     1     -35.300  15.879  -2.320  1.00 20.00     0.026 C 
ENDBRANCH   7   8
ENDBRANCH   5   7
TORSDOF 2
ENDMDL
MODEL 7
REMARK VINA RESULT:      -3.9      1.287      3.675
REMARK  2 active torsions:
REMARK  status: ('A' for Active; 'I' for Inactive)
REMARK    1  A    between atoms: C5_5  and  S11_11 
REMARK    2  A    between atoms: C9_9  and  S11_11 
ROOT
HETATM    1  C1  UNL     1     -35.652  13.897  -4.311  1.00 20.00     0.080 C 
HETATM    2  C2  UNL     1     -33.782  15.790  -2.912  1.00 20.00     0.005 C 
HETATM    3  C3  UNL     1     -35.303  15.796  -2.651  1.00 20.00     0.036 C 
HETATM    4  C4  UNL     1     -34.099  15.912  -4.418  1.00 20.00     0.036 C 
HETATM    5  C5  UNL     1     -35.499  15.319  -4.113  1.00 20.00     0.097 C 
HETATM    6  N10 UNL     1     -35.777  12.754  -4.472  1.00 20.00    -0.196 NA
ENDROOT
BRANCH   5   7
HETATM    7  S11 UNL     1     -36.838  16.225  -4.965  1.00 20.00    -0.135 SA
BRANCH   7   8
HETATM    8  C9  UNL     1     -36.082  16.268  -6.636  1.00 20.00    -0.001 C 
HETATM    9  C6  UNL     1     -35.688  14.842  -7.034  1.00 20.00     0.026 C 
HETATM   10  C7  UNL     1     -37.115  16.828  -7.619  1.00 20.00     0.026 C 
HETATM   11  C8  UNL     1     -34.845  17.170  -6.593  1.00 20.00     0.026 C 
ENDBRANCH   7   8
ENDBRANCH   5   7
TORSDOF 2
ENDMDL
MODEL 8
REMARK VINA RESULT:      -3.9      1.253      3.880
REMARK  2 active torsions:
REMARK  status: ('A' for Active; 'I' for Inactive)
REMARK    1  A    between atoms: C5_5  and  S11_11 
REMARK    2  A    between atoms: C9_9  and  S11_11 
ROOT
HETATM    1  C1  UNL     1     -35.487  14.023  -4.377  1.00 20.00     0.080 C 
HETATM    2  C2  UNL     1     -35.204  15.987  -2.119  1.00 20.00     0.005 C 
HETATM    3  C3  UNL     1     -35.974  16.328  -3.412  1.00 20.00     0.036 C 
HETATM    4  C4  UNL     1     -34.009  15.579  -3.007  1.00 20.00     0.036 C 
HETATM    5  C5  UNL     1     -35.016  15.372  -4.167  1.00 20.00     0.097 C 
HETATM    6  N10 UNL     1     -35.865  12.939  -4.547  1.00 20.00    -0.196 NA
ENDROOT
BRANCH   5   7
HETATM    7  S11 UNL     1     -34.420  16.085  -5.741  1.00 20.00    -0.135 SA
BRANCH   7   8
HETATM    8  C9  UNL     1     -36.020  16.072  -6.639  1.00 20.00    -0.001 C 
HETATM    9  C6  UNL     1     -37.155  15.941  -5.619  1.00 20.00     0.026 C 
HETATM   10  C7  UNL     1     -36.149  17.387  -7.413  1.00 20.00     0.026 C 
HETATM   11  C8  UNL     1     -36.031  14.883  -7.605  1.00 20.00     0.026 C 
ENDBRANCH   7   8
ENDBRANCH   5   7
TORSDOF 2
ENDMDL
MODEL 9
REMARK VINA RESULT:      -3.8      1.967      3.864
REMARK  2 active torsions:
REMARK  status: ('A' for Active; 'I' for Inactive)
REMARK    1  A    between atoms: C5_5  and  S11_11 
REMARK    2  A    between atoms: C9_9  and  S11_11 
ROOT
HETATM    1  C1  UNL     1     -35.626  13.864  -4.377  1.00 20.00     0.080 C 
HETATM    2  C2  UNL     1     -34.085  15.811  -2.681  1.00 20.00     0.005 C 
HETATM    3  C3  UNL     1     -35.612  15.923  -2.878  1.00 20.00     0.036 C 
HETATM    4  C4  UNL     1     -33.948  15.773  -4.218  1.00 20.00     0.036 C 
HETATM    5  C5  UNL     1     -35.420  15.290  -4.280  1.00 20.00     0.097 C 
HETATM    6  N10 UNL     1     -35.792  12.718  -4.455  1.00 20.00    -0.196 NA
ENDROOT
BRANCH   5   7
HETATM    7  S11 UNL     1     -36.382  16.156  -5.571  1.00 20.00    -0.135 SA
BRANCH   7   8
HETATM    8  C9  UNL     1     -37.993  16.195  -4.693  1.00 20.00    -0.001 C 
HETATM    9  C6  UNL     1     -37.861  17.097  -3.463  1.00 20.00     0.026 C 
HETATM   10  C7  UNL     1     -39.051  16.752  -5.651  1.00 20.00     0.026 C 
HETATM   11  C8  UNL     1     -38.357  14.768  -4.271  1.00 20.00     0.026 C 
ENDBRANCH   7   8
ENDBRANCH   5   7
TORSDOF 2
ENDMDL
