MODEL 1
REMARK VINA RESULT:      -4.6      0.000      0.000
REMARK  1 active torsions:
REMARK  status: ('A' for Active; 'I' for Inactive)
REMARK    1  A    between atoms: C4_4  and  C9_9 
ROOT
HETATM    1  C5  UNL     1     -33.950  14.916  -5.217  1.00 20.00     0.002 C 
HETATM    2  C6  UNL     1     -34.082  14.658  -3.720  1.00 20.00     0.009 C 
HETATM    3  C7  UNL     1     -35.300  14.936  -5.940  1.00 20.00     0.020 C 
HETATM    4  C8  UNL     1     -35.950  16.409  -3.976  1.00 20.00     0.029 C 
HETATM    5  C9  UNL     1     -34.999  15.675  -3.006  1.00 20.00     0.020 C 
HETATM    6  C10 UNL     1     -36.452  15.513  -5.109  1.00 20.00     0.083 C 
HETATM    7 CL12 UNL     1     -37.473  14.191  -4.451  1.00 20.00    -0.125 Cl
ENDROOT
BRANCH   5   8
HETATM    8  C4  UNL     1     -34.239  16.670  -2.144  1.00 20.00    -0.047 A 
HETATM    9  C1  UNL     1     -32.927  17.142  -2.442  1.00 20.00     0.015 A 
HETATM   10  C2  UNL     1     -32.471  18.036  -1.499  1.00 20.00     0.050 A 
HETATM   11  S11 UNL     1     -33.621  18.303  -0.258  1.00 20.00    -0.113 SA
HETATM   12  C3  UNL     1     -34.734  17.222  -0.982  1.00 20.00     0.057 A 
ENDBRANCH   5   8
TORSDOF 1
ENDMDL
MODEL 2
REMARK VINA RESULT:      -4.4      2.314      3.524
REMARK  1 active torsions:
REMARK  status: ('A' for Active; 'I' for Inactive)
REMARK    1  A    between atoms: C4_4  and  C9_9 
ROOT
HETATM    1  C5  UNL     1     -35.168  16.263  -1.543  1.00 20.00     0.002 C 
HETATM    2  C6  UNL     1     -34.835  17.728  -1.284  1.00 20.00     0.009 C 
HETATM    3  C7  UNL     1     -34.816  15.811  -2.962  1.00 20.00     0.020 C 
HETATM    4  C8  UNL     1     -32.649  17.034  -2.451  1.00 20.00     0.029 C 
HETATM    5  C9  UNL     1     -33.352  18.070  -1.547  1.00 20.00     0.020 C 
HETATM    6  C10 UNL     1     -33.564  16.480  -3.544  1.00 20.00     0.083 C 
HETATM    7 CL12 UNL     1     -34.026  17.783  -4.689  1.00 20.00    -0.125 Cl
ENDROOT
BRANCH   5   8
HETATM    8  C4  UNL     1     -32.552  18.301  -0.274  1.00 20.00    -0.047 A 
HETATM    9  C1  UNL     1     -31.128  18.306  -0.220  1.00 20.00     0.015 A 
HETATM   10  C2  UNL     1     -30.659  18.539   1.055  1.00 20.00     0.050 A 
HETATM   11  S11 UNL     1     -31.933  18.748   2.179  1.00 20.00    -0.113 SA
HETATM   12  C3  UNL     1     -33.118  18.529   0.962  1.00 20.00     0.057 A 
ENDBRANCH   5   8
TORSDOF 1
ENDMDL
MODEL 3
REMARK VINA RESULT:      -4.4      1.571      2.154
REMARK  1 active torsions:
REMARK  status: ('A' for Active; 'I' for Inactive)
REMARK    1  A    between atoms: C4_4  and  C9_9 
ROOT
HETATM    1  C5  UNL     1     -34.605  17.641  -4.493  1.00 20.00     0.002 C 
HETATM    2  C6  UNL     1     -33.297  17.296  -3.790  1.00 20.00     0.009 C 
HETATM    3  C7  UNL     1     -35.554  16.445  -4.609  1.00 20.00     0.020 C 
HETATM    4  C8  UNL     1     -34.924  16.138  -2.167  1.00 20.00     0.029 C 
HETATM    5  C9  UNL     1     -33.502  16.702  -2.379  1.00 20.00     0.020 C 
HETATM    6  C10 UNL     1     -35.495  15.476  -3.422  1.00 20.00     0.083 C 
HETATM    7 CL12 UNL     1     -34.532  14.021  -3.850  1.00 20.00    -0.125 Cl
ENDROOT
BRANCH   5   8
HETATM    8  C4  UNL     1     -33.135  17.665  -1.261  1.00 20.00    -0.047 A 
HETATM    9  C1  UNL     1     -31.846  18.253  -1.110  1.00 20.00     0.015 A 
HETATM   10  C2  UNL     1     -31.782  19.087  -0.015  1.00 20.00     0.050 A 
HETATM   11  S11 UNL     1     -33.271  19.157   0.827  1.00 20.00    -0.113 SA
HETATM   12  C3  UNL     1     -34.007  18.071  -0.274  1.00 20.00     0.057 A 
ENDBRANCH   5   8
TORSDOF 1
ENDMDL
MODEL 4
REMARK VINA RESULT:      -4.4      2.247      3.514
REMARK  1 active torsions:
REMARK  status: ('A' for Active; 'I' for Inactive)
REMARK    1  A    between atoms: C4_4  and  C9_9 
ROOT
HETATM    1  C5  UNL     1     -35.198  16.109  -1.751  1.00 20.00     0.002 C 
HETATM    2  C6  UNL     1     -34.940  17.585  -1.467  1.00 20.00     0.009 C 
HETATM    3  C7  UNL     1     -34.855  15.708  -3.188  1.00 20.00     0.020 C 
HETATM    4  C8  UNL     1     -32.748  17.040  -2.701  1.00 20.00     0.029 C 
HETATM    5  C9  UNL     1     -33.485  18.015  -1.757  1.00 20.00     0.020 C 
HETATM    6  C10 UNL     1     -33.658  16.458  -3.784  1.00 20.00     0.083 C 
HETATM    7 CL12 UNL     1     -34.219  17.757  -4.889  1.00 20.00    -0.125 Cl
ENDROOT
BRANCH   5   8
HETATM    8  C4  UNL     1     -32.669  18.264  -0.499  1.00 20.00    -0.047 A 
HETATM    9  C1  UNL     1     -33.238  18.445   0.795  1.00 20.00     0.015 A 
HETATM   10  C2  UNL     1     -32.276  18.654   1.760  1.00 20.00     0.050 A 
HETATM   11  S11 UNL     1     -30.695  18.633   1.104  1.00 20.00    -0.113 SA
HETATM   12  C3  UNL     1     -31.293  18.343  -0.474  1.00 20.00     0.057 A 
ENDBRANCH   5   8
TORSDOF 1
ENDMDL
MODEL 5
REMARK VINA RESULT:      -4.4      1.832      2.665
REMARK  1 active torsions:
REMARK  status: ('A' for Active; 'I' for Inactive)
REMARK    1  A    between atoms: C4_4  and  C9_9 
ROOT
HETATM    1  C5  UNL     1     -34.399  17.627  -4.634  1.00 20.00     0.002 C 
HETATM    2  C6  UNL     1     -33.354  17.653  -3.524  1.00 20.00     0.009 C 
HETATM    3  C7  UNL     1     -34.579  16.237  -5.251  1.00 20.00     0.020 C 
HETATM    4  C8  UNL     1     -34.619  15.528  -2.813  1.00 20.00     0.029 C 
HETATM    5  C9  UNL     1     -33.650  16.652  -2.385  1.00 20.00     0.020 C 
HETATM    6  C10 UNL     1     -34.410  15.080  -4.259  1.00 20.00     0.083 C 
HETATM    7 CL12 UNL     1     -32.792  14.325  -4.449  1.00 20.00    -0.125 Cl
ENDROOT
BRANCH   5   8
HETATM    8  C4  UNL     1     -34.131  17.319  -1.107  1.00 20.00    -0.047 A 
HETATM    9  C1  UNL     1     -35.376  17.026  -0.477  1.00 20.00     0.015 A 
HETATM   10  C2  UNL     1     -35.566  17.770   0.666  1.00 20.00     0.050 A 
HETATM   11  S11 UNL     1     -34.249  18.820   0.976  1.00 20.00    -0.113 SA
HETATM   12  C3  UNL     1     -33.419  18.278  -0.421  1.00 20.00     0.057 A 
ENDBRANCH   5   8
TORSDOF 1
ENDMDL
MODEL 6
REMARK VINA RESULT:      -4.3      3.120      4.941
REMARK  1 active torsions:
REMARK  status: ('A' for Active; 'I' for Inactive)
REMARK    1  A    between atoms: C4_4  and  C9_9 
ROOT
HETATM    1  C5  UNL     1     -35.467  18.314  -1.037  1.00 20.00     0.002 C 
HETATM    2  C6  UNL     1     -35.092  16.837  -0.975  1.00 20.00     0.009 C 
HETATM    3  C7  UNL     1     -34.259  19.228  -1.259  1.00 20.00     0.020 C 
HETATM    4  C8  UNL     1     -33.703  17.502  -3.037  1.00 20.00     0.029 C 
HETATM    5  C9  UNL     1     -34.337  16.348  -2.231  1.00 20.00     0.020 C 
HETATM    6  C10 UNL     1     -33.166  18.624  -2.148  1.00 20.00     0.083 C 
HETATM    7 CL12 UNL     1     -31.803  18.024  -1.145  1.00 20.00    -0.125 Cl
ENDROOT
BRANCH   5   8
HETATM    8  C4  UNL     1     -35.181  15.463  -3.134  1.00 20.00    -0.047 A 
HETATM    9  C1  UNL     1     -34.716  14.248  -3.716  1.00 20.00     0.015 A 
HETATM   10  C2  UNL     1     -35.681  13.642  -4.491  1.00 20.00     0.050 A 
HETATM   11  S11 UNL     1     -37.140  14.538  -4.516  1.00 20.00    -0.113 SA
HETATM   12  C3  UNL     1     -36.484  15.740  -3.488  1.00 20.00     0.057 A 
ENDBRANCH   5   8
TORSDOF 1
ENDMDL
MODEL 7
REMARK VINA RESULT:      -4.3      3.234      5.080
REMARK  1 active torsions:
REMARK  status: ('A' for Active; 'I' for Inactive)
REMARK    1  A    between atoms: C4_4  and  C9_9 
ROOT
HETATM    1  C5  UNL     1     -35.147  18.289  -1.343  1.00 20.00     0.002 C 
HETATM    2  C6  UNL     1     -34.711  16.828  -1.358  1.00 20.00     0.009 C 
HETATM    3  C7  UNL     1     -33.969  19.263  -1.243  1.00 20.00     0.020 C 
HETATM    4  C8  UNL     1     -33.008  17.758  -3.048  1.00 20.00     0.029 C 
HETATM    5  C9  UNL     1     -33.715  16.503  -2.493  1.00 20.00     0.020 C 
HETATM    6  C10 UNL     1     -32.702  18.796  -1.968  1.00 20.00     0.083 C 
HETATM    7 CL12 UNL     1     -31.515  18.138  -0.792  1.00 20.00    -0.125 Cl
ENDROOT
BRANCH   5   8
HETATM    8  C4  UNL     1     -34.332  15.691  -3.621  1.00 20.00    -0.047 A 
HETATM    9  C1  UNL     1     -35.170  14.556  -3.418  1.00 20.00     0.015 A 
HETATM   10  C2  UNL     1     -35.594  14.006  -4.608  1.00 20.00     0.050 A 
HETATM   11  S11 UNL     1     -34.981  14.854  -5.963  1.00 20.00    -0.113 SA
HETATM   12  C3  UNL     1     -34.146  15.963  -4.959  1.00 20.00     0.057 A 
ENDBRANCH   5   8
TORSDOF 1
ENDMDL
MODEL 8
REMARK VINA RESULT:      -4.2      2.908      4.981
REMARK  1 active torsions:
REMARK  status: ('A' for Active; 'I' for Inactive)
REMARK    1  A    between atoms: C4_4  and  C9_9 
ROOT
HETATM    1  C5  UNL     1     -32.727  18.373  -0.527  1.00 20.00     0.002 C 
HETATM    2  C6  UNL     1     -33.500  18.405  -1.841  1.00 20.00     0.009 C 
HETATM    3  C7  UNL     1     -33.623  18.579   0.698  1.00 20.00     0.020 C 
HETATM    4  C8  UNL     1     -35.079  16.878  -0.501  1.00 20.00     0.029 C 
HETATM    5  C9  UNL     1     -34.644  17.370  -1.899  1.00 20.00     0.020 C 
HETATM    6  C10 UNL     1     -35.027  17.978   0.560  1.00 20.00     0.083 C 
HETATM    7 CL12 UNL     1     -36.223  19.263   0.184  1.00 20.00    -0.125 Cl
ENDROOT
BRANCH   5   8
HETATM    8  C4  UNL     1     -34.346  16.193  -2.814  1.00 20.00    -0.047 A 
HETATM    9  C1  UNL     1     -35.281  15.157  -3.107  1.00 20.00     0.015 A 
HETATM   10  C2  UNL     1     -34.756  14.213  -3.962  1.00 20.00     0.050 A 
HETATM   11  S11 UNL     1     -33.143  14.575  -4.407  1.00 20.00    -0.113 SA
HETATM   12  C3  UNL     1     -33.142  15.999  -3.455  1.00 20.00     0.057 A 
ENDBRANCH   5   8
TORSDOF 1
ENDMDL
MODEL 9
REMARK VINA RESULT:      -4.2      1.436      1.822
REMARK  1 active torsions:
REMARK  status: ('A' for Active; 'I' for Inactive)
REMARK    1  A    between atoms: C4_4  and  C9_9 
ROOT
HETATM    1  C5  UNL     1     -33.613  14.614  -4.238  1.00 20.00     0.002 C 
HETATM    2  C6  UNL     1     -34.511  15.163  -3.135  1.00 20.00     0.009 C 
HETATM    3  C7  UNL     1     -34.054  15.047  -5.639  1.00 20.00     0.020 C 
HETATM    4  C8  UNL     1     -34.232  17.317  -4.514  1.00 20.00     0.029 C 
HETATM    5  C9  UNL     1     -34.625  16.703  -3.153  1.00 20.00     0.020 C 
HETATM    6  C10 UNL     1     -34.659  16.454  -5.702  1.00 20.00     0.083 C 
HETATM    7 CL12 UNL     1     -36.450  16.362  -5.792  1.00 20.00    -0.125 Cl
ENDROOT
BRANCH   5   8
HETATM    8  C4  UNL     1     -33.865  17.375  -2.021  1.00 20.00    -0.047 A 
HETATM    9  C1  UNL     1     -34.428  17.655  -0.741  1.00 20.00     0.015 A 
HETATM   10  C2  UNL     1     -33.525  18.269   0.099  1.00 20.00     0.050 A 
HETATM   11  S11 UNL     1     -32.006  18.509  -0.655  1.00 20.00    -0.113 SA
HETATM   12  C3  UNL     1     -32.554  17.789  -2.110  1.00 20.00     0.057 A 
ENDBRANCH   5   8
TORSDOF 1
ENDMDL
