MODEL 1
REMARK VINA RESULT:      -5.2      0.000      0.000
REMARK  2 active torsions:
REMARK  status: ('A' for Active; 'I' for Inactive)
REMARK    1  A    between atoms: C8_8  and  C10_10 
REMARK    2  A    between atoms: C10_10  and  C11_11 
ROOT
HETATM    1  C1  UNL     1     -36.567  14.363  -4.580  1.00 20.00     0.064 C 
HETATM    2  C2  UNL     1     -33.183  15.743  -3.563  1.00 20.00     0.002 C 
HETATM    3  C3  UNL     1     -34.164  14.694  -4.082  1.00 20.00     0.019 C 
HETATM    4  C4  UNL     1     -35.785  16.710  -4.400  1.00 20.00     0.019 C 
HETATM    5  C5  UNL     1     -33.620  16.478  -2.286  1.00 20.00     0.005 C 
HETATM    6  C6  UNL     1     -36.066  16.994  -2.925  1.00 20.00     0.006 C 
HETATM    7  C7  UNL     1     -35.416  15.267  -4.772  1.00 20.00     0.093 C 
HETATM    8  C8  UNL     1     -35.105  16.375  -1.901  1.00 20.00    -0.014 C 
HETATM    9  N12 UNL     1     -37.472  13.653  -4.428  1.00 20.00    -0.197 NA
ENDROOT
BRANCH   8  10
HETATM   10  C10 UNL     1     -35.332  17.027  -0.530  1.00 20.00     0.004 C 
BRANCH  10  11
HETATM   11  C11 UNL     1     -34.181  17.956  -0.170  1.00 20.00    -0.004 C 
HETATM   12  C9  UNL     1     -34.075  18.134   1.336  1.00 20.00     0.005 C 
ENDBRANCH  10  11
ENDBRANCH   8  10
TORSDOF 2
ENDMDL
MODEL 2
REMARK VINA RESULT:      -5.1      2.946      5.325
REMARK  2 active torsions:
REMARK  status: ('A' for Active; 'I' for Inactive)
REMARK    1  A    between atoms: C8_8  and  C10_10 
REMARK    2  A    between atoms: C10_10  and  C11_11 
ROOT
HETATM    1  C1  UNL     1     -31.715  18.462  -0.708  1.00 20.00     0.064 C 
HETATM    2  C2  UNL     1     -35.270  17.164  -0.967  1.00 20.00     0.002 C 
HETATM    3  C3  UNL     1     -33.988  17.591  -0.254  1.00 20.00     0.019 C 
HETATM    4  C4  UNL     1     -33.382  18.717  -2.525  1.00 20.00     0.019 C 
HETATM    5  C5  UNL     1     -35.073  16.223  -2.166  1.00 20.00     0.005 C 
HETATM    6  C6  UNL     1     -33.123  17.445  -3.334  1.00 20.00     0.006 C 
HETATM    7  C7  UNL     1     -33.149  18.638  -1.011  1.00 20.00     0.093 C 
HETATM    8  C8  UNL     1     -33.654  16.129  -2.748  1.00 20.00    -0.014 C 
HETATM    9  N12 UNL     1     -30.588  18.323  -0.470  1.00 20.00    -0.197 NA
ENDROOT
BRANCH   8  10
HETATM   10  C10 UNL     1     -33.605  15.036  -3.824  1.00 20.00     0.004 C 
BRANCH  10  11
HETATM   11  C11 UNL     1     -34.943  14.319  -3.934  1.00 20.00    -0.004 C 
HETATM   12  C9  UNL     1     -35.525  14.461  -5.331  1.00 20.00     0.005 C 
ENDBRANCH  10  11
ENDBRANCH   8  10
TORSDOF 2
ENDMDL
MODEL 3
REMARK VINA RESULT:      -4.6      2.175      4.178
REMARK  2 active torsions:
REMARK  status: ('A' for Active; 'I' for Inactive)
REMARK    1  A    between atoms: C8_8  and  C10_10 
REMARK    2  A    between atoms: C10_10  and  C11_11 
ROOT
HETATM    1  C1  UNL     1     -36.132  14.032  -4.254  1.00 20.00     0.064 C 
HETATM    2  C2  UNL     1     -33.541  16.399  -2.816  1.00 20.00     0.002 C 
HETATM    3  C3  UNL     1     -34.724  15.434  -2.777  1.00 20.00     0.019 C 
HETATM    4  C4  UNL     1     -33.945  14.758  -5.170  1.00 20.00     0.019 C 
HETATM    5  C5  UNL     1     -33.618  17.491  -3.894  1.00 20.00     0.005 C 
HETATM    6  C6  UNL     1     -34.350  16.040  -5.899  1.00 20.00     0.006 C 
HETATM    7  C7  UNL     1     -34.742  14.392  -3.911  1.00 20.00     0.093 C 
HETATM    8  C8  UNL     1     -34.632  17.274  -5.030  1.00 20.00    -0.014 C 
HETATM    9  N12 UNL     1     -37.224  13.750  -4.524  1.00 20.00    -0.197 NA
ENDROOT
BRANCH   8  10
HETATM   10  C10 UNL     1     -34.690  18.522  -5.921  1.00 20.00     0.004 C 
BRANCH  10  11
HETATM   11  C11 UNL     1     -34.280  18.191  -7.350  1.00 20.00    -0.004 C 
HETATM   12  C9  UNL     1     -33.109  19.052  -7.795  1.00 20.00     0.005 C 
ENDBRANCH  10  11
ENDBRANCH   8  10
TORSDOF 2
ENDMDL
MODEL 4
REMARK VINA RESULT:      -4.6      1.621      2.216
REMARK  2 active torsions:
REMARK  status: ('A' for Active; 'I' for Inactive)
REMARK    1  A    between atoms: C8_8  and  C10_10 
REMARK    2  A    between atoms: C10_10  and  C11_11 
ROOT
HETATM    1  C1  UNL     1     -36.121  13.773  -4.579  1.00 20.00     0.064 C 
HETATM    2  C2  UNL     1     -35.279  17.347  -5.531  1.00 20.00     0.002 C 
HETATM    3  C3  UNL     1     -35.590  15.872  -5.780  1.00 20.00     0.019 C 
HETATM    4  C4  UNL     1     -36.448  15.883  -3.319  1.00 20.00     0.019 C 
HETATM    5  C5  UNL     1     -34.230  17.623  -4.442  1.00 20.00     0.005 C 
HETATM    6  C6  UNL     1     -35.095  16.014  -2.620  1.00 20.00     0.006 C 
HETATM    7  C7  UNL     1     -36.457  15.205  -4.696  1.00 20.00     0.093 C 
HETATM    8  C8  UNL     1     -33.908  16.467  -3.481  1.00 20.00    -0.014 C 
HETATM    9  N12 UNL     1     -35.855  12.647  -4.487  1.00 20.00    -0.197 NA
ENDROOT
BRANCH   8  10
HETATM   10  C10 UNL     1     -32.738  16.861  -2.569  1.00 20.00     0.004 C 
BRANCH  10  11
HETATM   11  C11 UNL     1     -33.196  17.816  -1.476  1.00 20.00    -0.004 C 
HETATM   12  C9  UNL     1     -32.013  18.340  -0.678  1.00 20.00     0.005 C 
ENDBRANCH  10  11
ENDBRANCH   8  10
TORSDOF 2
ENDMDL
MODEL 5
REMARK VINA RESULT:      -4.4      1.910      2.795
REMARK  2 active torsions:
REMARK  status: ('A' for Active; 'I' for Inactive)
REMARK    1  A    between atoms: C8_8  and  C10_10 
REMARK    2  A    between atoms: C10_10  and  C11_11 
ROOT
HETATM    1  C1  UNL     1     -34.371  15.594  -6.589  1.00 20.00     0.064 C 
HETATM    2  C2  UNL     1     -36.024  15.231  -3.195  1.00 20.00     0.002 C 
HETATM    3  C3  UNL     1     -35.965  15.499  -4.697  1.00 20.00     0.019 C 
HETATM    4  C4  UNL     1     -33.616  14.378  -4.565  1.00 20.00     0.019 C 
HETATM    5  C5  UNL     1     -34.964  15.961  -2.355  1.00 20.00     0.005 C 
HETATM    6  C6  UNL     1     -32.888  15.493  -3.814  1.00 20.00     0.006 C 
HETATM    7  C7  UNL     1     -34.812  14.790  -5.433  1.00 20.00     0.093 C 
HETATM    8  C8  UNL     1     -33.760  16.544  -3.113  1.00 20.00    -0.014 C 
HETATM    9  N12 UNL     1     -34.024  16.227  -7.497  1.00 20.00    -0.197 NA
ENDROOT
BRANCH   8  10
HETATM   10  C10 UNL     1     -32.891  17.368  -2.153  1.00 20.00     0.004 C 
BRANCH  10  11
HETATM   11  C11 UNL     1     -33.681  17.780  -0.919  1.00 20.00    -0.004 C 
HETATM   12  C9  UNL     1     -32.803  18.538   0.064  1.00 20.00     0.005 C 
ENDBRANCH  10  11
ENDBRANCH   8  10
TORSDOF 2
ENDMDL
MODEL 6
REMARK VINA RESULT:      -4.4      2.551      4.539
REMARK  2 active torsions:
REMARK  status: ('A' for Active; 'I' for Inactive)
REMARK    1  A    between atoms: C8_8  and  C10_10 
REMARK    2  A    between atoms: C10_10  and  C11_11 
ROOT
HETATM    1  C1  UNL     1     -33.130  17.469  -3.359  1.00 20.00     0.064 C 
HETATM    2  C2  UNL     1     -34.413  13.944  -3.927  1.00 20.00     0.002 C 
HETATM    3  C3  UNL     1     -33.422  15.102  -4.027  1.00 20.00     0.019 C 
HETATM    4  C4  UNL     1     -34.843  16.171  -2.121  1.00 20.00     0.019 C 
HETATM    5  C5  UNL     1     -35.869  14.294  -4.273  1.00 20.00     0.005 C 
HETATM    6  C6  UNL     1     -36.094  16.491  -2.939  1.00 20.00     0.006 C 
HETATM    7  C7  UNL     1     -33.509  16.125  -2.879  1.00 20.00     0.093 C 
HETATM    8  C8  UNL     1     -36.238  15.786  -4.295  1.00 20.00    -0.014 C 
HETATM    9  N12 UNL     1     -32.834  18.525  -3.738  1.00 20.00    -0.197 NA
ENDROOT
BRANCH   8  10
HETATM   10  C10 UNL     1     -37.673  15.959  -4.809  1.00 20.00     0.004 C 
BRANCH  10  11
HETATM   11  C11 UNL     1     -38.594  14.898  -4.223  1.00 20.00    -0.004 C 
HETATM   12  C9  UNL     1     -39.913  15.507  -3.776  1.00 20.00     0.005 C 
ENDBRANCH  10  11
ENDBRANCH   8  10
TORSDOF 2
ENDMDL
MODEL 7
REMARK VINA RESULT:      -4.4      2.121      3.316
REMARK  2 active torsions:
REMARK  status: ('A' for Active; 'I' for Inactive)
REMARK    1  A    between atoms: C8_8  and  C10_10 
REMARK    2  A    between atoms: C10_10  and  C11_11 
ROOT
HETATM    1  C1  UNL     1     -35.531  17.055  -4.213  1.00 20.00     0.064 C 
HETATM    2  C2  UNL     1     -35.452  17.165  -0.423  1.00 20.00     0.002 C 
HETATM    3  C3  UNL     1     -36.079  17.290  -1.810  1.00 20.00     0.019 C 
HETATM    4  C4  UNL     1     -33.990  15.954  -2.613  1.00 20.00     0.019 C 
HETATM    5  C5  UNL     1     -34.090  17.856  -0.251  1.00 20.00     0.005 C 
HETATM    6  C6  UNL     1     -32.944  17.052  -2.419  1.00 20.00     0.006 C 
HETATM    7  C7  UNL     1     -35.430  16.406  -2.892  1.00 20.00     0.093 C 
HETATM    8  C8  UNL     1     -33.343  18.244  -1.537  1.00 20.00    -0.014 C 
HETATM    9  N12 UNL     1     -35.610  17.566  -5.252  1.00 20.00    -0.197 NA
ENDROOT
BRANCH   8  10
HETATM   10  C10 UNL     1     -32.090  19.058  -1.185  1.00 20.00     0.004 C 
BRANCH  10  11
HETATM   11  C11 UNL     1     -31.104  18.221  -0.383  1.00 20.00    -0.004 C 
HETATM   12  C9  UNL     1     -30.727  18.917   0.916  1.00 20.00     0.005 C 
ENDBRANCH  10  11
ENDBRANCH   8  10
TORSDOF 2
ENDMDL
MODEL 8
REMARK VINA RESULT:      -4.3      1.778      2.794
REMARK  2 active torsions:
REMARK  status: ('A' for Active; 'I' for Inactive)
REMARK    1  A    between atoms: C8_8  and  C10_10 
REMARK    2  A    between atoms: C10_10  and  C11_11 
ROOT
HETATM    1  C1  UNL     1     -38.216  16.667  -4.287  1.00 20.00     0.064 C 
HETATM    2  C2  UNL     1     -36.007  13.592  -4.525  1.00 20.00     0.002 C 
HETATM    3  C3  UNL     1     -37.282  14.375  -4.216  1.00 20.00     0.019 C 
HETATM    4  C4  UNL     1     -36.202  16.248  -5.671  1.00 20.00     0.019 C 
HETATM    5  C5  UNL     1     -34.708  14.213  -3.988  1.00 20.00     0.005 C 
HETATM    6  C6  UNL     1     -35.095  16.662  -4.702  1.00 20.00     0.006 C 
HETATM    7  C7  UNL     1     -37.475  15.650  -5.058  1.00 20.00     0.093 C 
HETATM    8  C8  UNL     1     -34.769  15.688  -3.561  1.00 20.00    -0.014 C 
HETATM    9  N12 UNL     1     -38.797  17.467  -3.679  1.00 20.00    -0.197 NA
ENDROOT
BRANCH   8  10
HETATM   10  C10 UNL     1     -33.442  16.095  -2.907  1.00 20.00     0.004 C 
BRANCH  10  11
HETATM   11  C11 UNL     1     -33.663  17.163  -1.844  1.00 20.00    -0.004 C 
HETATM   12  C9  UNL     1     -34.985  16.951  -1.124  1.00 20.00     0.005 C 
ENDBRANCH  10  11
ENDBRANCH   8  10
TORSDOF 2
ENDMDL
MODEL 9
REMARK VINA RESULT:      -4.2      2.116      2.632
REMARK  2 active torsions:
REMARK  status: ('A' for Active; 'I' for Inactive)
REMARK    1  A    between atoms: C8_8  and  C10_10 
REMARK    2  A    between atoms: C10_10  and  C11_11 
ROOT
HETATM    1  C1  UNL     1     -33.955  14.742  -4.395  1.00 20.00     0.064 C 
HETATM    2  C2  UNL     1     -34.872  18.420  -4.244  1.00 20.00     0.002 C 
HETATM    3  C3  UNL     1     -34.334  17.140  -4.881  1.00 20.00     0.019 C 
HETATM    4  C4  UNL     1     -35.556  15.932  -2.922  1.00 20.00     0.019 C 
HETATM    5  C5  UNL     1     -34.355  18.717  -2.827  1.00 20.00     0.005 C 
HETATM    6  C6  UNL     1     -34.631  16.371  -1.787  1.00 20.00     0.006 C 
HETATM    7  C7  UNL     1     -34.941  15.839  -4.325  1.00 20.00     0.093 C 
HETATM    8  C8  UNL     1     -33.693  17.553  -2.073  1.00 20.00    -0.014 C 
HETATM    9  N12 UNL     1     -33.180  13.881  -4.449  1.00 20.00    -0.197 NA
ENDROOT
BRANCH   8  10
HETATM   10  C10 UNL     1     -33.098  18.061  -0.752  1.00 20.00     0.004 C 
BRANCH  10  11
HETATM   11  C11 UNL     1     -31.597  18.284  -0.880  1.00 20.00    -0.004 C 
HETATM   12  C9  UNL     1     -30.969  18.560   0.476  1.00 20.00     0.005 C 
ENDBRANCH  10  11
ENDBRANCH   8  10
TORSDOF 2
ENDMDL
