MODEL 1
REMARK VINA RESULT:      -4.8      0.000      0.000
REMARK  1 active torsions:
REMARK  status: ('A' for Active; 'I' for Inactive)
REMARK    1  A    between atoms: C4_4  and  C10_10 
ROOT
HETATM    1  C5  UNL     1     -36.006  14.380  -4.748  1.00 20.00     0.135 C 
HETATM    2  C6  UNL     1     -36.639  15.405  -5.662  1.00 20.00     0.079 C 
HETATM    3  C7  UNL     1     -35.858  15.492  -6.963  1.00 20.00     0.007 C 
HETATM    4  C8  UNL     1     -34.380  15.769  -6.707  1.00 20.00     0.001 C 
HETATM    5  C9  UNL     1     -33.768  14.716  -5.778  1.00 20.00     0.017 C 
HETATM    6  C10 UNL     1     -34.519  14.548  -4.442  1.00 20.00     0.088 C 
HETATM    7  O11 UNL     1     -36.678  13.494  -4.220  1.00 20.00    -0.297 OA
ENDROOT
BRANCH   6   8
HETATM    8  C4  UNL     1     -34.291  15.590  -3.357  1.00 20.00    -0.040 A 
HETATM    9  C1  UNL     1     -35.210  15.850  -2.300  1.00 20.00     0.015 A 
HETATM   10  C2  UNL     1     -34.761  16.841  -1.455  1.00 20.00     0.050 A 
HETATM   11  S12 UNL     1     -33.237  17.454  -1.937  1.00 20.00    -0.113 SA
HETATM   12  C3  UNL     1     -33.174  16.393  -3.280  1.00 20.00     0.057 A 
ENDBRANCH   6   8
TORSDOF 1
ENDMDL
MODEL 2
REMARK VINA RESULT:      -4.8      0.689      1.189
REMARK  1 active torsions:
REMARK  status: ('A' for Active; 'I' for Inactive)
REMARK    1  A    between atoms: C4_4  and  C10_10 
ROOT
HETATM    1  C5  UNL     1     -36.057  14.407  -4.642  1.00 20.00     0.135 C 
HETATM    2  C6  UNL     1     -36.538  15.413  -5.663  1.00 20.00     0.079 C 
HETATM    3  C7  UNL     1     -35.649  15.366  -6.896  1.00 20.00     0.007 C 
HETATM    4  C8  UNL     1     -34.181  15.559  -6.531  1.00 20.00     0.001 C 
HETATM    5  C9  UNL     1     -33.724  14.527  -5.495  1.00 20.00     0.017 C 
HETATM    6  C10 UNL     1     -34.591  14.493  -4.220  1.00 20.00     0.088 C 
HETATM    7  O11 UNL     1     -36.831  13.603  -4.124  1.00 20.00    -0.297 OA
ENDROOT
BRANCH   6   8
HETATM    8  C4  UNL     1     -34.378  15.583  -3.181  1.00 20.00    -0.040 A 
HETATM    9  C1  UNL     1     -33.189  16.361  -3.076  1.00 20.00     0.015 A 
HETATM   10  C2  UNL     1     -33.257  17.277  -2.050  1.00 20.00     0.050 A 
HETATM   11  S12 UNL     1     -34.751  17.199  -1.217  1.00 20.00    -0.113 SA
HETATM   12  C3  UNL     1     -35.311  15.936  -2.229  1.00 20.00     0.057 A 
ENDBRANCH   6   8
TORSDOF 1
ENDMDL
MODEL 3
REMARK VINA RESULT:      -4.7      3.254      4.864
REMARK  1 active torsions:
REMARK  status: ('A' for Active; 'I' for Inactive)
REMARK    1  A    between atoms: C4_4  and  C10_10 
ROOT
HETATM    1  C5  UNL     1     -33.128  17.810  -2.955  1.00 20.00     0.135 C 
HETATM    2  C6  UNL     1     -33.082  16.302  -3.062  1.00 20.00     0.079 C 
HETATM    3  C7  UNL     1     -34.482  15.729  -2.909  1.00 20.00     0.007 C 
HETATM    4  C8  UNL     1     -35.141  16.205  -1.619  1.00 20.00     0.001 C 
HETATM    5  C9  UNL     1     -35.171  17.734  -1.540  1.00 20.00     0.017 C 
HETATM    6  C10 UNL     1     -33.789  18.397  -1.710  1.00 20.00     0.088 C 
HETATM    7  O11 UNL     1     -32.592  18.526  -3.801  1.00 20.00    -0.297 OA
ENDROOT
BRANCH   6   8
HETATM    8  C4  UNL     1     -32.839  18.387  -0.522  1.00 20.00    -0.040 A 
HETATM    9  C1  UNL     1     -31.420  18.336  -0.639  1.00 20.00     0.015 A 
HETATM   10  C2  UNL     1     -30.798  18.337   0.589  1.00 20.00     0.050 A 
HETATM   11  S12 UNL     1     -31.922  18.401   1.879  1.00 20.00    -0.113 SA
HETATM   12  C3  UNL     1     -33.247  18.426   0.794  1.00 20.00     0.057 A 
ENDBRANCH   6   8
TORSDOF 1
ENDMDL
MODEL 4
REMARK VINA RESULT:      -4.5      3.213      4.713
REMARK  1 active torsions:
REMARK  status: ('A' for Active; 'I' for Inactive)
REMARK    1  A    between atoms: C4_4  and  C10_10 
ROOT
HETATM    1  C5  UNL     1     -33.130  17.823  -2.971  1.00 20.00     0.135 C 
HETATM    2  C6  UNL     1     -33.057  16.317  -3.083  1.00 20.00     0.079 C 
HETATM    3  C7  UNL     1     -34.449  15.719  -2.953  1.00 20.00     0.007 C 
HETATM    4  C8  UNL     1     -35.134  16.178  -1.670  1.00 20.00     0.001 C 
HETATM    5  C9  UNL     1     -35.191  17.707  -1.585  1.00 20.00     0.017 C 
HETATM    6  C10 UNL     1     -33.819  18.394  -1.733  1.00 20.00     0.088 C 
HETATM    7  O11 UNL     1     -32.594  18.552  -3.806  1.00 20.00    -0.297 OA
ENDROOT
BRANCH   6   8
HETATM    8  C4  UNL     1     -32.885  18.394  -0.532  1.00 20.00    -0.040 A 
HETATM    9  C1  UNL     1     -33.331  18.382   0.821  1.00 20.00     0.015 A 
HETATM   10  C2  UNL     1     -32.282  18.386   1.713  1.00 20.00     0.050 A 
HETATM   11  S12 UNL     1     -30.764  18.404   0.920  1.00 20.00    -0.113 SA
HETATM   12  C3  UNL     1     -31.510  18.407  -0.622  1.00 20.00     0.057 A 
ENDBRANCH   6   8
TORSDOF 1
ENDMDL
MODEL 5
REMARK VINA RESULT:      -4.5      2.159      3.621
REMARK  1 active torsions:
REMARK  status: ('A' for Active; 'I' for Inactive)
REMARK    1  A    between atoms: C4_4  and  C10_10 
ROOT
HETATM    1  C5  UNL     1     -35.351  14.045  -4.342  1.00 20.00     0.135 C 
HETATM    2  C6  UNL     1     -34.107  14.453  -5.098  1.00 20.00     0.079 C 
HETATM    3  C7  UNL     1     -33.053  14.959  -4.126  1.00 20.00     0.007 C 
HETATM    4  C8  UNL     1     -33.599  16.080  -3.247  1.00 20.00     0.001 C 
HETATM    5  C9  UNL     1     -34.858  15.636  -2.497  1.00 20.00     0.017 C 
HETATM    6  C10 UNL     1     -35.970  15.085  -3.411  1.00 20.00     0.088 C 
HETATM    7  O11 UNL     1     -35.878  12.947  -4.525  1.00 20.00    -0.297 OA
ENDROOT
BRANCH   6   8
HETATM    8  C4  UNL     1     -36.822  16.082  -4.183  1.00 20.00    -0.040 A 
HETATM    9  C1  UNL     1     -37.405  15.811  -5.455  1.00 20.00     0.015 A 
HETATM   10  C2  UNL     1     -38.126  16.883  -5.932  1.00 20.00     0.050 A 
HETATM   11  S12 UNL     1     -38.100  18.210  -4.850  1.00 20.00    -0.113 SA
HETATM   12  C3  UNL     1     -37.121  17.351  -3.737  1.00 20.00     0.057 A 
ENDBRANCH   6   8
TORSDOF 1
ENDMDL
MODEL 6
REMARK VINA RESULT:      -4.5      1.343      1.917
REMARK  1 active torsions:
REMARK  status: ('A' for Active; 'I' for Inactive)
REMARK    1  A    between atoms: C4_4  and  C10_10 
ROOT
HETATM    1  C5  UNL     1     -36.191  15.763  -4.146  1.00 20.00     0.135 C 
HETATM    2  C6  UNL     1     -35.648  16.361  -5.424  1.00 20.00     0.079 C 
HETATM    3  C7  UNL     1     -34.784  15.341  -6.148  1.00 20.00     0.007 C 
HETATM    4  C8  UNL     1     -33.684  14.800  -5.241  1.00 20.00     0.001 C 
HETATM    5  C9  UNL     1     -34.265  14.203  -3.955  1.00 20.00     0.017 C 
HETATM    6  C10 UNL     1     -35.176  15.169  -3.172  1.00 20.00     0.088 C 
HETATM    7  O11 UNL     1     -37.390  15.819  -3.874  1.00 20.00    -0.297 OA
ENDROOT
BRANCH   6   8
HETATM    8  C4  UNL     1     -34.516  16.252  -2.332  1.00 20.00    -0.040 A 
HETATM    9  C1  UNL     1     -33.208  16.763  -2.578  1.00 20.00     0.015 A 
HETATM   10  C2  UNL     1     -32.853  17.735  -1.670  1.00 20.00     0.050 A 
HETATM   11  S12 UNL     1     -34.092  18.031  -0.525  1.00 20.00    -0.113 SA
HETATM   12  C3  UNL     1     -35.110  16.855  -1.244  1.00 20.00     0.057 A 
ENDBRANCH   6   8
TORSDOF 1
ENDMDL
MODEL 7
REMARK VINA RESULT:      -4.4      2.346      4.297
REMARK  1 active torsions:
REMARK  status: ('A' for Active; 'I' for Inactive)
REMARK    1  A    between atoms: C4_4  and  C10_10 
ROOT
HETATM    1  C5  UNL     1     -33.960  14.482  -4.021  1.00 20.00     0.135 C 
HETATM    2  C6  UNL     1     -32.972  15.621  -3.919  1.00 20.00     0.079 C 
HETATM    3  C7  UNL     1     -33.277  16.465  -2.692  1.00 20.00     0.007 C 
HETATM    4  C8  UNL     1     -34.725  16.944  -2.692  1.00 20.00     0.001 C 
HETATM    5  C9  UNL     1     -35.701  15.768  -2.798  1.00 20.00     0.017 C 
HETATM    6  C10 UNL     1     -35.444  14.847  -4.006  1.00 20.00     0.088 C 
HETATM    7  O11 UNL     1     -33.583  13.321  -4.180  1.00 20.00    -0.297 OA
ENDROOT
BRANCH   6   8
HETATM    8  C4  UNL     1     -35.911  15.316  -5.376  1.00 20.00    -0.040 A 
HETATM    9  C1  UNL     1     -35.395  14.816  -6.606  1.00 20.00     0.015 A 
HETATM   10  C2  UNL     1     -35.990  15.409  -7.697  1.00 20.00     0.050 A 
HETATM   11  S12 UNL     1     -37.169  16.563  -7.238  1.00 20.00    -0.113 SA
HETATM   12  C3  UNL     1     -36.884  16.272  -5.574  1.00 20.00     0.057 A 
ENDBRANCH   6   8
TORSDOF 1
ENDMDL
MODEL 8
REMARK VINA RESULT:      -4.3      2.387      4.181
REMARK  1 active torsions:
REMARK  status: ('A' for Active; 'I' for Inactive)
REMARK    1  A    between atoms: C4_4  and  C10_10 
ROOT
HETATM    1  C5  UNL     1     -34.190  14.370  -3.939  1.00 20.00     0.135 C 
HETATM    2  C6  UNL     1     -33.065  15.380  -3.906  1.00 20.00     0.079 C 
HETATM    3  C7  UNL     1     -33.258  16.333  -2.737  1.00 20.00     0.007 C 
HETATM    4  C8  UNL     1     -34.634  16.990  -2.777  1.00 20.00     0.001 C 
HETATM    5  C9  UNL     1     -35.751  15.942  -2.812  1.00 20.00     0.017 C 
HETATM    6  C10 UNL     1     -35.614  14.919  -3.957  1.00 20.00     0.088 C 
HETATM    7  O11 UNL     1     -33.962  13.163  -4.020  1.00 20.00    -0.297 OA
ENDROOT
BRANCH   6   8
HETATM    8  C4  UNL     1     -36.023  15.353  -5.357  1.00 20.00    -0.040 A 
HETATM    9  C1  UNL     1     -37.009  16.346  -5.626  1.00 20.00     0.015 A 
HETATM   10  C2  UNL     1     -37.186  16.547  -6.976  1.00 20.00     0.050 A 
HETATM   11  S12 UNL     1     -36.166  15.543  -7.916  1.00 20.00    -0.113 SA
HETATM   12  C3  UNL     1     -35.483  14.834  -6.514  1.00 20.00     0.057 A 
ENDBRANCH   6   8
TORSDOF 1
ENDMDL
MODEL 9
REMARK VINA RESULT:      -4.2      2.406      4.007
REMARK  1 active torsions:
REMARK  status: ('A' for Active; 'I' for Inactive)
REMARK    1  A    between atoms: C4_4  and  C10_10 
ROOT
HETATM    1  C5  UNL     1     -34.394  14.837  -3.733  1.00 20.00     0.135 C 
HETATM    2  C6  UNL     1     -33.308  15.831  -4.073  1.00 20.00     0.079 C 
HETATM    3  C7  UNL     1     -32.870  16.570  -2.819  1.00 20.00     0.007 C 
HETATM    4  C8  UNL     1     -34.056  17.218  -2.112  1.00 20.00     0.001 C 
HETATM    5  C9  UNL     1     -35.139  16.186  -1.782  1.00 20.00     0.017 C 
HETATM    6  C10 UNL     1     -35.622  15.374  -3.000  1.00 20.00     0.088 C 
HETATM    7  O11 UNL     1     -34.321  13.662  -4.095  1.00 20.00    -0.297 OA
ENDROOT
BRANCH   6   8
HETATM    8  C4  UNL     1     -36.594  16.038  -3.964  1.00 20.00    -0.040 A 
HETATM    9  C1  UNL     1     -37.382  17.180  -3.637  1.00 20.00     0.015 A 
HETATM   10  C2  UNL     1     -38.177  17.579  -4.688  1.00 20.00     0.050 A 
HETATM   11  S12 UNL     1     -37.973  16.580  -6.064  1.00 20.00    -0.113 SA
HETATM   12  C3  UNL     1     -36.818  15.609  -5.254  1.00 20.00     0.057 A 
ENDBRANCH   6   8
TORSDOF 1
ENDMDL
