MODEL 1
REMARK VINA RESULT:      -4.5      0.000      0.000
REMARK  1 active torsions:
REMARK  status: ('A' for Active; 'I' for Inactive)
REMARK    1  A    between atoms: C4_4  and  C8_8 
ROOT
HETATM    1  C5  UNL     1     -32.837  18.105  -2.749  1.00 20.00     0.002 C 
HETATM    2  C6  UNL     1     -32.964  16.627  -3.117  1.00 20.00     0.011 C 
HETATM    3  C7  UNL     1     -33.531  18.222  -1.401  1.00 20.00     0.021 C 
HETATM    4  C8  UNL     1     -34.179  16.091  -2.327  1.00 20.00     0.037 C 
HETATM    5  C9  UNL     1     -34.741  17.318  -1.584  1.00 20.00     0.090 C 
HETATM    6 CL11 UNL     1     -35.484  16.888  -0.030  1.00 20.00    -0.124 Cl
ENDROOT
BRANCH   4   7
HETATM    7  C4  UNL     1     -35.212  15.393  -3.185  1.00 20.00    -0.046 A 
HETATM    8  C1  UNL     1     -35.012  14.119  -3.790  1.00 20.00     0.015 A 
HETATM    9  C2  UNL     1     -36.109  13.713  -4.517  1.00 20.00     0.050 A 
HETATM   10  S10 UNL     1     -37.374  14.866  -4.469  1.00 20.00    -0.113 SA
HETATM   11  C3  UNL     1     -36.454  15.914  -3.473  1.00 20.00     0.057 A 
ENDBRANCH   4   7
TORSDOF 1
ENDMDL
MODEL 2
REMARK VINA RESULT:      -4.5      2.860      4.624
REMARK  1 active torsions:
REMARK  status: ('A' for Active; 'I' for Inactive)
REMARK    1  A    between atoms: C4_4  and  C8_8 
ROOT
HETATM    1  C5  UNL     1     -36.166  13.639  -4.675  1.00 20.00     0.002 C 
HETATM    2  C6  UNL     1     -34.949  13.826  -3.770  1.00 20.00     0.011 C 
HETATM    3  C7  UNL     1     -35.879  14.515  -5.884  1.00 20.00     0.021 C 
HETATM    4  C8  UNL     1     -34.325  15.183  -4.165  1.00 20.00     0.037 C 
HETATM    5  C9  UNL     1     -35.264  15.752  -5.244  1.00 20.00     0.090 C 
HETATM    6 CL11 UNL     1     -34.405  16.751  -6.434  1.00 20.00    -0.124 Cl
ENDROOT
BRANCH   4   7
HETATM    7  C4  UNL     1     -34.120  16.129  -3.000  1.00 20.00    -0.046 A 
HETATM    8  C1  UNL     1     -35.034  16.261  -1.915  1.00 20.00     0.015 A 
HETATM    9  C2  UNL     1     -34.609  17.190  -0.991  1.00 20.00     0.050 A 
HETATM   10  S10 UNL     1     -33.113  17.897  -1.433  1.00 20.00    -0.113 SA
HETATM   11  C3  UNL     1     -33.032  16.961  -2.865  1.00 20.00     0.057 A 
ENDBRANCH   4   7
TORSDOF 1
ENDMDL
MODEL 3
REMARK VINA RESULT:      -4.4      3.194      5.045
REMARK  1 active torsions:
REMARK  status: ('A' for Active; 'I' for Inactive)
REMARK    1  A    between atoms: C4_4  and  C8_8 
ROOT
HETATM    1  C5  UNL     1     -33.872  15.751  -2.988  1.00 20.00     0.002 C 
HETATM    2  C6  UNL     1     -33.095  17.048  -2.768  1.00 20.00     0.011 C 
HETATM    3  C7  UNL     1     -35.245  16.026  -2.397  1.00 20.00     0.021 C 
HETATM    4  C8  UNL     1     -33.786  17.768  -1.589  1.00 20.00     0.037 C 
HETATM    5  C9  UNL     1     -34.901  16.807  -1.136  1.00 20.00     0.090 C 
HETATM    6 CL11 UNL     1     -36.313  17.664  -0.486  1.00 20.00    -0.124 Cl
ENDROOT
BRANCH   4   7
HETATM    7  C4  UNL     1     -32.846  18.155  -0.467  1.00 20.00    -0.046 A 
HETATM    8  C1  UNL     1     -31.432  18.252  -0.614  1.00 20.00     0.015 A 
HETATM    9  C2  UNL     1     -30.815  18.622   0.560  1.00 20.00     0.050 A 
HETATM   10  S10 UNL     1     -31.937  18.850   1.833  1.00 20.00    -0.113 SA
HETATM   11  C3  UNL     1     -33.256  18.453   0.814  1.00 20.00     0.057 A 
ENDBRANCH   4   7
TORSDOF 1
ENDMDL
MODEL 4
REMARK VINA RESULT:      -4.3      2.741      4.463
REMARK  1 active torsions:
REMARK  status: ('A' for Active; 'I' for Inactive)
REMARK    1  A    between atoms: C4_4  and  C8_8 
ROOT
HETATM    1  C5  UNL     1     -36.342  15.407  -5.167  1.00 20.00     0.002 C 
HETATM    2  C6  UNL     1     -36.338  15.412  -3.638  1.00 20.00     0.011 C 
HETATM    3  C7  UNL     1     -35.050  14.702  -5.547  1.00 20.00     0.021 C 
HETATM    4  C8  UNL     1     -34.859  15.274  -3.212  1.00 20.00     0.037 C 
HETATM    5  C9  UNL     1     -34.065  15.265  -4.532  1.00 20.00     0.090 C 
HETATM    6 CL11 UNL     1     -32.590  14.283  -4.430  1.00 20.00    -0.124 Cl
ENDROOT
BRANCH   4   7
HETATM    7  C4  UNL     1     -34.393  16.345  -2.249  1.00 20.00    -0.046 A 
HETATM    8  C1  UNL     1     -33.148  17.028  -2.362  1.00 20.00     0.015 A 
HETATM    9  C2  UNL     1     -32.972  17.952  -1.356  1.00 20.00     0.050 A 
HETATM   10  S10 UNL     1     -34.304  17.993  -0.281  1.00 20.00    -0.113 SA
HETATM   11  C3  UNL     1     -35.121  16.772  -1.160  1.00 20.00     0.057 A 
ENDBRANCH   4   7
TORSDOF 1
ENDMDL
MODEL 5
REMARK VINA RESULT:      -4.3      1.941      2.794
REMARK  1 active torsions:
REMARK  status: ('A' for Active; 'I' for Inactive)
REMARK    1  A    between atoms: C4_4  and  C8_8 
ROOT
HETATM    1  C5  UNL     1     -34.785  17.563   0.757  1.00 20.00     0.002 C 
HETATM    2  C6  UNL     1     -35.518  17.261  -0.549  1.00 20.00     0.011 C 
HETATM    3  C7  UNL     1     -33.660  18.503   0.352  1.00 20.00     0.021 C 
HETATM    4  C8  UNL     1     -34.500  17.518  -1.683  1.00 20.00     0.037 C 
HETATM    5  C9  UNL     1     -33.192  17.895  -0.963  1.00 20.00     0.090 C 
HETATM    6 CL11 UNL     1     -32.205  19.034  -1.901  1.00 20.00    -0.124 Cl
ENDROOT
BRANCH   4   7
HETATM    7  C4  UNL     1     -34.336  16.355  -2.639  1.00 20.00    -0.046 A 
HETATM    8  C1  UNL     1     -33.129  16.068  -3.340  1.00 20.00     0.015 A 
HETATM    9  C2  UNL     1     -33.250  14.956  -4.144  1.00 20.00     0.050 A 
HETATM   10  S10 UNL     1     -34.813  14.263  -4.051  1.00 20.00    -0.113 SA
HETATM   11  C3  UNL     1     -35.333  15.452  -2.933  1.00 20.00     0.057 A 
ENDBRANCH   4   7
TORSDOF 1
ENDMDL
MODEL 6
REMARK VINA RESULT:      -4.2      2.845      4.537
REMARK  1 active torsions:
REMARK  status: ('A' for Active; 'I' for Inactive)
REMARK    1  A    between atoms: C4_4  and  C8_8 
ROOT
HETATM    1  C5  UNL     1     -36.296  15.413  -5.197  1.00 20.00     0.002 C 
HETATM    2  C6  UNL     1     -36.315  15.413  -3.669  1.00 20.00     0.011 C 
HETATM    3  C7  UNL     1     -34.996  14.714  -5.560  1.00 20.00     0.021 C 
HETATM    4  C8  UNL     1     -34.842  15.281  -3.221  1.00 20.00     0.037 C 
HETATM    5  C9  UNL     1     -34.029  15.279  -4.529  1.00 20.00     0.090 C 
HETATM    6 CL11 UNL     1     -32.551  14.303  -4.407  1.00 20.00    -0.124 Cl
ENDROOT
BRANCH   4   7
HETATM    7  C4  UNL     1     -34.396  16.351  -2.248  1.00 20.00    -0.046 A 
HETATM    8  C1  UNL     1     -35.151  16.752  -1.108  1.00 20.00     0.015 A 
HETATM    9  C2  UNL     1     -34.518  17.743  -0.391  1.00 20.00     0.050 A 
HETATM   10  S10 UNL     1     -33.020  18.186  -1.092  1.00 20.00    -0.113 SA
HETATM   11  C3  UNL     1     -33.215  17.051  -2.359  1.00 20.00     0.057 A 
ENDBRANCH   4   7
TORSDOF 1
ENDMDL
MODEL 7
REMARK VINA RESULT:      -4.1      2.636      4.238
REMARK  1 active torsions:
REMARK  status: ('A' for Active; 'I' for Inactive)
REMARK    1  A    between atoms: C4_4  and  C8_8 
ROOT
HETATM    1  C5  UNL     1     -33.590  14.268  -4.128  1.00 20.00     0.002 C 
HETATM    2  C6  UNL     1     -33.149  15.673  -3.716  1.00 20.00     0.011 C 
HETATM    3  C7  UNL     1     -35.066  14.416  -4.458  1.00 20.00     0.021 C 
HETATM    4  C8  UNL     1     -34.428  16.407  -3.256  1.00 20.00     0.037 C 
HETATM    5  C9  UNL     1     -35.548  15.355  -3.362  1.00 20.00     0.090 C 
HETATM    6 CL11 UNL     1     -37.121  16.077  -3.756  1.00 20.00    -0.124 Cl
ENDROOT
BRANCH   4   7
HETATM    7  C4  UNL     1     -34.322  17.023  -1.878  1.00 20.00    -0.046 A 
HETATM    8  C1  UNL     1     -35.307  16.866  -0.860  1.00 20.00     0.015 A 
HETATM    9  C2  UNL     1     -34.965  17.530   0.297  1.00 20.00     0.050 A 
HETATM   10  S10 UNL     1     -33.463  18.339   0.154  1.00 20.00    -0.113 SA
HETATM   11  C3  UNL     1     -33.266  17.802  -1.460  1.00 20.00     0.057 A 
ENDBRANCH   4   7
TORSDOF 1
ENDMDL
MODEL 8
REMARK VINA RESULT:      -4.0      2.624      3.722
REMARK  1 active torsions:
REMARK  status: ('A' for Active; 'I' for Inactive)
REMARK    1  A    between atoms: C4_4  and  C8_8 
ROOT
HETATM    1  C5  UNL     1     -34.518  18.220   1.881  1.00 20.00     0.002 C 
HETATM    2  C6  UNL     1     -35.083  18.321   0.465  1.00 20.00     0.011 C 
HETATM    3  C7  UNL     1     -33.098  18.748   1.762  1.00 20.00     0.021 C 
HETATM    4  C8  UNL     1     -33.863  18.323  -0.485  1.00 20.00     0.037 C 
HETATM    5  C9  UNL     1     -32.643  18.151   0.438  1.00 20.00     0.090 C 
HETATM    6 CL11 UNL     1     -31.197  18.967  -0.190  1.00 20.00    -0.124 Cl
ENDROOT
BRANCH   4   7
HETATM    7  C4  UNL     1     -33.932  17.277  -1.577  1.00 20.00    -0.046 A 
HETATM    8  C1  UNL     1     -34.996  16.340  -1.713  1.00 20.00     0.015 A 
HETATM    9  C2  UNL     1     -34.812  15.501  -2.790  1.00 20.00     0.050 A 
HETATM   10  S10 UNL     1     -33.361  15.844  -3.631  1.00 20.00    -0.113 SA
HETATM   11  C3  UNL     1     -32.974  17.119  -2.554  1.00 20.00     0.057 A 
ENDBRANCH   4   7
TORSDOF 1
ENDMDL
MODEL 9
REMARK VINA RESULT:      -3.9      2.575      3.893
REMARK  1 active torsions:
REMARK  status: ('A' for Active; 'I' for Inactive)
REMARK    1  A    between atoms: C4_4  and  C8_8 
ROOT
HETATM    1  C5  UNL     1     -34.221  16.135  -3.924  1.00 20.00     0.002 C 
HETATM    2  C6  UNL     1     -34.978  15.678  -2.677  1.00 20.00     0.011 C 
HETATM    3  C7  UNL     1     -32.959  16.788  -3.383  1.00 20.00     0.021 C 
HETATM    4  C8  UNL     1     -34.471  16.565  -1.518  1.00 20.00     0.037 C 
HETATM    5  C9  UNL     1     -33.484  17.549  -2.174  1.00 20.00     0.090 C 
HETATM    6 CL11 UNL     1     -32.173  18.027  -1.076  1.00 20.00    -0.124 Cl
ENDROOT
BRANCH   4   7
HETATM    7  C4  UNL     1     -35.574  17.259  -0.746  1.00 20.00    -0.046 A 
HETATM    8  C1  UNL     1     -35.619  17.336   0.676  1.00 20.00     0.015 A 
HETATM    9  C2  UNL     1     -36.728  18.022   1.121  1.00 20.00     0.050 A 
HETATM   10  S10 UNL     1     -37.708  18.569  -0.173  1.00 20.00    -0.113 SA
HETATM   11  C3  UNL     1     -36.649  17.887  -1.334  1.00 20.00     0.057 A 
ENDBRANCH   4   7
TORSDOF 1
ENDMDL
