MODEL 1
REMARK VINA RESULT:      -4.5      0.000      0.000
REMARK  0 active torsions:
REMARK  status: ('A' for Active; 'I' for Inactive)
ROOT
HETATM    1  C1  UNL     1     -36.105  16.454  -2.976  1.00 20.00     0.004 C 
HETATM    2  C2  UNL     1     -34.884  16.321  -2.068  1.00 20.00     0.040 C 
HETATM    3  C3  UNL     1     -33.025  15.748  -3.797  1.00 20.00     0.041 C 
HETATM    4  C4  UNL     1     -35.879  16.164  -4.462  1.00 20.00     0.009 C 
HETATM    5  C5  UNL     1     -33.891  14.519  -4.093  1.00 20.00     0.012 C 
HETATM    6  C6  UNL     1     -33.163  18.136  -2.774  1.00 20.00     0.207 A 
HETATM    7  C7  UNL     1     -33.599  16.684  -2.757  1.00 20.00     0.082 A 
HETATM    8  C8  UNL     1     -35.229  14.807  -4.828  1.00 20.00    -0.048 C 
HETATM    9  C9  UNL     1     -36.211  13.657  -4.527  1.00 20.00     0.015 C 
HETATM   10  C10 UNL     1     -34.968  14.817  -6.351  1.00 20.00     0.015 C 
HETATM   11  O11 UNL     1     -32.601  17.197  -1.854  1.00 20.00    -0.375 OA
ENDROOT
TORSDOF 0
ENDMDL
MODEL 2
REMARK VINA RESULT:      -4.4      2.192      3.973
REMARK  0 active torsions:
REMARK  status: ('A' for Active; 'I' for Inactive)
ROOT
HETATM    1  C1  UNL     1     -34.956  14.139  -4.161  1.00 20.00     0.004 C 
HETATM    2  C2  UNL     1     -35.742  14.798  -5.293  1.00 20.00     0.040 C 
HETATM    3  C3  UNL     1     -34.523  17.090  -5.490  1.00 20.00     0.041 C 
HETATM    4  C4  UNL     1     -33.856  14.986  -3.518  1.00 20.00     0.009 C 
HETATM    5  C5  UNL     1     -34.974  17.282  -4.038  1.00 20.00     0.012 C 
HETATM    6  C6  UNL     1     -34.097  15.230  -7.259  1.00 20.00     0.207 A 
HETATM    7  C7  UNL     1     -34.914  15.761  -6.097  1.00 20.00     0.082 A 
HETATM    8  C8  UNL     1     -34.255  16.387  -2.992  1.00 20.00    -0.048 C 
HETATM    9  C9  UNL     1     -35.169  16.242  -1.759  1.00 20.00     0.015 C 
HETATM   10  C10 UNL     1     -32.959  17.095  -2.538  1.00 20.00     0.015 C 
HETATM   11  O11 UNL     1     -35.356  15.879  -7.463  1.00 20.00    -0.375 OA
ENDROOT
TORSDOF 0
ENDMDL
MODEL 3
REMARK VINA RESULT:      -4.4      2.107      4.129
REMARK  0 active torsions:
REMARK  status: ('A' for Active; 'I' for Inactive)
ROOT
HETATM    1  C1  UNL     1     -33.097  15.360  -4.531  1.00 20.00     0.004 C 
HETATM    2  C2  UNL     1     -33.861  14.112  -4.091  1.00 20.00     0.040 C 
HETATM    3  C3  UNL     1     -36.119  15.147  -3.311  1.00 20.00     0.041 C 
HETATM    4  C4  UNL     1     -33.810  16.698  -4.323  1.00 20.00     0.009 C 
HETATM    5  C5  UNL     1     -35.249  15.902  -2.301  1.00 20.00     0.012 C 
HETATM    6  C6  UNL     1     -35.974  13.901  -5.591  1.00 20.00     0.207 A 
HETATM    7  C7  UNL     1     -35.349  14.249  -4.254  1.00 20.00     0.082 A 
HETATM    8  C8  UNL     1     -34.337  17.008  -2.900  1.00 20.00    -0.048 C 
HETATM    9  C9  UNL     1     -33.153  17.239  -1.942  1.00 20.00     0.015 C 
HETATM   10  C10 UNL     1     -35.141  18.325  -2.982  1.00 20.00     0.015 C 
HETATM   11  O11 UNL     1     -36.008  12.990  -4.489  1.00 20.00    -0.375 OA
ENDROOT
TORSDOF 0
ENDMDL
MODEL 4
REMARK VINA RESULT:      -4.3      2.044      4.026
REMARK  0 active torsions:
REMARK  status: ('A' for Active; 'I' for Inactive)
ROOT
HETATM    1  C1  UNL     1     -35.685  17.268  -5.071  1.00 20.00     0.004 C 
HETATM    2  C2  UNL     1     -35.330  15.912  -5.678  1.00 20.00     0.040 C 
HETATM    3  C3  UNL     1     -34.498  14.617  -3.580  1.00 20.00     0.041 C 
HETATM    4  C4  UNL     1     -35.396  17.437  -3.577  1.00 20.00     0.009 C 
HETATM    5  C5  UNL     1     -33.437  15.719  -3.508  1.00 20.00     0.012 C 
HETATM    6  C6  UNL     1     -36.851  14.119  -4.570  1.00 20.00     0.207 A 
HETATM    7  C7  UNL     1     -35.491  14.775  -4.709  1.00 20.00     0.082 A 
HETATM    8  C8  UNL     1     -33.959  17.123  -3.093  1.00 20.00    -0.048 C 
HETATM    9  C9  UNL     1     -32.981  18.187  -3.627  1.00 20.00     0.015 C 
HETATM   10  C10 UNL     1     -33.961  17.216  -1.550  1.00 20.00     0.015 C 
HETATM   11  O11 UNL     1     -35.810  13.527  -5.352  1.00 20.00    -0.375 OA
ENDROOT
TORSDOF 0
ENDMDL
MODEL 5
REMARK VINA RESULT:      -4.2      1.989      3.969
REMARK  0 active torsions:
REMARK  status: ('A' for Active; 'I' for Inactive)
ROOT
HETATM    1  C1  UNL     1     -35.313  17.843  -4.780  1.00 20.00     0.004 C 
HETATM    2  C2  UNL     1     -34.482  16.778  -5.494  1.00 20.00     0.040 C 
HETATM    3  C3  UNL     1     -34.346  14.931  -3.665  1.00 20.00     0.041 C 
HETATM    4  C4  UNL     1     -35.699  17.541  -3.330  1.00 20.00     0.009 C 
HETATM    5  C5  UNL     1     -33.645  16.014  -2.839  1.00 20.00     0.012 C 
HETATM    6  C6  UNL     1     -35.941  14.636  -5.700  1.00 20.00     0.207 A 
HETATM    7  C7  UNL     1     -34.801  15.383  -5.035  1.00 20.00     0.082 A 
HETATM    8  C8  UNL     1     -34.555  17.175  -2.352  1.00 20.00    -0.048 C 
HETATM    9  C9  UNL     1     -33.673  18.412  -2.091  1.00 20.00     0.015 C 
HETATM   10  C10 UNL     1     -35.206  16.769  -1.011  1.00 20.00     0.015 C 
HETATM   11  O11 UNL     1     -34.577  14.390  -6.054  1.00 20.00    -0.375 OA
ENDROOT
TORSDOF 0
ENDMDL
MODEL 6
REMARK VINA RESULT:      -4.1      1.840      3.903
REMARK  0 active torsions:
REMARK  status: ('A' for Active; 'I' for Inactive)
ROOT
HETATM    1  C1  UNL     1     -33.023  17.616  -3.456  1.00 20.00     0.004 C 
HETATM    2  C2  UNL     1     -32.830  16.102  -3.385  1.00 20.00     0.040 C 
HETATM    3  C3  UNL     1     -35.274  15.297  -2.993  1.00 20.00     0.041 C 
HETATM    4  C4  UNL     1     -34.447  18.129  -3.223  1.00 20.00     0.009 C 
HETATM    5  C5  UNL     1     -35.185  16.136  -1.715  1.00 20.00     0.012 C 
HETATM    6  C6  UNL     1     -34.175  15.035  -5.337  1.00 20.00     0.207 A 
HETATM    7  C7  UNL     1     -34.034  15.336  -3.858  1.00 20.00     0.082 A 
HETATM    8  C8  UNL     1     -35.161  17.675  -1.927  1.00 20.00    -0.048 C 
HETATM    9  C9  UNL     1     -34.489  18.328  -0.702  1.00 20.00     0.015 C 
HETATM   10  C10 UNL     1     -36.616  18.190  -1.997  1.00 20.00     0.015 C 
HETATM   11  O11 UNL     1     -33.700  14.051  -4.415  1.00 20.00    -0.375 OA
ENDROOT
TORSDOF 0
ENDMDL
MODEL 7
REMARK VINA RESULT:      -4.1      2.595      4.179
REMARK  0 active torsions:
REMARK  status: ('A' for Active; 'I' for Inactive)
ROOT
HETATM    1  C1  UNL     1     -34.808  16.277  -6.387  1.00 20.00     0.004 C 
HETATM    2  C2  UNL     1     -36.094  15.463  -6.522  1.00 20.00     0.040 C 
HETATM    3  C3  UNL     1     -36.828  15.256  -4.033  1.00 20.00     0.041 C 
HETATM    4  C4  UNL     1     -34.368  16.615  -4.961  1.00 20.00     0.009 C 
HETATM    5  C5  UNL     1     -35.487  14.537  -3.856  1.00 20.00     0.012 C 
HETATM    6  C6  UNL     1     -38.054  16.913  -5.620  1.00 20.00     0.207 A 
HETATM    7  C7  UNL     1     -37.090  15.758  -5.435  1.00 20.00     0.082 A 
HETATM    8  C8  UNL     1     -34.226  15.438  -3.964  1.00 20.00    -0.048 C 
HETATM    9  C9  UNL     1     -33.026  14.557  -4.362  1.00 20.00     0.015 C 
HETATM   10  C10 UNL     1     -33.926  16.044  -2.574  1.00 20.00     0.015 C 
HETATM   11  O11 UNL     1     -38.454  15.560  -5.853  1.00 20.00    -0.375 OA
ENDROOT
TORSDOF 0
ENDMDL
MODEL 8
REMARK VINA RESULT:      -4.0      1.116      2.548
REMARK  0 active torsions:
REMARK  status: ('A' for Active; 'I' for Inactive)
ROOT
HETATM    1  C1  UNL     1     -33.250  15.819  -3.365  1.00 20.00     0.004 C 
HETATM    2  C2  UNL     1     -33.842  17.194  -3.064  1.00 20.00     0.040 C 
HETATM    3  C3  UNL     1     -36.392  16.683  -3.161  1.00 20.00     0.041 C 
HETATM    4  C4  UNL     1     -34.252  14.703  -3.671  1.00 20.00     0.009 C 
HETATM    5  C5  UNL     1     -36.101  16.281  -4.610  1.00 20.00     0.012 C 
HETATM    6  C6  UNL     1     -35.214  17.007  -0.864  1.00 20.00     0.207 A 
HETATM    7  C7  UNL     1     -35.176  17.120  -2.376  1.00 20.00     0.082 A 
HETATM    8  C8  UNL     1     -35.290  14.968  -4.789  1.00 20.00    -0.048 C 
HETATM    9  C9  UNL     1     -34.584  15.011  -6.159  1.00 20.00     0.015 C 
HETATM   10  C10 UNL     1     -36.271  13.774  -4.801  1.00 20.00     0.015 C 
HETATM   11  O11 UNL     1     -35.436  18.254  -1.527  1.00 20.00    -0.375 OA
ENDROOT
TORSDOF 0
ENDMDL
MODEL 9
REMARK VINA RESULT:      -3.8      1.946      2.954
REMARK  0 active torsions:
REMARK  status: ('A' for Active; 'I' for Inactive)
ROOT
HETATM    1  C1  UNL     1     -33.233  17.073  -2.879  1.00 20.00     0.004 C 
HETATM    2  C2  UNL     1     -33.578  18.049  -4.002  1.00 20.00     0.040 C 
HETATM    3  C3  UNL     1     -35.551  16.811  -5.165  1.00 20.00     0.041 C 
HETATM    4  C4  UNL     1     -34.035  15.769  -2.846  1.00 20.00     0.009 C 
HETATM    5  C5  UNL     1     -34.516  15.708  -5.407  1.00 20.00     0.012 C 
HETATM    6  C6  UNL     1     -36.020  18.860  -3.632  1.00 20.00     0.207 A 
HETATM    7  C7  UNL     1     -35.028  18.003  -4.394  1.00 20.00     0.082 A 
HETATM    8  C8  UNL     1     -34.068  14.923  -4.143  1.00 20.00    -0.048 C 
HETATM    9  C9  UNL     1     -32.676  14.318  -4.410  1.00 20.00     0.015 C 
HETATM   10  C10 UNL     1     -35.052  13.756  -3.908  1.00 20.00     0.015 C 
HETATM   11  O11 UNL     1     -35.513  19.257  -4.908  1.00 20.00    -0.375 OA
ENDROOT
TORSDOF 0
ENDMDL
