MODEL 1
REMARK VINA RESULT:      -4.8      0.000      0.000
REMARK  2 active torsions:
REMARK  status: ('A' for Active; 'I' for Inactive)
REMARK    1  A    between atoms: C8_8  and  C10_10 
REMARK    2  A    between atoms: C10_10  and  C11_11 
ROOT
HETATM    1  C1  UNL     1     -37.616  14.528  -4.189  1.00 20.00     0.064 C 
HETATM    2  C2  UNL     1     -33.798  14.322  -3.942  1.00 20.00     0.002 C 
HETATM    3  C3  UNL     1     -35.149  14.369  -4.657  1.00 20.00     0.019 C 
HETATM    4  C4  UNL     1     -36.243  16.608  -4.001  1.00 20.00     0.019 C 
HETATM    5  C5  UNL     1     -33.016  15.632  -3.926  1.00 20.00     0.005 C 
HETATM    6  C6  UNL     1     -34.907  17.333  -4.167  1.00 20.00     0.006 C 
HETATM    7  C7  UNL     1     -36.230  15.082  -3.834  1.00 20.00     0.093 C 
HETATM    8  C8  UNL     1     -33.714  16.861  -3.332  1.00 20.00    -0.014 C 
HETATM    9  N12 UNL     1     -38.664  14.110  -4.459  1.00 20.00    -0.197 NA
ENDROOT
BRANCH   8  10
HETATM   10  C10 UNL     1     -34.045  16.690  -1.908  1.00 20.00     0.004 C 
BRANCH  10  11
HETATM   11  C11 UNL     1     -33.594  17.894  -1.095  1.00 20.00    -0.004 C 
HETATM   12  C9  UNL     1     -32.110  18.159  -1.288  1.00 20.00     0.005 C 
ENDBRANCH  10  11
ENDBRANCH   8  10
TORSDOF 2
ENDMDL
MODEL 2
REMARK VINA RESULT:      -4.7      0.883      1.001
REMARK  2 active torsions:
REMARK  status: ('A' for Active; 'I' for Inactive)
REMARK    1  A    between atoms: C8_8  and  C10_10 
REMARK    2  A    between atoms: C10_10  and  C11_11 
ROOT
HETATM    1  C1  UNL     1     -38.515  14.820  -4.356  1.00 20.00     0.064 C 
HETATM    2  C2  UNL     1     -34.925  13.532  -3.994  1.00 20.00     0.002 C 
HETATM    3  C3  UNL     1     -36.207  13.895  -4.743  1.00 20.00     0.019 C 
HETATM    4  C4  UNL     1     -36.589  16.414  -4.356  1.00 20.00     0.019 C 
HETATM    5  C5  UNL     1     -33.792  14.549  -4.099  1.00 20.00     0.005 C 
HETATM    6  C6  UNL     1     -35.101  16.692  -4.565  1.00 20.00     0.006 C 
HETATM    7  C7  UNL     1     -37.024  14.978  -4.027  1.00 20.00     0.093 C 
HETATM    8  C8  UNL     1     -34.093  15.986  -3.656  1.00 20.00    -0.014 C 
HETATM    9  N12 UNL     1     -39.642  14.700  -4.605  1.00 20.00    -0.197 NA
ENDROOT
BRANCH   8  10
HETATM   10  C10 UNL     1     -34.448  16.075  -2.230  1.00 20.00     0.004 C 
BRANCH  10  11
HETATM   11  C11 UNL     1     -34.094  17.442  -1.664  1.00 20.00    -0.004 C 
HETATM   12  C9  UNL     1     -32.612  17.736  -1.833  1.00 20.00     0.005 C 
ENDBRANCH  10  11
ENDBRANCH   8  10
TORSDOF 2
ENDMDL
MODEL 3
REMARK VINA RESULT:      -4.6      1.716      2.258
REMARK  2 active torsions:
REMARK  status: ('A' for Active; 'I' for Inactive)
REMARK    1  A    between atoms: C8_8  and  C10_10 
REMARK    2  A    between atoms: C10_10  and  C11_11 
ROOT
HETATM    1  C1  UNL     1     -35.612  13.813  -4.152  1.00 20.00     0.064 C 
HETATM    2  C2  UNL     1     -33.074  16.360  -2.830  1.00 20.00     0.002 C 
HETATM    3  C3  UNL     1     -33.909  15.646  -3.893  1.00 20.00     0.019 C 
HETATM    4  C4  UNL     1     -36.377  16.015  -3.251  1.00 20.00     0.019 C 
HETATM    5  C5  UNL     1     -33.600  17.721  -2.384  1.00 20.00     0.005 C 
HETATM    6  C6  UNL     1     -36.089  17.476  -2.905  1.00 20.00     0.006 C 
HETATM    7  C7  UNL     1     -35.196  15.036  -3.325  1.00 20.00     0.093 C 
HETATM    8  C8  UNL     1     -35.033  17.777  -1.839  1.00 20.00    -0.014 C 
HETATM    9  N12 UNL     1     -35.927  12.888  -4.779  1.00 20.00    -0.197 NA
ENDROOT
BRANCH   8  10
HETATM   10  C10 UNL     1     -35.205  16.972  -0.619  1.00 20.00     0.004 C 
BRANCH  10  11
HETATM   11  C11 UNL     1     -35.453  17.861   0.591  1.00 20.00    -0.004 C 
HETATM   12  C9  UNL     1     -34.172  18.080   1.380  1.00 20.00     0.005 C 
ENDBRANCH  10  11
ENDBRANCH   8  10
TORSDOF 2
ENDMDL
MODEL 4
REMARK VINA RESULT:      -4.5      3.128      5.326
REMARK  2 active torsions:
REMARK  status: ('A' for Active; 'I' for Inactive)
REMARK    1  A    between atoms: C8_8  and  C10_10 
REMARK    2  A    between atoms: C10_10  and  C11_11 
ROOT
HETATM    1  C1  UNL     1     -31.642  18.197  -0.876  1.00 20.00     0.064 C 
HETATM    2  C2  UNL     1     -35.374  17.332  -0.812  1.00 20.00     0.002 C 
HETATM    3  C3  UNL     1     -34.157  18.257  -0.850  1.00 20.00     0.019 C 
HETATM    4  C4  UNL     1     -32.857  17.661  -2.994  1.00 20.00     0.019 C 
HETATM    5  C5  UNL     1     -36.074  17.110  -2.149  1.00 20.00     0.005 C 
HETATM    6  C6  UNL     1     -34.163  17.561  -3.782  1.00 20.00     0.006 C 
HETATM    7  C7  UNL     1     -32.922  17.584  -1.461  1.00 20.00     0.093 C 
HETATM    8  C8  UNL     1     -35.226  16.568  -3.306  1.00 20.00    -0.014 C 
HETATM    9  N12 UNL     1     -30.675  18.660  -0.433  1.00 20.00    -0.197 NA
ENDROOT
BRANCH   8  10
HETATM   10  C10 UNL     1     -34.677  15.232  -3.027  1.00 20.00     0.004 C 
BRANCH  10  11
HETATM   11  C11 UNL     1     -34.881  14.300  -4.213  1.00 20.00    -0.004 C 
HETATM   12  C9  UNL     1     -36.352  13.957  -4.391  1.00 20.00     0.005 C 
ENDBRANCH  10  11
ENDBRANCH   8  10
TORSDOF 2
ENDMDL
MODEL 5
REMARK VINA RESULT:      -4.5      3.138      5.160
REMARK  2 active torsions:
REMARK  status: ('A' for Active; 'I' for Inactive)
REMARK    1  A    between atoms: C8_8  and  C10_10 
REMARK    2  A    between atoms: C10_10  and  C11_11 
ROOT
HETATM    1  C1  UNL     1     -31.718  18.134  -1.193  1.00 20.00     0.064 C 
HETATM    2  C2  UNL     1     -35.079  16.333  -1.561  1.00 20.00     0.002 C 
HETATM    3  C3  UNL     1     -34.154  17.508  -1.246  1.00 20.00     0.019 C 
HETATM    4  C4  UNL     1     -32.859  18.019  -3.414  1.00 20.00     0.019 C 
HETATM    5  C5  UNL     1     -35.766  16.383  -2.922  1.00 20.00     0.005 C 
HETATM    6  C6  UNL     1     -34.132  17.838  -4.241  1.00 20.00     0.006 C 
HETATM    7  C7  UNL     1     -32.819  17.430  -1.997  1.00 20.00     0.093 C 
HETATM    8  C8  UNL     1     -34.868  16.498  -4.160  1.00 20.00    -0.014 C 
HETATM    9  N12 UNL     1     -30.885  18.667  -0.585  1.00 20.00    -0.197 NA
ENDROOT
BRANCH   8  10
HETATM   10  C10 UNL     1     -33.971  15.342  -4.317  1.00 20.00     0.004 C 
BRANCH  10  11
HETATM   11  C11 UNL     1     -33.954  14.857  -5.759  1.00 20.00    -0.004 C 
HETATM   12  C9  UNL     1     -35.364  14.758  -6.318  1.00 20.00     0.005 C 
ENDBRANCH  10  11
ENDBRANCH   8  10
TORSDOF 2
ENDMDL
MODEL 6
REMARK VINA RESULT:      -4.4      1.758      2.666
REMARK  2 active torsions:
REMARK  status: ('A' for Active; 'I' for Inactive)
REMARK    1  A    between atoms: C8_8  and  C10_10 
REMARK    2  A    between atoms: C10_10  and  C11_11 
ROOT
HETATM    1  C1  UNL     1     -34.740  14.246  -3.876  1.00 20.00     0.064 C 
HETATM    2  C2  UNL     1     -33.752  17.899  -4.473  1.00 20.00     0.002 C 
HETATM    3  C3  UNL     1     -34.678  16.682  -4.498  1.00 20.00     0.019 C 
HETATM    4  C4  UNL     1     -34.968  15.936  -2.049  1.00 20.00     0.019 C 
HETATM    5  C5  UNL     1     -34.006  18.896  -3.347  1.00 20.00     0.005 C 
HETATM    6  C6  UNL     1     -35.108  17.391  -1.601  1.00 20.00     0.006 C 
HETATM    7  C7  UNL     1     -34.331  15.651  -3.417  1.00 20.00     0.093 C 
HETATM    8  C8  UNL     1     -33.965  18.361  -1.910  1.00 20.00    -0.014 C 
HETATM    9  N12 UNL     1     -35.050  13.183  -4.223  1.00 20.00    -0.197 NA
ENDROOT
BRANCH   8  10
HETATM   10  C10 UNL     1     -32.644  17.824  -1.545  1.00 20.00     0.004 C 
BRANCH  10  11
HETATM   11  C11 UNL     1     -31.815  18.867  -0.810  1.00 20.00    -0.004 C 
HETATM   12  C9  UNL     1     -30.800  18.209   0.110  1.00 20.00     0.005 C 
ENDBRANCH  10  11
ENDBRANCH   8  10
TORSDOF 2
ENDMDL
MODEL 7
REMARK VINA RESULT:      -4.4      1.661      2.472
REMARK  2 active torsions:
REMARK  status: ('A' for Active; 'I' for Inactive)
REMARK    1  A    between atoms: C8_8  and  C10_10 
REMARK    2  A    between atoms: C10_10  and  C11_11 
ROOT
HETATM    1  C1  UNL     1     -35.783  14.946  -6.738  1.00 20.00     0.064 C 
HETATM    2  C2  UNL     1     -36.061  16.014  -3.070  1.00 20.00     0.002 C 
HETATM    3  C3  UNL     1     -36.102  15.037  -4.245  1.00 20.00     0.019 C 
HETATM    4  C4  UNL     1     -33.748  15.057  -5.292  1.00 20.00     0.019 C 
HETATM    5  C5  UNL     1     -34.795  15.968  -2.219  1.00 20.00     0.005 C 
HETATM    6  C6  UNL     1     -33.108  15.051  -3.904  1.00 20.00     0.006 C 
HETATM    7  C7  UNL     1     -35.218  15.482  -5.416  1.00 20.00     0.093 C 
HETATM    8  C8  UNL     1     -33.457  16.185  -2.936  1.00 20.00    -0.014 C 
HETATM    9  N12 UNL     1     -36.210  14.540  -7.738  1.00 20.00    -0.197 NA
ENDROOT
BRANCH   8  10
HETATM   10  C10 UNL     1     -33.357  17.517  -3.555  1.00 20.00     0.004 C 
BRANCH  10  11
HETATM   11  C11 UNL     1     -33.058  18.582  -2.510  1.00 20.00    -0.004 C 
HETATM   12  C9  UNL     1     -32.070  18.069  -1.475  1.00 20.00     0.005 C 
ENDBRANCH  10  11
ENDBRANCH   8  10
TORSDOF 2
ENDMDL
MODEL 8
REMARK VINA RESULT:      -4.3      3.699      5.911
REMARK  2 active torsions:
REMARK  status: ('A' for Active; 'I' for Inactive)
REMARK    1  A    between atoms: C8_8  and  C10_10 
REMARK    2  A    between atoms: C10_10  and  C11_11 
ROOT
HETATM    1  C1  UNL     1     -30.962  18.626   0.499  1.00 20.00     0.064 C 
HETATM    2  C2  UNL     1     -34.690  17.769   0.276  1.00 20.00     0.002 C 
HETATM    3  C3  UNL     1     -33.477  18.679   0.476  1.00 20.00     0.019 C 
HETATM    4  C4  UNL     1     -32.123  18.580  -1.714  1.00 20.00     0.019 C 
HETATM    5  C5  UNL     1     -35.357  17.853  -1.093  1.00 20.00     0.005 C 
HETATM    6  C6  UNL     1     -33.410  18.660  -2.536  1.00 20.00     0.006 C 
HETATM    7  C7  UNL     1     -32.224  18.161  -0.240  1.00 20.00     0.093 C 
HETATM    8  C8  UNL     1     -34.479  17.586  -2.321  1.00 20.00    -0.014 C 
HETATM    9  N12 UNL     1     -30.008  18.978   1.058  1.00 20.00    -0.197 NA
ENDROOT
BRANCH   8  10
HETATM   10  C10 UNL     1     -33.930  16.220  -2.337  1.00 20.00     0.004 C 
BRANCH  10  11
HETATM   11  C11 UNL     1     -33.507  15.818  -3.742  1.00 20.00    -0.004 C 
HETATM   12  C9  UNL     1     -34.035  14.438  -4.097  1.00 20.00     0.005 C 
ENDBRANCH  10  11
ENDBRANCH   8  10
TORSDOF 2
ENDMDL
MODEL 9
REMARK VINA RESULT:      -4.2      2.183      3.233
REMARK  2 active torsions:
REMARK  status: ('A' for Active; 'I' for Inactive)
REMARK    1  A    between atoms: C8_8  and  C10_10 
REMARK    2  A    between atoms: C10_10  and  C11_11 
ROOT
HETATM    1  C1  UNL     1     -34.534  14.495  -3.675  1.00 20.00     0.064 C 
HETATM    2  C2  UNL     1     -32.815  17.421  -1.898  1.00 20.00     0.002 C 
HETATM    3  C3  UNL     1     -33.361  16.644  -3.096  1.00 20.00     0.019 C 
HETATM    4  C4  UNL     1     -35.887  16.347  -2.683  1.00 20.00     0.019 C 
HETATM    5  C5  UNL     1     -33.694  18.564  -1.400  1.00 20.00     0.005 C 
HETATM    6  C6  UNL     1     -35.996  17.791  -2.191  1.00 20.00     0.006 C 
HETATM    7  C7  UNL     1     -34.500  15.690  -2.713  1.00 20.00     0.093 C 
HETATM    8  C8  UNL     1     -35.135  18.222  -1.002  1.00 20.00    -0.014 C 
HETATM    9  N12 UNL     1     -34.561  13.592  -4.403  1.00 20.00    -0.197 NA
ENDROOT
BRANCH   8  10
HETATM   10  C10 UNL     1     -35.201  17.278   0.125  1.00 20.00     0.004 C 
BRANCH  10  11
HETATM   11  C11 UNL     1     -34.554  17.868   1.369  1.00 20.00    -0.004 C 
HETATM   12  C9  UNL     1     -35.524  18.770   2.114  1.00 20.00     0.005 C 
ENDBRANCH  10  11
ENDBRANCH   8  10
TORSDOF 2
ENDMDL
