MODEL 1
REMARK VINA RESULT:      -4.2      0.000      0.000
REMARK  4 active torsions:
REMARK  status: ('A' for Active; 'I' for Inactive)
REMARK    1  A    between atoms: C5_5  and  C7_7 
REMARK    2  A    between atoms: C5_5  and  O10_10 
REMARK    3  A    between atoms: C6_6  and  C7_7 
REMARK    4  A    between atoms: C7_7  and  N8_8 
ROOT
HETATM    1  C1  UNL     1     -37.014  14.539  -4.131  1.00 20.00     0.332 C 
HETATM    2  N8  UNL     1     -36.357  15.432  -3.754  1.00 20.00    -0.240 NA
HETATM    3  O9  UNL     1     -37.682  13.648  -4.508  1.00 20.00    -0.260 OA
ENDROOT
BRANCH   2   4
HETATM    4  C7  UNL     1     -34.909  15.173  -3.805  1.00 20.00     0.139 C 
BRANCH   4   5
HETATM    5  C5  UNL     1     -34.372  15.740  -5.118  1.00 20.00     0.194 C 
BRANCH   5   6
HETATM    6  O10 UNL     1     -33.967  14.664  -5.958  1.00 20.00    -0.394 OA
HETATM    7  C4  UNL     1     -33.877  15.071  -7.315  1.00 20.00     0.201 C 
ENDBRANCH   5   6
ENDBRANCH   4   5
BRANCH   4   8
HETATM    8  C6  UNL     1     -34.224  15.779  -2.561  1.00 20.00     0.004 C 
HETATM    9  C2  UNL     1     -35.234  16.530  -1.684  1.00 20.00     0.012 C 
HETATM   10  C3  UNL     1     -33.043  16.695  -2.893  1.00 20.00     0.012 C 
ENDBRANCH   4   8
ENDBRANCH   2   4
TORSDOF 4
ENDMDL
MODEL 2
REMARK VINA RESULT:      -4.2      1.670      3.019
REMARK  4 active torsions:
REMARK  status: ('A' for Active; 'I' for Inactive)
REMARK    1  A    between atoms: C5_5  and  C7_7 
REMARK    2  A    between atoms: C5_5  and  O10_10 
REMARK    3  A    between atoms: C6_6  and  C7_7 
REMARK    4  A    between atoms: C7_7  and  N8_8 
ROOT
HETATM    1  C1  UNL     1     -35.452  14.732  -6.872  1.00 20.00     0.332 C 
HETATM    2  N8  UNL     1     -34.762  14.749  -5.927  1.00 20.00    -0.240 NA
HETATM    3  O9  UNL     1     -36.137  14.715  -7.828  1.00 20.00    -0.260 OA
ENDROOT
BRANCH   2   4
HETATM    4  C7  UNL     1     -35.495  14.787  -4.651  1.00 20.00     0.139 C 
BRANCH   4   5
HETATM    5  C5  UNL     1     -36.375  13.540  -4.572  1.00 20.00     0.194 C 
BRANCH   5   6
HETATM    6  O10 UNL     1     -37.659  13.908  -4.078  1.00 20.00    -0.394 OA
HETATM    7  C4  UNL     1     -38.008  15.226  -4.474  1.00 20.00     0.201 C 
ENDBRANCH   5   6
ENDBRANCH   4   5
BRANCH   4   8
HETATM    8  C6  UNL     1     -34.499  14.899  -3.477  1.00 20.00     0.004 C 
HETATM    9  C2  UNL     1     -35.023  15.850  -2.395  1.00 20.00     0.012 C 
HETATM   10  C3  UNL     1     -33.090  15.322  -3.902  1.00 20.00     0.012 C 
ENDBRANCH   4   8
ENDBRANCH   2   4
TORSDOF 4
ENDMDL
MODEL 3
REMARK VINA RESULT:      -4.0      1.534      3.232
REMARK  4 active torsions:
REMARK  status: ('A' for Active; 'I' for Inactive)
REMARK    1  A    between atoms: C5_5  and  C7_7 
REMARK    2  A    between atoms: C5_5  and  O10_10 
REMARK    3  A    between atoms: C6_6  and  C7_7 
REMARK    4  A    between atoms: C7_7  and  N8_8 
ROOT
HETATM    1  C1  UNL     1     -36.584  13.660  -4.531  1.00 20.00     0.332 C 
HETATM    2  N8  UNL     1     -35.417  13.573  -4.576  1.00 20.00    -0.240 NA
HETATM    3  O9  UNL     1     -37.756  13.738  -4.483  1.00 20.00    -0.260 OA
ENDROOT
BRANCH   2   4
HETATM    4  C7  UNL     1     -34.727  14.860  -4.756  1.00 20.00     0.139 C 
BRANCH   4   5
HETATM    5  C5  UNL     1     -33.248  14.654  -4.428  1.00 20.00     0.194 C 
BRANCH   5   6
HETATM    6  O10 UNL     1     -32.804  15.720  -3.594  1.00 20.00    -0.394 OA
HETATM    7  C4  UNL     1     -33.817  16.121  -2.682  1.00 20.00     0.201 C 
ENDBRANCH   5   6
ENDBRANCH   4   5
BRANCH   4   8
HETATM    8  C6  UNL     1     -34.960  15.385  -6.189  1.00 20.00     0.004 C 
HETATM    9  C2  UNL     1     -33.767  15.062  -7.097  1.00 20.00     0.012 C 
HETATM   10  C3  UNL     1     -35.271  16.882  -6.254  1.00 20.00     0.012 C 
ENDBRANCH   4   8
ENDBRANCH   2   4
TORSDOF 4
ENDMDL
MODEL 4
REMARK VINA RESULT:      -4.0      1.087      1.558
REMARK  4 active torsions:
REMARK  status: ('A' for Active; 'I' for Inactive)
REMARK    1  A    between atoms: C5_5  and  C7_7 
REMARK    2  A    between atoms: C5_5  and  O10_10 
REMARK    3  A    between atoms: C6_6  and  C7_7 
REMARK    4  A    between atoms: C7_7  and  N8_8 
ROOT
HETATM    1  C1  UNL     1     -35.843  13.627  -4.206  1.00 20.00     0.332 C 
HETATM    2  N8  UNL     1     -35.748  14.719  -3.793  1.00 20.00    -0.240 NA
HETATM    3  O9  UNL     1     -35.950  12.533  -4.621  1.00 20.00    -0.260 OA
ENDROOT
BRANCH   2   4
HETATM    4  C7  UNL     1     -34.374  15.104  -3.431  1.00 20.00     0.139 C 
BRANCH   4   5
HETATM    5  C5  UNL     1     -33.519  15.052  -4.696  1.00 20.00     0.194 C 
BRANCH   5   6
HETATM    6  O10 UNL     1     -34.106  15.887  -5.690  1.00 20.00    -0.394 OA
HETATM    7  C4  UNL     1     -34.055  15.280  -6.973  1.00 20.00     0.201 C 
ENDBRANCH   5   6
ENDBRANCH   4   5
BRANCH   4   8
HETATM    8  C6  UNL     1     -34.379  16.495  -2.762  1.00 20.00     0.004 C 
HETATM    9  C2  UNL     1     -32.950  17.000  -2.526  1.00 20.00     0.012 C 
HETATM   10  C3  UNL     1     -35.170  16.546  -1.452  1.00 20.00     0.012 C 
ENDBRANCH   4   8
ENDBRANCH   2   4
TORSDOF 4
ENDMDL
MODEL 5
REMARK VINA RESULT:      -3.9      1.704      2.022
REMARK  4 active torsions:
REMARK  status: ('A' for Active; 'I' for Inactive)
REMARK    1  A    between atoms: C5_5  and  C7_7 
REMARK    2  A    between atoms: C5_5  and  O10_10 
REMARK    3  A    between atoms: C6_6  and  C7_7 
REMARK    4  A    between atoms: C7_7  and  N8_8 
ROOT
HETATM    1  C1  UNL     1     -35.794  13.736  -4.261  1.00 20.00     0.332 C 
HETATM    2  N8  UNL     1     -35.761  14.856  -3.923  1.00 20.00    -0.240 NA
HETATM    3  O9  UNL     1     -35.838  12.610  -4.599  1.00 20.00    -0.260 OA
ENDROOT
BRANCH   2   4
HETATM    4  C7  UNL     1     -34.429  15.474  -4.027  1.00 20.00     0.139 C 
BRANCH   4   5
HETATM    5  C5  UNL     1     -34.510  16.604  -5.052  1.00 20.00     0.194 C 
BRANCH   5   6
HETATM    6  O10 UNL     1     -35.846  17.095  -5.098  1.00 20.00    -0.394 OA
HETATM    7  C4  UNL     1     -35.894  18.493  -4.857  1.00 20.00     0.201 C 
ENDBRANCH   5   6
ENDBRANCH   4   5
BRANCH   4   8
HETATM    8  C6  UNL     1     -33.963  15.952  -2.635  1.00 20.00     0.004 C 
HETATM    9  C2  UNL     1     -35.158  16.320  -1.748  1.00 20.00     0.012 C 
HETATM   10  C3  UNL     1     -32.975  17.121  -2.685  1.00 20.00     0.012 C 
ENDBRANCH   4   8
ENDBRANCH   2   4
TORSDOF 4
ENDMDL
MODEL 6
REMARK VINA RESULT:      -3.9     16.688     18.150
REMARK  4 active torsions:
REMARK  status: ('A' for Active; 'I' for Inactive)
REMARK    1  A    between atoms: C5_5  and  C7_7 
REMARK    2  A    between atoms: C5_5  and  O10_10 
REMARK    3  A    between atoms: C6_6  and  C7_7 
REMARK    4  A    between atoms: C7_7  and  N8_8 
ROOT
HETATM    1  C1  UNL     1     -24.513  18.935   8.038  1.00 20.00     0.332 C 
HETATM    2  N8  UNL     1     -24.470  18.862   9.206  1.00 20.00    -0.240 NA
HETATM    3  O9  UNL     1     -24.560  19.017   6.866  1.00 20.00    -0.260 OA
ENDROOT
BRANCH   2   4
HETATM    4  C7  UNL     1     -23.843  17.628   9.707  1.00 20.00     0.139 C 
BRANCH   4   5
HETATM    5  C5  UNL     1     -22.355  17.680   9.362  1.00 20.00     0.194 C 
BRANCH   5   6
HETATM    6  O10 UNL     1     -22.051  16.628   8.452  1.00 20.00    -0.394 OA
HETATM    7  C4  UNL     1     -21.293  17.100   7.349  1.00 20.00     0.201 C 
ENDBRANCH   5   6
ENDBRANCH   4   5
BRANCH   4   8
HETATM    8  C6  UNL     1     -24.108  17.482  11.220  1.00 20.00     0.004 C 
HETATM    9  C2  UNL     1     -22.842  17.775  12.034  1.00 20.00     0.012 C 
HETATM   10  C3  UNL     1     -24.676  16.117  11.617  1.00 20.00     0.012 C 
ENDBRANCH   4   8
ENDBRANCH   2   4
TORSDOF 4
ENDMDL
MODEL 7
REMARK VINA RESULT:      -3.6      1.808      3.209
REMARK  4 active torsions:
REMARK  status: ('A' for Active; 'I' for Inactive)
REMARK    1  A    between atoms: C5_5  and  C7_7 
REMARK    2  A    between atoms: C5_5  and  O10_10 
REMARK    3  A    between atoms: C6_6  and  C7_7 
REMARK    4  A    between atoms: C7_7  and  N8_8 
ROOT
HETATM    1  C1  UNL     1     -35.085  16.761  -6.230  1.00 20.00     0.332 C 
HETATM    2  N8  UNL     1     -34.744  15.725  -5.806  1.00 20.00    -0.240 NA
HETATM    3  O9  UNL     1     -35.421  17.801  -6.664  1.00 20.00    -0.260 OA
ENDROOT
BRANCH   2   4
HETATM    4  C7  UNL     1     -35.527  15.264  -4.649  1.00 20.00     0.139 C 
BRANCH   4   5
HETATM    5  C5  UNL     1     -36.241  13.971  -5.045  1.00 20.00     0.194 C 
BRANCH   5   6
HETATM    6  O10 UNL     1     -37.373  13.788  -4.201  1.00 20.00    -0.394 OA
HETATM    7  C4  UNL     1     -38.275  14.880  -4.300  1.00 20.00     0.201 C 
ENDBRANCH   5   6
ENDBRANCH   4   5
BRANCH   4   8
HETATM    8  C6  UNL     1     -34.604  15.092  -3.424  1.00 20.00     0.004 C 
HETATM    9  C2  UNL     1     -35.104  15.920  -2.234  1.00 20.00     0.012 C 
HETATM   10  C3  UNL     1     -33.136  15.425  -3.707  1.00 20.00     0.012 C 
ENDBRANCH   4   8
ENDBRANCH   2   4
TORSDOF 4
ENDMDL
MODEL 8
REMARK VINA RESULT:      -3.6      1.864      2.446
REMARK  4 active torsions:
REMARK  status: ('A' for Active; 'I' for Inactive)
REMARK    1  A    between atoms: C5_5  and  C7_7 
REMARK    2  A    between atoms: C5_5  and  O10_10 
REMARK    3  A    between atoms: C6_6  and  C7_7 
REMARK    4  A    between atoms: C7_7  and  N8_8 
ROOT
HETATM    1  C1  UNL     1     -35.464  17.172  -5.212  1.00 20.00     0.332 C 
HETATM    2  N8  UNL     1     -34.471  16.791  -4.723  1.00 20.00    -0.240 NA
HETATM    3  O9  UNL     1     -36.456  17.561  -5.710  1.00 20.00    -0.260 OA
ENDROOT
BRANCH   2   4
HETATM    4  C7  UNL     1     -34.660  15.702  -3.753  1.00 20.00     0.139 C 
BRANCH   4   5
HETATM    5  C5  UNL     1     -34.013  14.441  -4.324  1.00 20.00     0.194 C 
BRANCH   5   6
HETATM    6  O10 UNL     1     -34.870  13.329  -4.086  1.00 20.00    -0.394 OA
HETATM    7  C4  UNL     1     -36.186  13.580  -4.556  1.00 20.00     0.201 C 
ENDBRANCH   5   6
ENDBRANCH   4   5
BRANCH   4   8
HETATM    8  C6  UNL     1     -34.079  16.112  -2.383  1.00 20.00     0.004 C 
HETATM    9  C2  UNL     1     -35.184  16.594  -1.435  1.00 20.00     0.012 C 
HETATM   10  C3  UNL     1     -32.975  17.169  -2.474  1.00 20.00     0.012 C 
ENDBRANCH   4   8
ENDBRANCH   2   4
TORSDOF 4
ENDMDL
MODEL 9
REMARK VINA RESULT:      -3.5      1.760      3.322
REMARK  4 active torsions:
REMARK  status: ('A' for Active; 'I' for Inactive)
REMARK    1  A    between atoms: C5_5  and  C7_7 
REMARK    2  A    between atoms: C5_5  and  O10_10 
REMARK    3  A    between atoms: C6_6  and  C7_7 
REMARK    4  A    between atoms: C7_7  and  N8_8 
ROOT
HETATM    1  C1  UNL     1     -37.045  14.122  -4.288  1.00 20.00     0.332 C 
HETATM    2  N8  UNL     1     -35.904  14.317  -4.109  1.00 20.00    -0.240 NA
HETATM    3  O9  UNL     1     -38.189  13.917  -4.463  1.00 20.00    -0.260 OA
ENDROOT
BRANCH   2   4
HETATM    4  C7  UNL     1     -35.438  15.628  -4.589  1.00 20.00     0.139 C 
BRANCH   4   5
HETATM    5  C5  UNL     1     -35.510  16.612  -3.422  1.00 20.00     0.194 C 
BRANCH   5   6
HETATM    6  O10 UNL     1     -35.230  15.918  -2.210  1.00 20.00    -0.394 OA
HETATM    7  C4  UNL     1     -35.097  16.816  -1.118  1.00 20.00     0.201 C 
ENDBRANCH   5   6
ENDBRANCH   4   5
BRANCH   4   8
HETATM    8  C6  UNL     1     -34.019  15.495  -5.180  1.00 20.00     0.004 C 
HETATM    9  C2  UNL     1     -34.071  15.077  -6.655  1.00 20.00     0.012 C 
HETATM   10  C3  UNL     1     -33.113  14.538  -4.401  1.00 20.00     0.012 C 
ENDBRANCH   4   8
ENDBRANCH   2   4
TORSDOF 4
ENDMDL
