MODEL 1
REMARK VINA RESULT:      -4.6      0.000      0.000
REMARK  3 active torsions:
REMARK  status: ('A' for Active; 'I' for Inactive)
REMARK    1  A    between atoms: C4_4  and  C9_9 
REMARK    2  A    between atoms: C8_8  and  C9_9 
REMARK    3  A    between atoms: C9_9  and  O10_10 
ROOT
HETATM    1  C9  UNL     1     -35.993  14.124  -4.250  1.00 20.00     0.155 C 
ENDROOT
BRANCH   1   2
HETATM    2  C4  UNL     1     -36.215  14.934  -5.508  1.00 20.00    -0.022 A 
HETATM    3  C1  UNL     1     -35.646  14.608  -6.773  1.00 20.00     0.017 A 
HETATM    4  C2  UNL     1     -36.006  15.509  -7.751  1.00 20.00     0.050 A 
HETATM    5  S11 UNL     1     -37.027  16.742  -7.142  1.00 20.00    -0.113 SA
HETATM    6  C3  UNL     1     -36.989  16.072  -5.568  1.00 20.00     0.059 A 
ENDBRANCH   1   2
BRANCH   1   7
HETATM    7  C8  UNL     1     -34.741  14.537  -3.504  1.00 20.00     0.019 C 
HETATM    8  C6  UNL     1     -34.872  15.748  -2.543  1.00 20.00     0.007 C 
HETATM    9  C5  UNL     1     -33.450  16.154  -2.982  1.00 20.00     0.001 C 
HETATM   10  C7  UNL     1     -33.710  15.385  -4.294  1.00 20.00     0.007 C 
ENDBRANCH   1   7
BRANCH   1  11
HETATM   11  O10 UNL     1     -35.888  12.749  -4.620  1.00 20.00    -0.391 OA
HETATM   12  H23 UNL     1     -36.567  12.595  -5.294  1.00 20.00     0.210 HD
ENDBRANCH   1  11
TORSDOF 3
ENDMDL
MODEL 2
REMARK VINA RESULT:      -4.5      3.964      5.933
REMARK  3 active torsions:
REMARK  status: ('A' for Active; 'I' for Inactive)
REMARK    1  A    between atoms: C4_4  and  C9_9 
REMARK    2  A    between atoms: C8_8  and  C9_9 
REMARK    3  A    between atoms: C9_9  and  O10_10 
ROOT
HETATM    1  C9  UNL     1     -33.665  17.409  -2.730  1.00 20.00     0.155 C 
ENDROOT
BRANCH   1   2
HETATM    2  C4  UNL     1     -33.121  17.900  -1.407  1.00 20.00    -0.022 A 
HETATM    3  C1  UNL     1     -31.751  18.218  -1.179  1.00 20.00     0.017 A 
HETATM    4  C2  UNL     1     -31.524  18.640   0.112  1.00 20.00     0.050 A 
HETATM    5  S11 UNL     1     -32.961  18.653   1.044  1.00 20.00    -0.113 SA
HETATM    6  C3  UNL     1     -33.890  18.093  -0.279  1.00 20.00     0.059 A 
ENDBRANCH   1   2
BRANCH   1   7
HETATM    7  C8  UNL     1     -33.887  15.910  -2.749  1.00 20.00     0.019 C 
HETATM    8  C6  UNL     1     -33.382  15.149  -4.002  1.00 20.00     0.007 C 
HETATM    9  C5  UNL     1     -34.628  14.250  -3.867  1.00 20.00     0.001 C 
HETATM   10  C7  UNL     1     -35.309  15.425  -3.134  1.00 20.00     0.007 C 
ENDBRANCH   1   7
BRANCH   1  11
HETATM   11  O10 UNL     1     -32.730  17.758  -3.751  1.00 20.00    -0.391 OA
HETATM   12  H23 UNL     1     -32.732  18.726  -3.803  1.00 20.00     0.210 HD
ENDBRANCH   1  11
TORSDOF 3
ENDMDL
MODEL 3
REMARK VINA RESULT:      -4.5      4.008      5.999
REMARK  3 active torsions:
REMARK  status: ('A' for Active; 'I' for Inactive)
REMARK    1  A    between atoms: C4_4  and  C9_9 
REMARK    2  A    between atoms: C8_8  and  C9_9 
REMARK    3  A    between atoms: C9_9  and  O10_10 
ROOT
HETATM    1  C9  UNL     1     -33.665  17.398  -2.753  1.00 20.00     0.155 C 
ENDROOT
BRANCH   1   2
HETATM    2  C4  UNL     1     -33.113  17.891  -1.434  1.00 20.00    -0.022 A 
HETATM    3  C1  UNL     1     -33.897  18.054  -0.255  1.00 20.00     0.017 A 
HETATM    4  C2  UNL     1     -33.150  18.518   0.804  1.00 20.00     0.050 A 
HETATM    5  S11 UNL     1     -31.509  18.755   0.377  1.00 20.00    -0.113 SA
HETATM    6  C3  UNL     1     -31.795  18.238  -1.229  1.00 20.00     0.059 A 
ENDBRANCH   1   2
BRANCH   1   7
HETATM    7  C8  UNL     1     -33.889  15.900  -2.767  1.00 20.00     0.019 C 
HETATM    8  C6  UNL     1     -33.381  15.133  -4.017  1.00 20.00     0.007 C 
HETATM    9  C5  UNL     1     -34.630  14.236  -3.882  1.00 20.00     0.001 C 
HETATM   10  C7  UNL     1     -35.311  15.415  -3.155  1.00 20.00     0.007 C 
ENDBRANCH   1   7
BRANCH   1  11
HETATM   11  O10 UNL     1     -32.734  17.743  -3.780  1.00 20.00    -0.391 OA
HETATM   12  H23 UNL     1     -32.909  18.669  -4.006  1.00 20.00     0.210 HD
ENDBRANCH   1  11
TORSDOF 3
ENDMDL
MODEL 4
REMARK VINA RESULT:      -4.4      2.359      4.347
REMARK  3 active torsions:
REMARK  status: ('A' for Active; 'I' for Inactive)
REMARK    1  A    between atoms: C4_4  and  C9_9 
REMARK    2  A    between atoms: C8_8  and  C9_9 
REMARK    3  A    between atoms: C9_9  and  O10_10 
ROOT
HETATM    1  C9  UNL     1     -33.724  15.009  -4.519  1.00 20.00     0.155 C 
ENDROOT
BRANCH   1   2
HETATM    2  C4  UNL     1     -33.927  15.874  -3.294  1.00 20.00    -0.022 A 
HETATM    3  C1  UNL     1     -35.052  15.770  -2.426  1.00 20.00     0.017 A 
HETATM    4  C2  UNL     1     -34.990  16.675  -1.388  1.00 20.00     0.050 A 
HETATM    5  S11 UNL     1     -33.580  17.643  -1.464  1.00 20.00    -0.113 SA
HETATM    6  C3  UNL     1     -33.048  16.854  -2.886  1.00 20.00     0.059 A 
ENDBRANCH   1   2
BRANCH   1   7
HETATM    7  C8  UNL     1     -34.499  15.509  -5.720  1.00 20.00     0.019 C 
HETATM    8  C6  UNL     1     -35.764  14.703  -6.117  1.00 20.00     0.007 C 
HETATM    9  C5  UNL     1     -35.393  14.986  -7.587  1.00 20.00     0.001 C 
HETATM   10  C7  UNL     1     -33.931  15.138  -7.116  1.00 20.00     0.007 C 
ENDBRANCH   1   7
BRANCH   1  11
HETATM   11  O10 UNL     1     -34.153  13.684  -4.202  1.00 20.00    -0.391 OA
HETATM   12  H23 UNL     1     -34.193  13.635  -3.235  1.00 20.00     0.210 HD
ENDBRANCH   1  11
TORSDOF 3
ENDMDL
MODEL 5
REMARK VINA RESULT:      -4.3      2.446      3.384
REMARK  3 active torsions:
REMARK  status: ('A' for Active; 'I' for Inactive)
REMARK    1  A    between atoms: C4_4  and  C9_9 
REMARK    2  A    between atoms: C8_8  and  C9_9 
REMARK    3  A    between atoms: C9_9  and  O10_10 
ROOT
HETATM    1  C9  UNL     1     -33.847  15.952  -2.768  1.00 20.00     0.155 C 
ENDROOT
BRANCH   1   2
HETATM    2  C4  UNL     1     -35.014  15.271  -3.448  1.00 20.00    -0.022 A 
HETATM    3  C1  UNL     1     -34.970  13.943  -3.962  1.00 20.00     0.017 A 
HETATM    4  C2  UNL     1     -36.166  13.567  -4.532  1.00 20.00     0.050 A 
HETATM    5  S11 UNL     1     -37.337  14.814  -4.446  1.00 20.00    -0.113 SA
HETATM    6  C3  UNL     1     -36.244  15.860  -3.646  1.00 20.00     0.059 A 
ENDBRANCH   1   2
BRANCH   1   7
HETATM    7  C8  UNL     1     -34.257  17.204  -2.020  1.00 20.00     0.019 C 
HETATM    8  C6  UNL     1     -33.149  17.922  -1.206  1.00 20.00     0.007 C 
HETATM    9  C5  UNL     1     -34.230  18.232  -0.150  1.00 20.00     0.001 C 
HETATM   10  C7  UNL     1     -34.994  16.997  -0.671  1.00 20.00     0.007 C 
ENDBRANCH   1   7
BRANCH   1  11
HETATM   11  O10 UNL     1     -32.889  16.296  -3.770  1.00 20.00    -0.391 OA
HETATM   12  H23 UNL     1     -33.092  15.745  -4.541  1.00 20.00     0.210 HD
ENDBRANCH   1  11
TORSDOF 3
ENDMDL
MODEL 6
REMARK VINA RESULT:      -4.2      1.236      1.290
REMARK  3 active torsions:
REMARK  status: ('A' for Active; 'I' for Inactive)
REMARK    1  A    between atoms: C4_4  and  C9_9 
REMARK    2  A    between atoms: C8_8  and  C9_9 
REMARK    3  A    between atoms: C9_9  and  O10_10 
ROOT
HETATM    1  C9  UNL     1     -35.276  14.525  -4.049  1.00 20.00     0.155 C 
ENDROOT
BRANCH   1   2
HETATM    2  C4  UNL     1     -35.080  15.212  -5.382  1.00 20.00    -0.022 A 
HETATM    3  C1  UNL     1     -34.053  14.872  -6.309  1.00 20.00     0.017 A 
HETATM    4  C2  UNL     1     -34.098  15.652  -7.443  1.00 20.00     0.050 A 
HETATM    5  S11 UNL     1     -35.377  16.790  -7.388  1.00 20.00    -0.113 SA
HETATM    6  C3  UNL     1     -35.872  16.240  -5.845  1.00 20.00     0.059 A 
ENDBRANCH   1   2
BRANCH   1   7
HETATM    7  C8  UNL     1     -34.437  15.140  -2.948  1.00 20.00     0.019 C 
HETATM    8  C6  UNL     1     -35.071  16.321  -2.167  1.00 20.00     0.007 C 
HETATM    9  C5  UNL     1     -33.663  16.948  -2.118  1.00 20.00     0.001 C 
HETATM   10  C7  UNL     1     -33.334  16.138  -3.390  1.00 20.00     0.007 C 
ENDBRANCH   1   7
BRANCH   1  11
HETATM   11  O10 UNL     1     -34.918  13.151  -4.201  1.00 20.00    -0.391 OA
HETATM   12  H23 UNL     1     -33.959  13.134  -4.341  1.00 20.00     0.210 HD
ENDBRANCH   1  11
TORSDOF 3
ENDMDL
MODEL 7
REMARK VINA RESULT:      -4.2      3.920      5.741
REMARK  3 active torsions:
REMARK  status: ('A' for Active; 'I' for Inactive)
REMARK    1  A    between atoms: C4_4  and  C9_9 
REMARK    2  A    between atoms: C8_8  and  C9_9 
REMARK    3  A    between atoms: C9_9  and  O10_10 
ROOT
HETATM    1  C9  UNL     1     -35.113  16.988  -2.085  1.00 20.00     0.155 C 
ENDROOT
BRANCH   1   2
HETATM    2  C4  UNL     1     -34.591  17.500  -0.761  1.00 20.00    -0.022 A 
HETATM    3  C1  UNL     1     -33.343  18.169  -0.603  1.00 20.00     0.017 A 
HETATM    4  C2  UNL     1     -33.109  18.529   0.705  1.00 20.00     0.050 A 
HETATM    5  S11 UNL     1     -34.393  18.062   1.738  1.00 20.00    -0.113 SA
HETATM    6  C3  UNL     1     -35.264  17.375   0.435  1.00 20.00     0.059 A 
ENDBRANCH   1   2
BRANCH   1   7
HETATM    7  C8  UNL     1     -34.429  15.710  -2.527  1.00 20.00     0.019 C 
HETATM    8  C6  UNL     1     -33.245  15.863  -3.517  1.00 20.00     0.007 C 
HETATM    9  C5  UNL     1     -33.735  14.563  -4.188  1.00 20.00     0.001 C 
HETATM   10  C7  UNL     1     -35.139  14.891  -3.637  1.00 20.00     0.007 C 
ENDBRANCH   1   7
BRANCH   1  11
HETATM   11  O10 UNL     1     -34.897  18.001  -3.068  1.00 20.00    -0.391 OA
HETATM   12  H23 UNL     1     -35.739  18.110  -3.536  1.00 20.00     0.210 HD
ENDBRANCH   1  11
TORSDOF 3
ENDMDL
MODEL 8
REMARK VINA RESULT:      -4.2     10.886     12.223
REMARK  3 active torsions:
REMARK  status: ('A' for Active; 'I' for Inactive)
REMARK    1  A    between atoms: C4_4  and  C9_9 
REMARK    2  A    between atoms: C8_8  and  C9_9 
REMARK    3  A    between atoms: C9_9  and  O10_10 
ROOT
HETATM    1  C9  UNL     1     -32.707   7.646   3.154  1.00 20.00     0.155 C 
ENDROOT
BRANCH   1   2
HETATM    2  C4  UNL     1     -33.501   6.588   3.889  1.00 20.00    -0.022 A 
HETATM    3  C1  UNL     1     -33.929   5.364   3.300  1.00 20.00     0.017 A 
HETATM    4  C2  UNL     1     -34.635   4.581   4.186  1.00 20.00     0.050 A 
HETATM    5  S11 UNL     1     -34.779   5.323   5.723  1.00 20.00    -0.113 SA
HETATM    6  C3  UNL     1     -33.896   6.694   5.205  1.00 20.00     0.059 A 
ENDBRANCH   1   2
BRANCH   1   7
HETATM    7  C8  UNL     1     -33.108   7.771   1.699  1.00 20.00     0.019 C 
HETATM    8  C6  UNL     1     -31.962   7.715   0.654  1.00 20.00     0.007 C 
HETATM    9  C5  UNL     1     -32.746   8.770  -0.153  1.00 20.00     0.001 C 
HETATM   10  C7  UNL     1     -33.396   9.204   1.179  1.00 20.00     0.007 C 
ENDBRANCH   1   7
BRANCH   1  11
HETATM   11  O10 UNL     1     -31.324   7.296   3.232  1.00 20.00    -0.391 OA
HETATM   12  H23 UNL     1     -31.207   6.836   4.077  1.00 20.00     0.210 HD
ENDBRANCH   1  11
TORSDOF 3
ENDMDL
MODEL 9
REMARK VINA RESULT:      -4.1      3.053      4.817
REMARK  3 active torsions:
REMARK  status: ('A' for Active; 'I' for Inactive)
REMARK    1  A    between atoms: C4_4  and  C9_9 
REMARK    2  A    between atoms: C8_8  and  C9_9 
REMARK    3  A    between atoms: C9_9  and  O10_10 
ROOT
HETATM    1  C9  UNL     1     -34.937  15.591  -2.660  1.00 20.00     0.155 C 
ENDROOT
BRANCH   1   2
HETATM    2  C4  UNL     1     -34.554  16.663  -1.664  1.00 20.00    -0.022 A 
HETATM    3  C1  UNL     1     -33.365  17.442  -1.752  1.00 20.00     0.017 A 
HETATM    4  C2  UNL     1     -33.259  18.346  -0.718  1.00 20.00     0.050 A 
HETATM    5  S11 UNL     1     -34.592  18.254   0.353  1.00 20.00    -0.113 SA
HETATM    6  C3  UNL     1     -35.313  17.003  -0.565  1.00 20.00     0.059 A 
ENDBRANCH   1   2
BRANCH   1   7
HETATM    7  C8  UNL     1     -34.225  15.747  -3.988  1.00 20.00     0.019 C 
HETATM    8  C6  UNL     1     -35.066  15.478  -5.264  1.00 20.00     0.007 C 
HETATM    9  C5  UNL     1     -33.797  14.852  -5.878  1.00 20.00     0.001 C 
HETATM   10  C7  UNL     1     -33.325  14.566  -4.437  1.00 20.00     0.007 C 
ENDBRANCH   1   7
BRANCH   1  11
HETATM   11  O10 UNL     1     -36.347  15.665  -2.872  1.00 20.00    -0.391 OA
HETATM   12  H23 UNL     1     -36.473  15.818  -3.821  1.00 20.00     0.210 HD
ENDBRANCH   1  11
TORSDOF 3
ENDMDL
