MODEL 1
REMARK VINA RESULT:      -4.8      0.000      0.000
REMARK  1 active torsions:
REMARK  status: ('A' for Active; 'I' for Inactive)
REMARK    1  A    between atoms: C7_7  and  C10_10 
ROOT
HETATM    1  C1  UNL     1     -36.243  14.132  -4.308  1.00 20.00     0.004 C 
HETATM    2  C2  UNL     1     -36.153  15.364  -3.408  1.00 20.00     0.005 C 
HETATM    3  C3  UNL     1     -33.616  15.800  -3.595  1.00 20.00     0.007 C 
HETATM    4  C4  UNL     1     -35.734  14.355  -5.728  1.00 20.00     0.040 C 
HETATM    5  C5  UNL     1     -33.384  14.775  -4.705  1.00 20.00     0.040 C 
HETATM    6  C6  UNL     1     -34.118  16.066  -6.839  1.00 20.00     0.207 A 
HETATM    7  C7  UNL     1     -34.807  15.490  -2.674  1.00 20.00    -0.015 C 
HETATM    8  C8  UNL     1     -34.358  14.951  -5.836  1.00 20.00     0.082 A 
HETATM    9  O11 UNL     1     -33.762  14.714  -7.128  1.00 20.00    -0.375 OA
ENDROOT
BRANCH   7  10
HETATM   10  C10 UNL     1     -34.909  16.576  -1.597  1.00 20.00     0.000 C 
HETATM   11  C9  UNL     1     -33.685  17.428  -1.564  1.00 20.00     0.005 C 
ENDBRANCH   7  10
TORSDOF 1
ENDMDL
MODEL 2
REMARK VINA RESULT:      -4.7      1.353      1.695
REMARK  1 active torsions:
REMARK  status: ('A' for Active; 'I' for Inactive)
REMARK    1  A    between atoms: C7_7  and  C10_10 
ROOT
HETATM    1  C1  UNL     1     -37.378  16.212  -3.820  1.00 20.00     0.004 C 
HETATM    2  C2  UNL     1     -36.179  16.961  -3.239  1.00 20.00     0.005 C 
HETATM    3  C3  UNL     1     -34.452  15.044  -3.308  1.00 20.00     0.007 C 
HETATM    4  C4  UNL     1     -37.135  15.619  -5.203  1.00 20.00     0.040 C 
HETATM    5  C5  UNL     1     -35.336  14.094  -4.115  1.00 20.00     0.040 C 
HETATM    6  C6  UNL     1     -35.014  14.942  -6.551  1.00 20.00     0.207 A 
HETATM    7  C7  UNL     1     -35.219  16.058  -2.445  1.00 20.00    -0.015 C 
HETATM    8  C8  UNL     1     -35.904  14.764  -5.334  1.00 20.00     0.082 A 
HETATM    9  O11 UNL     1     -35.971  13.884  -6.474  1.00 20.00    -0.375 OA
ENDROOT
BRANCH   7  10
HETATM   10  C10 UNL     1     -34.218  16.925  -1.674  1.00 20.00     0.000 C 
HETATM   11  C9  UNL     1     -32.965  17.137  -2.454  1.00 20.00     0.005 C 
ENDBRANCH   7  10
TORSDOF 1
ENDMDL
MODEL 3
REMARK VINA RESULT:      -4.5      1.445      2.600
REMARK  1 active torsions:
REMARK  status: ('A' for Active; 'I' for Inactive)
REMARK    1  A    between atoms: C7_7  and  C10_10 
ROOT
HETATM    1  C1  UNL     1     -33.358  15.861  -3.400  1.00 20.00     0.004 C 
HETATM    2  C2  UNL     1     -34.259  16.190  -2.210  1.00 20.00     0.005 C 
HETATM    3  C3  UNL     1     -36.449  16.653  -3.496  1.00 20.00     0.007 C 
HETATM    4  C4  UNL     1     -33.853  14.703  -4.259  1.00 20.00     0.040 C 
HETATM    5  C5  UNL     1     -35.921  16.161  -4.844  1.00 20.00     0.040 C 
HETATM    6  C6  UNL     1     -36.168  13.581  -4.650  1.00 20.00     0.207 A 
HETATM    7  C7  UNL     1     -35.372  17.198  -2.545  1.00 20.00    -0.015 C 
HETATM    8  C8  UNL     1     -35.278  14.808  -4.729  1.00 20.00     0.082 A 
HETATM    9  O11 UNL     1     -35.537  13.968  -5.872  1.00 20.00    -0.375 OA
ENDROOT
BRANCH   7  10
HETATM   10  C10 UNL     1     -36.037  17.677  -1.250  1.00 20.00     0.000 C 
HETATM   11  C9  UNL     1     -35.341  17.140  -0.046  1.00 20.00     0.005 C 
ENDBRANCH   7  10
TORSDOF 1
ENDMDL
MODEL 4
REMARK VINA RESULT:      -4.4      1.449      1.860
REMARK  1 active torsions:
REMARK  status: ('A' for Active; 'I' for Inactive)
REMARK    1  A    between atoms: C7_7  and  C10_10 
ROOT
HETATM    1  C1  UNL     1     -35.116  13.834  -4.005  1.00 20.00     0.004 C 
HETATM    2  C2  UNL     1     -34.853  15.029  -3.090  1.00 20.00     0.005 C 
HETATM    3  C3  UNL     1     -34.149  16.747  -4.883  1.00 20.00     0.007 C 
HETATM    4  C4  UNL     1     -36.157  14.092  -5.088  1.00 20.00     0.040 C 
HETATM    5  C5  UNL     1     -34.538  15.868  -6.072  1.00 20.00     0.040 C 
HETATM    6  C6  UNL     1     -37.108  16.227  -6.234  1.00 20.00     0.207 A 
HETATM    7  C7  UNL     1     -33.757  15.973  -3.614  1.00 20.00    -0.015 C 
HETATM    8  C8  UNL     1     -35.929  15.320  -5.927  1.00 20.00     0.082 A 
HETATM    9  O11 UNL     1     -36.641  15.263  -7.179  1.00 20.00    -0.375 OA
ENDROOT
BRANCH   7  10
HETATM   10  C10 UNL     1     -33.368  16.969  -2.516  1.00 20.00     0.000 C 
HETATM   11  C9  UNL     1     -34.410  17.044  -1.452  1.00 20.00     0.005 C 
ENDBRANCH   7  10
TORSDOF 1
ENDMDL
MODEL 5
REMARK VINA RESULT:      -4.3     11.264     12.799
REMARK  1 active torsions:
REMARK  status: ('A' for Active; 'I' for Inactive)
REMARK    1  A    between atoms: C7_7  and  C10_10 
ROOT
HETATM    1  C1  UNL     1     -42.934   5.394   1.320  1.00 20.00     0.004 C 
HETATM    2  C2  UNL     1     -42.799   6.896   1.072  1.00 20.00     0.005 C 
HETATM    3  C3  UNL     1     -41.144   6.817  -0.907  1.00 20.00     0.007 C 
HETATM    4  C4  UNL     1     -43.417   4.600   0.112  1.00 20.00     0.040 C 
HETATM    5  C5  UNL     1     -41.226   5.302  -1.092  1.00 20.00     0.040 C 
HETATM    6  C6  UNL     1     -43.417   5.009  -2.458  1.00 20.00     0.207 A 
HETATM    7  C7  UNL     1     -41.421   7.305   0.524  1.00 20.00    -0.015 C 
HETATM    8  C8  UNL     1     -42.649   4.826  -1.161  1.00 20.00     0.082 A 
HETATM    9  O11 UNL     1     -42.834   3.753  -2.107  1.00 20.00    -0.375 OA
ENDROOT
BRANCH   7  10
HETATM   10  C10 UNL     1     -41.281   8.831   0.573  1.00 20.00     0.000 C 
HETATM   11  C9  UNL     1     -42.419   9.506  -0.114  1.00 20.00     0.005 C 
ENDBRANCH   7  10
TORSDOF 1
ENDMDL
MODEL 6
REMARK VINA RESULT:      -4.3      3.012      5.275
REMARK  1 active torsions:
REMARK  status: ('A' for Active; 'I' for Inactive)
REMARK    1  A    between atoms: C7_7  and  C10_10 
ROOT
HETATM    1  C1  UNL     1     -32.503  17.864  -1.589  1.00 20.00     0.004 C 
HETATM    2  C2  UNL     1     -32.911  17.190  -2.899  1.00 20.00     0.005 C 
HETATM    3  C3  UNL     1     -35.150  16.163  -2.127  1.00 20.00     0.007 C 
HETATM    4  C4  UNL     1     -33.519  18.869  -1.059  1.00 20.00     0.040 C 
HETATM    5  C5  UNL     1     -35.174  16.887  -0.781  1.00 20.00     0.040 C 
HETATM    6  C6  UNL     1     -36.070  19.244  -1.413  1.00 20.00     0.207 A 
HETATM    7  C7  UNL     1     -33.744  15.913  -2.696  1.00 20.00    -0.015 C 
HETATM    8  C8  UNL     1     -34.930  18.361  -0.937  1.00 20.00     0.082 A 
HETATM    9  O11 UNL     1     -35.719  19.157  -0.031  1.00 20.00    -0.375 OA
ENDROOT
BRANCH   7  10
HETATM   10  C10 UNL     1     -33.865  15.162  -4.027  1.00 20.00     0.000 C 
HETATM   11  C9  UNL     1     -34.909  14.100  -3.962  1.00 20.00     0.005 C 
ENDBRANCH   7  10
TORSDOF 1
ENDMDL
MODEL 7
REMARK VINA RESULT:      -4.0      2.822      4.880
REMARK  1 active torsions:
REMARK  status: ('A' for Active; 'I' for Inactive)
REMARK    1  A    between atoms: C7_7  and  C10_10 
ROOT
HETATM    1  C1  UNL     1     -35.235  17.184  -1.266  1.00 20.00     0.004 C 
HETATM    2  C2  UNL     1     -34.777  15.886  -1.931  1.00 20.00     0.005 C 
HETATM    3  C3  UNL     1     -32.920  16.855  -3.438  1.00 20.00     0.007 C 
HETATM    4  C4  UNL     1     -34.133  17.931  -0.525  1.00 20.00     0.040 C 
HETATM    5  C5  UNL     1     -32.954  18.251  -2.817  1.00 20.00     0.040 C 
HETATM    6  C6  UNL     1     -31.534  17.953  -0.660  1.00 20.00     0.207 A 
HETATM    7  C7  UNL     1     -34.247  16.084  -3.361  1.00 20.00    -0.015 C 
HETATM    8  C8  UNL     1     -32.882  18.193  -1.317  1.00 20.00     0.082 A 
HETATM    9  O11 UNL     1     -32.095  19.263  -0.755  1.00 20.00    -0.375 OA
ENDROOT
BRANCH   7  10
HETATM   10  C10 UNL     1     -34.080  14.720  -4.041  1.00 20.00     0.000 C 
HETATM   11  C9  UNL     1     -35.383  14.007  -4.161  1.00 20.00     0.005 C 
ENDBRANCH   7  10
TORSDOF 1
ENDMDL
MODEL 8
REMARK VINA RESULT:      -4.0      2.114      3.737
REMARK  1 active torsions:
REMARK  status: ('A' for Active; 'I' for Inactive)
REMARK    1  A    between atoms: C7_7  and  C10_10 
ROOT
HETATM    1  C1  UNL     1     -33.806  14.242  -4.217  1.00 20.00     0.004 C 
HETATM    2  C2  UNL     1     -35.147  14.632  -4.837  1.00 20.00     0.005 C 
HETATM    3  C3  UNL     1     -36.069  16.069  -2.901  1.00 20.00     0.007 C 
HETATM    4  C4  UNL     1     -32.930  15.427  -3.825  1.00 20.00     0.040 C 
HETATM    5  C5  UNL     1     -34.763  16.077  -2.105  1.00 20.00     0.040 C 
HETATM    6  C6  UNL     1     -33.382  17.933  -3.291  1.00 20.00     0.207 A 
HETATM    7  C7  UNL     1     -36.265  14.837  -3.800  1.00 20.00    -0.015 C 
HETATM    8  C8  UNL     1     -33.592  16.465  -2.963  1.00 20.00     0.082 A 
HETATM    9  O11 UNL     1     -32.634  17.284  -2.262  1.00 20.00    -0.375 OA
ENDROOT
BRANCH   7  10
HETATM   10  C10 UNL     1     -37.616  14.944  -4.515  1.00 20.00     0.000 C 
HETATM   11  C9  UNL     1     -37.623  16.058  -5.506  1.00 20.00     0.005 C 
ENDBRANCH   7  10
TORSDOF 1
ENDMDL
MODEL 9
REMARK VINA RESULT:      -4.0      3.926      6.407
REMARK  1 active torsions:
REMARK  status: ('A' for Active; 'I' for Inactive)
REMARK    1  A    between atoms: C7_7  and  C10_10 
ROOT
HETATM    1  C1  UNL     1     -35.946  17.843   0.045  1.00 20.00     0.004 C 
HETATM    2  C2  UNL     1     -35.158  16.853  -0.812  1.00 20.00     0.005 C 
HETATM    3  C3  UNL     1     -32.885  18.076  -0.831  1.00 20.00     0.007 C 
HETATM    4  C4  UNL     1     -35.344  18.096   1.422  1.00 20.00     0.040 C 
HETATM    5  C5  UNL     1     -33.284  19.117   0.215  1.00 20.00     0.040 C 
HETATM    6  C6  UNL     1     -32.969  17.831   2.453  1.00 20.00     0.207 A 
HETATM    7  C7  UNL     1     -34.055  17.515  -1.655  1.00 20.00    -0.015 C 
HETATM    8  C8  UNL     1     -33.889  18.479   1.433  1.00 20.00     0.082 A 
HETATM    9  O11 UNL     1     -33.509  19.137   2.658  1.00 20.00    -0.375 OA
ENDROOT
BRANCH   7  10
HETATM   10  C10 UNL     1     -33.515  16.508  -2.677  1.00 20.00     0.000 C 
HETATM   11  C9  UNL     1     -34.498  15.419  -2.943  1.00 20.00     0.005 C 
ENDBRANCH   7  10
TORSDOF 1
ENDMDL
