MODEL 1
REMARK VINA RESULT:      -4.8      0.000      0.000
REMARK  1 active torsions:
REMARK  status: ('A' for Active; 'I' for Inactive)
REMARK    1  A    between atoms: C3_3  and  C8_8 
ROOT
HETATM    1  C1  UNL     1     -33.065  16.906  -2.357  1.00 20.00     0.022 A 
HETATM    2  C2  UNL     1     -35.135  16.644  -1.332  1.00 20.00     0.057 A 
HETATM    3  C3  UNL     1     -34.302  16.198  -2.335  1.00 20.00    -0.046 A 
HETATM    4  C4  UNL     1     -33.001  17.866  -1.370  1.00 20.00    -0.021 A 
HETATM    5  C10 UNL     1     -31.896  18.801  -1.066  1.00 20.00     0.056 C 
HETATM    6  S11 UNL     1     -34.426  17.909  -0.422  1.00 20.00    -0.106 SA
ENDROOT
BRANCH   3   7
HETATM    7  C8  UNL     1     -34.656  15.091  -3.298  1.00 20.00     0.020 C 
HETATM    8  C5  UNL     1     -36.079  15.192  -3.859  1.00 20.00     0.010 C 
HETATM    9  C6  UNL     1     -36.010  14.382  -5.147  1.00 20.00     0.016 C 
HETATM   10  C9  UNL     1     -34.650  14.734  -5.730  1.00 20.00     0.058 C 
HETATM   11  C7  UNL     1     -33.734  14.994  -4.533  1.00 20.00     0.025 C 
HETATM   12 BR12 UNL     1     -34.792  16.347  -6.830  1.00 20.00    -0.091 Br
ENDBRANCH   3   7
TORSDOF 1
ENDMDL
MODEL 2
REMARK VINA RESULT:      -4.8      1.252      1.636
REMARK  1 active torsions:
REMARK  status: ('A' for Active; 'I' for Inactive)
REMARK    1  A    between atoms: C3_3  and  C8_8 
ROOT
HETATM    1  C1  UNL     1     -34.930  16.436  -1.667  1.00 20.00     0.022 A 
HETATM    2  C2  UNL     1     -32.988  16.665  -2.923  1.00 20.00     0.057 A 
HETATM    3  C3  UNL     1     -34.165  15.965  -2.773  1.00 20.00    -0.046 A 
HETATM    4  C4  UNL     1     -34.307  17.477  -1.013  1.00 20.00    -0.021 A 
HETATM    5  C10 UNL     1     -34.773  18.231   0.171  1.00 20.00     0.056 C 
HETATM    6  S11 UNL     1     -32.808  17.883  -1.734  1.00 20.00    -0.106 SA
ENDROOT
BRANCH   3   7
HETATM    7  C8  UNL     1     -34.596  14.832  -3.673  1.00 20.00     0.020 C 
HETATM    8  C5  UNL     1     -36.115  14.625  -3.721  1.00 20.00     0.010 C 
HETATM    9  C6  UNL     1     -36.330  13.887  -5.035  1.00 20.00     0.016 C 
HETATM   10  C9  UNL     1     -35.354  14.551  -5.994  1.00 20.00     0.058 C 
HETATM   11  C7  UNL     1     -34.155  14.978  -5.146  1.00 20.00     0.025 C 
HETATM   12 BR12 UNL     1     -36.189  16.119  -6.816  1.00 20.00    -0.091 Br
ENDBRANCH   3   7
TORSDOF 1
ENDMDL
MODEL 3
REMARK VINA RESULT:      -4.5      3.030      5.351
REMARK  1 active torsions:
REMARK  status: ('A' for Active; 'I' for Inactive)
REMARK    1  A    between atoms: C3_3  and  C8_8 
ROOT
HETATM    1  C1  UNL     1     -35.237  15.767  -2.761  1.00 20.00     0.022 A 
HETATM    2  C2  UNL     1     -33.042  16.364  -3.240  1.00 20.00     0.057 A 
HETATM    3  C3  UNL     1     -34.173  16.685  -2.522  1.00 20.00    -0.046 A 
HETATM    4  C4  UNL     1     -34.878  14.781  -3.655  1.00 20.00    -0.021 A 
HETATM    5  C10 UNL     1     -35.692  13.654  -4.158  1.00 20.00     0.056 C 
HETATM    6  S11 UNL     1     -33.264  14.963  -4.199  1.00 20.00    -0.106 SA
ENDROOT
BRANCH   3   7
HETATM    7  C8  UNL     1     -34.276  17.868  -1.590  1.00 20.00     0.020 C 
HETATM    8  C5  UNL     1     -34.368  17.481  -0.109  1.00 20.00     0.010 C 
HETATM    9  C6  UNL     1     -33.902  18.737   0.614  1.00 20.00     0.016 C 
HETATM   10  C9  UNL     1     -32.755  19.251  -0.243  1.00 20.00     0.058 C 
HETATM   11  C7  UNL     1     -33.099  18.864  -1.681  1.00 20.00     0.025 C 
HETATM   12 BR12 UNL     1     -31.080  18.396   0.301  1.00 20.00    -0.091 Br
ENDBRANCH   3   7
TORSDOF 1
ENDMDL
MODEL 4
REMARK VINA RESULT:      -4.5      2.692      4.924
REMARK  1 active torsions:
REMARK  status: ('A' for Active; 'I' for Inactive)
REMARK    1  A    between atoms: C3_3  and  C8_8 
ROOT
HETATM    1  C1  UNL     1     -33.782  15.697  -5.057  1.00 20.00     0.022 A 
HETATM    2  C2  UNL     1     -35.690  14.788  -4.088  1.00 20.00     0.057 A 
HETATM    3  C3  UNL     1     -34.521  15.481  -3.858  1.00 20.00    -0.046 A 
HETATM    4  C4  UNL     1     -34.413  15.160  -6.158  1.00 20.00    -0.021 A 
HETATM    5  C10 UNL     1     -33.973  15.173  -7.569  1.00 20.00     0.056 C 
HETATM    6  S11 UNL     1     -35.892  14.401  -5.744  1.00 20.00    -0.106 SA
ENDROOT
BRANCH   3   7
HETATM    7  C8  UNL     1     -34.075  15.957  -2.496  1.00 20.00     0.020 C 
HETATM    8  C5  UNL     1     -33.087  17.129  -2.545  1.00 20.00     0.010 C 
HETATM    9  C6  UNL     1     -33.229  17.768  -1.171  1.00 20.00     0.016 C 
HETATM   10  C9  UNL     1     -34.720  17.695  -0.883  1.00 20.00     0.058 C 
HETATM   11  C7  UNL     1     -35.219  16.423  -1.570  1.00 20.00     0.025 C 
HETATM   12 BR12 UNL     1     -35.623  19.262  -1.631  1.00 20.00    -0.091 Br
ENDBRANCH   3   7
TORSDOF 1
ENDMDL
MODEL 5
REMARK VINA RESULT:      -4.4      1.616      2.495
REMARK  1 active torsions:
REMARK  status: ('A' for Active; 'I' for Inactive)
REMARK    1  A    between atoms: C3_3  and  C8_8 
ROOT
HETATM    1  C1  UNL     1     -34.987  16.889  -1.513  1.00 20.00     0.022 A 
HETATM    2  C2  UNL     1     -32.921  17.931  -1.734  1.00 20.00     0.057 A 
HETATM    3  C3  UNL     1     -33.869  17.150  -2.357  1.00 20.00    -0.046 A 
HETATM    4  C4  UNL     1     -34.849  17.480  -0.275  1.00 20.00    -0.021 A 
HETATM    5  C10 UNL     1     -35.783  17.444   0.871  1.00 20.00     0.056 C 
HETATM    6  S11 UNL     1     -33.378  18.346  -0.137  1.00 20.00    -0.106 SA
ENDROOT
BRANCH   3   7
HETATM    7  C8  UNL     1     -33.742  16.631  -3.770  1.00 20.00     0.020 C 
HETATM    8  C5  UNL     1     -33.178  15.209  -3.856  1.00 20.00     0.010 C 
HETATM    9  C6  UNL     1     -33.659  14.720  -5.216  1.00 20.00     0.016 C 
HETATM   10  C9  UNL     1     -35.071  15.272  -5.327  1.00 20.00     0.058 C 
HETATM   11  C7  UNL     1     -35.066  16.597  -4.564  1.00 20.00     0.025 C 
HETATM   12 BR12 UNL     1     -36.341  14.029  -4.505  1.00 20.00    -0.091 Br
ENDBRANCH   3   7
TORSDOF 1
ENDMDL
MODEL 6
REMARK VINA RESULT:      -4.2      2.294      3.440
REMARK  1 active torsions:
REMARK  status: ('A' for Active; 'I' for Inactive)
REMARK    1  A    between atoms: C3_3  and  C8_8 
ROOT
HETATM    1  C1  UNL     1     -35.412  17.257   0.747  1.00 20.00     0.022 A 
HETATM    2  C2  UNL     1     -36.553  17.866  -1.185  1.00 20.00     0.057 A 
HETATM    3  C3  UNL     1     -35.428  17.252  -0.678  1.00 20.00    -0.046 A 
HETATM    4  C4  UNL     1     -36.524  17.876   1.275  1.00 20.00    -0.021 A 
HETATM    5  C10 UNL     1     -36.875  18.083   2.696  1.00 20.00     0.056 C 
HETATM    6  S11 UNL     1     -37.582  18.445   0.055  1.00 20.00    -0.106 SA
ENDROOT
BRANCH   3   7
HETATM    7  C8  UNL     1     -34.340  16.644  -1.530  1.00 20.00     0.020 C 
HETATM    8  C5  UNL     1     -34.861  15.683  -2.604  1.00 20.00     0.010 C 
HETATM    9  C6  UNL     1     -33.739  15.659  -3.633  1.00 20.00     0.016 C 
HETATM   10  C9  UNL     1     -33.262  17.102  -3.691  1.00 20.00     0.058 C 
HETATM   11  C7  UNL     1     -33.466  17.669  -2.285  1.00 20.00     0.025 C 
HETATM   12 BR12 UNL     1     -34.334  18.107  -4.983  1.00 20.00    -0.091 Br
ENDBRANCH   3   7
TORSDOF 1
ENDMDL
MODEL 7
REMARK VINA RESULT:      -4.1      1.702      2.184
REMARK  1 active torsions:
REMARK  status: ('A' for Active; 'I' for Inactive)
REMARK    1  A    between atoms: C3_3  and  C8_8 
ROOT
HETATM    1  C1  UNL     1     -32.834  17.854  -1.316  1.00 20.00     0.022 A 
HETATM    2  C2  UNL     1     -34.750  17.987  -0.007  1.00 20.00     0.057 A 
HETATM    3  C3  UNL     1     -34.242  17.651  -1.243  1.00 20.00    -0.046 A 
HETATM    4  C4  UNL     1     -32.319  18.339  -0.133  1.00 20.00    -0.021 A 
HETATM    5  C10 UNL     1     -30.916  18.677   0.191  1.00 20.00     0.056 C 
HETATM    6  S11 UNL     1     -33.532  18.546   1.059  1.00 20.00    -0.106 SA
ENDROOT
BRANCH   3   7
HETATM    7  C8  UNL     1     -35.077  17.128  -2.387  1.00 20.00     0.020 C 
HETATM    8  C5  UNL     1     -34.649  17.661  -3.759  1.00 20.00     0.010 C 
HETATM    9  C6  UNL     1     -35.201  16.625  -4.729  1.00 20.00     0.016 C 
HETATM   10  C9  UNL     1     -34.965  15.299  -4.024  1.00 20.00     0.058 C 
HETATM   11  C7  UNL     1     -35.084  15.590  -2.527  1.00 20.00     0.025 C 
HETATM   12 BR12 UNL     1     -33.172  14.632  -4.437  1.00 20.00    -0.091 Br
ENDBRANCH   3   7
TORSDOF 1
ENDMDL
MODEL 8
REMARK VINA RESULT:      -4.1      2.476      3.589
REMARK  1 active torsions:
REMARK  status: ('A' for Active; 'I' for Inactive)
REMARK    1  A    between atoms: C3_3  and  C8_8 
ROOT
HETATM    1  C1  UNL     1     -32.450  18.494   0.123  1.00 20.00     0.022 A 
HETATM    2  C2  UNL     1     -34.144  17.976   1.629  1.00 20.00     0.057 A 
HETATM    3  C3  UNL     1     -33.826  18.168   0.302  1.00 20.00    -0.046 A 
HETATM    4  C4  UNL     1     -31.769  18.539   1.321  1.00 20.00    -0.021 A 
HETATM    5  C10 UNL     1     -30.341  18.840   1.557  1.00 20.00     0.056 C 
HETATM    6  S11 UNL     1     -32.788  18.188   2.652  1.00 20.00    -0.106 SA
ENDROOT
BRANCH   3   7
HETATM    7  C8  UNL     1     -34.816  18.048  -0.831  1.00 20.00     0.020 C 
HETATM    8  C5  UNL     1     -34.391  18.789  -2.104  1.00 20.00     0.010 C 
HETATM    9  C6  UNL     1     -35.184  18.092  -3.201  1.00 20.00     0.016 C 
HETATM   10  C9  UNL     1     -35.145  16.624  -2.807  1.00 20.00     0.058 C 
HETATM   11  C7  UNL     1     -35.110  16.599  -1.278  1.00 20.00     0.025 C 
HETATM   12 BR12 UNL     1     -33.533  15.781  -3.530  1.00 20.00    -0.091 Br
ENDBRANCH   3   7
TORSDOF 1
ENDMDL
MODEL 9
REMARK VINA RESULT:      -4.0      2.857      4.983
REMARK  1 active torsions:
REMARK  status: ('A' for Active; 'I' for Inactive)
REMARK    1  A    between atoms: C3_3  and  C8_8 
ROOT
HETATM    1  C1  UNL     1     -38.078  14.733  -4.229  1.00 20.00     0.022 A 
HETATM    2  C2  UNL     1     -37.343  16.914  -3.900  1.00 20.00     0.057 A 
HETATM    3  C3  UNL     1     -36.986  15.583  -3.889  1.00 20.00    -0.046 A 
HETATM    4  C4  UNL     1     -39.229  15.448  -4.487  1.00 20.00    -0.021 A 
HETATM    5  C10 UNL     1     -40.563  14.938  -4.869  1.00 20.00     0.056 C 
HETATM    6  S11 UNL     1     -38.988  17.135  -4.320  1.00 20.00    -0.106 SA
ENDROOT
BRANCH   3   7
HETATM    7  C8  UNL     1     -35.602  15.082  -3.556  1.00 20.00     0.020 C 
HETATM    8  C5  UNL     1     -34.634  15.104  -4.745  1.00 20.00     0.010 C 
HETATM    9  C6  UNL     1     -33.263  15.118  -4.085  1.00 20.00     0.016 C 
HETATM   10  C9  UNL     1     -33.440  16.040  -2.888  1.00 20.00     0.058 C 
HETATM   11  C7  UNL     1     -34.888  15.862  -2.431  1.00 20.00     0.025 C 
HETATM   12 BR12 UNL     1     -33.126  17.896  -3.424  1.00 20.00    -0.091 Br
ENDBRANCH   3   7
TORSDOF 1
ENDMDL
