MODEL 1
REMARK VINA RESULT:      -4.9      0.000      0.000
REMARK  0 active torsions:
REMARK  status: ('A' for Active; 'I' for Inactive)
ROOT
HETATM    1  C1  UNL     1     -37.045  14.464  -4.448  1.00 20.00     0.064 C 
HETATM    2  C2  UNL     1     -36.156  17.593  -3.891  1.00 20.00     0.002 C 
HETATM    3  C3  UNL     1     -35.887  16.574  -4.998  1.00 20.00     0.019 C 
HETATM    4  C4  UNL     1     -34.981  14.923  -3.201  1.00 20.00     0.020 C 
HETATM    5  C5  UNL     1     -34.870  18.158  -3.287  1.00 20.00     0.008 C 
HETATM    6  C6  UNL     1     -33.773  15.836  -2.980  1.00 20.00     0.010 C 
HETATM    7  C7  UNL     1     -35.725  15.124  -4.527  1.00 20.00     0.093 C 
HETATM    8  C8  UNL     1     -34.063  17.225  -2.355  1.00 20.00    -0.048 C 
HETATM    9  C9  UNL     1     -34.781  17.092  -0.995  1.00 20.00     0.015 C 
HETATM   10  C10 UNL     1     -32.699  17.905  -2.084  1.00 20.00     0.015 C 
HETATM   11  N11 UNL     1     -38.082  13.946  -4.386  1.00 20.00    -0.197 NA
ENDROOT
TORSDOF 0
ENDMDL
MODEL 2
REMARK VINA RESULT:      -4.8      1.508      2.237
REMARK  0 active torsions:
REMARK  status: ('A' for Active; 'I' for Inactive)
ROOT
HETATM    1  C1  UNL     1     -35.700  14.254  -5.340  1.00 20.00     0.064 C 
HETATM    2  C2  UNL     1     -33.115  15.881  -4.089  1.00 20.00     0.002 C 
HETATM    3  C3  UNL     1     -33.721  14.493  -3.882  1.00 20.00     0.019 C 
HETATM    4  C4  UNL     1     -36.000  15.617  -3.320  1.00 20.00     0.020 C 
HETATM    5  C5  UNL     1     -32.983  16.665  -2.782  1.00 20.00     0.008 C 
HETATM    6  C6  UNL     1     -35.404  16.163  -2.021  1.00 20.00     0.010 C 
HETATM    7  C7  UNL     1     -35.252  14.432  -3.943  1.00 20.00     0.093 C 
HETATM    8  C8  UNL     1     -34.286  17.227  -2.168  1.00 20.00    -0.048 C 
HETATM    9  C9  UNL     1     -34.771  18.444  -2.985  1.00 20.00     0.015 C 
HETATM   10  C10 UNL     1     -33.946  17.741  -0.748  1.00 20.00     0.015 C 
HETATM   11  N11 UNL     1     -36.051  14.115  -6.437  1.00 20.00    -0.197 NA
ENDROOT
TORSDOF 0
ENDMDL
MODEL 3
REMARK VINA RESULT:      -4.8      1.109      1.286
REMARK  0 active torsions:
REMARK  status: ('A' for Active; 'I' for Inactive)
ROOT
HETATM    1  C1  UNL     1     -36.468  14.166  -4.279  1.00 20.00     0.064 C 
HETATM    2  C2  UNL     1     -34.926  16.900  -5.302  1.00 20.00     0.002 C 
HETATM    3  C3  UNL     1     -34.574  15.413  -5.257  1.00 20.00     0.019 C 
HETATM    4  C4  UNL     1     -35.062  15.415  -2.701  1.00 20.00     0.020 C 
HETATM    5  C5  UNL     1     -33.889  17.770  -4.590  1.00 20.00     0.008 C 
HETATM    6  C6  UNL     1     -33.825  16.286  -2.472  1.00 20.00     0.010 C 
HETATM    7  C7  UNL     1     -35.094  14.653  -4.031  1.00 20.00     0.093 C 
HETATM    8  C8  UNL     1     -33.879  17.727  -3.044  1.00 20.00    -0.048 C 
HETATM    9  C9  UNL     1     -35.089  18.508  -2.489  1.00 20.00     0.015 C 
HETATM   10  C10 UNL     1     -32.605  18.463  -2.567  1.00 20.00     0.015 C 
HETATM   11  N11 UNL     1     -37.546  13.784  -4.474  1.00 20.00    -0.197 NA
ENDROOT
TORSDOF 0
ENDMDL
MODEL 4
REMARK VINA RESULT:      -4.6      2.599      4.404
REMARK  0 active torsions:
REMARK  status: ('A' for Active; 'I' for Inactive)
ROOT
HETATM    1  C1  UNL     1     -32.684  17.973  -2.399  1.00 20.00     0.064 C 
HETATM    2  C2  UNL     1     -35.834  17.139  -2.926  1.00 20.00     0.002 C 
HETATM    3  C3  UNL     1     -34.818  16.878  -1.814  1.00 20.00     0.019 C 
HETATM    4  C4  UNL     1     -33.192  15.887  -3.588  1.00 20.00     0.020 C 
HETATM    5  C5  UNL     1     -36.429  15.849  -3.492  1.00 20.00     0.008 C 
HETATM    6  C6  UNL     1     -34.132  14.694  -3.774  1.00 20.00     0.010 C 
HETATM    7  C7  UNL     1     -33.373  16.671  -2.283  1.00 20.00     0.093 C 
HETATM    8  C8  UNL     1     -35.516  14.997  -4.404  1.00 20.00    -0.048 C 
HETATM    9  C9  UNL     1     -35.371  15.675  -5.784  1.00 20.00     0.015 C 
HETATM   10  C10 UNL     1     -36.227  13.642  -4.636  1.00 20.00     0.015 C 
HETATM   11  N11 UNL     1     -32.143  18.996  -2.490  1.00 20.00    -0.197 NA
ENDROOT
TORSDOF 0
ENDMDL
MODEL 5
REMARK VINA RESULT:      -4.4      1.888      2.744
REMARK  0 active torsions:
REMARK  status: ('A' for Active; 'I' for Inactive)
ROOT
HETATM    1  C1  UNL     1     -34.208  15.029  -5.821  1.00 20.00     0.064 C 
HETATM    2  C2  UNL     1     -32.965  16.957  -3.447  1.00 20.00     0.002 C 
HETATM    3  C3  UNL     1     -32.909  15.463  -3.767  1.00 20.00     0.019 C 
HETATM    4  C4  UNL     1     -35.511  15.409  -3.776  1.00 20.00     0.020 C 
HETATM    5  C5  UNL     1     -33.482  17.237  -2.035  1.00 20.00     0.008 C 
HETATM    6  C6  UNL     1     -35.516  15.656  -2.266  1.00 20.00     0.010 C 
HETATM    7  C7  UNL     1     -34.196  14.870  -4.352  1.00 20.00     0.093 C 
HETATM    8  C8  UNL     1     -34.996  17.037  -1.790  1.00 20.00    -0.048 C 
HETATM    9  C9  UNL     1     -35.791  18.191  -2.436  1.00 20.00     0.015 C 
HETATM   10  C10 UNL     1     -35.233  17.120  -0.263  1.00 20.00     0.015 C 
HETATM   11  N11 UNL     1     -34.217  15.155  -6.975  1.00 20.00    -0.197 NA
ENDROOT
TORSDOF 0
ENDMDL
MODEL 6
REMARK VINA RESULT:      -4.3      2.810      4.423
REMARK  0 active torsions:
REMARK  status: ('A' for Active; 'I' for Inactive)
ROOT
HETATM    1  C1  UNL     1     -32.746  18.720  -2.099  1.00 20.00     0.064 C 
HETATM    2  C2  UNL     1     -34.222  17.634  -4.845  1.00 20.00     0.002 C 
HETATM    3  C3  UNL     1     -34.664  18.449  -3.629  1.00 20.00     0.019 C 
HETATM    4  C4  UNL     1     -33.839  16.522  -2.087  1.00 20.00     0.020 C 
HETATM    5  C5  UNL     1     -35.092  16.397  -5.071  1.00 20.00     0.008 C 
HETATM    6  C6  UNL     1     -34.972  15.632  -2.603  1.00 20.00     0.010 C 
HETATM    7  C7  UNL     1     -34.037  18.028  -2.295  1.00 20.00     0.093 C 
HETATM    8  C8  UNL     1     -34.897  15.214  -4.094  1.00 20.00    -0.048 C 
HETATM    9  C9  UNL     1     -33.574  14.485  -4.410  1.00 20.00     0.015 C 
HETATM   10  C10 UNL     1     -36.044  14.206  -4.352  1.00 20.00     0.015 C 
HETATM   11  N11 UNL     1     -31.731  19.263  -1.946  1.00 20.00    -0.197 NA
ENDROOT
TORSDOF 0
ENDMDL
MODEL 7
REMARK VINA RESULT:      -4.1      1.850      2.723
REMARK  0 active torsions:
REMARK  status: ('A' for Active; 'I' for Inactive)
ROOT
HETATM    1  C1  UNL     1     -34.347  15.512  -5.890  1.00 20.00     0.064 C 
HETATM    2  C2  UNL     1     -34.865  15.437  -2.631  1.00 20.00     0.002 C 
HETATM    3  C3  UNL     1     -35.740  15.690  -3.859  1.00 20.00     0.019 C 
HETATM    4  C4  UNL     1     -34.103  17.578  -4.586  1.00 20.00     0.020 C 
HETATM    5  C5  UNL     1     -34.930  16.581  -1.618  1.00 20.00     0.008 C 
HETATM    6  C6  UNL     1     -34.559  18.423  -3.395  1.00 20.00     0.010 C 
HETATM    7  C7  UNL     1     -35.060  16.454  -5.001  1.00 20.00     0.093 C 
HETATM    8  C8  UNL     1     -34.191  17.888  -1.987  1.00 20.00    -0.048 C 
HETATM    9  C9  UNL     1     -32.667  17.689  -1.840  1.00 20.00     0.015 C 
HETATM   10  C10 UNL     1     -34.609  18.965  -0.957  1.00 20.00     0.015 C 
HETATM   11  N11 UNL     1     -33.787  14.773  -6.588  1.00 20.00    -0.197 NA
ENDROOT
TORSDOF 0
ENDMDL
MODEL 8
REMARK VINA RESULT:      -4.0      1.656      2.591
REMARK  0 active torsions:
REMARK  status: ('A' for Active; 'I' for Inactive)
ROOT
HETATM    1  C1  UNL     1     -36.478  15.882  -6.935  1.00 20.00     0.064 C 
HETATM    2  C2  UNL     1     -36.073  15.028  -3.772  1.00 20.00     0.002 C 
HETATM    3  C3  UNL     1     -36.931  16.053  -4.514  1.00 20.00     0.019 C 
HETATM    4  C4  UNL     1     -34.769  17.023  -5.592  1.00 20.00     0.020 C 
HETATM    5  C5  UNL     1     -35.207  15.665  -2.684  1.00 20.00     0.008 C 
HETATM    6  C6  UNL     1     -34.332  17.550  -4.223  1.00 20.00     0.010 C 
HETATM    7  C7  UNL     1     -36.264  16.709  -5.729  1.00 20.00     0.093 C 
HETATM    8  C8  UNL     1     -33.982  16.484  -3.152  1.00 20.00    -0.048 C 
HETATM    9  C9  UNL     1     -32.871  15.533  -3.645  1.00 20.00     0.015 C 
HETATM   10  C10 UNL     1     -33.426  17.233  -1.917  1.00 20.00     0.015 C 
HETATM   11  N11 UNL     1     -36.646  15.232  -7.882  1.00 20.00    -0.197 NA
ENDROOT
TORSDOF 0
ENDMDL
MODEL 9
REMARK VINA RESULT:      -4.0      2.214      4.328
REMARK  0 active torsions:
REMARK  status: ('A' for Active; 'I' for Inactive)
ROOT
HETATM    1  C1  UNL     1     -34.764  16.285  -1.995  1.00 20.00     0.064 C 
HETATM    2  C2  UNL     1     -36.067  14.236  -4.231  1.00 20.00     0.002 C 
HETATM    3  C3  UNL     1     -34.695  14.387  -3.573  1.00 20.00     0.019 C 
HETATM    4  C4  UNL     1     -34.627  16.861  -4.378  1.00 20.00     0.020 C 
HETATM    5  C5  UNL     1     -35.993  14.269  -5.758  1.00 20.00     0.008 C 
HETATM    6  C6  UNL     1     -34.500  16.380  -5.825  1.00 20.00     0.010 C 
HETATM    7  C7  UNL     1     -34.253  15.831  -3.306  1.00 20.00     0.093 C 
HETATM    8  C8  UNL     1     -35.729  15.642  -6.418  1.00 20.00    -0.048 C 
HETATM    9  C9  UNL     1     -37.000  16.515  -6.344  1.00 20.00     0.015 C 
HETATM   10  C10 UNL     1     -35.438  15.389  -7.917  1.00 20.00     0.015 C 
HETATM   11  N11 UNL     1     -35.165  16.642  -0.967  1.00 20.00    -0.197 NA
ENDROOT
TORSDOF 0
ENDMDL
