MODEL 1
REMARK VINA RESULT:      -4.7      0.000      0.000
REMARK  1 active torsions:
REMARK  status: ('A' for Active; 'I' for Inactive)
REMARK    1  A    between atoms: C4_4  and  C8_8 
ROOT
HETATM    1  C5  UNL     1     -34.913  16.609  -1.549  1.00 20.00     0.011 C 
HETATM    2  C6  UNL     1     -35.041  15.537  -2.636  1.00 20.00     0.021 C 
HETATM    3  C7  UNL     1     -32.929  16.611  -2.922  1.00 20.00     0.029 C 
HETATM    4  C8  UNL     1     -33.711  17.496  -1.939  1.00 20.00     0.020 C 
HETATM    5  C9  UNL     1     -34.043  15.939  -3.710  1.00 20.00     0.083 C 
HETATM    6 CL11 UNL     1     -33.462  14.555  -4.648  1.00 20.00    -0.125 Cl
ENDROOT
BRANCH   4   7
HETATM    7  C4  UNL     1     -32.947  18.064  -0.761  1.00 20.00    -0.047 A 
HETATM    8  C1  UNL     1     -31.542  18.302  -0.766  1.00 20.00     0.015 A 
HETATM    9  C2  UNL     1     -31.100  18.820   0.431  1.00 20.00     0.050 A 
HETATM   10  S10 UNL     1     -32.377  19.017   1.555  1.00 20.00    -0.113 SA
HETATM   11  C3  UNL     1     -33.526  18.408   0.440  1.00 20.00     0.057 A 
ENDBRANCH   4   7
TORSDOF 1
ENDMDL
MODEL 2
REMARK VINA RESULT:      -4.6      3.610      5.465
REMARK  1 active torsions:
REMARK  status: ('A' for Active; 'I' for Inactive)
REMARK    1  A    between atoms: C4_4  and  C8_8 
ROOT
HETATM    1  C5  UNL     1     -34.957  16.425  -1.657  1.00 20.00     0.011 C 
HETATM    2  C6  UNL     1     -34.252  17.627  -1.019  1.00 20.00     0.021 C 
HETATM    3  C7  UNL     1     -33.084  17.083  -3.029  1.00 20.00     0.029 C 
HETATM    4  C8  UNL     1     -34.016  15.891  -2.759  1.00 20.00     0.020 C 
HETATM    5  C9  UNL     1     -32.860  17.642  -1.632  1.00 20.00     0.083 C 
HETATM    6 CL11 UNL     1     -32.151  19.263  -1.662  1.00 20.00    -0.125 Cl
ENDROOT
BRANCH   4   7
HETATM    7  C4  UNL     1     -34.730  15.290  -3.951  1.00 20.00    -0.047 A 
HETATM    8  C1  UNL     1     -35.687  14.237  -3.855  1.00 20.00     0.015 A 
HETATM    9  C2  UNL     1     -36.183  13.875  -5.087  1.00 20.00     0.050 A 
HETATM   10  S10 UNL     1     -35.498  14.802  -6.353  1.00 20.00    -0.113 SA
HETATM   11  C3  UNL     1     -34.533  15.691  -5.253  1.00 20.00     0.057 A 
ENDBRANCH   4   7
TORSDOF 1
ENDMDL
MODEL 3
REMARK VINA RESULT:      -4.6     11.445     14.015
REMARK  1 active torsions:
REMARK  status: ('A' for Active; 'I' for Inactive)
REMARK    1  A    between atoms: C4_4  and  C8_8 
ROOT
HETATM    1  C5  UNL     1     -22.752  18.101   8.176  1.00 20.00     0.011 C 
HETATM    2  C6  UNL     1     -22.229  17.432   9.451  1.00 20.00     0.021 C 
HETATM    3  C7  UNL     1     -24.367  18.370   9.949  1.00 20.00     0.029 C 
HETATM    4  C8  UNL     1     -23.961  18.967   8.592  1.00 20.00     0.020 C 
HETATM    5  C9  UNL     1     -23.019  18.066  10.586  1.00 20.00     0.083 C 
HETATM    6 CL11 UNL     1     -23.165  17.000  11.990  1.00 20.00    -0.125 Cl
ENDROOT
BRANCH   4   7
HETATM    7  C4  UNL     1     -25.040  19.079   7.535  1.00 20.00    -0.047 A 
HETATM    8  C1  UNL     1     -24.778  19.140   6.136  1.00 20.00     0.015 A 
HETATM    9  C2  UNL     1     -25.934  19.241   5.396  1.00 20.00     0.050 A 
HETATM   10  S10 UNL     1     -27.330  19.263   6.388  1.00 20.00    -0.113 SA
HETATM   11  C3  UNL     1     -26.388  19.138   7.812  1.00 20.00     0.057 A 
ENDBRANCH   4   7
TORSDOF 1
ENDMDL
MODEL 4
REMARK VINA RESULT:      -4.5      3.451      4.983
REMARK  1 active torsions:
REMARK  status: ('A' for Active; 'I' for Inactive)
REMARK    1  A    between atoms: C4_4  and  C8_8 
ROOT
HETATM    1  C5  UNL     1     -32.658  17.911  -1.309  1.00 20.00     0.011 C 
HETATM    2  C6  UNL     1     -32.750  18.428   0.131  1.00 20.00     0.021 C 
HETATM    3  C7  UNL     1     -34.782  17.273  -0.357  1.00 20.00     0.029 C 
HETATM    4  C8  UNL     1     -34.080  17.460  -1.711  1.00 20.00     0.020 C 
HETATM    5  C9  UNL     1     -34.236  18.438   0.455  1.00 20.00     0.083 C 
HETATM    6 CL11 UNL     1     -34.553  18.258   2.186  1.00 20.00    -0.125 Cl
ENDROOT
BRANCH   4   7
HETATM    7  C4  UNL     1     -34.113  16.293  -2.674  1.00 20.00    -0.047 A 
HETATM    8  C1  UNL     1     -33.012  15.905  -3.492  1.00 20.00     0.015 A 
HETATM    9  C2  UNL     1     -33.309  14.814  -4.277  1.00 20.00     0.050 A 
HETATM   10  S10 UNL     1     -34.910  14.259  -4.026  1.00 20.00    -0.113 SA
HETATM   11  C3  UNL     1     -35.210  15.482  -2.866  1.00 20.00     0.057 A 
ENDBRANCH   4   7
TORSDOF 1
ENDMDL
MODEL 5
REMARK VINA RESULT:      -4.3      1.842      2.583
REMARK  1 active torsions:
REMARK  status: ('A' for Active; 'I' for Inactive)
REMARK    1  A    between atoms: C4_4  and  C8_8 
ROOT
HETATM    1  C5  UNL     1     -33.227  15.827  -3.431  1.00 20.00     0.011 C 
HETATM    2  C6  UNL     1     -33.679  15.033  -4.661  1.00 20.00     0.021 C 
HETATM    3  C7  UNL     1     -35.596  15.394  -3.285  1.00 20.00     0.029 C 
HETATM    4  C8  UNL     1     -34.388  15.771  -2.414  1.00 20.00     0.020 C 
HETATM    5  C9  UNL     1     -34.996  14.388  -4.255  1.00 20.00     0.083 C 
HETATM    6 CL11 UNL     1     -36.052  14.076  -5.640  1.00 20.00    -0.125 Cl
ENDROOT
BRANCH   4   7
HETATM    7  C4  UNL     1     -34.518  17.005  -1.548  1.00 20.00    -0.047 A 
HETATM    8  C1  UNL     1     -33.439  17.892  -1.261  1.00 20.00     0.015 A 
HETATM    9  C2  UNL     1     -33.827  18.933  -0.449  1.00 20.00     0.050 A 
HETATM   10  S10 UNL     1     -35.486  18.842  -0.035  1.00 20.00    -0.113 SA
HETATM   11  C3  UNL     1     -35.689  17.404  -0.943  1.00 20.00     0.057 A 
ENDBRANCH   4   7
TORSDOF 1
ENDMDL
MODEL 6
REMARK VINA RESULT:      -4.3     10.171     12.221
REMARK  1 active torsions:
REMARK  status: ('A' for Active; 'I' for Inactive)
REMARK    1  A    between atoms: C4_4  and  C8_8 
ROOT
HETATM    1  C5  UNL     1     -26.644  18.669   6.636  1.00 20.00     0.011 C 
HETATM    2  C6  UNL     1     -26.772  18.562   5.112  1.00 20.00     0.021 C 
HETATM    3  C7  UNL     1     -24.481  18.999   5.619  1.00 20.00     0.029 C 
HETATM    4  C8  UNL     1     -25.248  19.263   6.924  1.00 20.00     0.020 C 
HETATM    5  C9  UNL     1     -25.540  19.263   4.560  1.00 20.00     0.083 C 
HETATM    6 CL11 UNL     1     -25.069  18.649   2.969  1.00 20.00    -0.125 Cl
ENDROOT
BRANCH   4   7
HETATM    7  C4  UNL     1     -24.616  18.773   8.209  1.00 20.00    -0.047 A 
HETATM    8  C1  UNL     1     -25.217  18.915   9.494  1.00 20.00     0.015 A 
HETATM    9  C2  UNL     1     -24.431  18.386  10.494  1.00 20.00     0.050 A 
HETATM   10  S10 UNL     1     -22.977  17.720   9.883  1.00 20.00    -0.113 SA
HETATM   11  C3  UNL     1     -23.394  18.141   8.277  1.00 20.00     0.057 A 
ENDBRANCH   4   7
TORSDOF 1
ENDMDL
MODEL 7
REMARK VINA RESULT:      -4.2      1.534      2.529
REMARK  1 active torsions:
REMARK  status: ('A' for Active; 'I' for Inactive)
REMARK    1  A    between atoms: C4_4  and  C8_8 
ROOT
HETATM    1  C5  UNL     1     -34.047  16.955  -4.475  1.00 20.00     0.011 C 
HETATM    2  C6  UNL     1     -34.892  15.992  -5.314  1.00 20.00     0.021 C 
HETATM    3  C7  UNL     1     -34.767  15.107  -3.101  1.00 20.00     0.029 C 
HETATM    4  C8  UNL     1     -33.709  16.220  -3.159  1.00 20.00     0.020 C 
HETATM    5  C9  UNL     1     -34.863  14.674  -4.556  1.00 20.00     0.083 C 
HETATM    6 CL11 UNL     1     -36.294  13.681  -4.869  1.00 20.00    -0.125 Cl
ENDROOT
BRANCH   4   7
HETATM    7  C4  UNL     1     -33.590  17.125  -1.952  1.00 20.00    -0.047 A 
HETATM    8  C1  UNL     1     -34.610  17.275  -0.968  1.00 20.00     0.015 A 
HETATM    9  C2  UNL     1     -34.247  18.160   0.023  1.00 20.00     0.050 A 
HETATM   10  S10 UNL     1     -32.682  18.805  -0.234  1.00 20.00    -0.113 SA
HETATM   11  C3  UNL     1     -32.486  17.902  -1.676  1.00 20.00     0.057 A 
ENDBRANCH   4   7
TORSDOF 1
ENDMDL
MODEL 8
REMARK VINA RESULT:      -4.2      2.526      3.240
REMARK  1 active torsions:
REMARK  status: ('A' for Active; 'I' for Inactive)
REMARK    1  A    between atoms: C4_4  and  C8_8 
ROOT
HETATM    1  C5  UNL     1     -33.502  16.645  -2.377  1.00 20.00     0.011 C 
HETATM    2  C6  UNL     1     -33.277  16.014  -3.755  1.00 20.00     0.021 C 
HETATM    3  C7  UNL     1     -35.544  15.602  -3.129  1.00 20.00     0.029 C 
HETATM    4  C8  UNL     1     -34.849  16.100  -1.852  1.00 20.00     0.020 C 
HETATM    5  C9  UNL     1     -34.390  14.989  -3.909  1.00 20.00     0.083 C 
HETATM    6 CL11 UNL     1     -34.807  14.690  -5.602  1.00 20.00    -0.125 Cl
ENDROOT
BRANCH   4   7
HETATM    7  C4  UNL     1     -35.616  17.071  -0.981  1.00 20.00    -0.047 A 
HETATM    8  C1  UNL     1     -35.435  17.188   0.428  1.00 20.00     0.015 A 
HETATM    9  C2  UNL     1     -36.259  18.144   0.978  1.00 20.00     0.050 A 
HETATM   10  S10 UNL     1     -37.245  18.898  -0.201  1.00 20.00    -0.113 SA
HETATM   11  C3  UNL     1     -36.572  17.943  -1.453  1.00 20.00     0.057 A 
ENDBRANCH   4   7
TORSDOF 1
ENDMDL
MODEL 9
REMARK VINA RESULT:      -4.0      3.529      5.129
REMARK  1 active torsions:
REMARK  status: ('A' for Active; 'I' for Inactive)
REMARK    1  A    between atoms: C4_4  and  C8_8 
ROOT
HETATM    1  C5  UNL     1     -33.543  18.091   0.665  1.00 20.00     0.011 C 
HETATM    2  C6  UNL     1     -34.224  18.286   2.024  1.00 20.00     0.021 C 
HETATM    3  C7  UNL     1     -35.897  17.601   0.466  1.00 20.00     0.029 C 
HETATM    4  C8  UNL     1     -34.670  17.968  -0.384  1.00 20.00     0.020 C 
HETATM    5  C9  UNL     1     -35.702  18.459   1.707  1.00 20.00     0.083 C 
HETATM    6 CL11 UNL     1     -36.744  17.954   3.044  1.00 20.00    -0.125 Cl
ENDROOT
BRANCH   4   7
HETATM    7  C4  UNL     1     -34.340  17.061  -1.550  1.00 20.00    -0.047 A 
HETATM    8  C1  UNL     1     -35.198  16.023  -2.017  1.00 20.00     0.015 A 
HETATM    9  C2  UNL     1     -34.658  15.348  -3.088  1.00 20.00     0.050 A 
HETATM   10  S10 UNL     1     -33.122  15.965  -3.528  1.00 20.00    -0.113 SA
HETATM   11  C3  UNL     1     -33.176  17.138  -2.282  1.00 20.00     0.057 A 
ENDBRANCH   4   7
TORSDOF 1
ENDMDL
