MODEL 1
REMARK VINA RESULT:      -5.0      0.000      0.000
REMARK  2 active torsions:
REMARK  status: ('A' for Active; 'I' for Inactive)
REMARK    1  A    between atoms: C6_6  and  C9_9 
REMARK    2  A    between atoms: C9_9  and  C10_10 
ROOT
HETATM    1  C1  UNL     1     -33.888   4.625   2.601  1.00 20.00     0.002 C 
HETATM    2  C2  UNL     1     -32.865   5.583   1.998  1.00 20.00     0.005 C 
HETATM    3  C3  UNL     1     -32.459   7.207   3.907  1.00 20.00     0.006 C 
HETATM    4  C4  UNL     1     -33.917   4.551   4.127  1.00 20.00     0.020 C 
HETATM    5  C5  UNL     1     -33.483   6.930   5.008  1.00 20.00     0.020 C 
HETATM    6  C6  UNL     1     -32.964   7.043   2.468  1.00 20.00    -0.014 C 
HETATM    7  C7  UNL     1     -34.498   5.815   4.760  1.00 20.00     0.082 C 
HETATM    8 CL11 UNL     1     -35.264   5.397   6.335  1.00 20.00    -0.125 Cl
ENDROOT
BRANCH   6   9
HETATM    9  C9  UNL     1     -32.118   7.920   1.533  1.00 20.00     0.004 C 
BRANCH   9  10
HETATM   10  C10 UNL     1     -32.954   9.038   0.927  1.00 20.00    -0.004 C 
HETATM   11  C8  UNL     1     -33.448   8.659  -0.459  1.00 20.00     0.005 C 
ENDBRANCH   9  10
ENDBRANCH   6   9
TORSDOF 2
ENDMDL
MODEL 2
REMARK VINA RESULT:      -4.7     10.932     12.093
REMARK  2 active torsions:
REMARK  status: ('A' for Active; 'I' for Inactive)
REMARK    1  A    between atoms: C6_6  and  C9_9 
REMARK    2  A    between atoms: C9_9  and  C10_10 
ROOT
HETATM    1  C1  UNL     1     -35.260  16.864  -0.927  1.00 20.00     0.002 C 
HETATM    2  C2  UNL     1     -34.271  18.024  -0.858  1.00 20.00     0.005 C 
HETATM    3  C3  UNL     1     -32.871  17.660  -2.945  1.00 20.00     0.006 C 
HETATM    4  C4  UNL     1     -35.496  16.268  -2.315  1.00 20.00     0.020 C 
HETATM    5  C5  UNL     1     -33.237  16.303  -3.547  1.00 20.00     0.020 C 
HETATM    6  C6  UNL     1     -32.867  17.733  -1.412  1.00 20.00    -0.014 C 
HETATM    7  C7  UNL     1     -34.292  15.473  -2.818  1.00 20.00     0.082 C 
HETATM    8 CL11 UNL     1     -34.856  14.180  -3.938  1.00 20.00    -0.125 Cl
ENDROOT
BRANCH   6   9
HETATM    9  C9  UNL     1     -31.918  18.853  -0.963  1.00 20.00     0.004 C 
BRANCH   9  10
HETATM   10  C10 UNL     1     -30.838  18.315  -0.035  1.00 20.00    -0.004 C 
HETATM   11  C8  UNL     1     -31.319  18.288   1.406  1.00 20.00     0.005 C 
ENDBRANCH   9  10
ENDBRANCH   6   9
TORSDOF 2
ENDMDL
MODEL 3
REMARK VINA RESULT:      -4.4     10.707     11.752
REMARK  2 active torsions:
REMARK  status: ('A' for Active; 'I' for Inactive)
REMARK    1  A    between atoms: C6_6  and  C9_9 
REMARK    2  A    between atoms: C9_9  and  C10_10 
ROOT
HETATM    1  C1  UNL     1     -33.414  14.716  -4.456  1.00 20.00     0.002 C 
HETATM    2  C2  UNL     1     -32.740  15.744  -3.553  1.00 20.00     0.005 C 
HETATM    3  C3  UNL     1     -34.690  16.616  -2.180  1.00 20.00     0.006 C 
HETATM    4  C4  UNL     1     -34.738  14.145  -3.946  1.00 20.00     0.020 C 
HETATM    5  C5  UNL     1     -35.987  16.064  -2.772  1.00 20.00     0.020 C 
HETATM    6  C6  UNL     1     -33.592  16.972  -3.191  1.00 20.00    -0.014 C 
HETATM    7  C7  UNL     1     -35.872  15.167  -4.003  1.00 20.00     0.082 C 
HETATM    8 CL11 UNL     1     -37.441  14.308  -4.216  1.00 20.00    -0.125 Cl
ENDROOT
BRANCH   6   9
HETATM    9  C9  UNL     1     -32.676  18.045  -2.586  1.00 20.00     0.004 C 
BRANCH   9  10
HETATM   10  C10 UNL     1     -32.719  18.004  -1.065  1.00 20.00    -0.004 C 
HETATM   11  C8  UNL     1     -31.355  18.317  -0.472  1.00 20.00     0.005 C 
ENDBRANCH   9  10
ENDBRANCH   6   9
TORSDOF 2
ENDMDL
MODEL 4
REMARK VINA RESULT:      -4.4     10.999     11.798
REMARK  2 active torsions:
REMARK  status: ('A' for Active; 'I' for Inactive)
REMARK    1  A    between atoms: C6_6  and  C9_9 
REMARK    2  A    between atoms: C9_9  and  C10_10 
ROOT
HETATM    1  C1  UNL     1     -32.489  17.814  -1.782  1.00 20.00     0.002 C 
HETATM    2  C2  UNL     1     -33.188  16.967  -2.841  1.00 20.00     0.005 C 
HETATM    3  C3  UNL     1     -35.527  16.731  -1.881  1.00 20.00     0.006 C 
HETATM    4  C4  UNL     1     -33.400  18.662  -0.895  1.00 20.00     0.020 C 
HETATM    5  C5  UNL     1     -35.526  17.281  -0.455  1.00 20.00     0.020 C 
HETATM    6  C6  UNL     1     -34.254  15.992  -2.314  1.00 20.00    -0.014 C 
HETATM    7  C7  UNL     1     -34.203  17.816   0.091  1.00 20.00     0.082 C 
HETATM    8 CL11 UNL     1     -34.561  18.791   1.563  1.00 20.00    -0.125 Cl
ENDROOT
BRANCH   6   9
HETATM    9  C9  UNL     1     -34.603  14.996  -3.429  1.00 20.00     0.004 C 
BRANCH   9  10
HETATM   10  C10 UNL     1     -33.429  14.805  -4.378  1.00 20.00    -0.004 C 
HETATM   11  C8  UNL     1     -33.879  14.886  -5.828  1.00 20.00     0.005 C 
ENDBRANCH   9  10
ENDBRANCH   6   9
TORSDOF 2
ENDMDL
MODEL 5
REMARK VINA RESULT:      -4.3     10.964     11.823
REMARK  2 active torsions:
REMARK  status: ('A' for Active; 'I' for Inactive)
REMARK    1  A    between atoms: C6_6  and  C9_9 
REMARK    2  A    between atoms: C9_9  and  C10_10 
ROOT
HETATM    1  C1  UNL     1     -32.509  18.053  -2.115  1.00 20.00     0.002 C 
HETATM    2  C2  UNL     1     -33.098  17.087  -3.138  1.00 20.00     0.005 C 
HETATM    3  C3  UNL     1     -35.322  16.473  -2.080  1.00 20.00     0.006 C 
HETATM    4  C4  UNL     1     -33.514  18.747  -1.195  1.00 20.00     0.020 C 
HETATM    5  C5  UNL     1     -35.357  17.034  -0.658  1.00 20.00     0.020 C 
HETATM    6  C6  UNL     1     -33.962  15.954  -2.562  1.00 20.00    -0.014 C 
HETATM    7  C7  UNL     1     -34.122  17.791  -0.171  1.00 20.00     0.082 C 
HETATM    8 CL11 UNL     1     -34.579  18.711   1.309  1.00 20.00    -0.125 Cl
ENDROOT
BRANCH   6   9
HETATM    9  C9  UNL     1     -34.182  14.898  -3.655  1.00 20.00     0.004 C 
BRANCH   9  10
HETATM   10  C10 UNL     1     -35.547  15.065  -4.308  1.00 20.00    -0.004 C 
HETATM   11  C8  UNL     1     -36.212  13.718  -4.536  1.00 20.00     0.005 C 
ENDBRANCH   9  10
ENDBRANCH   6   9
TORSDOF 2
ENDMDL
MODEL 6
REMARK VINA RESULT:      -4.3     14.714     15.843
REMARK  2 active torsions:
REMARK  status: ('A' for Active; 'I' for Inactive)
REMARK    1  A    between atoms: C6_6  and  C9_9 
REMARK    2  A    between atoms: C9_9  and  C10_10 
ROOT
HETATM    1  C1  UNL     1     -22.396  17.044   8.928  1.00 20.00     0.002 C 
HETATM    2  C2  UNL     1     -22.811  18.114   7.924  1.00 20.00     0.005 C 
HETATM    3  C3  UNL     1     -24.736  19.257   9.122  1.00 20.00     0.006 C 
HETATM    4  C4  UNL     1     -22.777  17.309  10.384  1.00 20.00     0.020 C 
HETATM    5  C5  UNL     1     -25.087  18.443  10.367  1.00 20.00     0.020 C 
HETATM    6  C6  UNL     1     -24.312  18.447   7.890  1.00 20.00    -0.014 C 
HETATM    7  C7  UNL     1     -24.279  17.172  10.627  1.00 20.00     0.082 C 
HETATM    8 CL11 UNL     1     -24.566  16.667  12.332  1.00 20.00    -0.125 Cl
ENDROOT
BRANCH   6   9
HETATM    9  C9  UNL     1     -24.607  19.263   6.623  1.00 20.00     0.004 C 
BRANCH   9  10
HETATM   10  C10 UNL     1     -26.090  19.223   6.281  1.00 20.00    -0.004 C 
HETATM   11  C8  UNL     1     -26.307  18.780   4.844  1.00 20.00     0.005 C 
ENDBRANCH   9  10
ENDBRANCH   6   9
TORSDOF 2
ENDMDL
MODEL 7
REMARK VINA RESULT:      -4.3     11.174     11.979
REMARK  2 active torsions:
REMARK  status: ('A' for Active; 'I' for Inactive)
REMARK    1  A    between atoms: C6_6  and  C9_9 
REMARK    2  A    between atoms: C9_9  and  C10_10 
ROOT
HETATM    1  C1  UNL     1     -31.017  18.446   0.141  1.00 20.00     0.002 C 
HETATM    2  C2  UNL     1     -32.079  18.497  -0.953  1.00 20.00     0.005 C 
HETATM    3  C3  UNL     1     -34.233  18.508   0.392  1.00 20.00     0.006 C 
HETATM    4  C4  UNL     1     -31.448  18.955   1.516  1.00 20.00     0.020 C 
HETATM    5  C5  UNL     1     -33.895  18.235   1.857  1.00 20.00     0.020 C 
HETATM    6  C6  UNL     1     -33.388  17.752  -0.642  1.00 20.00    -0.014 C 
HETATM    7  C7  UNL     1     -32.425  18.006   2.208  1.00 20.00     0.082 C 
HETATM    8 CL11 UNL     1     -32.247  18.162   3.993  1.00 20.00    -0.125 Cl
ENDROOT
BRANCH   6   9
HETATM    9  C9  UNL     1     -34.192  17.607  -1.943  1.00 20.00     0.004 C 
BRANCH   9  10
HETATM   10  C10 UNL     1     -34.273  16.150  -2.375  1.00 20.00    -0.004 C 
HETATM   11  C8  UNL     1     -33.239  15.840  -3.445  1.00 20.00     0.005 C 
ENDBRANCH   9  10
ENDBRANCH   6   9
TORSDOF 2
ENDMDL
MODEL 8
REMARK VINA RESULT:      -4.2     10.892     12.139
REMARK  2 active torsions:
REMARK  status: ('A' for Active; 'I' for Inactive)
REMARK    1  A    between atoms: C6_6  and  C9_9 
REMARK    2  A    between atoms: C9_9  and  C10_10 
ROOT
HETATM    1  C1  UNL     1     -36.748  17.356  -3.131  1.00 20.00     0.002 C 
HETATM    2  C2  UNL     1     -35.555  18.004  -2.435  1.00 20.00     0.005 C 
HETATM    3  C3  UNL     1     -33.731  16.270  -2.773  1.00 20.00     0.006 C 
HETATM    4  C4  UNL     1     -36.415  16.309  -4.193  1.00 20.00     0.020 C 
HETATM    5  C5  UNL     1     -34.363  15.004  -3.352  1.00 20.00     0.020 C 
HETATM    6  C6  UNL     1     -34.579  17.033  -1.748  1.00 20.00    -0.014 C 
HETATM    7  C7  UNL     1     -35.873  15.016  -3.585  1.00 20.00     0.082 C 
HETATM    8 CL11 UNL     1     -36.282  13.631  -4.661  1.00 20.00    -0.125 Cl
ENDROOT
BRANCH   6   9
HETATM    9  C9  UNL     1     -33.653  17.838  -0.824  1.00 20.00     0.004 C 
BRANCH   9  10
HETATM   10  C10 UNL     1     -32.294  18.059  -1.472  1.00 20.00    -0.004 C 
HETATM   11  C8  UNL     1     -31.230  18.345  -0.425  1.00 20.00     0.005 C 
ENDBRANCH   9  10
ENDBRANCH   6   9
TORSDOF 2
ENDMDL
MODEL 9
REMARK VINA RESULT:      -4.2     15.219     16.381
REMARK  2 active torsions:
REMARK  status: ('A' for Active; 'I' for Inactive)
REMARK    1  A    between atoms: C6_6  and  C9_9 
REMARK    2  A    between atoms: C9_9  and  C10_10 
ROOT
HETATM    1  C1  UNL     1     -25.343  18.945  10.474  1.00 20.00     0.002 C 
HETATM    2  C2  UNL     1     -25.424  18.843   8.954  1.00 20.00     0.005 C 
HETATM    3  C3  UNL     1     -23.206  17.756   8.369  1.00 20.00     0.006 C 
HETATM    4  C4  UNL     1     -24.387  17.969  11.159  1.00 20.00     0.020 C 
HETATM    5  C5  UNL     1     -22.336  17.717   9.625  1.00 20.00     0.020 C 
HETATM    6  C6  UNL     1     -24.090  18.999   8.205  1.00 20.00    -0.014 C 
HETATM    7  C7  UNL     1     -22.921  18.316  10.904  1.00 20.00     0.082 C 
HETATM    8 CL11 UNL     1     -21.922  17.750  12.292  1.00 20.00    -0.125 Cl
ENDROOT
BRANCH   6   9
HETATM    9  C9  UNL     1     -24.385  19.216   6.714  1.00 20.00     0.004 C 
BRANCH   9  10
HETATM   10  C10 UNL     1     -25.884  19.263   6.455  1.00 20.00    -0.004 C 
HETATM   11  C8  UNL     1     -26.212  18.772   5.054  1.00 20.00     0.005 C 
ENDBRANCH   9  10
ENDBRANCH   6   9
TORSDOF 2
ENDMDL
