MODEL 1
REMARK VINA RESULT:      -4.5      0.000      0.000
REMARK  1 active torsions:
REMARK  status: ('A' for Active; 'I' for Inactive)
REMARK    1  A    between atoms: C4_4  and  C8_8 
ROOT
HETATM    1  C5  UNL     1     -33.653  17.990  -0.899  1.00 20.00     0.002 C 
HETATM    2  C6  UNL     1     -34.803  17.052  -1.280  1.00 20.00     0.011 C 
HETATM    3  C7  UNL     1     -32.525  17.712  -1.892  1.00 20.00     0.021 C 
HETATM    4  C8  UNL     1     -34.219  16.079  -2.320  1.00 20.00     0.037 C 
HETATM    5  C9  UNL     1     -33.176  16.955  -3.046  1.00 20.00     0.090 C 
HETATM    6 CL11 UNL     1     -33.929  18.113  -4.188  1.00 20.00    -0.124 Cl
ENDROOT
BRANCH   4   7
HETATM    7  C4  UNL     1     -35.197  15.326  -3.197  1.00 20.00    -0.046 A 
HETATM    8  C1  UNL     1     -34.884  14.114  -3.877  1.00 20.00     0.015 A 
HETATM    9  C2  UNL     1     -35.953  13.639  -4.606  1.00 20.00     0.050 A 
HETATM   10  S10 UNL     1     -37.326  14.654  -4.470  1.00 20.00    -0.113 SA
HETATM   11  C3  UNL     1     -36.493  15.732  -3.433  1.00 20.00     0.057 A 
ENDBRANCH   4   7
TORSDOF 1
ENDMDL
MODEL 2
REMARK VINA RESULT:      -4.5      2.129      4.359
REMARK  1 active torsions:
REMARK  status: ('A' for Active; 'I' for Inactive)
REMARK    1  A    between atoms: C4_4  and  C8_8 
ROOT
HETATM    1  C5  UNL     1     -35.920  13.630  -4.627  1.00 20.00     0.002 C 
HETATM    2  C6  UNL     1     -34.779  14.227  -3.797  1.00 20.00     0.011 C 
HETATM    3  C7  UNL     1     -37.143  14.509  -4.369  1.00 20.00     0.021 C 
HETATM    4  C8  UNL     1     -35.435  15.280  -2.884  1.00 20.00     0.037 C 
HETATM    5  C9  UNL     1     -36.599  15.795  -3.756  1.00 20.00     0.090 C 
HETATM    6 CL11 UNL     1     -36.048  16.903  -5.052  1.00 20.00    -0.124 Cl
ENDROOT
BRANCH   4   7
HETATM    7  C4  UNL     1     -34.533  16.330  -2.272  1.00 20.00    -0.046 A 
HETATM    8  C1  UNL     1     -33.244  16.666  -2.780  1.00 20.00     0.015 A 
HETATM    9  C2  UNL     1     -32.636  17.653  -2.036  1.00 20.00     0.050 A 
HETATM   10  S10 UNL     1     -33.615  18.170  -0.730  1.00 20.00    -0.113 SA
HETATM   11  C3  UNL     1     -34.859  17.073  -1.158  1.00 20.00     0.057 A 
ENDBRANCH   4   7
TORSDOF 1
ENDMDL
MODEL 3
REMARK VINA RESULT:      -4.5      2.143      4.495
REMARK  1 active torsions:
REMARK  status: ('A' for Active; 'I' for Inactive)
REMARK    1  A    between atoms: C4_4  and  C8_8 
ROOT
HETATM    1  C5  UNL     1     -35.894  13.644  -4.702  1.00 20.00     0.002 C 
HETATM    2  C6  UNL     1     -34.743  14.256  -3.899  1.00 20.00     0.011 C 
HETATM    3  C7  UNL     1     -37.142  14.449  -4.344  1.00 20.00     0.021 C 
HETATM    4  C8  UNL     1     -35.400  15.234  -2.907  1.00 20.00     0.037 C 
HETATM    5  C9  UNL     1     -36.628  15.731  -3.696  1.00 20.00     0.090 C 
HETATM    6 CL11 UNL     1     -36.194  16.923  -4.962  1.00 20.00    -0.124 Cl
ENDROOT
BRANCH   4   7
HETATM    7  C4  UNL     1     -34.518  16.297  -2.288  1.00 20.00    -0.046 A 
HETATM    8  C1  UNL     1     -34.883  17.064  -1.142  1.00 20.00     0.015 A 
HETATM    9  C2  UNL     1     -33.900  17.961  -0.787  1.00 20.00     0.050 A 
HETATM   10  S10 UNL     1     -32.545  17.879  -1.832  1.00 20.00    -0.113 SA
HETATM   11  C3  UNL     1     -33.271  16.639  -2.763  1.00 20.00     0.057 A 
ENDBRANCH   4   7
TORSDOF 1
ENDMDL
MODEL 4
REMARK VINA RESULT:      -4.2      2.254      4.291
REMARK  1 active torsions:
REMARK  status: ('A' for Active; 'I' for Inactive)
REMARK    1  A    between atoms: C4_4  and  C8_8 
ROOT
HETATM    1  C5  UNL     1     -33.650  14.736  -4.462  1.00 20.00     0.002 C 
HETATM    2  C6  UNL     1     -33.255  15.781  -3.415  1.00 20.00     0.011 C 
HETATM    3  C7  UNL     1     -35.106  14.370  -4.173  1.00 20.00     0.021 C 
HETATM    4  C8  UNL     1     -34.407  15.805  -2.393  1.00 20.00     0.037 C 
HETATM    5  C9  UNL     1     -35.634  15.480  -3.270  1.00 20.00     0.090 C 
HETATM    6 CL11 UNL     1     -36.158  16.877  -4.263  1.00 20.00    -0.124 Cl
ENDROOT
BRANCH   4   7
HETATM    7  C4  UNL     1     -34.520  17.020  -1.497  1.00 20.00    -0.046 A 
HETATM    8  C1  UNL     1     -33.545  18.058  -1.439  1.00 20.00     0.015 A 
HETATM    9  C2  UNL     1     -33.893  19.044  -0.542  1.00 20.00     0.050 A 
HETATM   10  S10 UNL     1     -35.388  18.717   0.227  1.00 20.00    -0.113 SA
HETATM   11  C3  UNL     1     -35.575  17.253  -0.642  1.00 20.00     0.057 A 
ENDBRANCH   4   7
TORSDOF 1
ENDMDL
MODEL 5
REMARK VINA RESULT:      -4.1     14.960     16.725
REMARK  1 active torsions:
REMARK  status: ('A' for Active; 'I' for Inactive)
REMARK    1  A    between atoms: C4_4  and  C8_8 
ROOT
HETATM    1  C5  UNL     1     -21.392  17.770  10.619  1.00 20.00     0.002 C 
HETATM    2  C6  UNL     1     -22.078  18.266   9.344  1.00 20.00     0.011 C 
HETATM    3  C7  UNL     1     -22.458  17.785  11.714  1.00 20.00     0.021 C 
HETATM    4  C8  UNL     1     -23.453  18.796   9.790  1.00 20.00     0.037 C 
HETATM    5  C9  UNL     1     -23.793  17.877  10.981  1.00 20.00     0.090 C 
HETATM    6 CL11 UNL     1     -24.317  16.244  10.460  1.00 20.00    -0.124 Cl
ENDROOT
BRANCH   4   7
HETATM    7  C4  UNL     1     -24.521  18.947   8.727  1.00 20.00    -0.046 A 
HETATM    8  C1  UNL     1     -25.902  19.156   9.011  1.00 20.00     0.015 A 
HETATM    9  C2  UNL     1     -26.656  19.260   7.863  1.00 20.00     0.050 A 
HETATM   10  S10 UNL     1     -25.702  19.103   6.450  1.00 20.00    -0.113 SA
HETATM   11  C3  UNL     1     -24.274  18.898   7.372  1.00 20.00     0.057 A 
ENDBRANCH   4   7
TORSDOF 1
ENDMDL
MODEL 6
REMARK VINA RESULT:      -4.1      1.117      1.188
REMARK  1 active torsions:
REMARK  status: ('A' for Active; 'I' for Inactive)
REMARK    1  A    between atoms: C4_4  and  C8_8 
ROOT
HETATM    1  C5  UNL     1     -34.471  17.734  -0.351  1.00 20.00     0.002 C 
HETATM    2  C6  UNL     1     -35.178  16.711  -1.245  1.00 20.00     0.011 C 
HETATM    3  C7  UNL     1     -33.110  17.998  -0.994  1.00 20.00     0.021 C 
HETATM    4  C8  UNL     1     -34.110  16.219  -2.240  1.00 20.00     0.037 C 
HETATM    5  C9  UNL     1     -33.224  17.469  -2.420  1.00 20.00     0.090 C 
HETATM    6 CL11 UNL     1     -33.986  18.705  -3.471  1.00 20.00    -0.124 Cl
ENDROOT
BRANCH   4   7
HETATM    7  C4  UNL     1     -34.594  15.545  -3.506  1.00 20.00    -0.046 A 
HETATM    8  C1  UNL     1     -33.782  15.345  -4.660  1.00 20.00     0.015 A 
HETATM    9  C2  UNL     1     -34.469  14.708  -5.671  1.00 20.00     0.050 A 
HETATM   10  S10 UNL     1     -36.085  14.356  -5.228  1.00 20.00    -0.113 SA
HETATM   11  C3  UNL     1     -35.870  15.054  -3.680  1.00 20.00     0.057 A 
ENDBRANCH   4   7
TORSDOF 1
ENDMDL
MODEL 7
REMARK VINA RESULT:      -4.0      1.532      1.956
REMARK  1 active torsions:
REMARK  status: ('A' for Active; 'I' for Inactive)
REMARK    1  A    between atoms: C4_4  and  C8_8 
ROOT
HETATM    1  C5  UNL     1     -35.111  18.409   0.197  1.00 20.00     0.002 C 
HETATM    2  C6  UNL     1     -35.226  17.054  -0.506  1.00 20.00     0.011 C 
HETATM    3  C7  UNL     1     -34.087  19.220  -0.596  1.00 20.00     0.021 C 
HETATM    4  C8  UNL     1     -34.081  17.021  -1.536  1.00 20.00     0.037 C 
HETATM    5  C9  UNL     1     -33.953  18.505  -1.937  1.00 20.00     0.090 C 
HETATM    6 CL11 UNL     1     -35.261  19.032  -3.043  1.00 20.00    -0.124 Cl
ENDROOT
BRANCH   4   7
HETATM    7  C4  UNL     1     -34.190  16.021  -2.668  1.00 20.00    -0.046 A 
HETATM    8  C1  UNL     1     -33.120  15.708  -3.556  1.00 20.00     0.015 A 
HETATM    9  C2  UNL     1     -33.486  14.767  -4.494  1.00 20.00     0.050 A 
HETATM   10  S10 UNL     1     -35.113  14.267  -4.302  1.00 20.00    -0.113 SA
HETATM   11  C3  UNL     1     -35.331  15.308  -2.961  1.00 20.00     0.057 A 
ENDBRANCH   4   7
TORSDOF 1
ENDMDL
MODEL 8
REMARK VINA RESULT:      -3.9      1.436      1.805
REMARK  1 active torsions:
REMARK  status: ('A' for Active; 'I' for Inactive)
REMARK    1  A    between atoms: C4_4  and  C8_8 
ROOT
HETATM    1  C5  UNL     1     -32.538  17.968  -1.794  1.00 20.00     0.002 C 
HETATM    2  C6  UNL     1     -32.959  16.769  -2.650  1.00 20.00     0.011 C 
HETATM    3  C7  UNL     1     -33.804  18.792  -1.560  1.00 20.00     0.021 C 
HETATM    4  C8  UNL     1     -34.401  17.064  -3.101  1.00 20.00     0.037 C 
HETATM    5  C9  UNL     1     -34.964  17.865  -1.909  1.00 20.00     0.090 C 
HETATM    6 CL11 UNL     1     -35.355  16.822  -0.505  1.00 20.00    -0.124 Cl
ENDROOT
BRANCH   4   7
HETATM    7  C4  UNL     1     -35.234  15.896  -3.584  1.00 20.00    -0.046 A 
HETATM    8  C1  UNL     1     -34.728  14.574  -3.749  1.00 20.00     0.015 A 
HETATM    9  C2  UNL     1     -35.695  13.702  -4.200  1.00 20.00     0.050 A 
HETATM   10  S10 UNL     1     -37.205  14.478  -4.424  1.00 20.00    -0.113 SA
HETATM   11  C3  UNL     1     -36.568  15.984  -3.916  1.00 20.00     0.057 A 
ENDBRANCH   4   7
TORSDOF 1
ENDMDL
MODEL 9
REMARK VINA RESULT:      -3.9      1.285      1.703
REMARK  1 active torsions:
REMARK  status: ('A' for Active; 'I' for Inactive)
REMARK    1  A    between atoms: C4_4  and  C8_8 
ROOT
HETATM    1  C5  UNL     1     -33.427  19.149  -0.160  1.00 20.00     0.002 C 
HETATM    2  C6  UNL     1     -34.234  17.942  -0.647  1.00 20.00     0.011 C 
HETATM    3  C7  UNL     1     -32.169  19.201  -1.025  1.00 20.00     0.021 C 
HETATM    4  C8  UNL     1     -33.304  17.179  -1.608  1.00 20.00     0.037 C 
HETATM    5  C9  UNL     1     -32.467  18.315  -2.231  1.00 20.00     0.090 C 
HETATM    6 CL11 UNL     1     -33.381  19.245  -3.461  1.00 20.00    -0.124 Cl
ENDROOT
BRANCH   4   7
HETATM    7  C4  UNL     1     -33.945  16.204  -2.573  1.00 20.00    -0.046 A 
HETATM    8  C1  UNL     1     -33.231  15.508  -3.590  1.00 20.00     0.015 A 
HETATM    9  C2  UNL     1     -34.053  14.684  -4.327  1.00 20.00     0.050 A 
HETATM   10  S10 UNL     1     -35.679  14.754  -3.794  1.00 20.00    -0.113 SA
HETATM   11  C3  UNL     1     -35.286  15.887  -2.572  1.00 20.00     0.057 A 
ENDBRANCH   4   7
TORSDOF 1
ENDMDL
