MODEL 1
REMARK VINA RESULT:      -4.8      0.000      0.000
REMARK  0 active torsions:
REMARK  status: ('A' for Active; 'I' for Inactive)
ROOT
HETATM    1  C1  UNL     1     -36.212  14.379  -4.327  1.00 20.00     0.085 C 
HETATM    2  C2  UNL     1     -34.098  16.584  -1.955  1.00 20.00     0.004 C 
HETATM    3  C3  UNL     1     -35.255  15.837  -2.617  1.00 20.00     0.041 C 
HETATM    4  C4  UNL     1     -35.178  16.453  -5.100  1.00 20.00     0.042 C 
HETATM    5  C5  UNL     1     -33.126  17.404  -2.800  1.00 20.00     0.009 C 
HETATM    6  C6  UNL     1     -34.017  17.443  -5.186  1.00 20.00     0.011 C 
HETATM    7  C7  UNL     1     -35.103  15.324  -4.055  1.00 20.00     0.125 C 
HETATM    8  C8  UNL     1     -33.682  18.288  -3.935  1.00 20.00    -0.048 C 
HETATM    9  C9  UNL     1     -32.548  19.263  -4.349  1.00 20.00     0.015 C 
HETATM   10  C10 UNL     1     -34.873  19.145  -3.480  1.00 20.00     0.015 C 
HETATM   11  N11 UNL     1     -37.080  13.639  -4.539  1.00 20.00    -0.195 NA
HETATM   12 CL12 UNL     1     -33.615  14.342  -4.245  1.00 20.00    -0.103 Cl
ENDROOT
TORSDOF 0
ENDMDL
MODEL 2
REMARK VINA RESULT:      -4.7      1.579      1.952
REMARK  0 active torsions:
REMARK  status: ('A' for Active; 'I' for Inactive)
ROOT
HETATM    1  C1  UNL     1     -37.168  14.728  -4.368  1.00 20.00     0.085 C 
HETATM    2  C2  UNL     1     -33.485  15.465  -3.448  1.00 20.00     0.004 C 
HETATM    3  C3  UNL     1     -34.895  14.877  -3.488  1.00 20.00     0.041 C 
HETATM    4  C4  UNL     1     -36.503  16.866  -3.393  1.00 20.00     0.042 C 
HETATM    5  C5  UNL     1     -33.280  16.977  -3.461  1.00 20.00     0.009 C 
HETATM    6  C6  UNL     1     -35.572  18.071  -3.266  1.00 20.00     0.011 C 
HETATM    7  C7  UNL     1     -36.017  15.646  -4.197  1.00 20.00     0.125 C 
HETATM    8  C8  UNL     1     -34.195  17.865  -2.594  1.00 20.00    -0.048 C 
HETATM    9  C9  UNL     1     -33.527  19.263  -2.512  1.00 20.00     0.015 C 
HETATM   10  C10 UNL     1     -34.327  17.341  -1.155  1.00 20.00     0.015 C 
HETATM   11  N11 UNL     1     -38.069  14.009  -4.502  1.00 20.00    -0.195 NA
HETATM   12 CL12 UNL     1     -35.547  16.097  -5.867  1.00 20.00    -0.103 Cl
ENDROOT
TORSDOF 0
ENDMDL
MODEL 3
REMARK VINA RESULT:      -4.7      1.849      2.864
REMARK  0 active torsions:
REMARK  status: ('A' for Active; 'I' for Inactive)
ROOT
HETATM    1  C1  UNL     1     -37.611  14.818  -4.243  1.00 20.00     0.085 C 
HETATM    2  C2  UNL     1     -34.798  17.245  -5.315  1.00 20.00     0.004 C 
HETATM    3  C3  UNL     1     -35.746  16.050  -5.227  1.00 20.00     0.041 C 
HETATM    4  C4  UNL     1     -35.710  15.288  -2.783  1.00 20.00     0.042 C 
HETATM    5  C5  UNL     1     -34.135  17.799  -4.057  1.00 20.00     0.009 C 
HETATM    6  C6  UNL     1     -34.697  16.228  -2.131  1.00 20.00     0.011 C 
HETATM    7  C7  UNL     1     -36.563  15.823  -3.947  1.00 20.00     0.125 C 
HETATM    8  C8  UNL     1     -33.570  16.815  -3.013  1.00 20.00    -0.048 C 
HETATM    9  C9  UNL     1     -32.648  17.631  -2.070  1.00 20.00     0.015 C 
HETATM   10  C10 UNL     1     -32.705  15.716  -3.651  1.00 20.00     0.015 C 
HETATM   11  N11 UNL     1     -38.431  14.030  -4.474  1.00 20.00    -0.195 NA
HETATM   12 CL12 UNL     1     -37.470  17.298  -3.482  1.00 20.00    -0.103 Cl
ENDROOT
TORSDOF 0
ENDMDL
MODEL 4
REMARK VINA RESULT:      -4.6      1.824      2.571
REMARK  0 active torsions:
REMARK  status: ('A' for Active; 'I' for Inactive)
ROOT
HETATM    1  C1  UNL     1     -36.984  16.127  -6.278  1.00 20.00     0.085 C 
HETATM    2  C2  UNL     1     -34.342  14.465  -3.995  1.00 20.00     0.004 C 
HETATM    3  C3  UNL     1     -35.653  14.841  -4.685  1.00 20.00     0.041 C 
HETATM    4  C4  UNL     1     -35.836  17.390  -4.531  1.00 20.00     0.042 C 
HETATM    5  C5  UNL     1     -33.405  15.552  -3.475  1.00 20.00     0.009 C 
HETATM    6  C6  UNL     1     -34.593  17.789  -3.737  1.00 20.00     0.011 C 
HETATM    7  C7  UNL     1     -35.750  16.163  -5.458  1.00 20.00     0.125 C 
HETATM    8  C8  UNL     1     -34.003  16.767  -2.738  1.00 20.00    -0.048 C 
HETATM    9  C9  UNL     1     -32.832  17.481  -2.013  1.00 20.00     0.015 C 
HETATM   10  C10 UNL     1     -35.020  16.357  -1.662  1.00 20.00     0.015 C 
HETATM   11  N11 UNL     1     -37.950  16.097  -6.920  1.00 20.00    -0.195 NA
HETATM   12 CL12 UNL     1     -34.421  16.323  -6.649  1.00 20.00    -0.103 Cl
ENDROOT
TORSDOF 0
ENDMDL
MODEL 5
REMARK VINA RESULT:      -4.6      1.553      2.647
REMARK  0 active torsions:
REMARK  status: ('A' for Active; 'I' for Inactive)
ROOT
HETATM    1  C1  UNL     1     -35.745  13.968  -4.320  1.00 20.00     0.085 C 
HETATM    2  C2  UNL     1     -34.428  17.555  -4.918  1.00 20.00     0.004 C 
HETATM    3  C3  UNL     1     -34.569  16.034  -4.883  1.00 20.00     0.041 C 
HETATM    4  C4  UNL     1     -35.121  15.422  -2.459  1.00 20.00     0.042 C 
HETATM    5  C5  UNL     1     -34.708  18.385  -3.668  1.00 20.00     0.009 C 
HETATM    6  C6  UNL     1     -35.093  16.769  -1.737  1.00 20.00     0.011 C 
HETATM    7  C7  UNL     1     -35.582  15.389  -3.928  1.00 20.00     0.125 C 
HETATM    8  C8  UNL     1     -34.187  17.886  -2.305  1.00 20.00    -0.048 C 
HETATM    9  C9  UNL     1     -34.281  19.078  -1.318  1.00 20.00     0.015 C 
HETATM   10  C10 UNL     1     -32.712  17.460  -2.362  1.00 20.00     0.015 C 
HETATM   11  N11 UNL     1     -35.871  12.857  -4.628  1.00 20.00    -0.195 NA
HETATM   12 CL12 UNL     1     -37.215  16.102  -4.127  1.00 20.00    -0.103 Cl
ENDROOT
TORSDOF 0
ENDMDL
MODEL 6
REMARK VINA RESULT:      -4.6      1.773      2.881
REMARK  0 active torsions:
REMARK  status: ('A' for Active; 'I' for Inactive)
ROOT
HETATM    1  C1  UNL     1     -35.847  14.824  -5.536  1.00 20.00     0.085 C 
HETATM    2  C2  UNL     1     -34.933  18.377  -4.313  1.00 20.00     0.004 C 
HETATM    3  C3  UNL     1     -34.950  17.046  -5.063  1.00 20.00     0.041 C 
HETATM    4  C4  UNL     1     -35.017  15.217  -3.273  1.00 20.00     0.042 C 
HETATM    5  C5  UNL     1     -35.050  18.407  -2.792  1.00 20.00     0.009 C 
HETATM    6  C6  UNL     1     -34.964  16.000  -1.962  1.00 20.00     0.011 C 
HETATM    7  C7  UNL     1     -35.726  15.857  -4.480  1.00 20.00     0.125 C 
HETATM    8  C8  UNL     1     -34.260  17.377  -1.959  1.00 20.00    -0.048 C 
HETATM    9  C9  UNL     1     -34.268  17.877  -0.491  1.00 20.00     0.015 C 
HETATM   10  C10 UNL     1     -32.790  17.276  -2.395  1.00 20.00     0.015 C 
HETATM   11  N11 UNL     1     -35.941  14.015  -6.363  1.00 20.00    -0.195 NA
HETATM   12 CL12 UNL     1     -37.418  16.308  -4.094  1.00 20.00    -0.103 Cl
ENDROOT
TORSDOF 0
ENDMDL
MODEL 7
REMARK VINA RESULT:      -4.5      1.181      1.299
REMARK  0 active torsions:
REMARK  status: ('A' for Active; 'I' for Inactive)
ROOT
HETATM    1  C1  UNL     1     -35.334  14.770  -5.637  1.00 20.00     0.085 C 
HETATM    2  C2  UNL     1     -34.932  15.970  -1.982  1.00 20.00     0.004 C 
HETATM    3  C3  UNL     1     -35.519  15.527  -3.322  1.00 20.00     0.041 C 
HETATM    4  C4  UNL     1     -34.373  16.954  -5.112  1.00 20.00     0.042 C 
HETATM    5  C5  UNL     1     -33.809  17.003  -1.936  1.00 20.00     0.009 C 
HETATM    6  C6  UNL     1     -33.467  17.881  -4.302  1.00 20.00     0.011 C 
HETATM    7  C7  UNL     1     -34.635  15.534  -4.576  1.00 20.00     0.125 C 
HETATM    8  C8  UNL     1     -33.887  18.236  -2.857  1.00 20.00    -0.048 C 
HETATM    9  C9  UNL     1     -32.848  19.262  -2.333  1.00 20.00     0.015 C 
HETATM   10  C10 UNL     1     -35.262  18.919  -2.807  1.00 20.00     0.015 C 
HETATM   11  N11 UNL     1     -35.882  14.172  -6.466  1.00 20.00    -0.195 NA
HETATM   12 CL12 UNL     1     -33.108  14.635  -4.304  1.00 20.00    -0.103 Cl
ENDROOT
TORSDOF 0
ENDMDL
MODEL 8
REMARK VINA RESULT:      -4.4      1.731      2.330
REMARK  0 active torsions:
REMARK  status: ('A' for Active; 'I' for Inactive)
ROOT
HETATM    1  C1  UNL     1     -35.888  14.216  -4.841  1.00 20.00     0.085 C 
HETATM    2  C2  UNL     1     -33.206  16.257  -2.945  1.00 20.00     0.004 C 
HETATM    3  C3  UNL     1     -34.127  15.134  -3.419  1.00 20.00     0.041 C 
HETATM    4  C4  UNL     1     -36.497  16.101  -3.413  1.00 20.00     0.042 C 
HETATM    5  C5  UNL     1     -33.765  17.650  -2.673  1.00 20.00     0.009 C 
HETATM    6  C6  UNL     1     -36.301  17.519  -2.877  1.00 20.00     0.011 C 
HETATM    7  C7  UNL     1     -35.370  15.474  -4.253  1.00 20.00     0.125 C 
HETATM    8  C8  UNL     1     -35.109  17.786  -1.929  1.00 20.00    -0.048 C 
HETATM    9  C9  UNL     1     -35.229  19.263  -1.470  1.00 20.00     0.015 C 
HETATM   10  C10 UNL     1     -35.170  16.913  -0.665  1.00 20.00     0.015 C 
HETATM   11  N11 UNL     1     -36.293  13.231  -5.300  1.00 20.00    -0.195 NA
HETATM   12 CL12 UNL     1     -34.949  16.493  -5.666  1.00 20.00    -0.103 Cl
ENDROOT
TORSDOF 0
ENDMDL
MODEL 9
REMARK VINA RESULT:      -4.3      2.772      4.140
REMARK  0 active torsions:
REMARK  status: ('A' for Active; 'I' for Inactive)
ROOT
HETATM    1  C1  UNL     1     -32.621  17.912  -2.091  1.00 20.00     0.085 C 
HETATM    2  C2  UNL     1     -33.944  14.748  -3.878  1.00 20.00     0.004 C 
HETATM    3  C3  UNL     1     -33.054  15.891  -3.392  1.00 20.00     0.041 C 
HETATM    4  C4  UNL     1     -34.380  18.046  -3.780  1.00 20.00     0.042 C 
HETATM    5  C5  UNL     1     -35.363  15.029  -4.366  1.00 20.00     0.009 C 
HETATM    6  C6  UNL     1     -35.667  17.557  -4.443  1.00 20.00     0.011 C 
HETATM    7  C7  UNL     1     -33.693  17.130  -2.751  1.00 20.00     0.125 C 
HETATM    8  C8  UNL     1     -35.615  16.252  -5.271  1.00 20.00    -0.048 C 
HETATM    9  C9  UNL     1     -37.020  16.069  -5.901  1.00 20.00     0.015 C 
HETATM   10  C10 UNL     1     -34.608  16.342  -6.428  1.00 20.00     0.015 C 
HETATM   11  N11 UNL     1     -31.781  18.524  -1.575  1.00 20.00    -0.195 NA
HETATM   12 CL12 UNL     1     -34.805  16.676  -1.420  1.00 20.00    -0.103 Cl
ENDROOT
TORSDOF 0
ENDMDL
