MODEL 1
REMARK VINA RESULT:      -5.0      0.000      0.000
REMARK  1 active torsions:
REMARK  status: ('A' for Active; 'I' for Inactive)
REMARK    1  A    between atoms: C7_7  and  C11_11 
ROOT
HETATM    1  C1  UNL     1     -36.101  15.348  -3.308  1.00 20.00     0.004 C 
HETATM    2  C2  UNL     1     -35.192  15.890  -2.199  1.00 20.00     0.005 C 
HETATM    3  C3  UNL     1     -32.888  16.391  -3.281  1.00 20.00     0.008 C 
HETATM    4  C4  UNL     1     -35.422  14.403  -4.293  1.00 20.00     0.040 C 
HETATM    5  C5  UNL     1     -32.978  15.094  -4.080  1.00 20.00     0.041 C 
HETATM    6  C6  UNL     1     -34.340  15.860  -6.173  1.00 20.00     0.207 A 
HETATM    7  C7  UNL     1     -34.199  16.955  -2.699  1.00 20.00    -0.011 C 
HETATM    8  C8  UNL     1     -34.206  15.003  -4.934  1.00 20.00     0.082 A 
HETATM    9  O12 UNL     1     -33.947  14.483  -6.250  1.00 20.00    -0.375 OA
ENDROOT
BRANCH   7  10
HETATM   10  C11 UNL     1     -33.859  17.936  -1.570  1.00 20.00    -0.019 C 
HETATM   11  C9  UNL     1     -34.598  17.551  -0.293  1.00 20.00     0.010 C 
HETATM   12  C10 UNL     1     -32.352  17.971  -1.335  1.00 20.00     0.010 C 
ENDBRANCH   7  10
TORSDOF 1
ENDMDL
MODEL 2
REMARK VINA RESULT:      -5.0      1.192      2.485
REMARK  1 active torsions:
REMARK  status: ('A' for Active; 'I' for Inactive)
REMARK    1  A    between atoms: C7_7  and  C11_11 
ROOT
HETATM    1  C1  UNL     1     -33.156  14.923  -4.101  1.00 20.00     0.004 C 
HETATM    2  C2  UNL     1     -33.427  16.154  -3.228  1.00 20.00     0.005 C 
HETATM    3  C3  UNL     1     -35.988  16.572  -3.277  1.00 20.00     0.008 C 
HETATM    4  C4  UNL     1     -33.987  14.842  -5.377  1.00 20.00     0.040 C 
HETATM    5  C5  UNL     1     -36.011  16.269  -4.773  1.00 20.00     0.041 C 
HETATM    6  C6  UNL     1     -36.244  13.668  -4.780  1.00 20.00     0.207 A 
HETATM    7  C7  UNL     1     -34.768  16.076  -2.475  1.00 20.00    -0.011 C 
HETATM    8  C8  UNL     1     -35.462  14.918  -5.118  1.00 20.00     0.082 A 
HETATM    9  O12 UNL     1     -36.244  14.220  -6.102  1.00 20.00    -0.375 OA
ENDROOT
BRANCH   7  10
HETATM   10  C11 UNL     1     -34.685  16.863  -1.161  1.00 20.00    -0.019 C 
HETATM   11  C9  UNL     1     -33.524  17.849  -1.207  1.00 20.00     0.010 C 
HETATM   12  C10 UNL     1     -36.001  17.586  -0.894  1.00 20.00     0.010 C 
ENDBRANCH   7  10
TORSDOF 1
ENDMDL
MODEL 3
REMARK VINA RESULT:      -4.9      0.612      1.174
REMARK  1 active torsions:
REMARK  status: ('A' for Active; 'I' for Inactive)
REMARK    1  A    between atoms: C7_7  and  C11_11 
ROOT
HETATM    1  C1  UNL     1     -36.182  15.740  -3.274  1.00 20.00     0.004 C 
HETATM    2  C2  UNL     1     -35.074  15.933  -2.231  1.00 20.00     0.005 C 
HETATM    3  C3  UNL     1     -32.812  15.821  -3.496  1.00 20.00     0.008 C 
HETATM    4  C4  UNL     1     -35.881  14.702  -4.349  1.00 20.00     0.040 C 
HETATM    5  C5  UNL     1     -33.332  14.654  -4.331  1.00 20.00     0.041 C 
HETATM    6  C6  UNL     1     -34.568  15.901  -6.264  1.00 20.00     0.207 A 
HETATM    7  C7  UNL     1     -33.857  16.699  -2.779  1.00 20.00    -0.011 C 
HETATM    8  C8  UNL     1     -34.595  14.968  -5.074  1.00 20.00     0.082 A 
HETATM    9  O12 UNL     1     -34.598  14.477  -6.425  1.00 20.00    -0.375 OA
ENDROOT
BRANCH   7  10
HETATM   10  C11 UNL     1     -33.164  17.472  -1.650  1.00 20.00    -0.019 C 
HETATM   11  C9  UNL     1     -32.382  18.651  -2.217  1.00 20.00     0.010 C 
HETATM   12  C10 UNL     1     -34.190  17.943  -0.624  1.00 20.00     0.010 C 
ENDBRANCH   7  10
TORSDOF 1
ENDMDL
MODEL 4
REMARK VINA RESULT:      -4.6      1.514      2.206
REMARK  1 active torsions:
REMARK  status: ('A' for Active; 'I' for Inactive)
REMARK    1  A    between atoms: C7_7  and  C11_11 
ROOT
HETATM    1  C1  UNL     1     -36.792  16.964  -4.675  1.00 20.00     0.004 C 
HETATM    2  C2  UNL     1     -36.261  16.655  -3.270  1.00 20.00     0.005 C 
HETATM    3  C3  UNL     1     -34.702  14.592  -3.484  1.00 20.00     0.008 C 
HETATM    4  C4  UNL     1     -37.142  15.740  -5.515  1.00 20.00     0.040 C 
HETATM    5  C5  UNL     1     -35.692  13.938  -4.443  1.00 20.00     0.041 C 
HETATM    6  C6  UNL     1     -34.964  14.964  -6.731  1.00 20.00     0.207 A 
HETATM    7  C7  UNL     1     -34.819  16.115  -3.276  1.00 20.00    -0.011 C 
HETATM    8  C8  UNL     1     -36.000  14.776  -5.647  1.00 20.00     0.082 A 
HETATM    9  O12 UNL     1     -36.036  14.023  -6.871  1.00 20.00    -0.375 OA
ENDROOT
BRANCH   7  10
HETATM   10  C11 UNL     1     -34.106  16.494  -1.972  1.00 20.00    -0.019 C 
HETATM   11  C9  UNL     1     -33.016  17.524  -2.244  1.00 20.00     0.010 C 
HETATM   12  C10 UNL     1     -35.111  17.023  -0.954  1.00 20.00     0.010 C 
ENDBRANCH   7  10
TORSDOF 1
ENDMDL
MODEL 5
REMARK VINA RESULT:      -4.6      1.814      2.512
REMARK  1 active torsions:
REMARK  status: ('A' for Active; 'I' for Inactive)
REMARK    1  A    between atoms: C7_7  and  C11_11 
ROOT
HETATM    1  C1  UNL     1     -35.877  13.730  -4.400  1.00 20.00     0.004 C 
HETATM    2  C2  UNL     1     -34.687  14.411  -3.712  1.00 20.00     0.005 C 
HETATM    3  C3  UNL     1     -34.638  16.870  -4.538  1.00 20.00     0.008 C 
HETATM    4  C4  UNL     1     -36.088  14.121  -5.858  1.00 20.00     0.040 C 
HETATM    5  C5  UNL     1     -34.957  16.404  -5.956  1.00 20.00     0.041 C 
HETATM    6  C6  UNL     1     -37.565  16.278  -5.893  1.00 20.00     0.207 A 
HETATM    7  C7  UNL     1     -34.946  15.893  -3.387  1.00 20.00    -0.011 C 
HETATM    8  C8  UNL     1     -36.220  15.603  -6.051  1.00 20.00     0.082 A 
HETATM    9  O12 UNL     1     -37.032  15.954  -7.185  1.00 20.00    -0.375 OA
ENDROOT
BRANCH   7  10
HETATM   10  C11 UNL     1     -34.141  16.313  -2.151  1.00 20.00    -0.019 C 
HETATM   11  C9  UNL     1     -33.030  17.279  -2.545  1.00 20.00     0.010 C 
HETATM   12  C10 UNL     1     -35.061  16.940  -1.108  1.00 20.00     0.010 C 
ENDBRANCH   7  10
TORSDOF 1
ENDMDL
MODEL 6
REMARK VINA RESULT:      -4.4      2.428      4.766
REMARK  1 active torsions:
REMARK  status: ('A' for Active; 'I' for Inactive)
REMARK    1  A    between atoms: C7_7  and  C11_11 
ROOT
HETATM    1  C1  UNL     1     -32.713  18.098  -2.620  1.00 20.00     0.004 C 
HETATM    2  C2  UNL     1     -32.877  16.613  -2.964  1.00 20.00     0.005 C 
HETATM    3  C3  UNL     1     -35.293  15.941  -2.295  1.00 20.00     0.008 C 
HETATM    4  C4  UNL     1     -33.365  18.533  -1.313  1.00 20.00     0.040 C 
HETATM    5  C5  UNL     1     -35.167  16.756  -1.011  1.00 20.00     0.041 C 
HETATM    6  C6  UNL     1     -35.854  19.138  -1.831  1.00 20.00     0.207 A 
HETATM    7  C7  UNL     1     -34.300  16.256  -3.431  1.00 20.00    -0.011 C 
HETATM    8  C8  UNL     1     -34.825  18.196  -1.248  1.00 20.00     0.082 A 
HETATM    9  O12 UNL     1     -35.578  19.102  -0.425  1.00 20.00    -0.375 OA
ENDROOT
BRANCH   7  10
HETATM   10  C11 UNL     1     -34.257  15.064  -4.397  1.00 20.00    -0.019 C 
HETATM   11  C9  UNL     1     -32.866  14.442  -4.409  1.00 20.00     0.010 C 
HETATM   12  C10 UNL     1     -35.311  14.032  -4.010  1.00 20.00     0.010 C 
ENDBRANCH   7  10
TORSDOF 1
ENDMDL
MODEL 7
REMARK VINA RESULT:      -4.4      1.181      1.997
REMARK  1 active torsions:
REMARK  status: ('A' for Active; 'I' for Inactive)
REMARK    1  A    between atoms: C7_7  and  C11_11 
ROOT
HETATM    1  C1  UNL     1     -34.047  17.793  -5.001  1.00 20.00     0.004 C 
HETATM    2  C2  UNL     1     -34.301  18.317  -3.583  1.00 20.00     0.005 C 
HETATM    3  C3  UNL     1     -34.310  16.259  -2.003  1.00 20.00     0.008 C 
HETATM    4  C4  UNL     1     -34.755  16.487  -5.342  1.00 20.00     0.040 C 
HETATM    5  C5  UNL     1     -35.111  15.467  -3.033  1.00 20.00     0.041 C 
HETATM    6  C6  UNL     1     -33.216  14.524  -4.562  1.00 20.00     0.207 A 
HETATM    7  C7  UNL     1     -33.561  17.511  -2.501  1.00 20.00    -0.011 C 
HETATM    8  C8  UNL     1     -34.445  15.385  -4.373  1.00 20.00     0.082 A 
HETATM    9  O12 UNL     1     -34.516  14.076  -4.964  1.00 20.00    -0.375 OA
ENDROOT
BRANCH   7  10
HETATM   10  C11 UNL     1     -33.240  18.408  -1.298  1.00 20.00    -0.019 C 
HETATM   11  C9  UNL     1     -34.128  18.045  -0.114  1.00 20.00     0.010 C 
HETATM   12  C10 UNL     1     -31.765  18.288  -0.927  1.00 20.00     0.010 C 
ENDBRANCH   7  10
TORSDOF 1
ENDMDL
MODEL 8
REMARK VINA RESULT:      -4.3      2.525      4.561
REMARK  1 active torsions:
REMARK  status: ('A' for Active; 'I' for Inactive)
REMARK    1  A    between atoms: C7_7  and  C11_11 
ROOT
HETATM    1  C1  UNL     1     -37.014  17.249  -2.810  1.00 20.00     0.004 C 
HETATM    2  C2  UNL     1     -36.061  16.472  -3.727  1.00 20.00     0.005 C 
HETATM    3  C3  UNL     1     -33.839  16.161  -2.425  1.00 20.00     0.008 C 
HETATM    4  C4  UNL     1     -36.362  18.365  -2.001  1.00 20.00     0.040 C 
HETATM    5  C5  UNL     1     -33.933  17.597  -1.916  1.00 20.00     0.041 C 
HETATM    6  C6  UNL     1     -35.434  17.307   0.201  1.00 20.00     0.207 A 
HETATM    7  C7  UNL     1     -35.132  15.515  -2.959  1.00 20.00    -0.011 C 
HETATM    8  C8  UNL     1     -35.204  17.886  -1.176  1.00 20.00     0.082 A 
HETATM    9  O12 UNL     1     -35.003  18.662   0.018  1.00 20.00    -0.375 OA
ENDROOT
BRANCH   7  10
HETATM   10  C11 UNL     1     -34.761  14.316  -3.840  1.00 20.00    -0.019 C 
HETATM   11  C9  UNL     1     -35.985  13.815  -4.597  1.00 20.00     0.010 C 
HETATM   12  C10 UNL     1     -33.643  14.695  -4.806  1.00 20.00     0.010 C 
ENDBRANCH   7  10
TORSDOF 1
ENDMDL
MODEL 9
REMARK VINA RESULT:      -4.1      2.216      3.420
REMARK  1 active torsions:
REMARK  status: ('A' for Active; 'I' for Inactive)
REMARK    1  A    between atoms: C7_7  and  C11_11 
ROOT
HETATM    1  C1  UNL     1     -34.403  15.507  -2.959  1.00 20.00     0.004 C 
HETATM    2  C2  UNL     1     -33.812  16.464  -4.002  1.00 20.00     0.005 C 
HETATM    3  C3  UNL     1     -35.422  16.460  -6.036  1.00 20.00     0.008 C 
HETATM    4  C4  UNL     1     -35.020  14.234  -3.529  1.00 20.00     0.040 C 
HETATM    5  C5  UNL     1     -35.582  14.947  -5.911  1.00 20.00     0.041 C 
HETATM    6  C6  UNL     1     -37.502  14.765  -4.149  1.00 20.00     0.207 A 
HETATM    7  C7  UNL     1     -34.886  17.218  -4.805  1.00 20.00    -0.011 C 
HETATM    8  C8  UNL     1     -36.071  14.508  -4.564  1.00 20.00     0.082 A 
HETATM    9  O12 UNL     1     -37.077  13.483  -4.630  1.00 20.00    -0.375 OA
ENDROOT
BRANCH   7  10
HETATM   10  C11 UNL     1     -34.350  18.582  -5.258  1.00 20.00    -0.019 C 
HETATM   11  C9  UNL     1     -33.061  18.917  -4.516  1.00 20.00     0.010 C 
HETATM   12  C10 UNL     1     -34.125  18.587  -6.767  1.00 20.00     0.010 C 
ENDBRANCH   7  10
TORSDOF 1
ENDMDL
