MODEL 1
REMARK VINA RESULT:      -4.9      0.000      0.000
REMARK  2 active torsions:
REMARK  status: ('A' for Active; 'I' for Inactive)
REMARK    1  A    between atoms: C7_7  and  C10_10 
REMARK    2  A    between atoms: C10_10  and  C11_11 
ROOT
HETATM    1  C1  UNL     1     -32.910  14.779  -4.169  1.00 20.00     0.004 C 
HETATM    2  C2  UNL     1     -33.249  16.103  -3.478  1.00 20.00     0.005 C 
HETATM    3  C3  UNL     1     -35.761  16.164  -3.013  1.00 20.00     0.007 C 
HETATM    4  C4  UNL     1     -34.055  13.804  -4.412  1.00 20.00     0.040 C 
HETATM    5  C5  UNL     1     -36.249  14.918  -3.748  1.00 20.00     0.040 C 
HETATM    6  C6  UNL     1     -35.435  15.077  -6.226  1.00 20.00     0.207 A 
HETATM    7  C7  UNL     1     -34.348  16.049  -2.401  1.00 20.00    -0.014 C 
HETATM    8  C8  UNL     1     -35.321  14.478  -4.841  1.00 20.00     0.082 A 
HETATM    9  O12 UNL     1     -35.996  13.795  -5.912  1.00 20.00    -0.375 OA
ENDROOT
BRANCH   7  10
HETATM   10  C10 UNL     1     -34.146  17.210  -1.419  1.00 20.00     0.004 C 
BRANCH  10  11
HETATM   11  C11 UNL     1     -32.742  17.788  -1.536  1.00 20.00    -0.004 C 
HETATM   12  C9  UNL     1     -32.332  18.491  -0.252  1.00 20.00     0.005 C 
ENDBRANCH  10  11
ENDBRANCH   7  10
TORSDOF 2
ENDMDL
MODEL 2
REMARK VINA RESULT:      -4.8      1.198      1.987
REMARK  2 active torsions:
REMARK  status: ('A' for Active; 'I' for Inactive)
REMARK    1  A    between atoms: C7_7  and  C10_10 
REMARK    2  A    between atoms: C10_10  and  C11_11 
ROOT
HETATM    1  C1  UNL     1     -35.227  16.426  -6.148  1.00 20.00     0.004 C 
HETATM    2  C2  UNL     1     -34.867  17.230  -4.895  1.00 20.00     0.005 C 
HETATM    3  C3  UNL     1     -34.119  15.608  -3.069  1.00 20.00     0.007 C 
HETATM    4  C4  UNL     1     -35.061  14.913  -6.079  1.00 20.00     0.040 C 
HETATM    5  C5  UNL     1     -34.438  14.253  -3.698  1.00 20.00     0.040 C 
HETATM    6  C6  UNL     1     -36.954  14.267  -4.401  1.00 20.00     0.207 A 
HETATM    7  C7  UNL     1     -33.682  16.703  -4.064  1.00 20.00    -0.014 C 
HETATM    8  C8  UNL     1     -35.487  14.333  -4.766  1.00 20.00     0.082 A 
HETATM    9  O12 UNL     1     -36.250  13.122  -4.899  1.00 20.00    -0.375 OA
ENDROOT
BRANCH   7  10
HETATM   10  C10 UNL     1     -33.069  17.866  -3.272  1.00 20.00     0.004 C 
BRANCH  10  11
HETATM   11  C11 UNL     1     -33.013  17.544  -1.784  1.00 20.00    -0.004 C 
HETATM   12  C9  UNL     1     -31.877  18.293  -1.106  1.00 20.00     0.005 C 
ENDBRANCH  10  11
ENDBRANCH   7  10
TORSDOF 2
ENDMDL
MODEL 3
REMARK VINA RESULT:      -4.7      1.096      1.337
REMARK  2 active torsions:
REMARK  status: ('A' for Active; 'I' for Inactive)
REMARK    1  A    between atoms: C7_7  and  C10_10 
REMARK    2  A    between atoms: C10_10  and  C11_11 
ROOT
HETATM    1  C1  UNL     1     -34.552  14.176  -3.920  1.00 20.00     0.004 C 
HETATM    2  C2  UNL     1     -34.028  15.484  -3.320  1.00 20.00     0.005 C 
HETATM    3  C3  UNL     1     -35.981  17.113  -3.076  1.00 20.00     0.007 C 
HETATM    4  C4  UNL     1     -36.044  14.092  -4.217  1.00 20.00     0.040 C 
HETATM    5  C5  UNL     1     -37.105  16.370  -3.795  1.00 20.00     0.040 C 
HETATM    6  C6  UNL     1     -36.267  15.778  -6.198  1.00 20.00     0.207 A 
HETATM    7  C7  UNL     1     -34.969  16.210  -2.340  1.00 20.00    -0.014 C 
HETATM    8  C8  UNL     1     -36.604  15.360  -4.784  1.00 20.00     0.082 A 
HETATM    9  O12 UNL     1     -37.512  15.144  -5.878  1.00 20.00    -0.375 OA
ENDROOT
BRANCH   7  10
HETATM   10  C10 UNL     1     -34.132  17.084  -1.396  1.00 20.00     0.004 C 
BRANCH  10  11
HETATM   11  C11 UNL     1     -32.850  17.549  -2.073  1.00 20.00    -0.004 C 
HETATM   12  C9  UNL     1     -31.919  18.222  -1.077  1.00 20.00     0.005 C 
ENDBRANCH  10  11
ENDBRANCH   7  10
TORSDOF 2
ENDMDL
MODEL 4
REMARK VINA RESULT:      -4.6      0.971      2.173
REMARK  2 active torsions:
REMARK  status: ('A' for Active; 'I' for Inactive)
REMARK    1  A    between atoms: C7_7  and  C10_10 
REMARK    2  A    between atoms: C10_10  and  C11_11 
ROOT
HETATM    1  C1  UNL     1     -36.471  16.618  -3.671  1.00 20.00     0.004 C 
HETATM    2  C2  UNL     1     -35.306  16.517  -2.681  1.00 20.00     0.005 C 
HETATM    3  C3  UNL     1     -33.347  15.354  -3.837  1.00 20.00     0.007 C 
HETATM    4  C4  UNL     1     -36.246  16.062  -5.072  1.00 20.00     0.040 C 
HETATM    5  C5  UNL     1     -33.976  14.907  -5.154  1.00 20.00     0.040 C 
HETATM    6  C6  UNL     1     -36.104  13.500  -4.590  1.00 20.00     0.207 A 
HETATM    7  C7  UNL     1     -33.894  16.682  -3.271  1.00 20.00    -0.014 C 
HETATM    8  C8  UNL     1     -35.468  14.782  -5.081  1.00 20.00     0.082 A 
HETATM    9  O12 UNL     1     -35.998  13.800  -5.988  1.00 20.00    -0.375 OA
ENDROOT
BRANCH   7  10
HETATM   10  C10 UNL     1     -32.944  17.170  -2.168  1.00 20.00     0.004 C 
BRANCH  10  11
HETATM   11  C11 UNL     1     -33.719  17.778  -1.007  1.00 20.00    -0.004 C 
HETATM   12  C9  UNL     1     -32.786  18.481  -0.035  1.00 20.00     0.005 C 
ENDBRANCH  10  11
ENDBRANCH   7  10
TORSDOF 2
ENDMDL
MODEL 5
REMARK VINA RESULT:      -4.4      1.346      1.672
REMARK  2 active torsions:
REMARK  status: ('A' for Active; 'I' for Inactive)
REMARK    1  A    between atoms: C7_7  and  C10_10 
REMARK    2  A    between atoms: C10_10  and  C11_11 
ROOT
HETATM    1  C1  UNL     1     -33.175  15.612  -3.562  1.00 20.00     0.004 C 
HETATM    2  C2  UNL     1     -32.993  16.946  -2.834  1.00 20.00     0.005 C 
HETATM    3  C3  UNL     1     -35.286  17.796  -2.094  1.00 20.00     0.007 C 
HETATM    4  C4  UNL     1     -34.593  15.069  -3.681  1.00 20.00     0.040 C 
HETATM    5  C5  UNL     1     -36.226  16.804  -2.776  1.00 20.00     0.040 C 
HETATM    6  C6  UNL     1     -35.664  16.789  -5.327  1.00 20.00     0.207 A 
HETATM    7  C7  UNL     1     -33.932  17.207  -1.642  1.00 20.00    -0.014 C 
HETATM    8  C8  UNL     1     -35.609  16.132  -3.966  1.00 20.00     0.082 A 
HETATM    9  O12 UNL     1     -36.575  15.746  -4.959  1.00 20.00    -0.375 OA
ENDROOT
BRANCH   7  10
HETATM   10  C10 UNL     1     -33.264  18.202  -0.684  1.00 20.00     0.004 C 
BRANCH  10  11
HETATM   11  C11 UNL     1     -31.785  18.363  -1.007  1.00 20.00    -0.004 C 
HETATM   12  C9  UNL     1     -30.939  18.300   0.255  1.00 20.00     0.005 C 
ENDBRANCH  10  11
ENDBRANCH   7  10
TORSDOF 2
ENDMDL
MODEL 6
REMARK VINA RESULT:      -4.4      1.161      2.318
REMARK  2 active torsions:
REMARK  status: ('A' for Active; 'I' for Inactive)
REMARK    1  A    between atoms: C7_7  and  C10_10 
REMARK    2  A    between atoms: C10_10  and  C11_11 
ROOT
HETATM    1  C1  UNL     1     -36.432  16.478  -2.908  1.00 20.00     0.004 C 
HETATM    2  C2  UNL     1     -35.362  16.639  -1.824  1.00 20.00     0.005 C 
HETATM    3  C3  UNL     1     -33.067  16.239  -2.874  1.00 20.00     0.007 C 
HETATM    4  C4  UNL     1     -35.955  16.154  -4.318  1.00 20.00     0.040 C 
HETATM    5  C5  UNL     1     -33.438  15.751  -4.272  1.00 20.00     0.040 C 
HETATM    6  C6  UNL     1     -35.061  13.720  -4.008  1.00 20.00     0.207 A 
HETATM    7  C7  UNL     1     -34.033  17.279  -2.267  1.00 20.00    -0.014 C 
HETATM    8  C8  UNL     1     -34.821  15.175  -4.346  1.00 20.00     0.082 A 
HETATM    9  O12 UNL     1     -34.960  14.171  -5.365  1.00 20.00    -0.375 OA
ENDROOT
BRANCH   7  10
HETATM   10  C10 UNL     1     -33.356  17.922  -1.050  1.00 20.00     0.004 C 
BRANCH  10  11
HETATM   11  C11 UNL     1     -31.903  18.266  -1.350  1.00 20.00    -0.004 C 
HETATM   12  C9  UNL     1     -31.092  18.377  -0.069  1.00 20.00     0.005 C 
ENDBRANCH  10  11
ENDBRANCH   7  10
TORSDOF 2
ENDMDL
MODEL 7
REMARK VINA RESULT:      -4.3      1.395      2.210
REMARK  2 active torsions:
REMARK  status: ('A' for Active; 'I' for Inactive)
REMARK    1  A    between atoms: C7_7  and  C10_10 
REMARK    2  A    between atoms: C10_10  and  C11_11 
ROOT
HETATM    1  C1  UNL     1     -35.556  17.651  -5.002  1.00 20.00     0.004 C 
HETATM    2  C2  UNL     1     -35.930  17.149  -3.605  1.00 20.00     0.005 C 
HETATM    3  C3  UNL     1     -34.492  15.112  -3.053  1.00 20.00     0.007 C 
HETATM    4  C4  UNL     1     -34.453  16.902  -5.741  1.00 20.00     0.040 C 
HETATM    5  C5  UNL     1     -33.788  14.851  -4.382  1.00 20.00     0.040 C 
HETATM    6  C6  UNL     1     -35.622  14.619  -6.229  1.00 20.00     0.207 A 
HETATM    7  C7  UNL     1     -34.778  16.597  -2.746  1.00 20.00    -0.014 C 
HETATM    8  C8  UNL     1     -34.525  15.417  -5.559  1.00 20.00     0.082 A 
HETATM    9  O12 UNL     1     -34.298  14.683  -6.774  1.00 20.00    -0.375 OA
ENDROOT
BRANCH   7  10
HETATM   10  C10 UNL     1     -35.150  16.726  -1.263  1.00 20.00     0.004 C 
BRANCH  10  11
HETATM   11  C11 UNL     1     -34.293  17.779  -0.573  1.00 20.00    -0.004 C 
HETATM   12  C9  UNL     1     -32.959  17.947  -1.282  1.00 20.00     0.005 C 
ENDBRANCH  10  11
ENDBRANCH   7  10
TORSDOF 2
ENDMDL
MODEL 8
REMARK VINA RESULT:      -4.1      2.760      5.083
REMARK  2 active torsions:
REMARK  status: ('A' for Active; 'I' for Inactive)
REMARK    1  A    between atoms: C7_7  and  C10_10 
REMARK    2  A    between atoms: C10_10  and  C11_11 
ROOT
HETATM    1  C1  UNL     1     -32.772  18.187  -2.440  1.00 20.00     0.004 C 
HETATM    2  C2  UNL     1     -33.031  16.683  -2.564  1.00 20.00     0.005 C 
HETATM    3  C3  UNL     1     -35.334  16.164  -1.588  1.00 20.00     0.007 C 
HETATM    4  C4  UNL     1     -33.874  19.036  -1.819  1.00 20.00     0.040 C 
HETATM    5  C5  UNL     1     -35.724  17.503  -0.968  1.00 20.00     0.040 C 
HETATM    6  C6  UNL     1     -33.812  18.222   0.661  1.00 20.00     0.207 A 
HETATM    7  C7  UNL     1     -34.480  16.262  -2.870  1.00 20.00    -0.014 C 
HETATM    8  C8  UNL     1     -34.543  18.373  -0.655  1.00 20.00     0.082 A 
HETATM    9  O12 UNL     1     -34.776  19.262   0.451  1.00 20.00    -0.375 OA
ENDROOT
BRANCH   7  10
HETATM   10  C10 UNL     1     -34.470  14.889  -3.556  1.00 20.00     0.004 C 
BRANCH  10  11
HETATM   11  C11 UNL     1     -33.415  14.833  -4.653  1.00 20.00    -0.004 C 
HETATM   12  C9  UNL     1     -34.050  14.952  -6.028  1.00 20.00     0.005 C 
ENDBRANCH  10  11
ENDBRANCH   7  10
TORSDOF 2
ENDMDL
MODEL 9
REMARK VINA RESULT:      -4.1      1.538      2.166
REMARK  2 active torsions:
REMARK  status: ('A' for Active; 'I' for Inactive)
REMARK    1  A    between atoms: C7_7  and  C10_10 
REMARK    2  A    between atoms: C10_10  and  C11_11 
ROOT
HETATM    1  C1  UNL     1     -35.853  13.799  -4.377  1.00 20.00     0.004 C 
HETATM    2  C2  UNL     1     -34.646  14.700  -4.102  1.00 20.00     0.005 C 
HETATM    3  C3  UNL     1     -35.463  17.105  -3.827  1.00 20.00     0.007 C 
HETATM    4  C4  UNL     1     -37.225  14.461  -4.410  1.00 20.00     0.040 C 
HETATM    5  C5  UNL     1     -36.934  16.986  -4.217  1.00 20.00     0.040 C 
HETATM    6  C6  UNL     1     -37.051  15.892  -6.587  1.00 20.00     0.207 A 
HETATM    7  C7  UNL     1     -34.872  15.866  -3.122  1.00 20.00    -0.014 C 
HETATM    8  C8  UNL     1     -37.218  15.798  -5.086  1.00 20.00     0.082 A 
HETATM    9  O12 UNL     1     -38.339  15.997  -5.966  1.00 20.00    -0.375 OA
ENDROOT
BRANCH   7  10
HETATM   10  C10 UNL     1     -33.530  16.258  -2.489  1.00 20.00     0.004 C 
BRANCH  10  11
HETATM   11  C11 UNL     1     -33.659  17.547  -1.688  1.00 20.00    -0.004 C 
HETATM   12  C9  UNL     1     -32.327  18.274  -1.606  1.00 20.00     0.005 C 
ENDBRANCH  10  11
ENDBRANCH   7  10
TORSDOF 2
ENDMDL
