MODEL 1
REMARK VINA RESULT:      -4.0      0.000      0.000
REMARK  5 active torsions:
REMARK  status: ('A' for Active; 'I' for Inactive)
REMARK    1  A    between atoms: C5_5  and  C7_7 
REMARK    2  A    between atoms: C6_6  and  C8_8 
REMARK    3  A    between atoms: C7_7  and  C9_9 
REMARK    4  A    between atoms: C8_8  and  C9_9 
REMARK    5  A    between atoms: C9_9  and  S11_11 
ROOT
HETATM    1  C1  UNL     1     -35.703  13.926  -4.367  1.00 20.00     0.080 C 
HETATM    2  C9  UNL     1     -35.394  15.353  -4.128  1.00 20.00     0.096 C 
HETATM    3  N10 UNL     1     -35.943  12.806  -4.555  1.00 20.00    -0.196 NA
ENDROOT
BRANCH   2   4
HETATM    4  C7  UNL     1     -34.694  15.956  -5.378  1.00 20.00     0.035 C 
BRANCH   4   5
HETATM    5  C5  UNL     1     -33.990  14.937  -6.288  1.00 20.00    -0.002 C 
HETATM    6  C2  UNL     1     -33.990  15.400  -7.737  1.00 20.00     0.005 C 
ENDBRANCH   4   5
ENDBRANCH   2   4
BRANCH   2   7
HETATM    7  C8  UNL     1     -34.522  15.514  -2.855  1.00 20.00     0.035 C 
BRANCH   7   8
HETATM    8  C6  UNL     1     -33.231  16.333  -3.014  1.00 20.00    -0.002 C 
HETATM    9  C3  UNL     1     -33.137  17.422  -1.954  1.00 20.00     0.005 C 
ENDBRANCH   7   8
ENDBRANCH   2   7
BRANCH   2  10
HETATM   10  S11 UNL     1     -36.988  16.275  -3.939  1.00 20.00    -0.148 SA
HETATM   11  C4  UNL     1     -37.481  16.235  -5.673  1.00 20.00     0.091 C 
ENDBRANCH   2  10
TORSDOF 5
ENDMDL
MODEL 2
REMARK VINA RESULT:      -4.0      1.453      1.546
REMARK  5 active torsions:
REMARK  status: ('A' for Active; 'I' for Inactive)
REMARK    1  A    between atoms: C5_5  and  C7_7 
REMARK    2  A    between atoms: C6_6  and  C8_8 
REMARK    3  A    between atoms: C7_7  and  C9_9 
REMARK    4  A    between atoms: C8_8  and  C9_9 
REMARK    5  A    between atoms: C9_9  and  S11_11 
ROOT
HETATM    1  C1  UNL     1     -37.360  14.708  -4.282  1.00 20.00     0.080 C 
HETATM    2  C9  UNL     1     -36.229  15.655  -4.175  1.00 20.00     0.096 C 
HETATM    3  N10 UNL     1     -38.246  13.963  -4.368  1.00 20.00    -0.196 NA
ENDROOT
BRANCH   2   4
HETATM    4  C7  UNL     1     -35.704  16.010  -5.594  1.00 20.00     0.035 C 
BRANCH   4   5
HETATM    5  C5  UNL     1     -35.193  14.818  -6.418  1.00 20.00    -0.002 C 
HETATM    6  C2  UNL     1     -33.934  15.182  -7.192  1.00 20.00     0.005 C 
ENDBRANCH   4   5
ENDBRANCH   2   4
BRANCH   2   7
HETATM    7  C8  UNL     1     -35.106  15.061  -3.285  1.00 20.00     0.035 C 
BRANCH   7   8
HETATM    8  C6  UNL     1     -34.373  16.050  -2.364  1.00 20.00    -0.002 C 
HETATM    9  C3  UNL     1     -33.072  16.527  -2.994  1.00 20.00     0.005 C 
ENDBRANCH   7   8
ENDBRANCH   2   7
BRANCH   2  10
HETATM   10  S11 UNL     1     -36.857  17.239  -3.450  1.00 20.00    -0.148 SA
HETATM   11  C4  UNL     1     -36.211  18.342  -4.721  1.00 20.00     0.091 C 
ENDBRANCH   2  10
TORSDOF 5
ENDMDL
MODEL 3
REMARK VINA RESULT:      -3.9      1.984      3.602
REMARK  5 active torsions:
REMARK  status: ('A' for Active; 'I' for Inactive)
REMARK    1  A    between atoms: C5_5  and  C7_7 
REMARK    2  A    between atoms: C6_6  and  C8_8 
REMARK    3  A    between atoms: C7_7  and  C9_9 
REMARK    4  A    between atoms: C8_8  and  C9_9 
REMARK    5  A    between atoms: C9_9  and  S11_11 
ROOT
HETATM    1  C1  UNL     1     -36.841  14.579  -4.327  1.00 20.00     0.080 C 
HETATM    2  C9  UNL     1     -35.671  15.483  -4.284  1.00 20.00     0.096 C 
HETATM    3  N10 UNL     1     -37.761  13.871  -4.359  1.00 20.00    -0.196 NA
ENDROOT
BRANCH   2   4
HETATM    4  C7  UNL     1     -34.920  15.307  -2.934  1.00 20.00     0.035 C 
BRANCH   4   5
HETATM    5  C5  UNL     1     -35.169  16.415  -1.899  1.00 20.00    -0.002 C 
HETATM    6  C2  UNL     1     -33.887  17.170  -1.581  1.00 20.00     0.005 C 
ENDBRANCH   4   5
ENDBRANCH   2   4
BRANCH   2   7
HETATM    7  C8  UNL     1     -36.113  16.954  -4.501  1.00 20.00     0.035 C 
BRANCH   7   8
HETATM    8  C6  UNL     1     -35.323  17.754  -5.549  1.00 20.00    -0.002 C 
HETATM    9  C3  UNL     1     -34.362  18.730  -4.885  1.00 20.00     0.005 C 
ENDBRANCH   7   8
ENDBRANCH   2   7
BRANCH   2  10
HETATM   10  S11 UNL     1     -34.480  14.966  -5.603  1.00 20.00    -0.148 SA
HETATM   11  C4  UNL     1     -33.098  14.564  -4.518  1.00 20.00     0.091 C 
ENDBRANCH   2  10
TORSDOF 5
ENDMDL
MODEL 4
REMARK VINA RESULT:      -3.8      1.945      3.242
REMARK  5 active torsions:
REMARK  status: ('A' for Active; 'I' for Inactive)
REMARK    1  A    between atoms: C5_5  and  C7_7 
REMARK    2  A    between atoms: C6_6  and  C8_8 
REMARK    3  A    between atoms: C7_7  and  C9_9 
REMARK    4  A    between atoms: C8_8  and  C9_9 
REMARK    5  A    between atoms: C9_9  and  S11_11 
ROOT
HETATM    1  C1  UNL     1     -36.698  14.505  -4.412  1.00 20.00     0.080 C 
HETATM    2  C9  UNL     1     -35.580  15.473  -4.418  1.00 20.00     0.096 C 
HETATM    3  N10 UNL     1     -37.576  13.746  -4.404  1.00 20.00    -0.196 NA
ENDROOT
BRANCH   2   4
HETATM    4  C7  UNL     1     -34.714  15.286  -3.142  1.00 20.00     0.035 C 
BRANCH   4   5
HETATM    5  C5  UNL     1     -33.366  16.024  -3.153  1.00 20.00    -0.002 C 
HETATM    6  C2  UNL     1     -33.335  17.131  -2.110  1.00 20.00     0.005 C 
ENDBRANCH   4   5
ENDBRANCH   2   4
BRANCH   2   7
HETATM    7  C8  UNL     1     -36.118  16.923  -4.533  1.00 20.00     0.035 C 
BRANCH   7   8
HETATM    8  C6  UNL     1     -37.338  17.267  -3.663  1.00 20.00    -0.002 C 
HETATM    9  C3  UNL     1     -36.950  18.182  -2.510  1.00 20.00     0.005 C 
ENDBRANCH   7   8
ENDBRANCH   2   7
BRANCH   2  10
HETATM   10  S11 UNL     1     -34.473  15.081  -5.850  1.00 20.00    -0.148 SA
HETATM   11  C4  UNL     1     -35.723  15.198  -7.143  1.00 20.00     0.091 C 
ENDBRANCH   2  10
TORSDOF 5
ENDMDL
MODEL 5
REMARK VINA RESULT:      -3.8      1.792      2.161
REMARK  5 active torsions:
REMARK  status: ('A' for Active; 'I' for Inactive)
REMARK    1  A    between atoms: C5_5  and  C7_7 
REMARK    2  A    between atoms: C6_6  and  C8_8 
REMARK    3  A    between atoms: C7_7  and  C9_9 
REMARK    4  A    between atoms: C8_8  and  C9_9 
REMARK    5  A    between atoms: C9_9  and  S11_11 
ROOT
HETATM    1  C1  UNL     1     -37.242  14.596  -4.285  1.00 20.00     0.080 C 
HETATM    2  C9  UNL     1     -35.973  15.354  -4.242  1.00 20.00     0.096 C 
HETATM    3  N10 UNL     1     -38.238  14.000  -4.317  1.00 20.00    -0.196 NA
ENDROOT
BRANCH   2   4
HETATM    4  C7  UNL     1     -34.775  14.370  -4.128  1.00 20.00     0.035 C 
BRANCH   4   5
HETATM    5  C5  UNL     1     -33.567  14.706  -5.016  1.00 20.00    -0.002 C 
HETATM    6  C2  UNL     1     -32.258  14.397  -4.304  1.00 20.00     0.005 C 
ENDBRANCH   4   5
ENDBRANCH   2   4
BRANCH   2   7
HETATM    7  C8  UNL     1     -35.987  16.370  -3.069  1.00 20.00     0.035 C 
BRANCH   7   8
HETATM    8  C6  UNL     1     -35.009  16.092  -1.916  1.00 20.00    -0.002 C 
HETATM    9  C3  UNL     1     -33.878  17.111  -1.898  1.00 20.00     0.005 C 
ENDBRANCH   7   8
ENDBRANCH   2   7
BRANCH   2  10
HETATM   10  S11 UNL     1     -35.759  16.235  -5.856  1.00 20.00    -0.148 SA
HETATM   11  C4  UNL     1     -35.604  17.902  -5.186  1.00 20.00     0.091 C 
ENDBRANCH   2  10
TORSDOF 5
ENDMDL
MODEL 6
REMARK VINA RESULT:      -3.7      1.659      3.610
REMARK  5 active torsions:
REMARK  status: ('A' for Active; 'I' for Inactive)
REMARK    1  A    between atoms: C5_5  and  C7_7 
REMARK    2  A    between atoms: C6_6  and  C8_8 
REMARK    3  A    between atoms: C7_7  and  C9_9 
REMARK    4  A    between atoms: C8_8  and  C9_9 
REMARK    5  A    between atoms: C9_9  and  S11_11 
ROOT
HETATM    1  C1  UNL     1     -35.739  13.928  -4.633  1.00 20.00     0.080 C 
HETATM    2  C9  UNL     1     -35.133  15.252  -4.889  1.00 20.00     0.096 C 
HETATM    3  N10 UNL     1     -36.216  12.889  -4.429  1.00 20.00    -0.196 NA
ENDROOT
BRANCH   2   4
HETATM    4  C7  UNL     1     -34.117  15.592  -3.763  1.00 20.00     0.035 C 
BRANCH   4   5
HETATM    5  C5  UNL     1     -34.734  15.817  -2.373  1.00 20.00    -0.002 C 
HETATM    6  C2  UNL     1     -34.157  17.058  -1.708  1.00 20.00     0.005 C 
ENDBRANCH   4   5
ENDBRANCH   2   4
BRANCH   2   7
HETATM    7  C8  UNL     1     -36.233  16.339  -5.010  1.00 20.00     0.035 C 
BRANCH   7   8
HETATM    8  C6  UNL     1     -37.653  15.920  -4.596  1.00 20.00    -0.002 C 
HETATM    9  C3  UNL     1     -38.230  16.878  -3.565  1.00 20.00     0.005 C 
ENDBRANCH   7   8
ENDBRANCH   2   7
BRANCH   2  10
HETATM   10  S11 UNL     1     -34.148  15.154  -6.454  1.00 20.00    -0.148 SA
HETATM   11  C4  UNL     1     -35.542  15.124  -7.597  1.00 20.00     0.091 C 
ENDBRANCH   2  10
TORSDOF 5
ENDMDL
MODEL 7
REMARK VINA RESULT:      -3.6      2.179      4.072
REMARK  5 active torsions:
REMARK  status: ('A' for Active; 'I' for Inactive)
REMARK    1  A    between atoms: C5_5  and  C7_7 
REMARK    2  A    between atoms: C6_6  and  C8_8 
REMARK    3  A    between atoms: C7_7  and  C9_9 
REMARK    4  A    between atoms: C8_8  and  C9_9 
REMARK    5  A    between atoms: C9_9  and  S11_11 
ROOT
HETATM    1  C1  UNL     1     -36.622  14.647  -4.231  1.00 20.00     0.080 C 
HETATM    2  C9  UNL     1     -35.760  15.809  -3.924  1.00 20.00     0.096 C 
HETATM    3  N10 UNL     1     -37.300  13.735  -4.469  1.00 20.00    -0.196 NA
ENDROOT
BRANCH   2   4
HETATM    4  C7  UNL     1     -35.080  15.609  -2.540  1.00 20.00     0.035 C 
BRANCH   4   5
HETATM    5  C5  UNL     1     -34.630  16.902  -1.841  1.00 20.00    -0.002 C 
HETATM    6  C2  UNL     1     -35.250  17.024  -0.457  1.00 20.00     0.005 C 
ENDBRANCH   4   5
ENDBRANCH   2   4
BRANCH   2   7
HETATM    7  C8  UNL     1     -36.583  17.123  -3.968  1.00 20.00     0.035 C 
BRANCH   7   8
HETATM    8  C6  UNL     1     -38.017  17.046  -3.419  1.00 20.00    -0.002 C 
HETATM    9  C3  UNL     1     -38.268  18.136  -2.386  1.00 20.00     0.005 C 
ENDBRANCH   7   8
ENDBRANCH   2   7
BRANCH   2  10
HETATM   10  S11 UNL     1     -34.388  15.866  -5.165  1.00 20.00    -0.148 SA
HETATM   11  C4  UNL     1     -33.372  14.564  -4.441  1.00 20.00     0.091 C 
ENDBRANCH   2  10
TORSDOF 5
ENDMDL
MODEL 8
REMARK VINA RESULT:      -3.5      3.032      3.950
REMARK  5 active torsions:
REMARK  status: ('A' for Active; 'I' for Inactive)
REMARK    1  A    between atoms: C5_5  and  C7_7 
REMARK    2  A    between atoms: C6_6  and  C8_8 
REMARK    3  A    between atoms: C7_7  and  C9_9 
REMARK    4  A    between atoms: C8_8  and  C9_9 
REMARK    5  A    between atoms: C9_9  and  S11_11 
ROOT
HETATM    1  C1  UNL     1     -35.220  17.287  -0.171  1.00 20.00     0.080 C 
HETATM    2  C9  UNL     1     -34.693  17.301  -1.553  1.00 20.00     0.096 C 
HETATM    3  N10 UNL     1     -35.632  17.274   0.915  1.00 20.00    -0.196 NA
ENDROOT
BRANCH   2   4
HETATM    4  C7  UNL     1     -34.974  15.933  -2.237  1.00 20.00     0.035 C 
BRANCH   4   5
HETATM    5  C5  UNL     1     -33.930  15.498  -3.278  1.00 20.00    -0.002 C 
HETATM    6  C2  UNL     1     -34.395  14.266  -4.041  1.00 20.00     0.005 C 
ENDBRANCH   4   5
ENDBRANCH   2   4
BRANCH   2   7
HETATM    7  C8  UNL     1     -33.179  17.637  -1.554  1.00 20.00     0.035 C 
BRANCH   7   8
HETATM    8  C6  UNL     1     -32.662  18.455  -0.360  1.00 20.00    -0.002 C 
HETATM    9  C3  UNL     1     -31.148  18.361  -0.244  1.00 20.00     0.005 C 
ENDBRANCH   7   8
ENDBRANCH   2   7
BRANCH   2  10
HETATM   10  S11 UNL     1     -35.634  18.563  -2.527  1.00 20.00    -0.148 SA
HETATM   11  C4  UNL     1     -37.138  17.595  -2.761  1.00 20.00     0.091 C 
ENDBRANCH   2  10
TORSDOF 5
ENDMDL
MODEL 9
REMARK VINA RESULT:      -3.5      1.825      2.271
REMARK  5 active torsions:
REMARK  status: ('A' for Active; 'I' for Inactive)
REMARK    1  A    between atoms: C5_5  and  C7_7 
REMARK    2  A    between atoms: C6_6  and  C8_8 
REMARK    3  A    between atoms: C7_7  and  C9_9 
REMARK    4  A    between atoms: C8_8  and  C9_9 
REMARK    5  A    between atoms: C9_9  and  S11_11 
ROOT
HETATM    1  C1  UNL     1     -34.412  15.008  -5.665  1.00 20.00     0.080 C 
HETATM    2  C9  UNL     1     -35.311  15.316  -4.532  1.00 20.00     0.096 C 
HETATM    3  N10 UNL     1     -33.705  14.768  -6.555  1.00 20.00    -0.196 NA
ENDROOT
BRANCH   2   4
HETATM    4  C7  UNL     1     -36.019  16.677  -4.777  1.00 20.00     0.035 C 
BRANCH   4   5
HETATM    5  C5  UNL     1     -35.368  17.569  -5.847  1.00 20.00    -0.002 C 
HETATM    6  C2  UNL     1     -34.752  18.814  -5.226  1.00 20.00     0.005 C 
ENDBRANCH   4   5
ENDBRANCH   2   4
BRANCH   2   7
HETATM    7  C8  UNL     1     -34.520  15.319  -3.197  1.00 20.00     0.035 C 
BRANCH   7   8
HETATM    8  C6  UNL     1     -33.180  16.072  -3.201  1.00 20.00    -0.002 C 
HETATM    9  C3  UNL     1     -33.182  17.203  -2.182  1.00 20.00     0.005 C 
ENDBRANCH   7   8
ENDBRANCH   2   7
BRANCH   2  10
HETATM   10  S11 UNL     1     -36.653  14.042  -4.484  1.00 20.00    -0.148 SA
HETATM   11  C4  UNL     1     -38.042  15.180  -4.328  1.00 20.00     0.091 C 
ENDBRANCH   2  10
TORSDOF 5
ENDMDL
