MODEL 1
REMARK VINA RESULT:      -5.0      0.000      0.000
REMARK  1 active torsions:
REMARK  status: ('A' for Active; 'I' for Inactive)
REMARK    1  A    between atoms: C4_4  and  C10_10 
ROOT
HETATM    1  C5  UNL     1     -33.049  18.038  -3.541  1.00 20.00     0.001 C 
HETATM    2  C6  UNL     1     -32.463  18.864  -2.399  1.00 20.00     0.001 C 
HETATM    3  C7  UNL     1     -33.034  16.537  -3.258  1.00 20.00     0.009 C 
HETATM    4  C8  UNL     1     -33.375  19.034  -1.189  1.00 20.00     0.020 C 
HETATM    5  C9  UNL     1     -34.836  16.949  -1.393  1.00 20.00     0.029 C 
HETATM    6  C10 UNL     1     -34.186  15.982  -2.400  1.00 20.00     0.020 C 
HETATM    7  C11 UNL     1     -33.837  17.730  -0.533  1.00 20.00     0.083 C 
HETATM    8 CL13 UNL     1     -34.643  18.163   1.021  1.00 20.00    -0.125 Cl
ENDROOT
BRANCH   6   9
HETATM    9  C4  UNL     1     -35.251  15.314  -3.264  1.00 20.00    -0.047 A 
HETATM   10  C1  UNL     1     -35.076  14.056  -3.910  1.00 20.00     0.015 A 
HETATM   11  C2  UNL     1     -36.193  13.684  -4.627  1.00 20.00     0.050 A 
HETATM   12  S12 UNL     1     -37.443  14.849  -4.521  1.00 20.00    -0.113 SA
HETATM   13  C3  UNL     1     -36.493  15.855  -3.512  1.00 20.00     0.057 A 
ENDBRANCH   6   9
TORSDOF 1
ENDMDL
MODEL 2
REMARK VINA RESULT:      -4.8      1.210      1.299
REMARK  1 active torsions:
REMARK  status: ('A' for Active; 'I' for Inactive)
REMARK    1  A    between atoms: C4_4  and  C10_10 
ROOT
HETATM    1  C5  UNL     1     -33.010  18.156  -3.018  1.00 20.00     0.001 C 
HETATM    2  C6  UNL     1     -32.927  18.818  -1.646  1.00 20.00     0.001 C 
HETATM    3  C7  UNL     1     -32.915  16.633  -2.950  1.00 20.00     0.009 C 
HETATM    4  C8  UNL     1     -34.196  18.728  -0.805  1.00 20.00     0.020 C 
HETATM    5  C9  UNL     1     -35.262  16.617  -1.770  1.00 20.00     0.029 C 
HETATM    6  C10 UNL     1     -34.212  15.872  -2.617  1.00 20.00     0.020 C 
HETATM    7  C11 UNL     1     -34.693  17.307  -0.526  1.00 20.00     0.083 C 
HETATM    8 CL13 UNL     1     -36.005  17.426   0.705  1.00 20.00    -0.125 Cl
ENDROOT
BRANCH   6   9
HETATM    9  C4  UNL     1     -34.854  15.289  -3.872  1.00 20.00    -0.047 A 
HETATM   10  C1  UNL     1     -35.913  14.336  -3.853  1.00 20.00     0.015 A 
HETATM   11  C2  UNL     1     -36.307  13.975  -5.123  1.00 20.00     0.050 A 
HETATM   12  S12 UNL     1     -35.400  14.782  -6.330  1.00 20.00    -0.113 SA
HETATM   13  C3  UNL     1     -34.478  15.619  -5.155  1.00 20.00     0.057 A 
ENDBRANCH   6   9
TORSDOF 1
ENDMDL
MODEL 3
REMARK VINA RESULT:      -4.8      3.381      5.276
REMARK  1 active torsions:
REMARK  status: ('A' for Active; 'I' for Inactive)
REMARK    1  A    between atoms: C4_4  and  C10_10 
ROOT
HETATM    1  C5  UNL     1     -35.970  14.305  -4.197  1.00 20.00     0.001 C 
HETATM    2  C6  UNL     1     -35.989  14.043  -5.700  1.00 20.00     0.001 C 
HETATM    3  C7  UNL     1     -34.556  14.450  -3.636  1.00 20.00     0.009 C 
HETATM    4  C8  UNL     1     -35.716  15.263  -6.573  1.00 20.00     0.020 C 
HETATM    5  C9  UNL     1     -34.342  16.702  -4.971  1.00 20.00     0.029 C 
HETATM    6  C10 UNL     1     -33.892  15.831  -3.782  1.00 20.00     0.020 C 
HETATM    7  C11 UNL     1     -34.380  15.965  -6.314  1.00 20.00     0.083 C 
HETATM    8 CL13 UNL     1     -34.140  17.172  -7.630  1.00 20.00    -0.125 Cl
ENDROOT
BRANCH   6   9
HETATM    9  C4  UNL     1     -33.964  16.625  -2.482  1.00 20.00    -0.047 A 
HETATM   10  C1  UNL     1     -35.045  16.538  -1.557  1.00 20.00     0.015 A 
HETATM   11  C2  UNL     1     -34.860  17.360  -0.467  1.00 20.00     0.050 A 
HETATM   12  S12 UNL     1     -33.390  18.232  -0.562  1.00 20.00    -0.113 SA
HETATM   13  C3  UNL     1     -32.996  17.510  -2.064  1.00 20.00     0.057 A 
ENDBRANCH   6   9
TORSDOF 1
ENDMDL
MODEL 4
REMARK VINA RESULT:      -4.8      1.807      2.938
REMARK  1 active torsions:
REMARK  status: ('A' for Active; 'I' for Inactive)
REMARK    1  A    between atoms: C4_4  and  C10_10 
ROOT
HETATM    1  C5  UNL     1     -35.529  17.014   0.507  1.00 20.00     0.001 C 
HETATM    2  C6  UNL     1     -34.974  18.059   1.470  1.00 20.00     0.001 C 
HETATM    3  C7  UNL     1     -35.669  17.537  -0.922  1.00 20.00     0.009 C 
HETATM    4  C8  UNL     1     -33.474  18.307   1.362  1.00 20.00     0.020 C 
HETATM    5  C9  UNL     1     -33.048  17.628  -1.063  1.00 20.00     0.029 C 
HETATM    6  C10 UNL     1     -34.400  17.519  -1.793  1.00 20.00     0.020 C 
HETATM    7  C11 UNL     1     -32.983  18.748  -0.019  1.00 20.00     0.083 C 
HETATM    8 CL13 UNL     1     -31.264  19.261   0.156  1.00 20.00    -0.125 Cl
ENDROOT
BRANCH   6   9
HETATM    9  C4  UNL     1     -34.396  16.330  -2.749  1.00 20.00    -0.047 A 
HETATM   10  C1  UNL     1     -33.237  15.867  -3.437  1.00 20.00     0.015 A 
HETATM   11  C2  UNL     1     -33.512  14.779  -4.237  1.00 20.00     0.050 A 
HETATM   12  S12 UNL     1     -35.160  14.323  -4.158  1.00 20.00    -0.113 SA
HETATM   13  C3  UNL     1     -35.511  15.581  -3.051  1.00 20.00     0.057 A 
ENDBRANCH   6   9
TORSDOF 1
ENDMDL
MODEL 5
REMARK VINA RESULT:      -4.7      0.645      1.155
REMARK  1 active torsions:
REMARK  status: ('A' for Active; 'I' for Inactive)
REMARK    1  A    between atoms: C4_4  and  C10_10 
ROOT
HETATM    1  C5  UNL     1     -32.912  18.177  -3.284  1.00 20.00     0.001 C 
HETATM    2  C6  UNL     1     -32.368  18.960  -2.093  1.00 20.00     0.001 C 
HETATM    3  C7  UNL     1     -32.926  16.668  -3.047  1.00 20.00     0.009 C 
HETATM    4  C8  UNL     1     -33.330  19.105  -0.919  1.00 20.00     0.020 C 
HETATM    5  C9  UNL     1     -34.805  17.046  -1.251  1.00 20.00     0.029 C 
HETATM    6  C10 UNL     1     -34.121  16.102  -2.258  1.00 20.00     0.020 C 
HETATM    7  C11 UNL     1     -33.836  17.788  -0.324  1.00 20.00     0.083 C 
HETATM    8 CL13 UNL     1     -34.704  18.184   1.205  1.00 20.00    -0.125 Cl
ENDROOT
BRANCH   6   9
HETATM    9  C4  UNL     1     -35.155  15.474  -3.187  1.00 20.00    -0.047 A 
HETATM   10  C1  UNL     1     -36.408  16.074  -3.504  1.00 20.00     0.015 A 
HETATM   11  C2  UNL     1     -37.151  15.296  -4.365  1.00 20.00     0.050 A 
HETATM   12  S12 UNL     1     -36.340  13.848  -4.785  1.00 20.00    -0.113 SA
HETATM   13  C3  UNL     1     -34.989  14.260  -3.817  1.00 20.00     0.057 A 
ENDBRANCH   6   9
TORSDOF 1
ENDMDL
MODEL 6
REMARK VINA RESULT:      -4.6      3.072      4.878
REMARK  1 active torsions:
REMARK  status: ('A' for Active; 'I' for Inactive)
REMARK    1  A    between atoms: C4_4  and  C10_10 
ROOT
HETATM    1  C5  UNL     1     -32.896  15.462  -3.603  1.00 20.00     0.001 C 
HETATM    2  C6  UNL     1     -33.558  14.748  -4.778  1.00 20.00     0.001 C 
HETATM    3  C7  UNL     1     -33.403  16.890  -3.413  1.00 20.00     0.009 C 
HETATM    4  C8  UNL     1     -34.980  14.261  -4.521  1.00 20.00     0.020 C 
HETATM    5  C9  UNL     1     -35.723  15.889  -2.699  1.00 20.00     0.029 C 
HETATM    6  C10 UNL     1     -34.723  17.060  -2.640  1.00 20.00     0.020 C 
HETATM    7  C11 UNL     1     -35.977  15.347  -4.109  1.00 20.00     0.083 C 
HETATM    8 CL13 UNL     1     -37.623  14.613  -4.147  1.00 20.00    -0.125 Cl
ENDROOT
BRANCH   6   9
HETATM    9  C4  UNL     1     -34.473  17.476  -1.194  1.00 20.00    -0.047 A 
HETATM   10  C1  UNL     1     -35.361  17.185  -0.118  1.00 20.00     0.015 A 
HETATM   11  C2  UNL     1     -34.896  17.676   1.083  1.00 20.00     0.050 A 
HETATM   12  S12 UNL     1     -33.397  18.484   0.910  1.00 20.00    -0.113 SA
HETATM   13  C3  UNL     1     -33.365  18.178  -0.775  1.00 20.00     0.057 A 
ENDBRANCH   6   9
TORSDOF 1
ENDMDL
MODEL 7
REMARK VINA RESULT:      -4.5      3.188      4.909
REMARK  1 active torsions:
REMARK  status: ('A' for Active; 'I' for Inactive)
REMARK    1  A    between atoms: C4_4  and  C10_10 
ROOT
HETATM    1  C5  UNL     1     -36.004  17.759  -3.938  1.00 20.00     0.001 C 
HETATM    2  C6  UNL     1     -35.773  16.883  -5.166  1.00 20.00     0.001 C 
HETATM    3  C7  UNL     1     -36.332  16.951  -2.684  1.00 20.00     0.009 C 
HETATM    4  C8  UNL     1     -34.423  16.175  -5.211  1.00 20.00     0.020 C 
HETATM    5  C9  UNL     1     -33.869  16.040  -2.721  1.00 20.00     0.029 C 
HETATM    6  C10 UNL     1     -35.140  16.358  -1.911  1.00 20.00     0.020 C 
HETATM    7  C11 UNL     1     -34.125  15.264  -4.017  1.00 20.00     0.083 C 
HETATM    8 CL13 UNL     1     -32.641  14.320  -4.415  1.00 20.00    -0.125 Cl
ENDROOT
BRANCH   6   9
HETATM    9  C4  UNL     1     -34.797  17.200  -0.686  1.00 20.00    -0.047 A 
HETATM   10  C1  UNL     1     -33.640  18.028  -0.590  1.00 20.00     0.015 A 
HETATM   11  C2  UNL     1     -33.570  18.678   0.623  1.00 20.00     0.050 A 
HETATM   12  S12 UNL     1     -34.892  18.288   1.639  1.00 20.00    -0.113 SA
HETATM   13  C3  UNL     1     -35.564  17.248   0.457  1.00 20.00     0.057 A 
ENDBRANCH   6   9
TORSDOF 1
ENDMDL
MODEL 8
REMARK VINA RESULT:      -4.4      3.188      5.136
REMARK  1 active torsions:
REMARK  status: ('A' for Active; 'I' for Inactive)
REMARK    1  A    between atoms: C4_4  and  C10_10 
ROOT
HETATM    1  C5  UNL     1     -33.341  15.993  -3.018  1.00 20.00     0.001 C 
HETATM    2  C6  UNL     1     -34.622  15.854  -3.836  1.00 20.00     0.001 C 
HETATM    3  C7  UNL     1     -32.915  17.446  -2.823  1.00 20.00     0.009 C 
HETATM    4  C8  UNL     1     -35.908  16.181  -3.086  1.00 20.00     0.020 C 
HETATM    5  C9  UNL     1     -35.028  17.780  -1.299  1.00 20.00     0.029 C 
HETATM    6  C10 UNL     1     -33.604  18.224  -1.686  1.00 20.00     0.020 C 
HETATM    7  C11 UNL     1     -35.974  17.590  -2.489  1.00 20.00     0.083 C 
HETATM    8 CL13 UNL     1     -37.663  17.855  -1.917  1.00 20.00    -0.125 Cl
ENDROOT
BRANCH   6   9
HETATM    9  C4  UNL     1     -32.715  18.307  -0.450  1.00 20.00    -0.047 A 
HETATM   10  C1  UNL     1     -31.291  18.298  -0.493  1.00 20.00     0.015 A 
HETATM   11  C2  UNL     1     -30.735  18.384   0.766  1.00 20.00     0.050 A 
HETATM   12  S12 UNL     1     -31.928  18.473   1.990  1.00 20.00    -0.113 SA
HETATM   13  C3  UNL     1     -33.193  18.398   0.839  1.00 20.00     0.057 A 
ENDBRANCH   6   9
TORSDOF 1
ENDMDL
MODEL 9
REMARK VINA RESULT:      -4.4      2.086      3.456
REMARK  1 active torsions:
REMARK  status: ('A' for Active; 'I' for Inactive)
REMARK    1  A    between atoms: C4_4  and  C10_10 
ROOT
HETATM    1  C5  UNL     1     -34.553  14.699  -5.275  1.00 20.00     0.001 C 
HETATM    2  C6  UNL     1     -33.347  14.804  -4.347  1.00 20.00     0.001 C 
HETATM    3  C7  UNL     1     -35.775  14.084  -4.595  1.00 20.00     0.009 C 
HETATM    4  C8  UNL     1     -33.411  15.937  -3.329  1.00 20.00     0.020 C 
HETATM    5  C9  UNL     1     -35.937  16.242  -3.108  1.00 20.00     0.029 C 
HETATM    6  C10 UNL     1     -36.642  15.028  -3.743  1.00 20.00     0.020 C 
HETATM    7  C11 UNL     1     -34.623  15.907  -2.394  1.00 20.00     0.083 C 
HETATM    8 CL13 UNL     1     -34.346  17.139  -1.108  1.00 20.00    -0.125 Cl
ENDROOT
BRANCH   6   9
HETATM    9  C4  UNL     1     -37.892  15.470  -4.497  1.00 20.00    -0.047 A 
HETATM   10  C1  UNL     1     -37.876  16.368  -5.604  1.00 20.00     0.015 A 
HETATM   11  C2  UNL     1     -39.141  16.600  -6.099  1.00 20.00     0.050 A 
HETATM   12  S12 UNL     1     -40.339  15.740  -5.230  1.00 20.00    -0.113 SA
HETATM   13  C3  UNL     1     -39.167  15.053  -4.188  1.00 20.00     0.057 A 
ENDBRANCH   6   9
TORSDOF 1
ENDMDL
