MODEL 1
REMARK VINA RESULT:      -5.0      0.000      0.000
REMARK  2 active torsions:
REMARK  status: ('A' for Active; 'I' for Inactive)
REMARK    1  A    between atoms: C8_8  and  C10_10 
REMARK    2  A    between atoms: C10_10  and  C11_11 
ROOT
HETATM    1  C1  UNL     1     -35.931  14.394  -5.998  1.00 20.00     0.064 C 
HETATM    2  C2  UNL     1     -36.277  16.321  -3.429  1.00 20.00     0.002 C 
HETATM    3  C3  UNL     1     -36.902  14.972  -3.793  1.00 20.00     0.019 C 
HETATM    4  C4  UNL     1     -34.623  13.753  -3.977  1.00 20.00     0.019 C 
HETATM    5  C5  UNL     1     -35.227  16.202  -2.327  1.00 20.00     0.005 C 
HETATM    6  C6  UNL     1     -33.679  14.958  -4.006  1.00 20.00     0.006 C 
HETATM    7  C7  UNL     1     -36.017  13.997  -4.578  1.00 20.00     0.093 C 
HETATM    8  C8  UNL     1     -33.798  15.910  -2.807  1.00 20.00    -0.014 C 
HETATM    9  N12 UNL     1     -35.864  14.705  -7.113  1.00 20.00    -0.197 NA
ENDROOT
BRANCH   8  10
HETATM   10  C10 UNL     1     -33.054  17.214  -3.118  1.00 20.00     0.004 C 
BRANCH  10  11
HETATM   11  C11 UNL     1     -33.188  18.207  -1.972  1.00 20.00    -0.004 C 
HETATM   12  C9  UNL     1     -31.955  18.186  -1.084  1.00 20.00     0.005 C 
ENDBRANCH  10  11
ENDBRANCH   8  10
TORSDOF 2
ENDMDL
MODEL 2
REMARK VINA RESULT:      -4.6      1.791      2.746
REMARK  2 active torsions:
REMARK  status: ('A' for Active; 'I' for Inactive)
REMARK    1  A    between atoms: C8_8  and  C10_10 
REMARK    2  A    between atoms: C10_10  and  C11_11 
ROOT
HETATM    1  C1  UNL     1     -37.023  14.611  -4.771  1.00 20.00     0.064 C 
HETATM    2  C2  UNL     1     -33.892  14.711  -3.984  1.00 20.00     0.002 C 
HETATM    3  C3  UNL     1     -34.610  14.628  -5.333  1.00 20.00     0.019 C 
HETATM    4  C4  UNL     1     -35.921  16.835  -4.983  1.00 20.00     0.019 C 
HETATM    5  C5  UNL     1     -33.286  16.088  -3.727  1.00 20.00     0.005 C 
HETATM    6  C6  UNL     1     -35.691  17.046  -3.485  1.00 20.00     0.006 C 
HETATM    7  C7  UNL     1     -35.948  15.368  -5.443  1.00 20.00     0.093 C 
HETATM    8  C8  UNL     1     -34.219  17.103  -3.052  1.00 20.00    -0.014 C 
HETATM    9  N12 UNL     1     -37.868  14.016  -4.243  1.00 20.00    -0.197 NA
ENDROOT
BRANCH   8  10
HETATM   10  C10 UNL     1     -34.133  16.986  -1.525  1.00 20.00     0.004 C 
BRANCH  10  11
HETATM   11  C11 UNL     1     -35.521  16.985  -0.899  1.00 20.00    -0.004 C 
HETATM   12  C9  UNL     1     -35.444  17.219   0.601  1.00 20.00     0.005 C 
ENDBRANCH  10  11
ENDBRANCH   8  10
TORSDOF 2
ENDMDL
MODEL 3
REMARK VINA RESULT:      -4.5      3.098      5.363
REMARK  2 active torsions:
REMARK  status: ('A' for Active; 'I' for Inactive)
REMARK    1  A    between atoms: C8_8  and  C10_10 
REMARK    2  A    between atoms: C10_10  and  C11_11 
ROOT
HETATM    1  C1  UNL     1     -31.529  18.662  -0.762  1.00 20.00     0.064 C 
HETATM    2  C2  UNL     1     -34.503  17.422  -0.545  1.00 20.00     0.002 C 
HETATM    3  C3  UNL     1     -33.972  18.849  -0.391  1.00 20.00     0.019 C 
HETATM    4  C4  UNL     1     -32.968  18.933  -2.778  1.00 20.00     0.019 C 
HETATM    5  C5  UNL     1     -35.267  17.219  -1.851  1.00 20.00     0.005 C 
HETATM    6  C6  UNL     1     -33.021  17.447  -3.140  1.00 20.00     0.006 C 
HETATM    7  C7  UNL     1     -32.786  19.238  -1.282  1.00 20.00     0.093 C 
HETATM    8  C8  UNL     1     -34.412  16.802  -3.056  1.00 20.00    -0.014 C 
HETATM    9  N12 UNL     1     -30.541  18.211  -0.354  1.00 20.00    -0.197 NA
ENDROOT
BRANCH   8  10
HETATM   10  C10 UNL     1     -34.270  15.277  -3.119  1.00 20.00     0.004 C 
BRANCH  10  11
HETATM   11  C11 UNL     1     -33.293  14.863  -4.211  1.00 20.00    -0.004 C 
HETATM   12  C9  UNL     1     -33.947  14.924  -5.581  1.00 20.00     0.005 C 
ENDBRANCH  10  11
ENDBRANCH   8  10
TORSDOF 2
ENDMDL
MODEL 4
REMARK VINA RESULT:      -4.5      1.584      2.488
REMARK  2 active torsions:
REMARK  status: ('A' for Active; 'I' for Inactive)
REMARK    1  A    between atoms: C8_8  and  C10_10 
REMARK    2  A    between atoms: C10_10  and  C11_11 
ROOT
HETATM    1  C1  UNL     1     -37.086  14.583  -4.745  1.00 20.00     0.064 C 
HETATM    2  C2  UNL     1     -34.100  14.844  -3.545  1.00 20.00     0.002 C 
HETATM    3  C3  UNL     1     -34.629  14.788  -4.980  1.00 20.00     0.019 C 
HETATM    4  C4  UNL     1     -36.130  16.882  -4.708  1.00 20.00     0.019 C 
HETATM    5  C5  UNL     1     -33.633  16.243  -3.147  1.00 20.00     0.005 C 
HETATM    6  C6  UNL     1     -36.112  17.026  -3.185  1.00 20.00     0.006 C 
HETATM    7  C7  UNL     1     -35.991  15.444  -5.234  1.00 20.00     0.093 C 
HETATM    8  C8  UNL     1     -34.716  17.157  -2.557  1.00 20.00    -0.014 C 
HETATM    9  N12 UNL     1     -37.948  13.906  -4.362  1.00 20.00    -0.197 NA
ENDROOT
BRANCH   8  10
HETATM   10  C10 UNL     1     -34.822  16.963  -1.039  1.00 20.00     0.004 C 
BRANCH  10  11
HETATM   11  C11 UNL     1     -34.429  18.233  -0.297  1.00 20.00    -0.004 C 
HETATM   12  C9  UNL     1     -32.917  18.371  -0.213  1.00 20.00     0.005 C 
ENDBRANCH  10  11
ENDBRANCH   8  10
TORSDOF 2
ENDMDL
MODEL 5
REMARK VINA RESULT:      -4.5      1.032      1.424
REMARK  2 active torsions:
REMARK  status: ('A' for Active; 'I' for Inactive)
REMARK    1  A    between atoms: C8_8  and  C10_10 
REMARK    2  A    between atoms: C10_10  and  C11_11 
ROOT
HETATM    1  C1  UNL     1     -35.256  14.956  -6.056  1.00 20.00     0.064 C 
HETATM    2  C2  UNL     1     -36.162  16.252  -3.241  1.00 20.00     0.002 C 
HETATM    3  C3  UNL     1     -36.459  14.899  -3.891  1.00 20.00     0.019 C 
HETATM    4  C4  UNL     1     -33.964  14.220  -4.058  1.00 20.00     0.019 C 
HETATM    5  C5  UNL     1     -35.179  16.140  -2.078  1.00 20.00     0.005 C 
HETATM    6  C6  UNL     1     -33.302  15.573  -3.786  1.00 20.00     0.006 C 
HETATM    7  C7  UNL     1     -35.339  14.288  -4.742  1.00 20.00     0.093 C 
HETATM    8  C8  UNL     1     -33.694  16.238  -2.458  1.00 20.00    -0.014 C 
HETATM    9  N12 UNL     1     -35.191  15.479  -7.090  1.00 20.00    -0.197 NA
ENDROOT
BRANCH   8  10
HETATM   10  C10 UNL     1     -33.231  17.699  -2.465  1.00 20.00     0.004 C 
BRANCH  10  11
HETATM   11  C11 UNL     1     -33.076  18.217  -3.889  1.00 20.00    -0.004 C 
HETATM   12  C9  UNL     1     -34.151  19.240  -4.218  1.00 20.00     0.005 C 
ENDBRANCH  10  11
ENDBRANCH   8  10
TORSDOF 2
ENDMDL
MODEL 6
REMARK VINA RESULT:      -4.5     17.259     18.460
REMARK  2 active torsions:
REMARK  status: ('A' for Active; 'I' for Inactive)
REMARK    1  A    between atoms: C8_8  and  C10_10 
REMARK    2  A    between atoms: C10_10  and  C11_11 
ROOT
HETATM    1  C1  UNL     1     -21.950  17.520   8.323  1.00 20.00     0.064 C 
HETATM    2  C2  UNL     1     -22.193  17.385  11.540  1.00 20.00     0.002 C 
HETATM    3  C3  UNL     1     -21.411  18.313  10.607  1.00 20.00     0.019 C 
HETATM    4  C4  UNL     1     -23.522  19.149   9.361  1.00 20.00     0.019 C 
HETATM    5  C5  UNL     1     -23.400  18.074  12.173  1.00 20.00     0.005 C 
HETATM    6  C6  UNL     1     -24.541  18.111   9.837  1.00 20.00     0.006 C 
HETATM    7  C7  UNL     1     -22.072  18.650   9.265  1.00 20.00     0.093 C 
HETATM    8  C8  UNL     1     -24.701  18.004  11.361  1.00 20.00    -0.014 C 
HETATM    9  N12 UNL     1     -21.855  16.632   7.581  1.00 20.00    -0.197 NA
ENDROOT
BRANCH   8  10
HETATM   10  C10 UNL     1     -25.484  16.730  11.701  1.00 20.00     0.004 C 
BRANCH  10  11
HETATM   11  C11 UNL     1     -26.828  17.066  12.332  1.00 20.00    -0.004 C 
HETATM   12  C9  UNL     1     -27.252  18.485  11.989  1.00 20.00     0.005 C 
ENDBRANCH  10  11
ENDBRANCH   8  10
TORSDOF 2
ENDMDL
MODEL 7
REMARK VINA RESULT:      -4.4      1.902      2.888
REMARK  2 active torsions:
REMARK  status: ('A' for Active; 'I' for Inactive)
REMARK    1  A    between atoms: C8_8  and  C10_10 
REMARK    2  A    between atoms: C10_10  and  C11_11 
ROOT
HETATM    1  C1  UNL     1     -36.946  14.156  -4.642  1.00 20.00     0.064 C 
HETATM    2  C2  UNL     1     -34.524  15.421  -2.921  1.00 20.00     0.002 C 
HETATM    3  C3  UNL     1     -34.607  14.189  -3.826  1.00 20.00     0.019 C 
HETATM    4  C4  UNL     1     -35.318  15.543  -5.918  1.00 20.00     0.019 C 
HETATM    5  C5  UNL     1     -33.743  16.567  -3.561  1.00 20.00     0.005 C 
HETATM    6  C6  UNL     1     -35.688  16.874  -5.260  1.00 20.00     0.006 C 
HETATM    7  C7  UNL     1     -35.532  14.296  -5.044  1.00 20.00     0.093 C 
HETATM    8  C8  UNL     1     -34.572  17.525  -4.429  1.00 20.00    -0.014 C 
HETATM    9  N12 UNL     1     -38.057  14.044  -4.327  1.00 20.00    -0.197 NA
ENDROOT
BRANCH   8  10
HETATM   10  C10 UNL     1     -35.166  18.652  -3.576  1.00 20.00     0.004 C 
BRANCH  10  11
HETATM   11  C11 UNL     1     -36.667  18.468  -3.395  1.00 20.00    -0.004 C 
HETATM   12  C9  UNL     1     -36.999  18.065  -1.967  1.00 20.00     0.005 C 
ENDBRANCH  10  11
ENDBRANCH   8  10
TORSDOF 2
ENDMDL
MODEL 8
REMARK VINA RESULT:      -4.4      2.070      4.492
REMARK  2 active torsions:
REMARK  status: ('A' for Active; 'I' for Inactive)
REMARK    1  A    between atoms: C8_8  and  C10_10 
REMARK    2  A    between atoms: C10_10  and  C11_11 
ROOT
HETATM    1  C1  UNL     1     -33.235  17.678  -3.633  1.00 20.00     0.064 C 
HETATM    2  C2  UNL     1     -33.984  14.793  -4.876  1.00 20.00     0.002 C 
HETATM    3  C3  UNL     1     -32.899  15.237  -3.892  1.00 20.00     0.019 C 
HETATM    4  C4  UNL     1     -34.586  16.183  -2.169  1.00 20.00     0.019 C 
HETATM    5  C5  UNL     1     -35.109  14.016  -4.196  1.00 20.00     0.005 C 
HETATM    6  C6  UNL     1     -35.853  16.216  -3.027  1.00 20.00     0.006 C 
HETATM    7  C7  UNL     1     -33.268  16.377  -2.935  1.00 20.00     0.093 C 
HETATM    8  C8  UNL     1     -36.259  14.870  -3.644  1.00 20.00    -0.014 C 
HETATM    9  N12 UNL     1     -33.209  18.701  -4.181  1.00 20.00    -0.197 NA
ENDROOT
BRANCH   8  10
HETATM   10  C10 UNL     1     -37.325  15.106  -4.721  1.00 20.00     0.004 C 
BRANCH  10  11
HETATM   11  C11 UNL     1     -37.266  16.535  -5.244  1.00 20.00    -0.004 C 
HETATM   12  C9  UNL     1     -36.774  16.570  -6.682  1.00 20.00     0.005 C 
ENDBRANCH  10  11
ENDBRANCH   8  10
TORSDOF 2
ENDMDL
MODEL 9
REMARK VINA RESULT:      -4.4      2.297      4.608
REMARK  2 active torsions:
REMARK  status: ('A' for Active; 'I' for Inactive)
REMARK    1  A    between atoms: C8_8  and  C10_10 
REMARK    2  A    between atoms: C10_10  and  C11_11 
ROOT
HETATM    1  C1  UNL     1     -34.426  16.844  -1.802  1.00 20.00     0.064 C 
HETATM    2  C2  UNL     1     -35.121  17.465  -4.894  1.00 20.00     0.002 C 
HETATM    3  C3  UNL     1     -34.039  18.006  -3.956  1.00 20.00     0.019 C 
HETATM    4  C4  UNL     1     -33.015  15.672  -3.487  1.00 20.00     0.019 C 
HETATM    5  C5  UNL     1     -34.562  16.499  -5.937  1.00 20.00     0.005 C 
HETATM    6  C6  UNL     1     -34.128  14.778  -4.037  1.00 20.00     0.006 C 
HETATM    7  C7  UNL     1     -33.478  17.024  -2.920  1.00 20.00     0.093 C 
HETATM    8  C8  UNL     1     -34.501  15.027  -5.506  1.00 20.00    -0.014 C 
HETATM    9  N12 UNL     1     -35.170  16.703  -0.922  1.00 20.00    -0.197 NA
ENDROOT
BRANCH   8  10
HETATM   10  C10 UNL     1     -35.821  14.313  -5.823  1.00 20.00     0.004 C 
BRANCH  10  11
HETATM   11  C11 UNL     1     -36.530  13.882  -4.547  1.00 20.00    -0.004 C 
HETATM   12  C9  UNL     1     -37.794  14.696  -4.323  1.00 20.00     0.005 C 
ENDBRANCH  10  11
ENDBRANCH   8  10
TORSDOF 2
ENDMDL
