MODEL 1
REMARK VINA RESULT:      -5.4      0.000      0.000
REMARK  1 active torsions:
REMARK  status: ('A' for Active; 'I' for Inactive)
REMARK    1  A    between atoms: C2_2  and  C11_11 
ROOT
HETATM    1  C1  UNL     1     -32.317  17.885  -1.410  1.00 20.00     0.053 C 
HETATM    2  C2  UNL     1     -33.653  17.777  -1.353  1.00 20.00    -0.072 C 
HETATM    3  C3  UNL     1     -31.550  18.397  -0.247  1.00 20.00     0.149 C 
HETATM    4  C4  UNL     1     -34.448  18.095  -0.112  1.00 20.00     0.035 C 
HETATM    5  C5  UNL     1     -32.314  18.881   0.964  1.00 20.00     0.083 C 
HETATM    6  C6  UNL     1     -33.594  18.082   1.152  1.00 20.00     0.012 C 
HETATM    7  O12 UNL     1     -30.324  18.479  -0.312  1.00 20.00    -0.293 OA
ENDROOT
BRANCH   2   8
HETATM    8  C11 UNL     1     -34.459  17.322  -2.556  1.00 20.00     0.014 C 
HETATM    9  C9  UNL     1     -35.129  15.987  -2.237  1.00 20.00     0.009 C 
HETATM   10  C7  UNL     1     -34.624  15.006  -3.290  1.00 20.00     0.001 C 
HETATM   11  C8  UNL     1     -33.265  15.556  -3.687  1.00 20.00     0.001 C 
HETATM   12  C10 UNL     1     -33.498  17.060  -3.712  1.00 20.00     0.009 C 
ENDBRANCH   2   8
TORSDOF 1
ENDMDL
MODEL 2
REMARK VINA RESULT:      -5.4      1.365      2.198
REMARK  1 active torsions:
REMARK  status: ('A' for Active; 'I' for Inactive)
REMARK    1  A    between atoms: C2_2  and  C11_11 
ROOT
HETATM    1  C1  UNL     1     -32.981  16.994  -2.426  1.00 20.00     0.053 C 
HETATM    2  C2  UNL     1     -34.143  16.336  -2.298  1.00 20.00    -0.072 C 
HETATM    3  C3  UNL     1     -32.708  18.212  -1.622  1.00 20.00     0.149 C 
HETATM    4  C4  UNL     1     -35.204  16.735  -1.304  1.00 20.00     0.035 C 
HETATM    5  C5  UNL     1     -33.804  18.745  -0.728  1.00 20.00     0.083 C 
HETATM    6  C6  UNL     1     -34.657  17.612  -0.181  1.00 20.00     0.012 C 
HETATM    7  O12 UNL     1     -31.633  18.795  -1.744  1.00 20.00    -0.293 OA
ENDROOT
BRANCH   2   8
HETATM    8  C11 UNL     1     -34.466  15.131  -3.162  1.00 20.00     0.014 C 
HETATM    9  C9  UNL     1     -33.364  14.947  -4.203  1.00 20.00     0.009 C 
HETATM   10  C7  UNL     1     -34.058  15.022  -5.559  1.00 20.00     0.001 C 
HETATM   11  C8  UNL     1     -35.280  15.886  -5.304  1.00 20.00     0.001 C 
HETATM   12  C10 UNL     1     -35.750  15.418  -3.934  1.00 20.00     0.009 C 
ENDBRANCH   2   8
TORSDOF 1
ENDMDL
MODEL 3
REMARK VINA RESULT:      -5.4      2.274      3.659
REMARK  1 active torsions:
REMARK  status: ('A' for Active; 'I' for Inactive)
REMARK    1  A    between atoms: C2_2  and  C11_11 
ROOT
HETATM    1  C1  UNL     1     -35.194  15.928  -2.094  1.00 20.00     0.053 C 
HETATM    2  C2  UNL     1     -34.269  15.630  -3.018  1.00 20.00    -0.072 C 
HETATM    3  C3  UNL     1     -34.953  17.006  -1.102  1.00 20.00     0.149 C 
HETATM    4  C4  UNL     1     -32.976  16.393  -3.158  1.00 20.00     0.035 C 
HETATM    5  C5  UNL     1     -33.607  17.693  -1.098  1.00 20.00     0.083 C 
HETATM    6  C6  UNL     1     -33.034  17.771  -2.504  1.00 20.00     0.012 C 
HETATM    7  O12 UNL     1     -35.818  17.274  -0.269  1.00 20.00    -0.293 OA
ENDROOT
BRANCH   2   8
HETATM    8  C11 UNL     1     -34.469  14.486  -3.994  1.00 20.00     0.014 C 
HETATM    9  C9  UNL     1     -33.933  14.893  -5.365  1.00 20.00     0.009 C 
HETATM   10  C7  UNL     1     -35.114  14.778  -6.324  1.00 20.00     0.001 C 
HETATM   11  C8  UNL     1     -36.330  14.997  -5.443  1.00 20.00     0.001 C 
HETATM   12  C10 UNL     1     -35.967  14.251  -4.166  1.00 20.00     0.009 C 
ENDBRANCH   2   8
TORSDOF 1
ENDMDL
MODEL 4
REMARK VINA RESULT:      -5.3      3.237      5.348
REMARK  1 active torsions:
REMARK  status: ('A' for Active; 'I' for Inactive)
REMARK    1  A    between atoms: C2_2  and  C11_11 
ROOT
HETATM    1  C1  UNL     1     -35.016  14.470  -3.521  1.00 20.00     0.053 C 
HETATM    2  C2  UNL     1     -35.188  15.701  -3.016  1.00 20.00    -0.072 C 
HETATM    3  C3  UNL     1     -36.100  13.811  -4.292  1.00 20.00     0.149 C 
HETATM    4  C4  UNL     1     -36.437  16.513  -3.245  1.00 20.00     0.035 C 
HETATM    5  C5  UNL     1     -37.431  14.518  -4.413  1.00 20.00     0.083 C 
HETATM    6  C6  UNL     1     -37.242  16.026  -4.447  1.00 20.00     0.012 C 
HETATM    7  O12 UNL     1     -35.922  12.687  -4.758  1.00 20.00    -0.293 OA
ENDROOT
BRANCH   2   8
HETATM    8  C11 UNL     1     -34.117  16.361  -2.167  1.00 20.00     0.014 C 
HETATM    9  C9  UNL     1     -34.611  17.731  -1.709  1.00 20.00     0.009 C 
HETATM   10  C7  UNL     1     -33.593  18.737  -2.237  1.00 20.00     0.001 C 
HETATM   11  C8  UNL     1     -33.013  18.066  -3.468  1.00 20.00     0.001 C 
HETATM   12  C10 UNL     1     -32.891  16.610  -3.040  1.00 20.00     0.009 C 
ENDBRANCH   2   8
TORSDOF 1
ENDMDL
MODEL 5
REMARK VINA RESULT:      -5.3      3.334      5.719
REMARK  1 active torsions:
REMARK  status: ('A' for Active; 'I' for Inactive)
REMARK    1  A    between atoms: C2_2  and  C11_11 
ROOT
HETATM    1  C1  UNL     1     -35.814  14.819  -3.480  1.00 20.00     0.053 C 
HETATM    2  C2  UNL     1     -34.681  15.523  -3.620  1.00 20.00    -0.072 C 
HETATM    3  C3  UNL     1     -36.550  14.324  -4.670  1.00 20.00     0.149 C 
HETATM    4  C4  UNL     1     -34.049  15.798  -4.961  1.00 20.00     0.035 C 
HETATM    5  C5  UNL     1     -36.045  14.711  -6.041  1.00 20.00     0.083 C 
HETATM    6  C6  UNL     1     -34.529  14.838  -6.045  1.00 20.00     0.012 C 
HETATM    7  O12 UNL     1     -37.581  13.670  -4.523  1.00 20.00    -0.293 OA
ENDROOT
BRANCH   2   8
HETATM    8  C11 UNL     1     -33.954  16.095  -2.417  1.00 20.00     0.014 C 
HETATM    9  C9  UNL     1     -34.977  16.644  -1.424  1.00 20.00     0.009 C 
HETATM   10  C7  UNL     1     -34.635  18.119  -1.248  1.00 20.00     0.001 C 
HETATM   11  C8  UNL     1     -33.966  18.504  -2.555  1.00 20.00     0.001 C 
HETATM   12  C10 UNL     1     -33.115  17.283  -2.877  1.00 20.00     0.009 C 
ENDBRANCH   2   8
TORSDOF 1
ENDMDL
MODEL 6
REMARK VINA RESULT:      -5.3      1.817      4.436
REMARK  1 active torsions:
REMARK  status: ('A' for Active; 'I' for Inactive)
REMARK    1  A    between atoms: C2_2  and  C11_11 
ROOT
HETATM    1  C1  UNL     1     -32.825  17.232  -2.198  1.00 20.00     0.053 C 
HETATM    2  C2  UNL     1     -33.335  17.884  -1.143  1.00 20.00    -0.072 C 
HETATM    3  C3  UNL     1     -33.606  16.172  -2.883  1.00 20.00     0.149 C 
HETATM    4  C4  UNL     1     -34.732  17.643  -0.629  1.00 20.00     0.035 C 
HETATM    5  C5  UNL     1     -34.948  15.781  -2.307  1.00 20.00     0.083 C 
HETATM    6  C6  UNL     1     -35.632  16.977  -1.666  1.00 20.00     0.012 C 
HETATM    7  O12 UNL     1     -33.127  15.592  -3.856  1.00 20.00    -0.293 OA
ENDROOT
BRANCH   2   8
HETATM    8  C11 UNL     1     -32.523  18.921  -0.388  1.00 20.00     0.014 C 
HETATM    9  C9  UNL     1     -31.064  18.474  -0.332  1.00 20.00     0.009 C 
HETATM   10  C7  UNL     1     -30.715  18.382   1.150  1.00 20.00     0.001 C 
HETATM   11  C8  UNL     1     -32.043  18.094   1.827  1.00 20.00     0.001 C 
HETATM   12  C10 UNL     1     -33.019  18.970   1.053  1.00 20.00     0.009 C 
ENDBRANCH   2   8
TORSDOF 1
ENDMDL
MODEL 7
REMARK VINA RESULT:      -5.0      3.275      5.727
REMARK  1 active torsions:
REMARK  status: ('A' for Active; 'I' for Inactive)
REMARK    1  A    between atoms: C2_2  and  C11_11 
ROOT
HETATM    1  C1  UNL     1     -36.765  15.618  -3.539  1.00 20.00     0.053 C 
HETATM    2  C2  UNL     1     -35.495  15.999  -3.337  1.00 20.00    -0.072 C 
HETATM    3  C3  UNL     1     -37.071  14.335  -4.220  1.00 20.00     0.149 C 
HETATM    4  C4  UNL     1     -34.313  15.143  -3.716  1.00 20.00     0.035 C 
HETATM    5  C5  UNL     1     -35.922  13.516  -4.763  1.00 20.00     0.083 C 
HETATM    6  C6  UNL     1     -34.685  13.674  -3.893  1.00 20.00     0.012 C 
HETATM    7  O12 UNL     1     -38.241  13.995  -4.386  1.00 20.00    -0.293 OA
ENDROOT
BRANCH   2   8
HETATM    8  C11 UNL     1     -35.165  17.339  -2.705  1.00 20.00     0.014 C 
HETATM    9  C9  UNL     1     -33.786  17.262  -2.052  1.00 20.00     0.009 C 
HETATM   10  C7  UNL     1     -34.005  17.596  -0.580  1.00 20.00     0.001 C 
HETATM   11  C8  UNL     1     -35.440  17.177  -0.314  1.00 20.00     0.001 C 
HETATM   12  C10 UNL     1     -36.163  17.605  -1.583  1.00 20.00     0.009 C 
ENDBRANCH   2   8
TORSDOF 1
ENDMDL
MODEL 8
REMARK VINA RESULT:      -5.0     13.382     14.964
REMARK  1 active torsions:
REMARK  status: ('A' for Active; 'I' for Inactive)
REMARK    1  A    between atoms: C2_2  and  C11_11 
ROOT
HETATM    1  C1  UNL     1     -24.758  18.541   9.365  1.00 20.00     0.053 C 
HETATM    2  C2  UNL     1     -24.129  18.096  10.463  1.00 20.00    -0.072 C 
HETATM    3  C3  UNL     1     -24.075  18.533   8.047  1.00 20.00     0.149 C 
HETATM    4  C4  UNL     1     -22.742  17.505  10.429  1.00 20.00     0.035 C 
HETATM    5  C5  UNL     1     -22.628  18.101   7.987  1.00 20.00     0.083 C 
HETATM    6  C6  UNL     1     -22.336  17.038   9.034  1.00 20.00     0.012 C 
HETATM    7  O12 UNL     1     -24.671  18.934   7.048  1.00 20.00    -0.293 OA
ENDROOT
BRANCH   2   8
HETATM    8  C11 UNL     1     -24.786  18.162  11.829  1.00 20.00     0.014 C 
HETATM    9  C9  UNL     1     -25.526  16.852  12.096  1.00 20.00     0.009 C 
HETATM   10  C7  UNL     1     -26.982  17.239  12.332  1.00 20.00     0.001 C 
HETATM   11  C8  UNL     1     -27.154  18.530  11.553  1.00 20.00     0.001 C 
HETATM   12  C10 UNL     1     -25.843  19.261  11.806  1.00 20.00     0.009 C 
ENDBRANCH   2   8
TORSDOF 1
ENDMDL
MODEL 9
REMARK VINA RESULT:      -4.9     10.663     11.812
REMARK  1 active torsions:
REMARK  status: ('A' for Active; 'I' for Inactive)
REMARK    1  A    between atoms: C2_2  and  C11_11 
ROOT
HETATM    1  C1  UNL     1     -33.350   7.056   4.149  1.00 20.00     0.053 C 
HETATM    2  C2  UNL     1     -32.979   6.748   2.897  1.00 20.00    -0.072 C 
HETATM    3  C3  UNL     1     -34.216   6.137   4.929  1.00 20.00     0.149 C 
HETATM    4  C4  UNL     1     -33.349   5.448   2.230  1.00 20.00     0.035 C 
HETATM    5  C5  UNL     1     -34.747   4.896   4.249  1.00 20.00     0.083 C 
HETATM    6  C6  UNL     1     -33.749   4.367   3.231  1.00 20.00     0.012 C 
HETATM    7  O12 UNL     1     -34.537   6.429   6.080  1.00 20.00    -0.293 OA
ENDROOT
BRANCH   2   8
HETATM    8  C11 UNL     1     -32.151   7.708   2.062  1.00 20.00     0.014 C 
HETATM    9  C9  UNL     1     -32.804   9.088   2.085  1.00 20.00     0.009 C 
HETATM   10  C7  UNL     1     -33.097   9.434   0.629  1.00 20.00     0.001 C 
HETATM   11  C8  UNL     1     -33.262   8.084  -0.046  1.00 20.00     0.001 C 
HETATM   12  C10 UNL     1     -32.182   7.237   0.611  1.00 20.00     0.009 C 
ENDBRANCH   2   8
TORSDOF 1
ENDMDL
