MODEL 1
REMARK VINA RESULT:      -4.9      0.000      0.000
REMARK  1 active torsions:
REMARK  status: ('A' for Active; 'I' for Inactive)
REMARK    1  A    between atoms: C2_2  and  C8_8 
ROOT
HETATM    1  C1  UNL     1     -32.776   7.220   3.682  1.00 20.00    -0.004 C 
HETATM    2  C2  UNL     1     -33.745   6.373   4.049  1.00 20.00    -0.079 C 
HETATM    3  C3  UNL     1     -34.025   5.360   2.982  1.00 20.00     0.036 C 
HETATM    4  C4  UNL     1     -32.810   5.504   2.063  1.00 20.00     0.028 C 
HETATM    5  C5  UNL     1     -32.253   6.908   2.317  1.00 20.00     0.105 C 
HETATM    6 CL9  UNL     1     -32.888   8.087   1.149  1.00 20.00    -0.121 Cl
ENDROOT
BRANCH   2   7
HETATM    7  C8  UNL     1     -34.518   6.393   5.316  1.00 20.00     0.006 C 
HETATM    8  C6  UNL     1     -34.812   4.970   5.795  1.00 20.00     0.014 C 
HETATM    9  C7  UNL     1     -33.781   7.180   6.404  1.00 20.00     0.014 C 
ENDBRANCH   2   7
TORSDOF 1
ENDMDL
MODEL 2
REMARK VINA RESULT:      -4.5      2.385      3.695
REMARK  1 active torsions:
REMARK  status: ('A' for Active; 'I' for Inactive)
REMARK    1  A    between atoms: C2_2  and  C8_8 
ROOT
HETATM    1  C1  UNL     1     -34.144   6.627   4.146  1.00 20.00    -0.004 C 
HETATM    2  C2  UNL     1     -33.252   6.204   3.243  1.00 20.00    -0.079 C 
HETATM    3  C3  UNL     1     -33.393   4.737   2.975  1.00 20.00     0.036 C 
HETATM    4  C4  UNL     1     -34.759   4.419   3.589  1.00 20.00     0.028 C 
HETATM    5  C5  UNL     1     -35.021   5.517   4.624  1.00 20.00     0.105 C 
HETATM    6 CL9  UNL     1     -34.518   5.016   6.253  1.00 20.00    -0.121 Cl
ENDROOT
BRANCH   2   7
HETATM    7  C8  UNL     1     -32.202   7.013   2.575  1.00 20.00     0.006 C 
HETATM    8  C6  UNL     1     -32.807   7.885   1.473  1.00 20.00     0.014 C 
HETATM    9  C7  UNL     1     -31.443   7.880   3.584  1.00 20.00     0.014 C 
ENDBRANCH   2   7
TORSDOF 1
ENDMDL
MODEL 3
REMARK VINA RESULT:      -4.4     11.175     11.837
REMARK  1 active torsions:
REMARK  status: ('A' for Active; 'I' for Inactive)
REMARK    1  A    between atoms: C2_2  and  C8_8 
ROOT
HETATM    1  C1  UNL     1     -33.146  15.716  -3.689  1.00 20.00    -0.004 C 
HETATM    2  C2  UNL     1     -34.179  16.106  -2.932  1.00 20.00    -0.079 C 
HETATM    3  C3  UNL     1     -35.368  15.216  -3.122  1.00 20.00     0.036 C 
HETATM    4  C4  UNL     1     -34.764  14.007  -3.839  1.00 20.00     0.028 C 
HETATM    5  C5  UNL     1     -33.479  14.509  -4.502  1.00 20.00     0.105 C 
HETATM    6 CL9  UNL     1     -33.754  14.983  -6.193  1.00 20.00    -0.121 Cl
ENDROOT
BRANCH   2   7
HETATM    7  C8  UNL     1     -34.230  17.279  -2.023  1.00 20.00     0.006 C 
HETATM    8  C6  UNL     1     -35.110  16.985  -0.806  1.00 20.00     0.014 C 
HETATM    9  C7  UNL     1     -32.826  17.696  -1.576  1.00 20.00     0.014 C 
ENDBRANCH   2   7
TORSDOF 1
ENDMDL
MODEL 4
REMARK VINA RESULT:      -4.2     11.510     12.278
REMARK  1 active torsions:
REMARK  status: ('A' for Active; 'I' for Inactive)
REMARK    1  A    between atoms: C2_2  and  C8_8 
ROOT
HETATM    1  C1  UNL     1     -35.080  15.920  -2.154  1.00 20.00    -0.004 C 
HETATM    2  C2  UNL     1     -34.192  15.611  -3.106  1.00 20.00    -0.079 C 
HETATM    3  C3  UNL     1     -33.078  16.610  -3.165  1.00 20.00     0.036 C 
HETATM    4  C4  UNL     1     -33.245  17.369  -1.846  1.00 20.00     0.028 C 
HETATM    5  C5  UNL     1     -34.704  17.169  -1.427  1.00 20.00     0.105 C 
HETATM    6 CL9  UNL     1     -35.733  18.512  -1.972  1.00 20.00    -0.121 Cl
ENDROOT
BRANCH   2   7
HETATM    7  C8  UNL     1     -34.251  14.464  -4.047  1.00 20.00     0.006 C 
HETATM    8  C6  UNL     1     -35.676  13.916  -4.146  1.00 20.00     0.014 C 
HETATM    9  C7  UNL     1     -33.734  14.857  -5.434  1.00 20.00     0.014 C 
ENDBRANCH   2   7
TORSDOF 1
ENDMDL
MODEL 5
REMARK VINA RESULT:      -4.1     11.421     12.017
REMARK  1 active torsions:
REMARK  status: ('A' for Active; 'I' for Inactive)
REMARK    1  A    between atoms: C2_2  and  C8_8 
ROOT
HETATM    1  C1  UNL     1     -34.913  14.234  -3.971  1.00 20.00    -0.004 C 
HETATM    2  C2  UNL     1     -35.140  15.339  -3.251  1.00 20.00    -0.079 C 
HETATM    3  C3  UNL     1     -36.502  15.901  -3.518  1.00 20.00     0.036 C 
HETATM    4  C4  UNL     1     -37.200  14.745  -4.239  1.00 20.00     0.028 C 
HETATM    5  C5  UNL     1     -36.083  13.881  -4.830  1.00 20.00     0.105 C 
HETATM    6 CL9  UNL     1     -35.739  14.319  -6.518  1.00 20.00    -0.121 Cl
ENDROOT
BRANCH   2   7
HETATM    7  C8  UNL     1     -34.200  16.005  -2.314  1.00 20.00     0.006 C 
HETATM    8  C6  UNL     1     -33.190  16.864  -3.078  1.00 20.00     0.014 C 
HETATM    9  C7  UNL     1     -34.951  16.855  -1.285  1.00 20.00     0.014 C 
ENDBRANCH   2   7
TORSDOF 1
ENDMDL
MODEL 6
REMARK VINA RESULT:      -4.1     11.497     12.420
REMARK  1 active torsions:
REMARK  status: ('A' for Active; 'I' for Inactive)
REMARK    1  A    between atoms: C2_2  and  C8_8 
ROOT
HETATM    1  C1  UNL     1     -32.946  17.209  -2.783  1.00 20.00    -0.004 C 
HETATM    2  C2  UNL     1     -33.988  16.443  -2.440  1.00 20.00    -0.079 C 
HETATM    3  C3  UNL     1     -34.712  16.997  -1.252  1.00 20.00     0.036 C 
HETATM    4  C4  UNL     1     -34.159  18.421  -1.163  1.00 20.00     0.028 C 
HETATM    5  C5  UNL     1     -32.808  18.394  -1.883  1.00 20.00     0.105 C 
HETATM    6 CL9  UNL     1     -31.465  18.132  -0.749  1.00 20.00    -0.121 Cl
ENDROOT
BRANCH   2   7
HETATM    7  C8  UNL     1     -34.414  15.173  -3.081  1.00 20.00     0.006 C 
HETATM    8  C6  UNL     1     -35.866  15.266  -3.556  1.00 20.00     0.014 C 
HETATM    9  C7  UNL     1     -33.494  14.804  -4.248  1.00 20.00     0.014 C 
ENDBRANCH   2   7
TORSDOF 1
ENDMDL
MODEL 7
REMARK VINA RESULT:      -4.0     11.311     12.096
REMARK  1 active torsions:
REMARK  status: ('A' for Active; 'I' for Inactive)
REMARK    1  A    between atoms: C2_2  and  C8_8 
ROOT
HETATM    1  C1  UNL     1     -36.336  16.033  -3.948  1.00 20.00    -0.004 C 
HETATM    2  C2  UNL     1     -35.297  15.368  -3.429  1.00 20.00    -0.079 C 
HETATM    3  C3  UNL     1     -35.192  13.984  -3.992  1.00 20.00     0.036 C 
HETATM    4  C4  UNL     1     -36.117  14.053  -5.210  1.00 20.00     0.028 C 
HETATM    5  C5  UNL     1     -37.087  15.205  -4.937  1.00 20.00     0.105 C 
HETATM    6 CL9  UNL     1     -38.602  14.628  -4.208  1.00 20.00    -0.121 Cl
ENDROOT
BRANCH   2   7
HETATM    7  C8  UNL     1     -34.347  15.855  -2.397  1.00 20.00     0.006 C 
HETATM    8  C6  UNL     1     -33.182  16.606  -3.043  1.00 20.00     0.014 C 
HETATM    9  C7  UNL     1     -35.052  16.748  -1.371  1.00 20.00     0.014 C 
ENDBRANCH   2   7
TORSDOF 1
ENDMDL
MODEL 8
REMARK VINA RESULT:      -4.0     11.523     12.292
REMARK  1 active torsions:
REMARK  status: ('A' for Active; 'I' for Inactive)
REMARK    1  A    between atoms: C2_2  and  C8_8 
ROOT
HETATM    1  C1  UNL     1     -32.943  16.795  -2.873  1.00 20.00    -0.004 C 
HETATM    2  C2  UNL     1     -33.590  17.298  -1.814  1.00 20.00    -0.079 C 
HETATM    3  C3  UNL     1     -34.956  16.701  -1.669  1.00 20.00     0.036 C 
HETATM    4  C4  UNL     1     -34.885  15.485  -2.596  1.00 20.00     0.028 C 
HETATM    5  C5  UNL     1     -33.768  15.785  -3.600  1.00 20.00     0.105 C 
HETATM    6 CL9  UNL     1     -34.407  16.501  -5.097  1.00 20.00    -0.121 Cl
ENDROOT
BRANCH   2   7
HETATM    7  C8  UNL     1     -33.100  18.342  -0.879  1.00 20.00     0.006 C 
HETATM    8  C6  UNL     1     -33.783  18.213   0.484  1.00 20.00     0.014 C 
HETATM    9  C7  UNL     1     -31.578  18.275  -0.720  1.00 20.00     0.014 C 
ENDBRANCH   2   7
TORSDOF 1
ENDMDL
MODEL 9
REMARK VINA RESULT:      -3.9     11.633     12.728
REMARK  1 active torsions:
REMARK  status: ('A' for Active; 'I' for Inactive)
REMARK    1  A    between atoms: C2_2  and  C8_8 
ROOT
HETATM    1  C1  UNL     1     -32.228  18.311  -1.606  1.00 20.00    -0.004 C 
HETATM    2  C2  UNL     1     -33.422  17.710  -1.552  1.00 20.00    -0.079 C 
HETATM    3  C3  UNL     1     -34.087  17.925  -0.227  1.00 20.00     0.036 C 
HETATM    4  C4  UNL     1     -33.262  19.065   0.375  1.00 20.00     0.028 C 
HETATM    5  C5  UNL     1     -31.905  19.023  -0.333  1.00 20.00     0.105 C 
HETATM    6 CL9  UNL     1     -30.712  18.085   0.591  1.00 20.00    -0.121 Cl
ENDROOT
BRANCH   2   7
HETATM    7  C8  UNL     1     -34.059  16.886  -2.611  1.00 20.00     0.006 C 
HETATM    8  C6  UNL     1     -33.019  16.018  -3.322  1.00 20.00     0.014 C 
HETATM    9  C7  UNL     1     -35.179  16.014  -2.037  1.00 20.00     0.014 C 
ENDBRANCH   2   7
TORSDOF 1
ENDMDL
