MODEL 1
REMARK VINA RESULT:      -4.7      0.000      0.000
REMARK  4 active torsions:
REMARK  status: ('A' for Active; 'I' for Inactive)
REMARK    1  A    between atoms: C2_2  and  C7_7 
REMARK    2  A    between atoms: C7_7  and  C8_8 
REMARK    3  A    between atoms: C8_8  and  C9_9 
REMARK    4  A    between atoms: C9_9  and  O10_10 
ROOT
HETATM    1  C1  UNL     1     -33.010  16.629  -2.966  1.00 20.00    -0.004 C 
HETATM    2  C2  UNL     1     -33.977  15.722  -3.147  1.00 20.00    -0.082 C 
HETATM    3  C3  UNL     1     -35.146  15.977  -2.247  1.00 20.00     0.036 C 
HETATM    4  C4  UNL     1     -34.570  16.966  -1.231  1.00 20.00     0.028 C 
HETATM    5  C5  UNL     1     -33.375  17.630  -1.919  1.00 20.00     0.105 C 
HETATM    6 CL11 UNL     1     -33.831  19.164  -2.692  1.00 20.00    -0.121 Cl
ENDROOT
BRANCH   2   7
HETATM    7  C7  UNL     1     -33.983  14.600  -4.121  1.00 20.00     0.036 C 
BRANCH   7   8
HETATM    8  C8  UNL     1     -35.208  13.712  -3.933  1.00 20.00     0.030 C 
BRANCH   8   9
HETATM    9  C9  UNL     1     -36.255  13.912  -5.021  1.00 20.00     0.167 C 
BRANCH   9  10
HETATM   10  O10 UNL     1     -37.538  13.627  -4.479  1.00 20.00    -0.396 OA
HETATM   11  C6  UNL     1     -38.293  14.813  -4.272  1.00 20.00     0.201 C 
ENDBRANCH   9  10
ENDBRANCH   8   9
ENDBRANCH   7   8
ENDBRANCH   2   7
TORSDOF 4
ENDMDL
MODEL 2
REMARK VINA RESULT:      -4.5      3.542      5.720
REMARK  4 active torsions:
REMARK  status: ('A' for Active; 'I' for Inactive)
REMARK    1  A    between atoms: C2_2  and  C7_7 
REMARK    2  A    between atoms: C7_7  and  C8_8 
REMARK    3  A    between atoms: C8_8  and  C9_9 
REMARK    4  A    between atoms: C9_9  and  O10_10 
ROOT
HETATM    1  C1  UNL     1     -35.137  15.549  -2.638  1.00 20.00    -0.004 C 
HETATM    2  C2  UNL     1     -33.997  16.247  -2.579  1.00 20.00    -0.082 C 
HETATM    3  C3  UNL     1     -33.052  15.851  -3.671  1.00 20.00     0.036 C 
HETATM    4  C4  UNL     1     -33.659  14.539  -4.173  1.00 20.00     0.028 C 
HETATM    5  C5  UNL     1     -35.136  14.577  -3.773  1.00 20.00     0.105 C 
HETATM    6 CL11 UNL     1     -36.157  15.195  -5.090  1.00 20.00    -0.121 Cl
ENDROOT
BRANCH   2   7
HETATM    7  C7  UNL     1     -33.652  17.319  -1.611  1.00 20.00     0.036 C 
BRANCH   7   8
HETATM    8  C8  UNL     1     -32.452  18.130  -2.089  1.00 20.00     0.030 C 
BRANCH   8   9
HETATM    9  C9  UNL     1     -31.872  19.023  -0.999  1.00 20.00     0.167 C 
BRANCH   9  10
HETATM   10  O10 UNL     1     -30.671  18.435  -0.516  1.00 20.00    -0.396 OA
HETATM   11  C6  UNL     1     -30.676  18.326   0.901  1.00 20.00     0.201 C 
ENDBRANCH   9  10
ENDBRANCH   8   9
ENDBRANCH   7   8
ENDBRANCH   2   7
TORSDOF 4
ENDMDL
MODEL 3
REMARK VINA RESULT:      -4.5      1.288      1.743
REMARK  4 active torsions:
REMARK  status: ('A' for Active; 'I' for Inactive)
REMARK    1  A    between atoms: C2_2  and  C7_7 
REMARK    2  A    between atoms: C7_7  and  C8_8 
REMARK    3  A    between atoms: C8_8  and  C9_9 
REMARK    4  A    between atoms: C9_9  and  O10_10 
ROOT
HETATM    1  C1  UNL     1     -35.441  16.323  -2.339  1.00 20.00    -0.004 C 
HETATM    2  C2  UNL     1     -34.284  15.977  -2.917  1.00 20.00    -0.082 C 
HETATM    3  C3  UNL     1     -33.158  16.850  -2.457  1.00 20.00     0.036 C 
HETATM    4  C4  UNL     1     -33.892  18.015  -1.793  1.00 20.00     0.028 C 
HETATM    5  C5  UNL     1     -35.274  17.479  -1.408  1.00 20.00     0.105 C 
HETATM    6 CL11 UNL     1     -35.308  16.901   0.273  1.00 20.00    -0.121 Cl
ENDROOT
BRANCH   2   7
HETATM    7  C7  UNL     1     -34.057  14.861  -3.870  1.00 20.00     0.036 C 
BRANCH   7   8
HETATM    8  C8  UNL     1     -35.178  13.830  -3.791  1.00 20.00     0.030 C 
BRANCH   8   9
HETATM    9  C9  UNL     1     -36.153  13.928  -4.958  1.00 20.00     0.167 C 
BRANCH   9  10
HETATM   10  O10 UNL     1     -37.460  13.620  -4.489  1.00 20.00    -0.396 OA
HETATM   11  C6  UNL     1     -38.238  14.795  -4.303  1.00 20.00     0.201 C 
ENDBRANCH   9  10
ENDBRANCH   8   9
ENDBRANCH   7   8
ENDBRANCH   2   7
TORSDOF 4
ENDMDL
MODEL 4
REMARK VINA RESULT:      -4.4      1.598      2.040
REMARK  4 active torsions:
REMARK  status: ('A' for Active; 'I' for Inactive)
REMARK    1  A    between atoms: C2_2  and  C7_7 
REMARK    2  A    between atoms: C7_7  and  C8_8 
REMARK    3  A    between atoms: C8_8  and  C9_9 
REMARK    4  A    between atoms: C9_9  and  O10_10 
ROOT
HETATM    1  C1  UNL     1     -33.124  15.892  -3.449  1.00 20.00    -0.004 C 
HETATM    2  C2  UNL     1     -34.289  15.277  -3.210  1.00 20.00    -0.082 C 
HETATM    3  C3  UNL     1     -35.123  16.042  -2.230  1.00 20.00     0.036 C 
HETATM    4  C4  UNL     1     -34.114  17.025  -1.634  1.00 20.00     0.028 C 
HETATM    5  C5  UNL     1     -32.994  17.159  -2.669  1.00 20.00     0.105 C 
HETATM    6 CL11 UNL     1     -33.253  18.551  -3.742  1.00 20.00    -0.121 Cl
ENDROOT
BRANCH   2   7
HETATM    7  C7  UNL     1     -34.780  14.017  -3.825  1.00 20.00     0.036 C 
BRANCH   7   8
HETATM    8  C8  UNL     1     -36.142  14.217  -4.480  1.00 20.00     0.030 C 
BRANCH   8   9
HETATM    9  C9  UNL     1     -36.049  14.880  -5.848  1.00 20.00     0.167 C 
BRANCH   9  10
HETATM   10  O10 UNL     1     -34.867  14.429  -6.495  1.00 20.00    -0.396 OA
HETATM   11  C6  UNL     1     -34.215  15.485  -7.189  1.00 20.00     0.201 C 
ENDBRANCH   9  10
ENDBRANCH   8   9
ENDBRANCH   7   8
ENDBRANCH   2   7
TORSDOF 4
ENDMDL
MODEL 5
REMARK VINA RESULT:      -4.4     14.971     16.695
REMARK  4 active torsions:
REMARK  status: ('A' for Active; 'I' for Inactive)
REMARK    1  A    between atoms: C2_2  and  C7_7 
REMARK    2  A    between atoms: C7_7  and  C8_8 
REMARK    3  A    between atoms: C8_8  and  C9_9 
REMARK    4  A    between atoms: C9_9  and  O10_10 
ROOT
HETATM    1  C1  UNL     1     -24.721  17.974  10.523  1.00 20.00    -0.004 C 
HETATM    2  C2  UNL     1     -23.688  18.337   9.752  1.00 20.00    -0.082 C 
HETATM    3  C3  UNL     1     -22.378  18.037  10.412  1.00 20.00     0.036 C 
HETATM    4  C4  UNL     1     -22.789  17.775  11.862  1.00 20.00     0.028 C 
HETATM    5  C5  UNL     1     -24.267  17.377  11.815  1.00 20.00     0.105 C 
HETATM    6 CL11 UNL     1     -24.470  15.612  11.762  1.00 20.00    -0.121 Cl
ENDROOT
BRANCH   2   7
HETATM    7  C7  UNL     1     -23.750  18.933   8.393  1.00 20.00     0.036 C 
BRANCH   7   8
HETATM    8  C8  UNL     1     -25.171  18.902   7.841  1.00 20.00     0.030 C 
BRANCH   8   9
HETATM    9  C9  UNL     1     -25.237  19.263   6.362  1.00 20.00     0.167 C 
BRANCH   9  10
HETATM   10  O10 UNL     1     -26.123  18.361   5.711  1.00 20.00    -0.396 OA
HETATM   11  C6  UNL     1     -26.338  18.729   4.355  1.00 20.00     0.201 C 
ENDBRANCH   9  10
ENDBRANCH   8   9
ENDBRANCH   7   8
ENDBRANCH   2   7
TORSDOF 4
ENDMDL
MODEL 6
REMARK VINA RESULT:      -4.2      1.734      2.609
REMARK  4 active torsions:
REMARK  status: ('A' for Active; 'I' for Inactive)
REMARK    1  A    between atoms: C2_2  and  C7_7 
REMARK    2  A    between atoms: C7_7  and  C8_8 
REMARK    3  A    between atoms: C8_8  and  C9_9 
REMARK    4  A    between atoms: C9_9  and  O10_10 
ROOT
HETATM    1  C1  UNL     1     -33.695  17.745  -1.034  1.00 20.00    -0.004 C 
HETATM    2  C2  UNL     1     -33.915  17.004  -2.127  1.00 20.00    -0.082 C 
HETATM    3  C3  UNL     1     -33.022  17.413  -3.257  1.00 20.00     0.036 C 
HETATM    4  C4  UNL     1     -32.489  18.766  -2.785  1.00 20.00     0.028 C 
HETATM    5  C5  UNL     1     -32.626  18.764  -1.260  1.00 20.00     0.105 C 
HETATM    6 CL11 UNL     1     -31.125  18.242  -0.466  1.00 20.00    -0.121 Cl
ENDROOT
BRANCH   2   7
HETATM    7  C7  UNL     1     -34.875  15.880  -2.268  1.00 20.00     0.036 C 
BRANCH   7   8
HETATM    8  C8  UNL     1     -34.476  14.953  -3.412  1.00 20.00     0.030 C 
BRANCH   8   9
HETATM    9  C9  UNL     1     -35.677  14.403  -4.172  1.00 20.00     0.167 C 
BRANCH   9  10
HETATM   10  O10 UNL     1     -35.258  14.023  -5.476  1.00 20.00    -0.396 OA
HETATM   11  C6  UNL     1     -34.477  15.038  -6.090  1.00 20.00     0.201 C 
ENDBRANCH   9  10
ENDBRANCH   8   9
ENDBRANCH   7   8
ENDBRANCH   2   7
TORSDOF 4
ENDMDL
MODEL 7
REMARK VINA RESULT:      -4.1      3.375      5.434
REMARK  4 active torsions:
REMARK  status: ('A' for Active; 'I' for Inactive)
REMARK    1  A    between atoms: C2_2  and  C7_7 
REMARK    2  A    between atoms: C7_7  and  C8_8 
REMARK    3  A    between atoms: C8_8  and  C9_9 
REMARK    4  A    between atoms: C9_9  and  O10_10 
ROOT
HETATM    1  C1  UNL     1     -35.283  15.033  -3.171  1.00 20.00    -0.004 C 
HETATM    2  C2  UNL     1     -34.449  15.929  -2.630  1.00 20.00    -0.082 C 
HETATM    3  C3  UNL     1     -33.157  16.004  -3.384  1.00 20.00     0.036 C 
HETATM    4  C4  UNL     1     -33.204  14.740  -4.245  1.00 20.00     0.028 C 
HETATM    5  C5  UNL     1     -34.684  14.367  -4.366  1.00 20.00     0.105 C 
HETATM    6 CL11 UNL     1     -35.409  15.032  -5.846  1.00 20.00    -0.121 Cl
ENDROOT
BRANCH   2   7
HETATM    7  C7  UNL     1     -34.710  16.802  -1.457  1.00 20.00     0.036 C 
BRANCH   7   8
HETATM    8  C8  UNL     1     -33.555  17.770  -1.220  1.00 20.00     0.030 C 
BRANCH   8   9
HETATM    9  C9  UNL     1     -33.553  18.354   0.187  1.00 20.00     0.167 C 
BRANCH   9  10
HETATM   10  O10 UNL     1     -32.207  18.559   0.595  1.00 20.00    -0.396 OA
HETATM   11  C6  UNL     1     -31.299  18.365  -0.482  1.00 20.00     0.201 C 
ENDBRANCH   9  10
ENDBRANCH   8   9
ENDBRANCH   7   8
ENDBRANCH   2   7
TORSDOF 4
ENDMDL
MODEL 8
REMARK VINA RESULT:      -4.1      1.791      2.363
REMARK  4 active torsions:
REMARK  status: ('A' for Active; 'I' for Inactive)
REMARK    1  A    between atoms: C2_2  and  C7_7 
REMARK    2  A    between atoms: C7_7  and  C8_8 
REMARK    3  A    between atoms: C8_8  and  C9_9 
REMARK    4  A    between atoms: C9_9  and  O10_10 
ROOT
HETATM    1  C1  UNL     1     -35.152  16.745  -1.946  1.00 20.00    -0.004 C 
HETATM    2  C2  UNL     1     -33.878  16.693  -2.354  1.00 20.00    -0.082 C 
HETATM    3  C3  UNL     1     -33.038  17.724  -1.666  1.00 20.00     0.036 C 
HETATM    4  C4  UNL     1     -34.089  18.651  -1.052  1.00 20.00     0.028 C 
HETATM    5  C5  UNL     1     -35.366  17.816  -0.926  1.00 20.00     0.105 C 
HETATM    6 CL11 UNL     1     -35.515  17.084   0.687  1.00 20.00    -0.121 Cl
ENDROOT
BRANCH   2   7
HETATM    7  C7  UNL     1     -33.289  15.741  -3.330  1.00 20.00     0.036 C 
BRANCH   7   8
HETATM    8  C8  UNL     1     -34.340  14.773  -3.862  1.00 20.00     0.030 C 
BRANCH   8   9
HETATM    9  C9  UNL     1     -34.422  14.769  -5.383  1.00 20.00     0.167 C 
BRANCH   9  10
HETATM   10  O10 UNL     1     -35.531  13.972  -5.779  1.00 20.00    -0.396 OA
HETATM   11  C6  UNL     1     -36.351  13.631  -4.670  1.00 20.00     0.201 C 
ENDBRANCH   9  10
ENDBRANCH   8   9
ENDBRANCH   7   8
ENDBRANCH   2   7
TORSDOF 4
ENDMDL
MODEL 9
REMARK VINA RESULT:      -4.0      3.100      4.423
REMARK  4 active torsions:
REMARK  status: ('A' for Active; 'I' for Inactive)
REMARK    1  A    between atoms: C2_2  and  C7_7 
REMARK    2  A    between atoms: C7_7  and  C8_8 
REMARK    3  A    between atoms: C8_8  and  C9_9 
REMARK    4  A    between atoms: C9_9  and  O10_10 
ROOT
HETATM    1  C1  UNL     1     -33.350  18.570   0.387  1.00 20.00    -0.004 C 
HETATM    2  C2  UNL     1     -32.607  18.188  -0.659  1.00 20.00    -0.082 C 
HETATM    3  C3  UNL     1     -31.143  18.294  -0.361  1.00 20.00     0.036 C 
HETATM    4  C4  UNL     1     -31.124  19.153   0.904  1.00 20.00     0.028 C 
HETATM    5  C5  UNL     1     -32.505  18.991   1.545  1.00 20.00     0.105 C 
HETATM    6 CL11 UNL     1     -32.509  17.716   2.782  1.00 20.00    -0.121 Cl
ENDROOT
BRANCH   2   7
HETATM    7  C7  UNL     1     -33.094  17.679  -1.966  1.00 20.00     0.036 C 
BRANCH   7   8
HETATM    8  C8  UNL     1     -34.345  16.823  -1.794  1.00 20.00     0.030 C 
BRANCH   8   9
HETATM    9  C9  UNL     1     -34.423  15.683  -2.801  1.00 20.00     0.167 C 
BRANCH   9  10
HETATM   10  O10 UNL     1     -33.168  15.566  -3.458  1.00 20.00    -0.396 OA
HETATM   11  C6  UNL     1     -33.195  14.556  -4.458  1.00 20.00     0.201 C 
ENDBRANCH   9  10
ENDBRANCH   8   9
ENDBRANCH   7   8
ENDBRANCH   2   7
TORSDOF 4
ENDMDL
