MODEL 1
REMARK VINA RESULT:      -5.3      0.000      0.000
REMARK  1 active torsions:
REMARK  status: ('A' for Active; 'I' for Inactive)
REMARK    1  A    between atoms: C2_2  and  C8_8 
ROOT
HETATM    1  C1  UNL     1     -34.586  14.438  -3.713  1.00 20.00     0.053 C 
HETATM    2  C2  UNL     1     -34.138  15.692  -3.871  1.00 20.00    -0.072 C 
HETATM    3  C3  UNL     1     -35.571  13.862  -4.660  1.00 20.00     0.150 C 
HETATM    4  C4  UNL     1     -34.557  16.573  -5.021  1.00 20.00     0.043 C 
HETATM    5  C5  UNL     1     -36.124  14.742  -5.760  1.00 20.00     0.092 C 
HETATM    6  C9  UNL     1     -35.113  15.797  -6.237  1.00 20.00    -0.037 C 
HETATM    7  C10 UNL     1     -35.817  16.783  -7.186  1.00 20.00     0.015 C 
HETATM    8  C11 UNL     1     -33.964  15.122  -7.018  1.00 20.00     0.015 C 
HETATM    9  O12 UNL     1     -35.963  12.707  -4.502  1.00 20.00    -0.293 OA
ENDROOT
BRANCH   2  10
HETATM   10  C8  UNL     1     -33.186  16.308  -2.888  1.00 20.00     0.014 A 
HETATM   11  C6  UNL     1     -32.946  17.776  -2.975  1.00 20.00     0.010 A 
HETATM   12  C7  UNL     1     -33.748  17.208  -1.841  1.00 20.00     0.010 A 
ENDBRANCH   2  10
TORSDOF 1
ENDMDL
MODEL 2
REMARK VINA RESULT:      -5.3      1.442      1.780
REMARK  1 active torsions:
REMARK  status: ('A' for Active; 'I' for Inactive)
REMARK    1  A    between atoms: C2_2  and  C8_8 
ROOT
HETATM    1  C1  UNL     1     -34.597  14.359  -3.813  1.00 20.00     0.053 C 
HETATM    2  C2  UNL     1     -34.558  15.644  -3.436  1.00 20.00    -0.072 C 
HETATM    3  C3  UNL     1     -35.866  13.743  -4.270  1.00 20.00     0.150 C 
HETATM    4  C4  UNL     1     -35.763  16.551  -3.490  1.00 20.00     0.043 C 
HETATM    5  C5  UNL     1     -37.134  14.568  -4.225  1.00 20.00     0.092 C 
HETATM    6  C9  UNL     1     -36.872  16.066  -4.450  1.00 20.00    -0.037 C 
HETATM    7  C10 UNL     1     -38.163  16.856  -4.171  1.00 20.00     0.015 C 
HETATM    8  C11 UNL     1     -36.466  16.322  -5.918  1.00 20.00     0.015 C 
HETATM    9  O12 UNL     1     -35.879  12.564  -4.620  1.00 20.00    -0.293 OA
ENDROOT
BRANCH   2  10
HETATM   10  C8  UNL     1     -33.294  16.266  -2.916  1.00 20.00     0.014 A 
HETATM   11  C6  UNL     1     -33.007  17.678  -3.290  1.00 20.00     0.010 A 
HETATM   12  C7  UNL     1     -33.415  17.337  -1.888  1.00 20.00     0.010 A 
ENDBRANCH   2  10
TORSDOF 1
ENDMDL
MODEL 3
REMARK VINA RESULT:      -5.0      2.452      4.814
REMARK  1 active torsions:
REMARK  status: ('A' for Active; 'I' for Inactive)
REMARK    1  A    between atoms: C2_2  and  C8_8 
ROOT
HETATM    1  C1  UNL     1     -35.372  16.245  -1.849  1.00 20.00     0.053 C 
HETATM    2  C2  UNL     1     -34.292  16.007  -2.607  1.00 20.00    -0.072 C 
HETATM    3  C3  UNL     1     -35.325  17.252  -0.762  1.00 20.00     0.150 C 
HETATM    4  C4  UNL     1     -32.994  16.758  -2.444  1.00 20.00     0.043 C 
HETATM    5  C5  UNL     1     -34.013  17.946  -0.469  1.00 20.00     0.092 C 
HETATM    6  C9  UNL     1     -33.141  18.117  -1.724  1.00 20.00    -0.037 C 
HETATM    7  C10 UNL     1     -31.748  18.623  -1.310  1.00 20.00     0.015 C 
HETATM    8  C11 UNL     1     -33.767  19.166  -2.670  1.00 20.00     0.015 C 
HETATM    9  O12 UNL     1     -36.330  17.462  -0.083  1.00 20.00    -0.293 OA
ENDROOT
BRANCH   2  10
HETATM   10  C8  UNL     1     -34.307  14.950  -3.673  1.00 20.00     0.014 A 
HETATM   11  C6  UNL     1     -34.103  15.379  -5.084  1.00 20.00     0.010 A 
HETATM   12  C7  UNL     1     -33.023  14.632  -4.359  1.00 20.00     0.010 A 
ENDBRANCH   2  10
TORSDOF 1
ENDMDL
MODEL 4
REMARK VINA RESULT:      -4.8      1.603      3.818
REMARK  1 active torsions:
REMARK  status: ('A' for Active; 'I' for Inactive)
REMARK    1  A    between atoms: C2_2  and  C8_8 
ROOT
HETATM    1  C1  UNL     1     -36.520  14.758  -5.129  1.00 20.00     0.053 C 
HETATM    2  C2  UNL     1     -36.239  16.066  -5.206  1.00 20.00    -0.072 C 
HETATM    3  C3  UNL     1     -35.581  13.820  -4.468  1.00 20.00     0.150 C 
HETATM    4  C4  UNL     1     -34.999  16.675  -4.599  1.00 20.00     0.043 C 
HETATM    5  C5  UNL     1     -34.262  14.353  -3.954  1.00 20.00     0.092 C 
HETATM    6  C9  UNL     1     -34.356  15.815  -3.488  1.00 20.00    -0.037 C 
HETATM    7  C10 UNL     1     -32.943  16.347  -3.192  1.00 20.00     0.015 C 
HETATM    8  C11 UNL     1     -35.182  15.909  -2.186  1.00 20.00     0.015 C 
HETATM    9  O12 UNL     1     -35.862  12.624  -4.401  1.00 20.00    -0.293 OA
ENDROOT
BRANCH   2  10
HETATM   10  C8  UNL     1     -37.152  17.018  -5.923  1.00 20.00     0.014 A 
HETATM   11  C6  UNL     1     -38.606  16.701  -5.953  1.00 20.00     0.010 A 
HETATM   12  C7  UNL     1     -38.098  17.828  -5.105  1.00 20.00     0.010 A 
ENDBRANCH   2  10
TORSDOF 1
ENDMDL
MODEL 5
REMARK VINA RESULT:      -4.6      1.625      2.393
REMARK  1 active torsions:
REMARK  status: ('A' for Active; 'I' for Inactive)
REMARK    1  A    between atoms: C2_2  and  C8_8 
ROOT
HETATM    1  C1  UNL     1     -33.615  15.688  -3.369  1.00 20.00     0.053 C 
HETATM    2  C2  UNL     1     -34.600  16.478  -2.918  1.00 20.00    -0.072 C 
HETATM    3  C3  UNL     1     -33.924  14.428  -4.086  1.00 20.00     0.150 C 
HETATM    4  C4  UNL     1     -36.061  16.174  -3.142  1.00 20.00     0.043 C 
HETATM    5  C5  UNL     1     -35.371  14.007  -4.228  1.00 20.00     0.092 C 
HETATM    6  C9  UNL     1     -36.329  15.206  -4.316  1.00 20.00    -0.037 C 
HETATM    7  C10 UNL     1     -37.781  14.703  -4.235  1.00 20.00     0.015 C 
HETATM    8  C11 UNL     1     -36.152  15.933  -5.667  1.00 20.00     0.015 C 
HETATM    9  O12 UNL     1     -33.005  13.722  -4.499  1.00 20.00    -0.293 OA
ENDROOT
BRANCH   2  10
HETATM   10  C8  UNL     1     -34.304  17.726  -2.140  1.00 20.00     0.014 A 
HETATM   11  C6  UNL     1     -34.291  17.636  -0.654  1.00 20.00     0.010 A 
HETATM   12  C7  UNL     1     -33.007  17.802  -1.410  1.00 20.00     0.010 A 
ENDBRANCH   2  10
TORSDOF 1
ENDMDL
MODEL 6
REMARK VINA RESULT:      -4.5      3.063      4.731
REMARK  1 active torsions:
REMARK  status: ('A' for Active; 'I' for Inactive)
REMARK    1  A    between atoms: C2_2  and  C8_8 
ROOT
HETATM    1  C1  UNL     1     -33.770  18.110  -0.810  1.00 20.00     0.053 C 
HETATM    2  C2  UNL     1     -34.816  17.279  -0.698  1.00 20.00    -0.072 C 
HETATM    3  C3  UNL     1     -32.762  17.916  -1.881  1.00 20.00     0.150 C 
HETATM    4  C4  UNL     1     -35.065  16.141  -1.657  1.00 20.00     0.043 C 
HETATM    5  C5  UNL     1     -32.891  16.715  -2.793  1.00 20.00     0.092 C 
HETATM    6  C9  UNL     1     -34.353  16.299  -3.019  1.00 20.00    -0.037 C 
HETATM    7  C10 UNL     1     -34.389  14.954  -3.766  1.00 20.00     0.015 C 
HETATM    8  C11 UNL     1     -35.079  17.347  -3.890  1.00 20.00     0.015 C 
HETATM    9  O12 UNL     1     -31.814  18.694  -1.971  1.00 20.00    -0.293 OA
ENDROOT
BRANCH   2  10
HETATM   10  C8  UNL     1     -35.813  17.428   0.414  1.00 20.00     0.014 A 
HETATM   11  C6  UNL     1     -35.363  18.092   1.669  1.00 20.00     0.010 A 
HETATM   12  C7  UNL     1     -36.301  18.799   0.736  1.00 20.00     0.010 A 
ENDBRANCH   2  10
TORSDOF 1
ENDMDL
MODEL 7
REMARK VINA RESULT:      -4.5      2.272      2.593
REMARK  1 active torsions:
REMARK  status: ('A' for Active; 'I' for Inactive)
REMARK    1  A    between atoms: C2_2  and  C8_8 
ROOT
HETATM    1  C1  UNL     1     -36.065  14.759  -3.607  1.00 20.00     0.053 C 
HETATM    2  C2  UNL     1     -35.489  15.893  -3.184  1.00 20.00    -0.072 C 
HETATM    3  C3  UNL     1     -37.453  14.764  -4.127  1.00 20.00     0.150 C 
HETATM    4  C4  UNL     1     -36.176  17.235  -3.247  1.00 20.00     0.043 C 
HETATM    5  C5  UNL     1     -38.237  16.058  -4.095  1.00 20.00     0.092 C 
HETATM    6  C9  UNL     1     -37.341  17.296  -4.260  1.00 20.00    -0.037 C 
HETATM    7  C10 UNL     1     -38.173  18.564  -3.997  1.00 20.00     0.015 C 
HETATM    8  C11 UNL     1     -36.798  17.374  -5.704  1.00 20.00     0.015 C 
HETATM    9  O12 UNL     1     -37.961  13.714  -4.517  1.00 20.00    -0.293 OA
ENDROOT
BRANCH   2  10
HETATM   10  C8  UNL     1     -34.105  15.894  -2.601  1.00 20.00     0.014 A 
HETATM   11  C6  UNL     1     -32.952  15.838  -3.542  1.00 20.00     0.010 A 
HETATM   12  C7  UNL     1     -33.263  17.106  -2.805  1.00 20.00     0.010 A 
ENDBRANCH   2  10
TORSDOF 1
ENDMDL
MODEL 8
REMARK VINA RESULT:      -4.4      2.712      4.971
REMARK  1 active torsions:
REMARK  status: ('A' for Active; 'I' for Inactive)
REMARK    1  A    between atoms: C2_2  and  C8_8 
ROOT
HETATM    1  C1  UNL     1     -32.956  16.701  -2.736  1.00 20.00     0.053 C 
HETATM    2  C2  UNL     1     -34.112  16.081  -3.011  1.00 20.00    -0.072 C 
HETATM    3  C3  UNL     1     -32.948  18.036  -2.091  1.00 20.00     0.150 C 
HETATM    4  C4  UNL     1     -35.458  16.661  -2.651  1.00 20.00     0.043 C 
HETATM    5  C5  UNL     1     -34.269  18.723  -1.824  1.00 20.00     0.092 C 
HETATM    6  C9  UNL     1     -35.405  17.728  -1.535  1.00 20.00    -0.037 C 
HETATM    7  C10 UNL     1     -36.745  18.484  -1.494  1.00 20.00     0.015 C 
HETATM    8  C11 UNL     1     -35.193  17.060  -0.159  1.00 20.00     0.015 C 
HETATM    9  O12 UNL     1     -31.875  18.583  -1.840  1.00 20.00    -0.293 OA
ENDROOT
BRANCH   2  10
HETATM   10  C8  UNL     1     -34.138  14.756  -3.716  1.00 20.00     0.014 A 
HETATM   11  C6  UNL     1     -35.464  14.187  -4.084  1.00 20.00     0.010 A 
HETATM   12  C7  UNL     1     -34.557  14.734  -5.145  1.00 20.00     0.010 A 
ENDBRANCH   2  10
TORSDOF 1
ENDMDL
MODEL 9
REMARK VINA RESULT:      -4.4      1.420      1.934
REMARK  1 active torsions:
REMARK  status: ('A' for Active; 'I' for Inactive)
REMARK    1  A    between atoms: C2_2  and  C8_8 
ROOT
HETATM    1  C1  UNL     1     -36.484  15.433  -3.424  1.00 20.00     0.053 C 
HETATM    2  C2  UNL     1     -35.453  16.286  -3.510  1.00 20.00    -0.072 C 
HETATM    3  C3  UNL     1     -36.734  14.440  -4.496  1.00 20.00     0.150 C 
HETATM    4  C4  UNL     1     -34.468  16.269  -4.652  1.00 20.00     0.043 C 
HETATM    5  C5  UNL     1     -35.855  14.461  -5.728  1.00 20.00     0.092 C 
HETATM    6  C9  UNL     1     -34.424  14.931  -5.424  1.00 20.00    -0.037 C 
HETATM    7  C10 UNL     1     -33.665  15.136  -6.747  1.00 20.00     0.015 C 
HETATM    8  C11 UNL     1     -33.672  13.859  -4.605  1.00 20.00     0.015 C 
HETATM    9  O12 UNL     1     -37.681  13.661  -4.395  1.00 20.00    -0.293 OA
ENDROOT
BRANCH   2  10
HETATM   10  C8  UNL     1     -35.221  17.334  -2.461  1.00 20.00     0.014 A 
HETATM   11  C6  UNL     1     -35.212  16.905  -1.035  1.00 20.00     0.010 A 
HETATM   12  C7  UNL     1     -33.933  17.299  -1.711  1.00 20.00     0.010 A 
ENDBRANCH   2  10
TORSDOF 1
ENDMDL
