MODEL 1
REMARK VINA RESULT:      -5.0      0.000      0.000
REMARK  1 active torsions:
REMARK  status: ('A' for Active; 'I' for Inactive)
REMARK    1  A    between atoms: C2_2  and  C10_10 
ROOT
HETATM    1  C1  UNL     1     -35.343  16.976  -0.983  1.00 20.00    -0.004 C 
HETATM    2  C2  UNL     1     -34.401  16.611  -1.860  1.00 20.00    -0.078 C 
HETATM    3  C3  UNL     1     -33.239  17.555  -1.844  1.00 20.00     0.036 C 
HETATM    4  C4  UNL     1     -33.801  18.757  -1.081  1.00 20.00     0.028 C 
HETATM    5  C9  UNL     1     -34.964  18.218  -0.245  1.00 20.00     0.105 C 
HETATM    6 CL12 UNL     1     -34.450  17.801   1.404  1.00 20.00    -0.121 Cl
ENDROOT
BRANCH   2   7
HETATM    7  C10 UNL     1     -34.414  15.392  -2.762  1.00 20.00     0.018 C 
HETATM    8  C5  UNL     1     -35.766  15.330  -3.461  1.00 20.00     0.035 C 
HETATM    9  C7  UNL     1     -35.749  14.271  -4.557  1.00 20.00     0.168 C 
HETATM   10  O11 UNL     1     -34.687  14.517  -5.481  1.00 20.00    -0.391 OA
HETATM   11  C8  UNL     1     -33.405  14.466  -4.855  1.00 20.00     0.168 C 
HETATM   12  C6  UNL     1     -33.287  15.536  -3.777  1.00 20.00     0.035 C 
ENDBRANCH   2   7
TORSDOF 1
ENDMDL
MODEL 2
REMARK VINA RESULT:      -4.9      3.160      4.921
REMARK  1 active torsions:
REMARK  status: ('A' for Active; 'I' for Inactive)
REMARK    1  A    between atoms: C2_2  and  C10_10 
ROOT
HETATM    1  C1  UNL     1     -35.233  15.151  -3.012  1.00 20.00    -0.004 C 
HETATM    2  C2  UNL     1     -34.311  16.103  -2.826  1.00 20.00    -0.078 C 
HETATM    3  C3  UNL     1     -33.127  15.905  -3.721  1.00 20.00     0.036 C 
HETATM    4  C4  UNL     1     -33.321  14.468  -4.212  1.00 20.00     0.028 C 
HETATM    5  C9  UNL     1     -34.814  14.168  -4.055  1.00 20.00     0.105 C 
HETATM    6 CL12 UNL     1     -35.707  14.477  -5.561  1.00 20.00    -0.121 Cl
ENDROOT
BRANCH   2   7
HETATM    7  C10 UNL     1     -34.395  17.284  -1.878  1.00 20.00     0.018 C 
HETATM    8  C5  UNL     1     -35.211  16.864  -0.662  1.00 20.00     0.035 C 
HETATM    9  C7  UNL     1     -35.123  17.926   0.428  1.00 20.00     0.168 C 
HETATM   10  O11 UNL     1     -33.761  18.186   0.771  1.00 20.00    -0.391 OA
HETATM   11  C8  UNL     1     -33.012  18.688  -0.337  1.00 20.00     0.168 C 
HETATM   12  C6  UNL     1     -32.979  17.671  -1.471  1.00 20.00     0.035 C 
ENDBRANCH   2   7
TORSDOF 1
ENDMDL
MODEL 3
REMARK VINA RESULT:      -4.9      1.893      2.449
REMARK  1 active torsions:
REMARK  status: ('A' for Active; 'I' for Inactive)
REMARK    1  A    between atoms: C2_2  and  C10_10 
ROOT
HETATM    1  C1  UNL     1     -33.275  16.495  -2.971  1.00 20.00    -0.004 C 
HETATM    2  C2  UNL     1     -34.496  16.283  -2.467  1.00 20.00    -0.078 C 
HETATM    3  C3  UNL     1     -34.793  17.214  -1.333  1.00 20.00     0.036 C 
HETATM    4  C4  UNL     1     -33.409  17.773  -0.994  1.00 20.00     0.028 C 
HETATM    5  C9  UNL     1     -32.563  17.597  -2.257  1.00 20.00     0.105 C 
HETATM    6 CL12 UNL     1     -32.570  19.063  -3.261  1.00 20.00    -0.121 Cl
ENDROOT
BRANCH   2   7
HETATM    7  C10 UNL     1     -35.521  15.275  -2.949  1.00 20.00     0.018 C 
HETATM    8  C5  UNL     1     -36.610  16.025  -3.705  1.00 20.00     0.035 C 
HETATM    9  C7  UNL     1     -37.534  15.044  -4.418  1.00 20.00     0.168 C 
HETATM   10  O11 UNL     1     -36.788  14.185  -5.281  1.00 20.00    -0.391 OA
HETATM   11  C8  UNL     1     -35.839  13.393  -4.567  1.00 20.00     0.168 C 
HETATM   12  C6  UNL     1     -34.818  14.278  -3.863  1.00 20.00     0.035 C 
ENDBRANCH   2   7
TORSDOF 1
ENDMDL
MODEL 4
REMARK VINA RESULT:      -4.8      0.863      1.644
REMARK  1 active torsions:
REMARK  status: ('A' for Active; 'I' for Inactive)
REMARK    1  A    between atoms: C2_2  and  C10_10 
ROOT
HETATM    1  C1  UNL     1     -34.925  17.820  -1.220  1.00 20.00    -0.004 C 
HETATM    2  C2  UNL     1     -34.017  17.309  -2.059  1.00 20.00    -0.078 C 
HETATM    3  C3  UNL     1     -32.625  17.707  -1.673  1.00 20.00     0.036 C 
HETATM    4  C4  UNL     1     -32.871  18.847  -0.682  1.00 20.00     0.028 C 
HETATM    5  C9  UNL     1     -34.289  18.640  -0.145  1.00 20.00     0.105 C 
HETATM    6 CL12 UNL     1     -34.287  17.726   1.380  1.00 20.00    -0.121 Cl
ENDROOT
BRANCH   2   7
HETATM    7  C10 UNL     1     -34.277  16.404  -3.248  1.00 20.00     0.018 C 
HETATM    8  C5  UNL     1     -32.986  15.665  -3.578  1.00 20.00     0.035 C 
HETATM    9  C7  UNL     1     -33.250  14.568  -4.602  1.00 20.00     0.168 C 
HETATM   10  O11 UNL     1     -34.264  13.676  -4.137  1.00 20.00    -0.391 OA
HETATM   11  C8  UNL     1     -35.512  14.338  -3.931  1.00 20.00     0.168 C 
HETATM   12  C6  UNL     1     -35.379  15.423  -2.868  1.00 20.00     0.035 C 
ENDBRANCH   2   7
TORSDOF 1
ENDMDL
MODEL 5
REMARK VINA RESULT:      -4.7      3.288      5.093
REMARK  1 active torsions:
REMARK  status: ('A' for Active; 'I' for Inactive)
REMARK    1  A    between atoms: C2_2  and  C10_10 
ROOT
HETATM    1  C1  UNL     1     -34.936  16.266  -1.868  1.00 20.00    -0.004 C 
HETATM    2  C2  UNL     1     -33.854  17.040  -2.010  1.00 20.00    -0.078 C 
HETATM    3  C3  UNL     1     -33.088  16.692  -3.248  1.00 20.00     0.036 C 
HETATM    4  C4  UNL     1     -33.680  15.335  -3.633  1.00 20.00     0.028 C 
HETATM    5  C9  UNL     1     -35.065  15.280  -2.982  1.00 20.00     0.105 C 
HETATM    6 CL12 UNL     1     -36.338  15.808  -4.104  1.00 20.00    -0.121 Cl
ENDROOT
BRANCH   2   7
HETATM    7  C10 UNL     1     -33.412  18.170  -1.100  1.00 20.00     0.018 C 
HETATM    8  C5  UNL     1     -34.056  17.964   0.265  1.00 20.00     0.035 C 
HETATM    9  C7  UNL     1     -33.458  18.926   1.284  1.00 20.00     0.168 C 
HETATM   10  O11 UNL     1     -32.039  18.782   1.344  1.00 20.00    -0.391 OA
HETATM   11  C8  UNL     1     -31.413  19.082   0.096  1.00 20.00     0.168 C 
HETATM   12  C6  UNL     1     -31.893  18.129  -0.992  1.00 20.00     0.035 C 
ENDBRANCH   2   7
TORSDOF 1
ENDMDL
MODEL 6
REMARK VINA RESULT:      -4.7      3.166      5.043
REMARK  1 active torsions:
REMARK  status: ('A' for Active; 'I' for Inactive)
REMARK    1  A    between atoms: C2_2  and  C10_10 
ROOT
HETATM    1  C1  UNL     1     -36.255  15.916  -3.931  1.00 20.00    -0.004 C 
HETATM    2  C2  UNL     1     -35.183  15.389  -3.327  1.00 20.00    -0.078 C 
HETATM    3  C3  UNL     1     -34.859  14.031  -3.868  1.00 20.00     0.036 C 
HETATM    4  C4  UNL     1     -36.132  13.669  -4.636  1.00 20.00     0.028 C 
HETATM    5  C9  UNL     1     -36.817  14.998  -4.966  1.00 20.00     0.105 C 
HETATM    6 CL12 UNL     1     -36.374  15.579  -6.586  1.00 20.00    -0.121 Cl
ENDROOT
BRANCH   2   7
HETATM    7  C10 UNL     1     -34.330  16.035  -2.253  1.00 20.00     0.018 C 
HETATM    8  C5  UNL     1     -33.309  16.939  -2.932  1.00 20.00     0.035 C 
HETATM    9  C7  UNL     1     -32.589  17.797  -1.899  1.00 20.00     0.168 C 
HETATM   10  O11 UNL     1     -33.525  18.547  -1.124  1.00 20.00    -0.391 OA
HETATM   11  C8  UNL     1     -34.417  17.706  -0.393  1.00 20.00     0.168 C 
HETATM   12  C6  UNL     1     -35.243  16.843  -1.339  1.00 20.00     0.035 C 
ENDBRANCH   2   7
TORSDOF 1
ENDMDL
MODEL 7
REMARK VINA RESULT:      -4.7      1.702      2.627
REMARK  1 active torsions:
REMARK  status: ('A' for Active; 'I' for Inactive)
REMARK    1  A    between atoms: C2_2  and  C10_10 
ROOT
HETATM    1  C1  UNL     1     -33.699  18.467   0.233  1.00 20.00    -0.004 C 
HETATM    2  C2  UNL     1     -33.139  18.046  -0.907  1.00 20.00    -0.078 C 
HETATM    3  C3  UNL     1     -31.652  18.225  -0.889  1.00 20.00     0.036 C 
HETATM    4  C4  UNL     1     -31.448  19.167   0.299  1.00 20.00     0.028 C 
HETATM    5  C9  UNL     1     -32.681  18.995   1.190  1.00 20.00     0.105 C 
HETATM    6 CL12 UNL     1     -32.399  17.805   2.479  1.00 20.00    -0.121 Cl
ENDROOT
BRANCH   2   7
HETATM    7  C10 UNL     1     -33.844  17.420  -2.095  1.00 20.00     0.018 C 
HETATM    8  C5  UNL     1     -32.824  16.607  -2.882  1.00 20.00     0.035 C 
HETATM    9  C7  UNL     1     -33.522  15.763  -3.942  1.00 20.00     0.168 C 
HETATM   10  O11 UNL     1     -34.518  14.929  -3.348  1.00 20.00    -0.391 OA
HETATM   11  C8  UNL     1     -35.541  15.686  -2.703  1.00 20.00     0.168 C 
HETATM   12  C6  UNL     1     -34.960  16.525  -1.571  1.00 20.00     0.035 C 
ENDBRANCH   2   7
TORSDOF 1
ENDMDL
MODEL 8
REMARK VINA RESULT:      -4.6      1.321      1.747
REMARK  1 active torsions:
REMARK  status: ('A' for Active; 'I' for Inactive)
REMARK    1  A    between atoms: C2_2  and  C10_10 
ROOT
HETATM    1  C1  UNL     1     -34.888  17.559  -1.775  1.00 20.00    -0.004 C 
HETATM    2  C2  UNL     1     -34.598  16.486  -2.521  1.00 20.00    -0.078 C 
HETATM    3  C3  UNL     1     -33.151  16.455  -2.904  1.00 20.00     0.036 C 
HETATM    4  C4  UNL     1     -32.694  17.879  -2.579  1.00 20.00     0.028 C 
HETATM    5  C9  UNL     1     -33.685  18.414  -1.543  1.00 20.00     0.105 C 
HETATM    6 CL12 UNL     1     -33.094  18.176   0.116  1.00 20.00    -0.121 Cl
ENDROOT
BRANCH   2   7
HETATM    7  C10 UNL     1     -35.548  15.379  -2.936  1.00 20.00     0.018 C 
HETATM    8  C5  UNL     1     -36.713  16.006  -3.691  1.00 20.00     0.035 C 
HETATM    9  C7  UNL     1     -37.568  14.924  -4.340  1.00 20.00     0.168 C 
HETATM   10  O11 UNL     1     -36.774  14.095  -5.190  1.00 20.00    -0.391 OA
HETATM   11  C8  UNL     1     -35.747  13.413  -4.471  1.00 20.00     0.168 C 
HETATM   12  C6  UNL     1     -34.786  14.407  -3.829  1.00 20.00     0.035 C 
ENDBRANCH   2   7
TORSDOF 1
ENDMDL
MODEL 9
REMARK VINA RESULT:      -4.6      1.536      2.332
REMARK  1 active torsions:
REMARK  status: ('A' for Active; 'I' for Inactive)
REMARK    1  A    between atoms: C2_2  and  C10_10 
ROOT
HETATM    1  C1  UNL     1     -35.235  17.724  -2.319  1.00 20.00    -0.004 C 
HETATM    2  C2  UNL     1     -34.826  16.684  -3.055  1.00 20.00    -0.078 C 
HETATM    3  C3  UNL     1     -33.406  16.320  -2.753  1.00 20.00     0.036 C 
HETATM    4  C4  UNL     1     -32.907  17.545  -1.984  1.00 20.00     0.028 C 
HETATM    5  C9  UNL     1     -34.157  18.220  -1.412  1.00 20.00     0.105 C 
HETATM    6 CL12 UNL     1     -34.485  17.690   0.253  1.00 20.00    -0.121 Cl
ENDROOT
BRANCH   2   7
HETATM    7  C10 UNL     1     -35.646  15.897  -4.060  1.00 20.00     0.018 C 
HETATM    8  C5  UNL     1     -35.298  14.422  -3.910  1.00 20.00     0.035 C 
HETATM    9  C7  UNL     1     -36.263  13.564  -4.720  1.00 20.00     0.168 C 
HETATM   10  O11 UNL     1     -37.614  13.828  -4.340  1.00 20.00    -0.391 OA
HETATM   11  C8  UNL     1     -37.986  15.185  -4.582  1.00 20.00     0.168 C 
HETATM   12  C6  UNL     1     -37.121  16.137  -3.765  1.00 20.00     0.035 C 
ENDBRANCH   2   7
TORSDOF 1
ENDMDL
