MODEL 1
REMARK VINA RESULT:      -4.3      0.000      0.000
REMARK  2 active torsions:
REMARK  status: ('A' for Active; 'I' for Inactive)
REMARK    1  A    between atoms: C3_3  and  C8_8 
REMARK    2  A    between atoms: C8_8  and  C9_9 
ROOT
HETATM    1  C1  UNL     1     -34.817  17.113  -0.981  1.00 20.00     0.044 A 
HETATM    2  C2  UNL     1     -33.639  17.707  -1.381  1.00 20.00     0.005 A 
HETATM    3  C3  UNL     1     -34.373  15.836  -2.707  1.00 20.00     0.081 A 
HETATM    4  C4  UNL     1     -35.652  17.524   0.167  1.00 20.00     0.071 C 
HETATM    5  C5  UNL     1     -32.912  18.858  -0.809  1.00 20.00     0.058 C 
HETATM    6  N10 UNL     1     -35.240  16.040  -1.740  1.00 20.00    -0.249 NA
HETATM    7  S11 UNL     1     -33.025  16.896  -2.762  1.00 20.00    -0.077 SA
ENDROOT
BRANCH   3   8
HETATM    8  C8  UNL     1     -34.495  14.737  -3.757  1.00 20.00     0.059 C 
HETATM    9  C6  UNL     1     -33.140  14.568  -4.463  1.00 20.00     0.018 C 
BRANCH   8  10
HETATM   10  C9  UNL     1     -35.657  14.997  -4.752  1.00 20.00     0.088 C 
HETATM   11  C7  UNL     1     -36.864  14.091  -4.513  1.00 20.00     0.027 C 
HETATM   12 CL12 UNL     1     -35.112  14.740  -6.447  1.00 20.00    -0.125 Cl
ENDBRANCH   8  10
ENDBRANCH   3   8
TORSDOF 2
ENDMDL
MODEL 2
REMARK VINA RESULT:      -4.3      1.222      1.812
REMARK  2 active torsions:
REMARK  status: ('A' for Active; 'I' for Inactive)
REMARK    1  A    between atoms: C3_3  and  C8_8 
REMARK    2  A    between atoms: C8_8  and  C9_9 
ROOT
HETATM    1  C1  UNL     1     -33.089  17.617  -1.721  1.00 20.00     0.044 A 
HETATM    2  C2  UNL     1     -34.304  17.684  -1.072  1.00 20.00     0.005 A 
HETATM    3  C3  UNL     1     -34.102  15.967  -2.749  1.00 20.00     0.081 A 
HETATM    4  C4  UNL     1     -31.922  18.491  -1.475  1.00 20.00     0.071 C 
HETATM    5  C5  UNL     1     -34.764  18.596  -0.007  1.00 20.00     0.058 C 
HETATM    6  N10 UNL     1     -32.971  16.633  -2.682  1.00 20.00    -0.249 NA
HETATM    7  S11 UNL     1     -35.350  16.471  -1.684  1.00 20.00    -0.077 SA
ENDROOT
BRANCH   3   8
HETATM    8  C8  UNL     1     -34.361  14.799  -3.694  1.00 20.00     0.059 C 
HETATM    9  C6  UNL     1     -33.061  14.465  -4.444  1.00 20.00     0.018 C 
BRANCH   8  10
HETATM   10  C9  UNL     1     -35.549  15.070  -4.656  1.00 20.00     0.088 C 
HETATM   11  C7  UNL     1     -36.720  14.109  -4.446  1.00 20.00     0.027 C 
HETATM   12 CL12 UNL     1     -35.028  14.922  -6.370  1.00 20.00    -0.125 Cl
ENDBRANCH   8  10
ENDBRANCH   3   8
TORSDOF 2
ENDMDL
MODEL 3
REMARK VINA RESULT:      -4.1      3.007      4.179
REMARK  2 active torsions:
REMARK  status: ('A' for Active; 'I' for Inactive)
REMARK    1  A    between atoms: C3_3  and  C8_8 
REMARK    2  A    between atoms: C8_8  and  C9_9 
ROOT
HETATM    1  C1  UNL     1     -32.378  18.376   2.013  1.00 20.00     0.044 A 
HETATM    2  C2  UNL     1     -31.229  18.727   1.336  1.00 20.00     0.005 A 
HETATM    3  C3  UNL     1     -33.112  18.121  -0.038  1.00 20.00     0.081 A 
HETATM    4  C4  UNL     1     -32.547  18.345   3.480  1.00 20.00     0.071 C 
HETATM    5  C5  UNL     1     -29.911  19.147   1.853  1.00 20.00     0.058 C 
HETATM    6  N10 UNL     1     -33.459  18.029   1.227  1.00 20.00    -0.249 NA
HETATM    7  S11 UNL     1     -31.501  18.619  -0.354  1.00 20.00    -0.077 SA
ENDROOT
BRANCH   3   8
HETATM    8  C8  UNL     1     -34.038  17.820  -1.210  1.00 20.00     0.059 C 
HETATM    9  C6  UNL     1     -35.261  17.043  -0.694  1.00 20.00     0.018 C 
BRANCH   8  10
HETATM   10  C9  UNL     1     -33.310  17.084  -2.365  1.00 20.00     0.088 C 
HETATM   11  C7  UNL     1     -33.193  17.928  -3.634  1.00 20.00     0.027 C 
HETATM   12 CL12 UNL     1     -34.175  15.568  -2.801  1.00 20.00    -0.125 Cl
ENDBRANCH   8  10
ENDBRANCH   3   8
TORSDOF 2
ENDMDL
MODEL 4
REMARK VINA RESULT:      -4.0      3.002      5.283
REMARK  2 active torsions:
REMARK  status: ('A' for Active; 'I' for Inactive)
REMARK    1  A    between atoms: C3_3  and  C8_8 
REMARK    2  A    between atoms: C8_8  and  C9_9 
ROOT
HETATM    1  C1  UNL     1     -33.726  15.482  -3.468  1.00 20.00     0.044 A 
HETATM    2  C2  UNL     1     -35.080  15.462  -3.211  1.00 20.00     0.005 A 
HETATM    3  C3  UNL     1     -33.804  17.103  -1.993  1.00 20.00     0.081 A 
HETATM    4  C4  UNL     1     -33.007  14.601  -4.413  1.00 20.00     0.071 C 
HETATM    5  C5  UNL     1     -36.142  14.604  -3.771  1.00 20.00     0.058 C 
HETATM    6  N10 UNL     1     -32.992  16.422  -2.771  1.00 20.00    -0.249 NA
HETATM    7  S11 UNL     1     -35.462  16.664  -2.048  1.00 20.00    -0.077 SA
ENDROOT
BRANCH   3   8
HETATM    8  C8  UNL     1     -33.367  18.232  -1.068  1.00 20.00     0.059 C 
HETATM    9  C6  UNL     1     -31.831  18.256  -1.000  1.00 20.00     0.018 C 
BRANCH   8  10
HETATM   10  C9  UNL     1     -34.022  18.135   0.335  1.00 20.00     0.088 C 
HETATM   11  C7  UNL     1     -35.017  19.263   0.611  1.00 20.00     0.027 C 
HETATM   12 CL12 UNL     1     -32.773  18.187   1.627  1.00 20.00    -0.125 Cl
ENDBRANCH   8  10
ENDBRANCH   3   8
TORSDOF 2
ENDMDL
MODEL 5
REMARK VINA RESULT:      -3.9      2.460      3.388
REMARK  2 active torsions:
REMARK  status: ('A' for Active; 'I' for Inactive)
REMARK    1  A    between atoms: C3_3  and  C8_8 
REMARK    2  A    between atoms: C8_8  and  C9_9 
ROOT
HETATM    1  C1  UNL     1     -31.933  18.479   0.091  1.00 20.00     0.044 A 
HETATM    2  C2  UNL     1     -33.195  18.463   0.647  1.00 20.00     0.005 A 
HETATM    3  C3  UNL     1     -33.046  17.718  -1.638  1.00 20.00     0.081 A 
HETATM    4  C4  UNL     1     -30.690  18.903   0.769  1.00 20.00     0.071 C 
HETATM    5  C5  UNL     1     -33.643  18.844   2.001  1.00 20.00     0.058 C 
HETATM    6  N10 UNL     1     -31.846  18.052  -1.219  1.00 20.00    -0.249 NA
HETATM    7  S11 UNL     1     -34.326  17.893  -0.510  1.00 20.00    -0.077 SA
ENDROOT
BRANCH   3   8
HETATM    8  C8  UNL     1     -33.356  17.195  -3.036  1.00 20.00     0.059 C 
HETATM    9  C6  UNL     1     -34.436  18.084  -3.674  1.00 20.00     0.018 C 
BRANCH   8  10
HETATM   10  C9  UNL     1     -33.747  15.693  -3.033  1.00 20.00     0.088 C 
HETATM   11  C7  UNL     1     -33.195  14.928  -4.235  1.00 20.00     0.027 C 
HETATM   12 CL12 UNL     1     -35.535  15.501  -3.043  1.00 20.00    -0.125 Cl
ENDBRANCH   8  10
ENDBRANCH   3   8
TORSDOF 2
ENDMDL
MODEL 6
REMARK VINA RESULT:      -3.8      1.819      2.237
REMARK  2 active torsions:
REMARK  status: ('A' for Active; 'I' for Inactive)
REMARK    1  A    between atoms: C3_3  and  C8_8 
REMARK    2  A    between atoms: C8_8  and  C9_9 
ROOT
HETATM    1  C1  UNL     1     -36.005  17.521  -0.613  1.00 20.00     0.044 A 
HETATM    2  C2  UNL     1     -36.896  18.005  -1.548  1.00 20.00     0.005 A 
HETATM    3  C3  UNL     1     -35.347  16.338  -2.338  1.00 20.00     0.081 A 
HETATM    4  C4  UNL     1     -35.925  17.928   0.806  1.00 20.00     0.071 C 
HETATM    5  C5  UNL     1     -37.965  19.013  -1.409  1.00 20.00     0.058 C 
HETATM    6  N10 UNL     1     -35.116  16.565  -1.064  1.00 20.00    -0.249 NA
HETATM    7  S11 UNL     1     -36.617  17.240  -3.057  1.00 20.00    -0.077 SA
ENDROOT
BRANCH   3   8
HETATM    8  C8  UNL     1     -34.569  15.343  -3.192  1.00 20.00     0.059 C 
HETATM    9  C6  UNL     1     -33.145  15.878  -3.411  1.00 20.00     0.018 C 
BRANCH   8  10
HETATM   10  C9  UNL     1     -35.293  15.014  -4.524  1.00 20.00     0.088 C 
HETATM   11  C7  UNL     1     -36.055  13.689  -4.480  1.00 20.00     0.027 C 
HETATM   12 CL12 UNL     1     -34.118  14.918  -5.881  1.00 20.00    -0.125 Cl
ENDBRANCH   8  10
ENDBRANCH   3   8
TORSDOF 2
ENDMDL
MODEL 7
REMARK VINA RESULT:      -3.8      2.695      4.860
REMARK  2 active torsions:
REMARK  status: ('A' for Active; 'I' for Inactive)
REMARK    1  A    between atoms: C3_3  and  C8_8 
REMARK    2  A    between atoms: C8_8  and  C9_9 
ROOT
HETATM    1  C1  UNL     1     -35.262  15.283  -3.382  1.00 20.00     0.044 A 
HETATM    2  C2  UNL     1     -33.954  15.362  -3.811  1.00 20.00     0.005 A 
HETATM    3  C3  UNL     1     -34.554  16.830  -1.997  1.00 20.00     0.081 A 
HETATM    4  C4  UNL     1     -36.304  14.389  -3.928  1.00 20.00     0.071 C 
HETATM    5  C5  UNL     1     -33.258  14.620  -4.879  1.00 20.00     0.058 C 
HETATM    6  N10 UNL     1     -35.608  16.124  -2.342  1.00 20.00    -0.249 NA
HETATM    7  S11 UNL     1     -33.114  16.535  -2.882  1.00 20.00    -0.077 SA
ENDROOT
BRANCH   3   8
HETATM    8  C8  UNL     1     -34.540  17.869  -0.882  1.00 20.00     0.059 C 
HETATM    9  C6  UNL     1     -33.086  18.292  -0.613  1.00 20.00     0.018 C 
BRANCH   8  10
HETATM   10  C9  UNL     1     -35.262  17.373   0.398  1.00 20.00     0.088 C 
HETATM   11  C7  UNL     1     -36.684  17.916   0.532  1.00 20.00     0.027 C 
HETATM   12 CL12 UNL     1     -34.354  17.863   1.871  1.00 20.00    -0.125 Cl
ENDBRANCH   8  10
ENDBRANCH   3   8
TORSDOF 2
ENDMDL
MODEL 8
REMARK VINA RESULT:      -3.7      2.485      4.928
REMARK  2 active torsions:
REMARK  status: ('A' for Active; 'I' for Inactive)
REMARK    1  A    between atoms: C3_3  and  C8_8 
REMARK    2  A    between atoms: C8_8  and  C9_9 
ROOT
HETATM    1  C1  UNL     1     -36.520  16.132  -5.650  1.00 20.00     0.044 A 
HETATM    2  C2  UNL     1     -35.628  15.456  -6.456  1.00 20.00     0.005 A 
HETATM    3  C3  UNL     1     -34.878  15.911  -4.213  1.00 20.00     0.081 A 
HETATM    4  C4  UNL     1     -37.871  16.589  -6.039  1.00 20.00     0.071 C 
HETATM    5  C5  UNL     1     -35.759  15.018  -7.860  1.00 20.00     0.058 C 
HETATM    6  N10 UNL     1     -36.091  16.394  -4.364  1.00 20.00    -0.249 NA
HETATM    7  S11 UNL     1     -34.191  15.130  -5.579  1.00 20.00    -0.077 SA
ENDROOT
BRANCH   3   8
HETATM    8  C8  UNL     1     -34.067  16.002  -2.926  1.00 20.00     0.059 C 
HETATM    9  C6  UNL     1     -35.026  16.233  -1.747  1.00 20.00     0.018 C 
BRANCH   8  10
HETATM   10  C9  UNL     1     -32.951  17.077  -3.005  1.00 20.00     0.088 C 
HETATM   11  C7  UNL     1     -32.661  17.738  -1.658  1.00 20.00     0.027 C 
HETATM   12 CL12 UNL     1     -33.401  18.378  -4.162  1.00 20.00    -0.125 Cl
ENDBRANCH   8  10
ENDBRANCH   3   8
TORSDOF 2
ENDMDL
MODEL 9
REMARK VINA RESULT:      -3.7      2.366      4.919
REMARK  2 active torsions:
REMARK  status: ('A' for Active; 'I' for Inactive)
REMARK    1  A    between atoms: C3_3  and  C8_8 
REMARK    2  A    between atoms: C8_8  and  C9_9 
ROOT
HETATM    1  C1  UNL     1     -35.498  15.191  -3.476  1.00 20.00     0.044 A 
HETATM    2  C2  UNL     1     -36.532  16.092  -3.620  1.00 20.00     0.005 A 
HETATM    3  C3  UNL     1     -34.757  16.761  -2.136  1.00 20.00     0.081 A 
HETATM    4  C4  UNL     1     -35.389  13.878  -4.145  1.00 20.00     0.071 C 
HETATM    5  C5  UNL     1     -37.759  16.009  -4.437  1.00 20.00     0.058 C 
HETATM    6  N10 UNL     1     -34.479  15.573  -2.626  1.00 20.00    -0.249 NA
HETATM    7  S11 UNL     1     -36.228  17.477  -2.654  1.00 20.00    -0.077 SA
ENDROOT
BRANCH   3   8
HETATM    8  C8  UNL     1     -33.867  17.520  -1.158  1.00 20.00     0.059 C 
HETATM    9  C6  UNL     1     -34.596  18.797  -0.708  1.00 20.00     0.018 C 
BRANCH   8  10
HETATM   10  C9  UNL     1     -32.460  17.812  -1.744  1.00 20.00     0.088 C 
HETATM   11  C7  UNL     1     -31.488  18.382  -0.711  1.00 20.00     0.027 C 
HETATM   12 CL12 UNL     1     -32.567  18.993  -3.097  1.00 20.00    -0.125 Cl
ENDBRANCH   8  10
ENDBRANCH   3   8
TORSDOF 2
ENDMDL
