MODEL 1
REMARK VINA RESULT:      -5.3      0.000      0.000
REMARK  1 active torsions:
REMARK  status: ('A' for Active; 'I' for Inactive)
REMARK    1  A    between atoms: C2_2  and  C10_10 
ROOT
HETATM    1  C1  UNL     1     -33.045  16.628  -2.865  1.00 20.00    -0.004 C 
HETATM    2  C2  UNL     1     -34.208  15.978  -2.656  1.00 20.00    -0.076 C 
HETATM    3  C3  UNL     1     -35.152  16.403  -1.553  1.00 20.00     0.034 C 
HETATM    4  C4  UNL     1     -34.852  17.787  -0.970  1.00 20.00     0.006 C 
HETATM    5  C5  UNL     1     -33.355  17.968  -0.740  1.00 20.00     0.024 C 
HETATM    6  C9  UNL     1     -32.559  17.780  -2.034  1.00 20.00     0.105 C 
HETATM    7 CL12 UNL     1     -32.641  19.263  -3.037  1.00 20.00    -0.121 Cl
ENDROOT
BRANCH   2   8
HETATM    8  C10 UNL     1     -34.664  14.827  -3.485  1.00 20.00     0.040 C 
HETATM    9  C6  UNL     1     -36.151  14.835  -3.777  1.00 20.00     0.037 C 
HETATM   10  C7  UNL     1     -36.236  13.931  -4.986  1.00 20.00     0.168 C 
HETATM   11  O11 UNL     1     -35.031  14.141  -5.733  1.00 20.00    -0.390 OA
HETATM   12  C8  UNL     1     -34.079  14.806  -4.889  1.00 20.00     0.176 C 
ENDBRANCH   2   8
TORSDOF 1
ENDMDL
MODEL 2
REMARK VINA RESULT:      -5.2      1.442      2.040
REMARK  1 active torsions:
REMARK  status: ('A' for Active; 'I' for Inactive)
REMARK    1  A    between atoms: C2_2  and  C10_10 
ROOT
HETATM    1  C1  UNL     1     -35.332  16.655  -1.704  1.00 20.00    -0.004 C 
HETATM    2  C2  UNL     1     -34.465  16.108  -2.579  1.00 20.00    -0.076 C 
HETATM    3  C3  UNL     1     -33.085  16.695  -2.781  1.00 20.00     0.034 C 
HETATM    4  C4  UNL     1     -32.661  17.688  -1.695  1.00 20.00     0.006 C 
HETATM    5  C5  UNL     1     -33.803  18.641  -1.353  1.00 20.00     0.024 C 
HETATM    6  C9  UNL     1     -35.049  17.883  -0.889  1.00 20.00     0.105 C 
HETATM    7 CL12 UNL     1     -34.876  17.388   0.825  1.00 20.00    -0.121 Cl
ENDROOT
BRANCH   2   8
HETATM    8  C10 UNL     1     -34.772  14.895  -3.388  1.00 20.00     0.040 C 
HETATM    9  C6  UNL     1     -36.231  14.776  -3.782  1.00 20.00     0.037 C 
HETATM   10  C7  UNL     1     -36.159  13.825  -4.956  1.00 20.00     0.168 C 
HETATM   11  O11 UNL     1     -34.923  14.102  -5.626  1.00 20.00    -0.390 OA
HETATM   12  C8  UNL     1     -34.087  14.870  -4.747  1.00 20.00     0.176 C 
ENDBRANCH   2   8
TORSDOF 1
ENDMDL
MODEL 3
REMARK VINA RESULT:      -4.8     14.417     16.233
REMARK  1 active torsions:
REMARK  status: ('A' for Active; 'I' for Inactive)
REMARK    1  A    between atoms: C2_2  and  C10_10 
ROOT
HETATM    1  C1  UNL     1     -24.163  17.541  10.125  1.00 20.00    -0.004 C 
HETATM    2  C2  UNL     1     -25.011  18.553   9.852  1.00 20.00    -0.076 C 
HETATM    3  C3  UNL     1     -25.987  19.055  10.894  1.00 20.00     0.034 C 
HETATM    4  C4  UNL     1     -25.685  18.579  12.317  1.00 20.00     0.006 C 
HETATM    5  C5  UNL     1     -25.323  17.096  12.330  1.00 20.00     0.024 C 
HETATM    6  C9  UNL     1     -24.119  16.802  11.431  1.00 20.00     0.105 C 
HETATM    7 CL12 UNL     1     -22.595  17.239  12.266  1.00 20.00    -0.121 Cl
ENDROOT
BRANCH   2   8
HETATM    8  C10 UNL     1     -25.047  19.263   8.543  1.00 20.00     0.040 C 
HETATM    9  C6  UNL     1     -24.000  18.782   7.558  1.00 20.00     0.037 C 
HETATM   10  C7  UNL     1     -24.572  19.255   6.241  1.00 20.00     0.168 C 
HETATM   11  O11 UNL     1     -25.998  19.169   6.364  1.00 20.00    -0.390 OA
HETATM   12  C8  UNL     1     -26.330  19.042   7.755  1.00 20.00     0.176 C 
ENDBRANCH   2   8
TORSDOF 1
ENDMDL
MODEL 4
REMARK VINA RESULT:      -4.8      2.626      3.919
REMARK  1 active torsions:
REMARK  status: ('A' for Active; 'I' for Inactive)
REMARK    1  A    between atoms: C2_2  and  C10_10 
ROOT
HETATM    1  C1  UNL     1     -33.643  18.230   0.562  1.00 20.00    -0.004 C 
HETATM    2  C2  UNL     1     -33.127  17.982  -0.659  1.00 20.00    -0.076 C 
HETATM    3  C3  UNL     1     -31.654  18.186  -0.940  1.00 20.00     0.034 C 
HETATM    4  C4  UNL     1     -30.792  18.338   0.316  1.00 20.00     0.006 C 
HETATM    5  C5  UNL     1     -31.462  19.263   1.329  1.00 20.00     0.024 C 
HETATM    6  C9  UNL     1     -32.850  18.751   1.725  1.00 20.00     0.105 C 
HETATM    7 CL12 UNL     1     -32.708  17.437   2.935  1.00 20.00    -0.121 Cl
ENDROOT
BRANCH   2   8
HETATM    8  C10 UNL     1     -33.936  17.479  -1.804  1.00 20.00     0.040 C 
HETATM    9  C6  UNL     1     -33.166  16.574  -2.745  1.00 20.00     0.037 C 
HETATM   10  C7  UNL     1     -34.283  15.836  -3.449  1.00 20.00     0.168 C 
HETATM   11  O11 UNL     1     -35.334  15.678  -2.488  1.00 20.00    -0.390 OA
HETATM   12  C8  UNL     1     -35.092  16.578  -1.395  1.00 20.00     0.176 C 
ENDBRANCH   2   8
TORSDOF 1
ENDMDL
MODEL 5
REMARK VINA RESULT:      -4.6     14.153     16.174
REMARK  1 active torsions:
REMARK  status: ('A' for Active; 'I' for Inactive)
REMARK    1  A    between atoms: C2_2  and  C10_10 
ROOT
HETATM    1  C1  UNL     1     -24.934  18.134  10.399  1.00 20.00    -0.004 C 
HETATM    2  C2  UNL     1     -24.257  18.638   9.348  1.00 20.00    -0.076 C 
HETATM    3  C3  UNL     1     -22.745  18.580   9.293  1.00 20.00     0.034 C 
HETATM    4  C4  UNL     1     -22.118  17.623  10.310  1.00 20.00     0.006 C 
HETATM    5  C5  UNL     1     -22.780  17.770  11.678  1.00 20.00     0.024 C 
HETATM    6  C9  UNL     1     -24.287  17.515  11.604  1.00 20.00     0.105 C 
HETATM    7 CL12 UNL     1     -24.621  15.754  11.571  1.00 20.00    -0.121 Cl
ENDROOT
BRANCH   2   8
HETATM    8  C10 UNL     1     -24.919  19.262   8.169  1.00 20.00     0.040 C 
HETATM    9  C6  UNL     1     -24.278  18.899   6.844  1.00 20.00     0.037 C 
HETATM   10  C7  UNL     1     -25.390  19.204   5.866  1.00 20.00     0.168 C 
HETATM   11  O11 UNL     1     -26.618  18.903   6.542  1.00 20.00    -0.390 OA
HETATM   12  C8  UNL     1     -26.352  18.801   7.949  1.00 20.00     0.176 C 
ENDBRANCH   2   8
TORSDOF 1
ENDMDL
MODEL 6
REMARK VINA RESULT:      -4.6      3.315      5.328
REMARK  1 active torsions:
REMARK  status: ('A' for Active; 'I' for Inactive)
REMARK    1  A    between atoms: C2_2  and  C10_10 
ROOT
HETATM    1  C1  UNL     1     -32.832  17.578  -2.599  1.00 20.00    -0.004 C 
HETATM    2  C2  UNL     1     -33.214  17.859  -1.337  1.00 20.00    -0.076 C 
HETATM    3  C3  UNL     1     -34.549  17.386  -0.803  1.00 20.00     0.034 C 
HETATM    4  C4  UNL     1     -35.220  16.309  -1.659  1.00 20.00     0.006 C 
HETATM    5  C5  UNL     1     -35.125  16.655  -3.143  1.00 20.00     0.024 C 
HETATM    6  C9  UNL     1     -33.670  16.823  -3.589  1.00 20.00     0.105 C 
HETATM    7 CL12 UNL     1     -32.911  15.222  -3.857  1.00 20.00    -0.121 Cl
ENDROOT
BRANCH   2   8
HETATM    8  C10 UNL     1     -32.371  18.622  -0.376  1.00 20.00     0.040 C 
HETATM    9  C6  UNL     1     -32.721  18.372   1.077  1.00 20.00     0.037 C 
HETATM   10  C7  UNL     1     -31.459  18.815   1.783  1.00 20.00     0.168 C 
HETATM   11  O11 UNL     1     -30.371  18.491   0.908  1.00 20.00    -0.390 OA
HETATM   12  C8  UNL     1     -30.899  18.237  -0.404  1.00 20.00     0.176 C 
ENDBRANCH   2   8
TORSDOF 1
ENDMDL
MODEL 7
REMARK VINA RESULT:      -4.6     15.683     16.662
REMARK  1 active torsions:
REMARK  status: ('A' for Active; 'I' for Inactive)
REMARK    1  A    between atoms: C2_2  and  C10_10 
ROOT
HETATM    1  C1  UNL     1     -25.406  19.262  10.352  1.00 20.00    -0.004 C 
HETATM    2  C2  UNL     1     -24.452  18.315  10.256  1.00 20.00    -0.076 C 
HETATM    3  C3  UNL     1     -24.523  17.050  11.084  1.00 20.00     0.034 C 
HETATM    4  C4  UNL     1     -25.889  16.798  11.728  1.00 20.00     0.006 C 
HETATM    5  C5  UNL     1     -26.452  18.081  12.332  1.00 20.00     0.024 C 
HETATM    6  C9  UNL     1     -26.582  19.188  11.282  1.00 20.00     0.105 C 
HETATM    7 CL12 UNL     1     -28.058  18.940  10.295  1.00 20.00    -0.121 Cl
ENDROOT
BRANCH   2   8
HETATM    8  C10 UNL     1     -23.285  18.417   9.336  1.00 20.00     0.040 C 
HETATM    9  C6  UNL     1     -22.483  17.136   9.223  1.00 20.00     0.037 C 
HETATM   10  C7  UNL     1     -21.746  17.345   7.919  1.00 20.00     0.168 C 
HETATM   11  O11 UNL     1     -22.625  18.096   7.073  1.00 20.00    -0.390 OA
HETATM   12  C8  UNL     1     -23.663  18.668   7.884  1.00 20.00     0.176 C 
ENDBRANCH   2   8
TORSDOF 1
ENDMDL
MODEL 8
REMARK VINA RESULT:      -4.6      2.925      4.951
REMARK  1 active torsions:
REMARK  status: ('A' for Active; 'I' for Inactive)
REMARK    1  A    between atoms: C2_2  and  C10_10 
ROOT
HETATM    1  C1  UNL     1     -35.571  15.935  -2.765  1.00 20.00    -0.004 C 
HETATM    2  C2  UNL     1     -34.341  16.455  -2.581  1.00 20.00    -0.076 C 
HETATM    3  C3  UNL     1     -33.132  15.864  -3.274  1.00 20.00     0.034 C 
HETATM    4  C4  UNL     1     -33.472  14.909  -4.421  1.00 20.00     0.006 C 
HETATM    5  C5  UNL     1     -34.604  13.965  -4.026  1.00 20.00     0.024 C 
HETATM    6  C9  UNL     1     -35.863  14.735  -3.617  1.00 20.00     0.105 C 
HETATM    7 CL12 UNL     1     -36.756  15.287  -5.070  1.00 20.00    -0.121 Cl
ENDROOT
BRANCH   2   8
HETATM    8  C10 UNL     1     -34.072  17.640  -1.719  1.00 20.00     0.040 C 
HETATM    9  C6  UNL     1     -34.579  17.490  -0.298  1.00 20.00     0.037 C 
HETATM   10  C7  UNL     1     -33.757  18.525   0.436  1.00 20.00     0.168 C 
HETATM   11  O11 UNL     1     -32.479  18.560  -0.209  1.00 20.00    -0.390 OA
HETATM   12  C8  UNL     1     -32.593  17.911  -1.485  1.00 20.00     0.176 C 
ENDBRANCH   2   8
TORSDOF 1
ENDMDL
MODEL 9
REMARK VINA RESULT:      -4.5      3.323      5.381
REMARK  1 active torsions:
REMARK  status: ('A' for Active; 'I' for Inactive)
REMARK    1  A    between atoms: C2_2  and  C10_10 
ROOT
HETATM    1  C1  UNL     1     -35.125  16.586  -1.439  1.00 20.00    -0.004 C 
HETATM    2  C2  UNL     1     -34.093  17.404  -1.150  1.00 20.00    -0.076 C 
HETATM    3  C3  UNL     1     -32.886  17.487  -2.060  1.00 20.00     0.034 C 
HETATM    4  C4  UNL     1     -33.100  16.868  -3.443  1.00 20.00     0.006 C 
HETATM    5  C5  UNL     1     -33.823  15.528  -3.335  1.00 20.00     0.024 C 
HETATM    6  C9  UNL     1     -35.174  15.674  -2.630  1.00 20.00     0.105 C 
HETATM    7 CL12 UNL     1     -36.406  16.309  -3.767  1.00 20.00    -0.121 Cl
ENDROOT
BRANCH   2   8
HETATM    8  C10 UNL     1     -34.059  18.290   0.046  1.00 20.00     0.040 C 
HETATM    9  C6  UNL     1     -34.782  17.720   1.250  1.00 20.00     0.037 C 
HETATM   10  C7  UNL     1     -34.172  18.514   2.384  1.00 20.00     0.168 C 
HETATM   11  O11 UNL     1     -32.810  18.765   2.015  1.00 20.00    -0.390 OA
HETATM   12  C8  UNL     1     -32.663  18.515   0.609  1.00 20.00     0.176 C 
ENDBRANCH   2   8
TORSDOF 1
ENDMDL
