MODEL 1
REMARK VINA RESULT:      -4.7      0.000      0.000
REMARK  1 active torsions:
REMARK  status: ('A' for Active; 'I' for Inactive)
REMARK    1  A    between atoms: C2_2  and  C10_10 
ROOT
HETATM    1  C1  UNL     1     -33.096  17.170  -3.121  1.00 20.00    -0.003 C 
HETATM    2  C2  UNL     1     -33.997  16.173  -3.155  1.00 20.00    -0.075 C 
HETATM    3  C3  UNL     1     -35.107  16.060  -2.139  1.00 20.00     0.034 C 
HETATM    4  C4  UNL     1     -34.926  16.969  -0.920  1.00 20.00     0.006 C 
HETATM    5  C5  UNL     1     -34.434  18.354  -1.330  1.00 20.00     0.024 C 
HETATM    6  C6  UNL     1     -33.117  18.281  -2.111  1.00 20.00     0.105 C 
HETATM    7 CL11 UNL     1     -31.739  18.044  -0.991  1.00 20.00    -0.121 Cl
ENDROOT
BRANCH   2   8
HETATM    8  C10 UNL     1     -33.960  15.108  -4.211  1.00 20.00    -0.028 C 
HETATM    9  C7  UNL     1     -32.539  14.533  -4.300  1.00 20.00     0.019 C 
HETATM   10  C8  UNL     1     -34.356  15.709  -5.569  1.00 20.00     0.019 C 
HETATM   11  C9  UNL     1     -34.945  13.984  -3.851  1.00 20.00     0.019 C 
ENDBRANCH   2   8
TORSDOF 1
ENDMDL
MODEL 2
REMARK VINA RESULT:      -4.6      1.503      2.498
REMARK  1 active torsions:
REMARK  status: ('A' for Active; 'I' for Inactive)
REMARK    1  A    between atoms: C2_2  and  C10_10 
ROOT
HETATM    1  C1  UNL     1     -35.167  16.007  -2.143  1.00 20.00    -0.003 C 
HETATM    2  C2  UNL     1     -34.146  16.012  -3.018  1.00 20.00    -0.075 C 
HETATM    3  C3  UNL     1     -32.993  16.978  -2.901  1.00 20.00     0.034 C 
HETATM    4  C4  UNL     1     -33.243  18.125  -1.918  1.00 20.00     0.006 C 
HETATM    5  C5  UNL     1     -33.925  17.626  -0.647  1.00 20.00     0.024 C 
HETATM    6  C6  UNL     1     -35.250  16.919  -0.953  1.00 20.00     0.105 C 
HETATM    7 CL11 UNL     1     -36.543  18.120  -1.260  1.00 20.00    -0.121 Cl
ENDROOT
BRANCH   2   8
HETATM    8  C10 UNL     1     -34.086  15.051  -4.169  1.00 20.00    -0.028 C 
HETATM    9  C7  UNL     1     -35.049  13.884  -3.906  1.00 20.00     0.019 C 
HETATM   10  C8  UNL     1     -32.655  14.511  -4.320  1.00 20.00     0.019 C 
HETATM   11  C9  UNL     1     -34.493  15.768  -5.467  1.00 20.00     0.019 C 
ENDBRANCH   2   8
TORSDOF 1
ENDMDL
MODEL 3
REMARK VINA RESULT:      -4.6      1.511      2.507
REMARK  1 active torsions:
REMARK  status: ('A' for Active; 'I' for Inactive)
REMARK    1  A    between atoms: C2_2  and  C10_10 
ROOT
HETATM    1  C1  UNL     1     -35.173  16.023  -2.122  1.00 20.00    -0.003 C 
HETATM    2  C2  UNL     1     -34.145  16.038  -2.989  1.00 20.00    -0.075 C 
HETATM    3  C3  UNL     1     -32.995  17.005  -2.851  1.00 20.00     0.034 C 
HETATM    4  C4  UNL     1     -33.255  18.141  -1.858  1.00 20.00     0.006 C 
HETATM    5  C5  UNL     1     -33.947  17.628  -0.599  1.00 20.00     0.024 C 
HETATM    6  C6  UNL     1     -35.269  16.923  -0.924  1.00 20.00     0.105 C 
HETATM    7 CL11 UNL     1     -36.561  18.126  -1.231  1.00 20.00    -0.121 Cl
ENDROOT
BRANCH   2   8
HETATM    8  C10 UNL     1     -34.073  15.090  -4.148  1.00 20.00    -0.028 C 
HETATM    9  C7  UNL     1     -34.482  15.827  -5.432  1.00 20.00     0.019 C 
HETATM   10  C8  UNL     1     -35.024  13.907  -3.912  1.00 20.00     0.019 C 
HETATM   11  C9  UNL     1     -32.637  14.560  -4.298  1.00 20.00     0.019 C 
ENDBRANCH   2   8
TORSDOF 1
ENDMDL
MODEL 4
REMARK VINA RESULT:      -4.5      2.093      4.068
REMARK  1 active torsions:
REMARK  status: ('A' for Active; 'I' for Inactive)
REMARK    1  A    between atoms: C2_2  and  C10_10 
ROOT
HETATM    1  C1  UNL     1     -33.219  15.906  -3.593  1.00 20.00    -0.003 C 
HETATM    2  C2  UNL     1     -34.113  16.458  -2.754  1.00 20.00    -0.075 C 
HETATM    3  C3  UNL     1     -35.488  15.871  -2.546  1.00 20.00     0.034 C 
HETATM    4  C4  UNL     1     -35.873  14.813  -3.584  1.00 20.00     0.006 C 
HETATM    5  C5  UNL     1     -34.705  13.879  -3.883  1.00 20.00     0.024 C 
HETATM    6  C6  UNL     1     -33.472  14.647  -4.372  1.00 20.00     0.105 C 
HETATM    7 CL11 UNL     1     -33.655  15.087  -6.099  1.00 20.00    -0.121 Cl
ENDROOT
BRANCH   2   8
HETATM    8  C10 UNL     1     -33.799  17.693  -1.964  1.00 20.00    -0.028 C 
HETATM    9  C7  UNL     1     -34.510  17.620  -0.604  1.00 20.00     0.019 C 
HETATM   10  C8  UNL     1     -34.283  18.936  -2.728  1.00 20.00     0.019 C 
HETATM   11  C9  UNL     1     -32.281  17.798  -1.743  1.00 20.00     0.019 C 
ENDBRANCH   2   8
TORSDOF 1
ENDMDL
MODEL 5
REMARK VINA RESULT:      -4.4      2.394      4.447
REMARK  1 active torsions:
REMARK  status: ('A' for Active; 'I' for Inactive)
REMARK    1  A    between atoms: C2_2  and  C10_10 
ROOT
HETATM    1  C1  UNL     1     -35.490  16.098  -3.799  1.00 20.00    -0.003 C 
HETATM    2  C2  UNL     1     -34.389  16.442  -3.108  1.00 20.00    -0.075 C 
HETATM    3  C3  UNL     1     -33.030  15.867  -3.426  1.00 20.00     0.034 C 
HETATM    4  C4  UNL     1     -33.074  14.656  -4.363  1.00 20.00     0.006 C 
HETATM    5  C5  UNL     1     -34.073  14.868  -5.496  1.00 20.00     0.024 C 
HETATM    6  C6  UNL     1     -35.483  15.152  -4.965  1.00 20.00     0.105 C 
HETATM    7 CL11 UNL     1     -36.277  13.630  -4.453  1.00 20.00    -0.121 Cl
ENDROOT
BRANCH   2   8
HETATM    8  C10 UNL     1     -34.439  17.426  -1.977  1.00 20.00    -0.028 C 
HETATM    9  C7  UNL     1     -35.254  16.827  -0.821  1.00 20.00     0.019 C 
HETATM   10  C8  UNL     1     -35.101  18.729  -2.450  1.00 20.00     0.019 C 
HETATM   11  C9  UNL     1     -33.013  17.733  -1.491  1.00 20.00     0.019 C 
ENDBRANCH   2   8
TORSDOF 1
ENDMDL
MODEL 6
REMARK VINA RESULT:      -4.3      2.389      4.445
REMARK  1 active torsions:
REMARK  status: ('A' for Active; 'I' for Inactive)
REMARK    1  A    between atoms: C2_2  and  C10_10 
ROOT
HETATM    1  C1  UNL     1     -35.494  16.089  -3.774  1.00 20.00    -0.003 C 
HETATM    2  C2  UNL     1     -34.391  16.445  -3.092  1.00 20.00    -0.075 C 
HETATM    3  C3  UNL     1     -33.029  15.885  -3.421  1.00 20.00     0.034 C 
HETATM    4  C4  UNL     1     -33.066  14.674  -4.356  1.00 20.00     0.006 C 
HETATM    5  C5  UNL     1     -34.077  14.874  -5.482  1.00 20.00     0.024 C 
HETATM    6  C6  UNL     1     -35.485  15.142  -4.940  1.00 20.00     0.105 C 
HETATM    7 CL11 UNL     1     -36.258  13.611  -4.422  1.00 20.00    -0.121 Cl
ENDROOT
BRANCH   2   8
HETATM    8  C10 UNL     1     -34.443  17.428  -1.960  1.00 20.00    -0.028 C 
HETATM    9  C7  UNL     1     -33.014  17.731  -1.486  1.00 20.00     0.019 C 
HETATM   10  C8  UNL     1     -35.255  16.839  -0.796  1.00 20.00     0.019 C 
HETATM   11  C9  UNL     1     -35.112  18.729  -2.432  1.00 20.00     0.019 C 
ENDBRANCH   2   8
TORSDOF 1
ENDMDL
MODEL 7
REMARK VINA RESULT:      -4.2      1.734      2.490
REMARK  1 active torsions:
REMARK  status: ('A' for Active; 'I' for Inactive)
REMARK    1  A    between atoms: C2_2  and  C10_10 
ROOT
HETATM    1  C1  UNL     1     -32.556  18.269  -1.204  1.00 20.00    -0.003 C 
HETATM    2  C2  UNL     1     -33.745  17.650  -1.301  1.00 20.00    -0.075 C 
HETATM    3  C3  UNL     1     -34.725  17.608  -0.154  1.00 20.00     0.034 C 
HETATM    4  C4  UNL     1     -34.127  18.041   1.187  1.00 20.00     0.006 C 
HETATM    5  C5  UNL     1     -33.228  19.263   1.024  1.00 20.00     0.024 C 
HETATM    6  C6  UNL     1     -32.097  19.007   0.022  1.00 20.00     0.105 C 
HETATM    7 CL11 UNL     1     -30.786  18.055   0.787  1.00 20.00    -0.121 Cl
ENDROOT
BRANCH   2   8
HETATM    8  C10 UNL     1     -34.178  16.962  -2.562  1.00 20.00    -0.028 C 
HETATM    9  C7  UNL     1     -32.946  16.378  -3.269  1.00 20.00     0.019 C 
HETATM   10  C8  UNL     1     -34.872  17.970  -3.492  1.00 20.00     0.019 C 
HETATM   11  C9  UNL     1     -35.160  15.828  -2.225  1.00 20.00     0.019 C 
ENDBRANCH   2   8
TORSDOF 1
ENDMDL
MODEL 8
REMARK VINA RESULT:      -4.1      2.890      4.660
REMARK  1 active torsions:
REMARK  status: ('A' for Active; 'I' for Inactive)
REMARK    1  A    between atoms: C2_2  and  C10_10 
ROOT
HETATM    1  C1  UNL     1     -36.472  16.333  -3.935  1.00 20.00    -0.003 C 
HETATM    2  C2  UNL     1     -35.320  16.091  -3.286  1.00 20.00    -0.075 C 
HETATM    3  C3  UNL     1     -34.552  14.804  -3.467  1.00 20.00     0.034 C 
HETATM    4  C4  UNL     1     -35.344  13.706  -4.183  1.00 20.00     0.006 C 
HETATM    5  C5  UNL     1     -36.134  14.271  -5.360  1.00 20.00     0.024 C 
HETATM    6  C6  UNL     1     -37.091  15.385  -4.921  1.00 20.00     0.105 C 
HETATM    7 CL11 UNL     1     -38.563  14.686  -4.176  1.00 20.00    -0.121 Cl
ENDROOT
BRANCH   2   8
HETATM    8  C10 UNL     1     -34.718  17.088  -2.341  1.00 20.00    -0.028 C 
HETATM    9  C7  UNL     1     -33.188  16.950  -2.365  1.00 20.00     0.019 C 
HETATM   10  C8  UNL     1     -35.233  16.832  -0.917  1.00 20.00     0.019 C 
HETATM   11  C9  UNL     1     -35.110  18.512  -2.770  1.00 20.00     0.019 C 
ENDBRANCH   2   8
TORSDOF 1
ENDMDL
MODEL 9
REMARK VINA RESULT:      -3.9      1.875      2.857
REMARK  1 active torsions:
REMARK  status: ('A' for Active; 'I' for Inactive)
REMARK    1  A    between atoms: C2_2  and  C10_10 
ROOT
HETATM    1  C1  UNL     1     -34.904  15.455  -3.150  1.00 20.00    -0.003 C 
HETATM    2  C2  UNL     1     -35.185  15.800  -4.419  1.00 20.00    -0.075 C 
HETATM    3  C3  UNL     1     -34.567  17.009  -5.078  1.00 20.00     0.034 C 
HETATM    4  C4  UNL     1     -33.865  17.956  -4.101  1.00 20.00     0.006 C 
HETATM    5  C5  UNL     1     -33.057  17.182  -3.064  1.00 20.00     0.024 C 
HETATM    6  C6  UNL     1     -33.933  16.199  -2.279  1.00 20.00     0.105 C 
HETATM    7 CL11 UNL     1     -34.864  17.061  -1.015  1.00 20.00    -0.121 Cl
ENDROOT
BRANCH   2   8
HETATM    8  C10 UNL     1     -36.131  15.000  -5.265  1.00 20.00    -0.028 C 
HETATM    9  C7  UNL     1     -36.337  13.618  -4.627  1.00 20.00     0.019 C 
HETATM   10  C8  UNL     1     -35.549  14.831  -6.677  1.00 20.00     0.019 C 
HETATM   11  C9  UNL     1     -37.483  15.726  -5.362  1.00 20.00     0.019 C 
ENDBRANCH   2   8
TORSDOF 1
ENDMDL
