MODEL 1
REMARK VINA RESULT:      -4.8      0.000      0.000
REMARK  2 active torsions:
REMARK  status: ('A' for Active; 'I' for Inactive)
REMARK    1  A    between atoms: C2_2  and  C9_9 
REMARK    2  A    between atoms: C4_4  and  C9_9 
ROOT
HETATM    1  C1  UNL     1     -33.615   5.864   3.247  1.00 20.00    -0.004 C 
HETATM    2  C2  UNL     1     -32.956   6.955   3.684  1.00 20.00    -0.079 C 
HETATM    3  C5  UNL     1     -33.097   7.429   5.114  1.00 20.00     0.034 C 
HETATM    4  C6  UNL     1     -34.278   6.803   5.861  1.00 20.00     0.006 C 
HETATM    5  C7  UNL     1     -34.339   5.300   5.610  1.00 20.00     0.024 C 
HETATM    6  C8  UNL     1     -34.499   5.014   4.115  1.00 20.00     0.105 C 
HETATM    7 CL10 UNL     1     -34.170   3.286   3.802  1.00 20.00    -0.121 Cl
ENDROOT
BRANCH   2   8
HETATM    8  C9  UNL     1     -32.086   7.785   2.815  1.00 20.00     0.060 C 
BRANCH   8   9
HETATM    9  C4  UNL     1     -32.570   7.808   1.400  1.00 20.00    -0.033 C 
HETATM   10  C3  UNL     1     -32.859   8.929   0.729  1.00 20.00     0.007 C 
ENDBRANCH   8   9
ENDBRANCH   2   8
TORSDOF 2
ENDMDL
MODEL 2
REMARK VINA RESULT:      -4.8      1.749      2.394
REMARK  2 active torsions:
REMARK  status: ('A' for Active; 'I' for Inactive)
REMARK    1  A    between atoms: C2_2  and  C9_9 
REMARK    2  A    between atoms: C4_4  and  C9_9 
ROOT
HETATM    1  C1  UNL     1     -32.838   6.950   4.085  1.00 20.00    -0.004 C 
HETATM    2  C2  UNL     1     -32.889   6.608   2.782  1.00 20.00    -0.079 C 
HETATM    3  C5  UNL     1     -33.681   5.402   2.325  1.00 20.00     0.034 C 
HETATM    4  C6  UNL     1     -34.084   4.457   3.460  1.00 20.00     0.006 C 
HETATM    5  C7  UNL     1     -34.626   5.243   4.650  1.00 20.00     0.024 C 
HETATM    6  C8  UNL     1     -33.566   6.215   5.174  1.00 20.00     0.105 C 
HETATM    7 CL10 UNL     1     -34.334   7.388   6.283  1.00 20.00    -0.121 Cl
ENDROOT
BRANCH   2   8
HETATM    8  C9  UNL     1     -32.165   7.342   1.717  1.00 20.00     0.060 C 
BRANCH   8   9
HETATM    9  C4  UNL     1     -32.937   8.528   1.232  1.00 20.00    -0.033 C 
HETATM   10  C3  UNL     1     -33.257   8.736  -0.050  1.00 20.00     0.007 C 
ENDBRANCH   8   9
ENDBRANCH   2   8
TORSDOF 2
ENDMDL
MODEL 3
REMARK VINA RESULT:      -4.6     11.091     12.023
REMARK  2 active torsions:
REMARK  status: ('A' for Active; 'I' for Inactive)
REMARK    1  A    between atoms: C2_2  and  C9_9 
REMARK    2  A    between atoms: C4_4  and  C9_9 
ROOT
HETATM    1  C1  UNL     1     -35.237  15.903  -2.245  1.00 20.00    -0.004 C 
HETATM    2  C2  UNL     1     -34.398  15.322  -3.125  1.00 20.00    -0.079 C 
HETATM    3  C5  UNL     1     -33.066  15.956  -3.466  1.00 20.00     0.034 C 
HETATM    4  C6  UNL     1     -32.943  17.416  -3.022  1.00 20.00     0.006 C 
HETATM    5  C7  UNL     1     -33.462  17.593  -1.599  1.00 20.00     0.024 C 
HETATM    6  C8  UNL     1     -34.932  17.177  -1.511  1.00 20.00     0.105 C 
HETATM    7 CL10 UNL     1     -35.400  17.010   0.206  1.00 20.00    -0.121 Cl
ENDROOT
BRANCH   2   8
HETATM    8  C9  UNL     1     -34.712  14.064  -3.844  1.00 20.00     0.060 C 
BRANCH   8   9
HETATM    9  C4  UNL     1     -35.888  14.221  -4.755  1.00 20.00    -0.033 C 
HETATM   10  C3  UNL     1     -35.798  14.619  -6.029  1.00 20.00     0.007 C 
ENDBRANCH   8   9
ENDBRANCH   2   8
TORSDOF 2
ENDMDL
MODEL 4
REMARK VINA RESULT:      -4.5     11.293     12.059
REMARK  2 active torsions:
REMARK  status: ('A' for Active; 'I' for Inactive)
REMARK    1  A    between atoms: C2_2  and  C9_9 
REMARK    2  A    between atoms: C4_4  and  C9_9 
ROOT
HETATM    1  C1  UNL     1     -35.170  16.246  -1.927  1.00 20.00    -0.004 C 
HETATM    2  C2  UNL     1     -34.260  15.788  -2.809  1.00 20.00    -0.079 C 
HETATM    3  C5  UNL     1     -32.928  16.486  -2.987  1.00 20.00     0.034 C 
HETATM    4  C6  UNL     1     -32.876  17.887  -2.374  1.00 20.00     0.006 C 
HETATM    5  C7  UNL     1     -33.489  17.889  -0.977  1.00 20.00     0.024 C 
HETATM    6  C8  UNL     1     -34.949  17.434  -1.034  1.00 20.00     0.105 C 
HETATM    7 CL10 UNL     1     -35.519  17.062   0.617  1.00 20.00    -0.121 Cl
ENDROOT
BRANCH   2   8
HETATM    8  C9  UNL     1     -34.492  14.614  -3.685  1.00 20.00     0.060 C 
BRANCH   8   9
HETATM    9  C4  UNL     1     -33.687  14.690  -4.944  1.00 20.00    -0.033 C 
HETATM   10  C3  UNL     1     -34.192  15.044  -6.132  1.00 20.00     0.007 C 
ENDBRANCH   8   9
ENDBRANCH   2   8
TORSDOF 2
ENDMDL
MODEL 5
REMARK VINA RESULT:      -4.5     11.417     12.061
REMARK  2 active torsions:
REMARK  status: ('A' for Active; 'I' for Inactive)
REMARK    1  A    between atoms: C2_2  and  C9_9 
REMARK    2  A    between atoms: C4_4  and  C9_9 
ROOT
HETATM    1  C1  UNL     1     -35.198  15.751  -2.483  1.00 20.00    -0.004 C 
HETATM    2  C2  UNL     1     -34.029  16.420  -2.432  1.00 20.00    -0.079 C 
HETATM    3  C5  UNL     1     -32.926  16.138  -3.430  1.00 20.00     0.034 C 
HETATM    4  C6  UNL     1     -33.120  14.839  -4.216  1.00 20.00     0.006 C 
HETATM    5  C7  UNL     1     -34.558  14.713  -4.706  1.00 20.00     0.024 C 
HETATM    6  C8  UNL     1     -35.528  14.717  -3.521  1.00 20.00     0.105 C 
HETATM    7 CL10 UNL     1     -37.193  14.971  -4.118  1.00 20.00    -0.121 Cl
ENDROOT
BRANCH   2   8
HETATM    8  C9  UNL     1     -33.717  17.439  -1.401  1.00 20.00     0.060 C 
BRANCH   8   9
HETATM    9  C4  UNL     1     -32.381  18.073  -1.630  1.00 20.00    -0.033 C 
HETATM   10  C3  UNL     1     -31.493  18.315  -0.659  1.00 20.00     0.007 C 
ENDBRANCH   8   9
ENDBRANCH   2   8
TORSDOF 2
ENDMDL
MODEL 6
REMARK VINA RESULT:      -4.5     11.334     12.266
REMARK  2 active torsions:
REMARK  status: ('A' for Active; 'I' for Inactive)
REMARK    1  A    between atoms: C2_2  and  C9_9 
REMARK    2  A    between atoms: C4_4  and  C9_9 
ROOT
HETATM    1  C1  UNL     1     -32.881  17.114  -3.025  1.00 20.00    -0.004 C 
HETATM    2  C2  UNL     1     -33.023  17.738  -1.840  1.00 20.00    -0.079 C 
HETATM    3  C5  UNL     1     -34.228  17.476  -0.961  1.00 20.00     0.034 C 
HETATM    4  C6  UNL     1     -35.375  16.762  -1.680  1.00 20.00     0.006 C 
HETATM    5  C7  UNL     1     -34.848  15.599  -2.515  1.00 20.00     0.024 C 
HETATM    6  C8  UNL     1     -33.852  16.102  -3.562  1.00 20.00     0.105 C 
HETATM    7 CL10 UNL     1     -32.960  14.713  -4.247  1.00 20.00    -0.121 Cl
ENDROOT
BRANCH   2   8
HETATM    8  C9  UNL     1     -32.056  18.736  -1.322  1.00 20.00     0.060 C 
BRANCH   8   9
HETATM    9  C4  UNL     1     -31.056  18.116  -0.397  1.00 20.00    -0.033 C 
HETATM   10  C3  UNL     1     -30.916  18.459   0.889  1.00 20.00     0.007 C 
ENDBRANCH   8   9
ENDBRANCH   2   8
TORSDOF 2
ENDMDL
MODEL 7
REMARK VINA RESULT:      -4.4     11.227     12.179
REMARK  2 active torsions:
REMARK  status: ('A' for Active; 'I' for Inactive)
REMARK    1  A    between atoms: C2_2  and  C9_9 
REMARK    2  A    between atoms: C4_4  and  C9_9 
ROOT
HETATM    1  C1  UNL     1     -34.644  17.448  -0.490  1.00 20.00    -0.004 C 
HETATM    2  C2  UNL     1     -34.288  16.870  -1.654  1.00 20.00    -0.079 C 
HETATM    3  C5  UNL     1     -32.955  17.180  -2.301  1.00 20.00     0.034 C 
HETATM    4  C6  UNL     1     -32.261  18.418  -1.726  1.00 20.00     0.006 C 
HETATM    5  C7  UNL     1     -32.317  18.410  -0.203  1.00 20.00     0.024 C 
HETATM    6  C8  UNL     1     -33.770  18.398   0.278  1.00 20.00     0.105 C 
HETATM    7 CL10 UNL     1     -33.817  17.990   2.017  1.00 20.00    -0.121 Cl
ENDROOT
BRANCH   2   8
HETATM    8  C9  UNL     1     -35.162  15.934  -2.401  1.00 20.00     0.060 C 
BRANCH   8   9
HETATM    9  C4  UNL     1     -34.394  15.139  -3.409  1.00 20.00    -0.033 C 
HETATM   10  C3  UNL     1     -34.846  14.011  -3.970  1.00 20.00     0.007 C 
ENDBRANCH   8   9
ENDBRANCH   2   8
TORSDOF 2
ENDMDL
MODEL 8
REMARK VINA RESULT:      -4.4     11.186     11.869
REMARK  2 active torsions:
REMARK  status: ('A' for Active; 'I' for Inactive)
REMARK    1  A    between atoms: C2_2  and  C9_9 
REMARK    2  A    between atoms: C4_4  and  C9_9 
ROOT
HETATM    1  C1  UNL     1     -35.274  15.379  -2.721  1.00 20.00    -0.004 C 
HETATM    2  C2  UNL     1     -34.248  16.225  -2.506  1.00 20.00    -0.079 C 
HETATM    3  C5  UNL     1     -33.008  16.180  -3.374  1.00 20.00     0.034 C 
HETATM    4  C6  UNL     1     -32.892  14.912  -4.224  1.00 20.00     0.006 C 
HETATM    5  C7  UNL     1     -34.225  14.582  -4.886  1.00 20.00     0.024 C 
HETATM    6  C8  UNL     1     -35.308  14.364  -3.827  1.00 20.00     0.105 C 
HETATM    7 CL10 UNL     1     -36.914  14.377  -4.609  1.00 20.00    -0.121 Cl
ENDROOT
BRANCH   2   8
HETATM    8  C9  UNL     1     -34.227  17.222  -1.409  1.00 20.00     0.060 C 
BRANCH   8   9
HETATM    9  C4  UNL     1     -35.465  17.154  -0.571  1.00 20.00    -0.033 C 
HETATM   10  C3  UNL     1     -35.467  17.248   0.764  1.00 20.00     0.007 C 
ENDBRANCH   8   9
ENDBRANCH   2   8
TORSDOF 2
ENDMDL
MODEL 9
REMARK VINA RESULT:      -4.3     11.636     12.431
REMARK  2 active torsions:
REMARK  status: ('A' for Active; 'I' for Inactive)
REMARK    1  A    between atoms: C2_2  and  C9_9 
REMARK    2  A    between atoms: C4_4  and  C9_9 
ROOT
HETATM    1  C1  UNL     1     -34.068  17.790  -0.570  1.00 20.00    -0.004 C 
HETATM    2  C2  UNL     1     -33.038  17.844  -1.436  1.00 20.00    -0.079 C 
HETATM    3  C5  UNL     1     -33.025  16.987  -2.684  1.00 20.00     0.034 C 
HETATM    4  C6  UNL     1     -34.056  15.856  -2.670  1.00 20.00     0.006 C 
HETATM    5  C7  UNL     1     -35.408  16.364  -2.181  1.00 20.00     0.024 C 
HETATM    6  C8  UNL     1     -35.285  16.931  -0.765  1.00 20.00     0.105 C 
HETATM    7 CL10 UNL     1     -36.754  17.868  -0.370  1.00 20.00    -0.121 Cl
ENDROOT
BRANCH   2   8
HETATM    8  C9  UNL     1     -31.842  18.696  -1.231  1.00 20.00     0.060 C 
BRANCH   8   9
HETATM    9  C4  UNL     1     -30.946  18.152  -0.163  1.00 20.00    -0.033 C 
HETATM   10  C3  UNL     1     -30.707  18.772   0.998  1.00 20.00     0.007 C 
ENDBRANCH   8   9
ENDBRANCH   2   8
TORSDOF 2
ENDMDL
