MODEL 1
REMARK VINA RESULT:      -4.6      0.000      0.000
REMARK  1 active torsions:
REMARK  status: ('A' for Active; 'I' for Inactive)
REMARK    1  A    between atoms: C2_2  and  C9_9 
ROOT
HETATM    1  C1  UNL     1     -35.577  16.061  -2.390  1.00 20.00    -0.004 C 
HETATM    2  C2  UNL     1     -34.487  15.546  -2.973  1.00 20.00    -0.076 C 
HETATM    3  C3  UNL     1     -33.288  16.419  -2.767  1.00 20.00     0.036 C 
HETATM    4  C4  UNL     1     -33.914  17.729  -2.280  1.00 20.00     0.028 C 
HETATM    5  C8  UNL     1     -35.282  17.355  -1.705  1.00 20.00     0.105 C 
HETATM    6 CL11 UNL     1     -35.206  17.098   0.052  1.00 20.00    -0.121 Cl
ENDROOT
BRANCH   2   7
HETATM    7  C9  UNL     1     -34.389  14.252  -3.721  1.00 20.00     0.040 C 
HETATM    8  C5  UNL     1     -35.646  13.932  -4.504  1.00 20.00     0.037 C 
HETATM    9  C6  UNL     1     -35.438  14.678  -5.806  1.00 20.00     0.168 C 
HETATM   10  O10 UNL     1     -34.023  14.750  -6.023  1.00 20.00    -0.390 OA
HETATM   11  C7  UNL     1     -33.349  14.324  -4.828  1.00 20.00     0.176 C 
ENDBRANCH   2   7
TORSDOF 1
ENDMDL
MODEL 2
REMARK VINA RESULT:      -4.6      1.298      1.750
REMARK  1 active torsions:
REMARK  status: ('A' for Active; 'I' for Inactive)
REMARK    1  A    between atoms: C2_2  and  C9_9 
ROOT
HETATM    1  C1  UNL     1     -33.100  16.572  -2.941  1.00 20.00    -0.004 C 
HETATM    2  C2  UNL     1     -34.126  15.712  -2.939  1.00 20.00    -0.076 C 
HETATM    3  C3  UNL     1     -35.194  16.133  -1.978  1.00 20.00     0.036 C 
HETATM    4  C4  UNL     1     -34.478  17.187  -1.130  1.00 20.00     0.028 C 
HETATM    5  C8  UNL     1     -33.317  17.698  -1.986  1.00 20.00     0.105 C 
HETATM    6 CL11 UNL     1     -33.760  19.167  -2.884  1.00 20.00    -0.121 Cl
ENDROOT
BRANCH   2   7
HETATM    7  C9  UNL     1     -34.279  14.485  -3.785  1.00 20.00     0.040 C 
HETATM    8  C5  UNL     1     -35.715  14.229  -4.192  1.00 20.00     0.037 C 
HETATM    9  C6  UNL     1     -35.877  15.083  -5.434  1.00 20.00     0.168 C 
HETATM   10  O10 UNL     1     -34.585  15.177  -6.047  1.00 20.00    -0.390 OA
HETATM   11  C7  UNL     1     -33.603  14.653  -5.138  1.00 20.00     0.176 C 
ENDBRANCH   2   7
TORSDOF 1
ENDMDL
MODEL 3
REMARK VINA RESULT:      -4.3      1.963      2.475
REMARK  1 active torsions:
REMARK  status: ('A' for Active; 'I' for Inactive)
REMARK    1  A    between atoms: C2_2  and  C9_9 
ROOT
HETATM    1  C1  UNL     1     -33.722  15.544  -3.954  1.00 20.00    -0.004 C 
HETATM    2  C2  UNL     1     -34.976  15.252  -3.591  1.00 20.00    -0.076 C 
HETATM    3  C3  UNL     1     -35.407  16.055  -2.403  1.00 20.00     0.036 C 
HETATM    4  C4  UNL     1     -34.079  16.611  -1.882  1.00 20.00     0.028 C 
HETATM    5  C8  UNL     1     -33.115  16.584  -3.071  1.00 20.00     0.105 C 
HETATM    6 CL11 UNL     1     -33.080  18.145  -3.920  1.00 20.00    -0.121 Cl
ENDROOT
BRANCH   2   7
HETATM    7  C9  UNL     1     -35.908  14.286  -4.257  1.00 20.00     0.040 C 
HETATM    8  C5  UNL     1     -37.363  14.685  -4.120  1.00 20.00     0.037 C 
HETATM    9  C6  UNL     1     -37.565  15.647  -5.273  1.00 20.00     0.168 C 
HETATM   10  O10 UNL     1     -36.648  15.260  -6.304  1.00 20.00    -0.390 OA
HETATM   11  C7  UNL     1     -35.731  14.292  -5.768  1.00 20.00     0.176 C 
ENDBRANCH   2   7
TORSDOF 1
ENDMDL
MODEL 4
REMARK VINA RESULT:      -4.3      1.078      1.171
REMARK  1 active torsions:
REMARK  status: ('A' for Active; 'I' for Inactive)
REMARK    1  A    between atoms: C2_2  and  C9_9 
ROOT
HETATM    1  C1  UNL     1     -35.200  16.908  -1.469  1.00 20.00    -0.004 C 
HETATM    2  C2  UNL     1     -34.323  16.329  -2.299  1.00 20.00    -0.076 C 
HETATM    3  C3  UNL     1     -33.022  17.068  -2.328  1.00 20.00     0.036 C 
HETATM    4  C4  UNL     1     -33.384  18.399  -1.663  1.00 20.00     0.028 C 
HETATM    5  C8  UNL     1     -34.628  18.122  -0.815  1.00 20.00     0.105 C 
HETATM    6 CL11 UNL     1     -34.202  17.749   0.870  1.00 20.00    -0.121 Cl
ENDROOT
BRANCH   2   7
HETATM    7  C9  UNL     1     -34.528  15.081  -3.101  1.00 20.00     0.040 C 
HETATM    8  C5  UNL     1     -35.849  15.072  -3.843  1.00 20.00     0.037 C 
HETATM    9  C6  UNL     1     -35.528  15.819  -5.123  1.00 20.00     0.168 C 
HETATM   10  O10 UNL     1     -34.138  15.600  -5.395  1.00 20.00    -0.390 OA
HETATM   11  C7  UNL     1     -33.533  14.984  -4.248  1.00 20.00     0.176 C 
ENDBRANCH   2   7
TORSDOF 1
ENDMDL
MODEL 5
REMARK VINA RESULT:      -4.2      1.150      1.749
REMARK  1 active torsions:
REMARK  status: ('A' for Active; 'I' for Inactive)
REMARK    1  A    between atoms: C2_2  and  C9_9 
ROOT
HETATM    1  C1  UNL     1     -36.138  16.887  -2.685  1.00 20.00    -0.004 C 
HETATM    2  C2  UNL     1     -35.892  15.734  -3.319  1.00 20.00    -0.076 C 
HETATM    3  C3  UNL     1     -34.516  15.225  -3.020  1.00 20.00     0.036 C 
HETATM    4  C4  UNL     1     -33.839  16.448  -2.396  1.00 20.00     0.028 C 
HETATM    5  C8  UNL     1     -34.971  17.331  -1.865  1.00 20.00     0.105 C 
HETATM    6 CL11 UNL     1     -35.294  17.017  -0.145  1.00 20.00    -0.121 Cl
ENDROOT
BRANCH   2   7
HETATM    7  C9  UNL     1     -36.831  14.971  -4.201  1.00 20.00     0.040 C 
HETATM    8  C5  UNL     1     -37.162  15.709  -5.482  1.00 20.00     0.037 C 
HETATM    9  C6  UNL     1     -36.019  15.328  -6.402  1.00 20.00     0.168 C 
HETATM   10  O10 UNL     1     -35.569  14.030  -5.992  1.00 20.00    -0.390 OA
HETATM   11  C7  UNL     1     -36.186  13.702  -4.738  1.00 20.00     0.176 C 
ENDBRANCH   2   7
TORSDOF 1
ENDMDL
MODEL 6
REMARK VINA RESULT:      -4.2      2.710      4.332
REMARK  1 active torsions:
REMARK  status: ('A' for Active; 'I' for Inactive)
REMARK    1  A    between atoms: C2_2  and  C9_9 
ROOT
HETATM    1  C1  UNL     1     -35.278  15.124  -3.075  1.00 20.00    -0.004 C 
HETATM    2  C2  UNL     1     -34.343  15.973  -2.629  1.00 20.00    -0.076 C 
HETATM    3  C3  UNL     1     -33.102  15.913  -3.463  1.00 20.00     0.036 C 
HETATM    4  C4  UNL     1     -33.304  14.622  -4.262  1.00 20.00     0.028 C 
HETATM    5  C8  UNL     1     -34.813  14.364  -4.273  1.00 20.00     0.105 C 
HETATM    6 CL11 UNL     1     -35.580  15.024  -5.735  1.00 20.00    -0.121 Cl
ENDROOT
BRANCH   2   7
HETATM    7  C9  UNL     1     -34.461  16.920  -1.474  1.00 20.00     0.040 C 
HETATM    8  C5  UNL     1     -33.659  18.190  -1.674  1.00 20.00     0.037 C 
HETATM    9  C6  UNL     1     -34.604  19.070  -2.468  1.00 20.00     0.168 C 
HETATM   10  O10 UNL     1     -35.936  18.683  -2.106  1.00 20.00    -0.390 OA
HETATM   11  C7  UNL     1     -35.874  17.468  -1.342  1.00 20.00     0.176 C 
ENDBRANCH   2   7
TORSDOF 1
ENDMDL
MODEL 7
REMARK VINA RESULT:      -4.2      1.572      1.828
REMARK  1 active torsions:
REMARK  status: ('A' for Active; 'I' for Inactive)
REMARK    1  A    between atoms: C2_2  and  C9_9 
ROOT
HETATM    1  C1  UNL     1     -34.141  15.991  -2.504  1.00 20.00    -0.004 C 
HETATM    2  C2  UNL     1     -34.242  15.907  -3.836  1.00 20.00    -0.076 C 
HETATM    3  C3  UNL     1     -34.262  17.261  -4.474  1.00 20.00     0.036 C 
HETATM    4  C4  UNL     1     -34.530  18.183  -3.281  1.00 20.00     0.028 C 
HETATM    5  C8  UNL     1     -34.078  17.409  -2.040  1.00 20.00     0.105 C 
HETATM    6 CL11 UNL     1     -32.409  17.817  -1.586  1.00 20.00    -0.121 Cl
ENDROOT
BRANCH   2   7
HETATM    7  C9  UNL     1     -34.295  14.657  -4.661  1.00 20.00     0.040 C 
HETATM    8  C5  UNL     1     -35.177  13.588  -4.047  1.00 20.00     0.037 C 
HETATM    9  C6  UNL     1     -36.560  13.956  -4.548  1.00 20.00     0.168 C 
HETATM   10  O10 UNL     1     -36.385  14.614  -5.809  1.00 20.00    -0.390 OA
HETATM   11  C7  UNL     1     -34.988  14.896  -5.994  1.00 20.00     0.176 C 
ENDBRANCH   2   7
TORSDOF 1
ENDMDL
MODEL 8
REMARK VINA RESULT:      -4.2      2.896      4.710
REMARK  1 active torsions:
REMARK  status: ('A' for Active; 'I' for Inactive)
REMARK    1  A    between atoms: C2_2  and  C9_9 
ROOT
HETATM    1  C1  UNL     1     -33.809  16.871  -4.055  1.00 20.00    -0.004 C 
HETATM    2  C2  UNL     1     -34.169  17.170  -2.801  1.00 20.00    -0.076 C 
HETATM    3  C3  UNL     1     -34.795  15.998  -2.112  1.00 20.00     0.036 C 
HETATM    4  C4  UNL     1     -35.091  15.050  -3.278  1.00 20.00     0.028 C 
HETATM    5  C8  UNL     1     -34.137  15.456  -4.403  1.00 20.00     0.105 C 
HETATM    6 CL11 UNL     1     -32.652  14.478  -4.389  1.00 20.00    -0.121 Cl
ENDROOT
BRANCH   2   7
HETATM    7  C9  UNL     1     -33.972  18.476  -2.092  1.00 20.00     0.040 C 
HETATM    8  C5  UNL     1     -33.519  18.301  -0.657  1.00 20.00     0.037 C 
HETATM    9  C6  UNL     1     -32.015  18.165  -0.786  1.00 20.00     0.168 C 
HETATM   10  O10 UNL     1     -31.629  18.900  -1.954  1.00 20.00    -0.390 OA
HETATM   11  C7  UNL     1     -32.812  19.263  -2.684  1.00 20.00     0.176 C 
ENDBRANCH   2   7
TORSDOF 1
ENDMDL
MODEL 9
REMARK VINA RESULT:      -4.2      2.702      4.170
REMARK  1 active torsions:
REMARK  status: ('A' for Active; 'I' for Inactive)
REMARK    1  A    between atoms: C2_2  and  C9_9 
ROOT
HETATM    1  C1  UNL     1     -36.458  15.855  -3.648  1.00 20.00    -0.004 C 
HETATM    2  C2  UNL     1     -35.253  15.478  -3.205  1.00 20.00    -0.076 C 
HETATM    3  C3  UNL     1     -34.787  14.224  -3.874  1.00 20.00     0.036 C 
HETATM    4  C4  UNL     1     -36.070  13.701  -4.525  1.00 20.00     0.028 C 
HETATM    5  C8  UNL     1     -36.989  14.915  -4.680  1.00 20.00     0.105 C 
HETATM    6 CL11 UNL     1     -36.837  15.649  -6.292  1.00 20.00    -0.121 Cl
ENDROOT
BRANCH   2   7
HETATM    7  C9  UNL     1     -34.400  16.187  -2.197  1.00 20.00     0.040 C 
HETATM    8  C5  UNL     1     -33.056  16.605  -2.758  1.00 20.00     0.037 C 
HETATM    9  C6  UNL     1     -33.358  17.939  -3.413  1.00 20.00     0.168 C 
HETATM   10  O10 UNL     1     -34.451  18.520  -2.690  1.00 20.00    -0.390 OA
HETATM   11  C7  UNL     1     -34.998  17.529  -1.804  1.00 20.00     0.176 C 
ENDBRANCH   2   7
TORSDOF 1
ENDMDL
