MODEL 1
REMARK VINA RESULT:      -5.0      0.000      0.000
REMARK  1 active torsions:
REMARK  status: ('A' for Active; 'I' for Inactive)
REMARK    1  A    between atoms: C4_4  and  C6_6 
ROOT
HETATM    1  C5  UNL     1     -32.830  17.238  -2.341  1.00 20.00     0.001 C 
HETATM    2  C6  UNL     1     -33.983  16.552  -2.297  1.00 20.00    -0.048 C 
HETATM    3  C7  UNL     1     -34.853  17.056  -1.179  1.00 20.00     0.041 C 
HETATM    4  C8  UNL     1     -33.873  17.858  -0.320  1.00 20.00     0.028 C 
HETATM    5  C9  UNL     1     -32.760  18.281  -1.275  1.00 20.00     0.106 C 
HETATM    6 CL11 UNL     1     -31.184  18.297  -0.473  1.00 20.00    -0.121 Cl
ENDROOT
BRANCH   2   7
HETATM    7  C4  UNL     1     -34.412  15.481  -3.214  1.00 20.00    -0.006 A 
HETATM    8  C1  UNL     1     -35.712  14.953  -3.398  1.00 20.00     0.038 A 
HETATM    9  C2  UNL     1     -35.594  13.977  -4.361  1.00 20.00     0.142 A 
HETATM   10  O10 UNL     1     -34.306  13.872  -4.780  1.00 20.00    -0.334 OA
HETATM   11  C3  UNL     1     -33.593  14.792  -4.078  1.00 20.00     0.153 A 
ENDBRANCH   2   7
TORSDOF 1
ENDMDL
MODEL 2
REMARK VINA RESULT:      -4.9      1.424      1.951
REMARK  1 active torsions:
REMARK  status: ('A' for Active; 'I' for Inactive)
REMARK    1  A    between atoms: C4_4  and  C6_6 
ROOT
HETATM    1  C5  UNL     1     -34.939  16.609  -1.611  1.00 20.00     0.001 C 
HETATM    2  C6  UNL     1     -34.556  15.944  -2.711  1.00 20.00    -0.048 C 
HETATM    3  C7  UNL     1     -33.133  16.280  -3.061  1.00 20.00     0.041 C 
HETATM    4  C8  UNL     1     -32.872  17.548  -2.246  1.00 20.00     0.028 C 
HETATM    5  C9  UNL     1     -33.848  17.476  -1.074  1.00 20.00     0.106 C 
HETATM    6 CL11 UNL     1     -34.443  19.079  -0.622  1.00 20.00    -0.121 Cl
ENDROOT
BRANCH   2   7
HETATM    7  C4  UNL     1     -35.353  14.973  -3.482  1.00 20.00    -0.006 A 
HETATM    8  C1  UNL     1     -36.684  15.105  -3.947  1.00 20.00     0.038 A 
HETATM    9  C2  UNL     1     -36.973  13.935  -4.610  1.00 20.00     0.142 A 
HETATM   10  O10 UNL     1     -35.907  13.094  -4.583  1.00 20.00    -0.334 OA
HETATM   11  C3  UNL     1     -34.924  13.734  -3.895  1.00 20.00     0.153 A 
ENDBRANCH   2   7
TORSDOF 1
ENDMDL
MODEL 3
REMARK VINA RESULT:      -4.7      3.131      4.884
REMARK  1 active torsions:
REMARK  status: ('A' for Active; 'I' for Inactive)
REMARK    1  A    between atoms: C4_4  and  C6_6 
ROOT
HETATM    1  C5  UNL     1     -33.080  16.005  -3.422  1.00 20.00     0.001 C 
HETATM    2  C6  UNL     1     -33.711  16.558  -2.374  1.00 20.00    -0.048 C 
HETATM    3  C7  UNL     1     -35.036  15.887  -2.143  1.00 20.00     0.041 C 
HETATM    4  C8  UNL     1     -35.272  15.137  -3.456  1.00 20.00     0.028 C 
HETATM    5  C9  UNL     1     -33.880  14.904  -4.037  1.00 20.00     0.106 C 
HETATM    6 CL11 UNL     1     -33.885  15.002  -5.803  1.00 20.00    -0.121 Cl
ENDROOT
BRANCH   2   7
HETATM    7  C4  UNL     1     -33.207  17.638  -1.507  1.00 20.00    -0.006 A 
HETATM    8  C1  UNL     1     -32.002  18.369  -1.628  1.00 20.00     0.038 A 
HETATM    9  C2  UNL     1     -31.990  19.261  -0.580  1.00 20.00     0.142 A 
HETATM   10  O10 UNL     1     -33.109  19.124   0.177  1.00 20.00    -0.334 OA
HETATM   11  C3  UNL     1     -33.846  18.134  -0.394  1.00 20.00     0.153 A 
ENDBRANCH   2   7
TORSDOF 1
ENDMDL
MODEL 4
REMARK VINA RESULT:      -4.7      3.268      4.886
REMARK  1 active torsions:
REMARK  status: ('A' for Active; 'I' for Inactive)
REMARK    1  A    between atoms: C4_4  and  C6_6 
ROOT
HETATM    1  C5  UNL     1     -35.498  15.614  -3.122  1.00 20.00     0.001 C 
HETATM    2  C6  UNL     1     -34.424  16.182  -2.552  1.00 20.00    -0.048 C 
HETATM    3  C7  UNL     1     -33.186  15.891  -3.355  1.00 20.00     0.041 C 
HETATM    4  C8  UNL     1     -33.626  14.730  -4.250  1.00 20.00     0.028 C 
HETATM    5  C9  UNL     1     -35.142  14.869  -4.366  1.00 20.00     0.106 C 
HETATM    6 CL11 UNL     1     -35.937  13.291  -4.439  1.00 20.00    -0.121 Cl
ENDROOT
BRANCH   2   7
HETATM    7  C4  UNL     1     -34.404  17.022  -1.341  1.00 20.00    -0.006 A 
HETATM    8  C1  UNL     1     -35.345  17.060  -0.285  1.00 20.00     0.038 A 
HETATM    9  C2  UNL     1     -34.882  18.002   0.604  1.00 20.00     0.142 A 
HETATM   10  O10 UNL     1     -33.718  18.545   0.162  1.00 20.00    -0.334 OA
HETATM   11  C3  UNL     1     -33.434  17.943  -1.022  1.00 20.00     0.153 A 
ENDBRANCH   2   7
TORSDOF 1
ENDMDL
MODEL 5
REMARK VINA RESULT:      -4.7      3.251      4.994
REMARK  1 active torsions:
REMARK  status: ('A' for Active; 'I' for Inactive)
REMARK    1  A    between atoms: C4_4  and  C6_6 
ROOT
HETATM    1  C5  UNL     1     -35.494  15.598  -3.165  1.00 20.00     0.001 C 
HETATM    2  C6  UNL     1     -34.403  16.148  -2.609  1.00 20.00    -0.048 C 
HETATM    3  C7  UNL     1     -33.178  15.816  -3.414  1.00 20.00     0.041 C 
HETATM    4  C8  UNL     1     -33.649  14.655  -4.291  1.00 20.00     0.028 C 
HETATM    5  C9  UNL     1     -35.163  14.828  -4.401  1.00 20.00     0.106 C 
HETATM    6 CL11 UNL     1     -35.996  13.268  -4.448  1.00 20.00    -0.121 Cl
ENDROOT
BRANCH   2   7
HETATM    7  C4  UNL     1     -34.357  17.004  -1.410  1.00 20.00    -0.006 A 
HETATM    8  C1  UNL     1     -33.347  17.917  -1.023  1.00 20.00     0.038 A 
HETATM    9  C2  UNL     1     -33.766  18.468   0.165  1.00 20.00     0.142 A 
HETATM   10  O10 UNL     1     -34.968  17.952   0.534  1.00 20.00    -0.334 OA
HETATM   11  C3  UNL     1     -35.321  17.062  -0.431  1.00 20.00     0.153 A 
ENDBRANCH   2   7
TORSDOF 1
ENDMDL
MODEL 6
REMARK VINA RESULT:      -4.6      3.102      4.747
REMARK  1 active torsions:
REMARK  status: ('A' for Active; 'I' for Inactive)
REMARK    1  A    between atoms: C4_4  and  C6_6 
ROOT
HETATM    1  C5  UNL     1     -33.205  15.888  -3.425  1.00 20.00     0.001 C 
HETATM    2  C6  UNL     1     -33.834  16.503  -2.411  1.00 20.00    -0.048 C 
HETATM    3  C7  UNL     1     -35.185  15.887  -2.177  1.00 20.00     0.041 C 
HETATM    4  C8  UNL     1     -35.425  15.094  -3.463  1.00 20.00     0.028 C 
HETATM    5  C9  UNL     1     -34.032  14.791  -4.010  1.00 20.00     0.106 C 
HETATM    6 CL11 UNL     1     -34.005  14.817  -5.778  1.00 20.00    -0.121 Cl
ENDROOT
BRANCH   2   7
HETATM    7  C4  UNL     1     -33.307  17.600  -1.578  1.00 20.00    -0.006 A 
HETATM    8  C1  UNL     1     -33.838  18.118  -0.373  1.00 20.00     0.038 A 
HETATM    9  C2  UNL     1     -32.988  19.127   0.015  1.00 20.00     0.142 A 
HETATM   10  O10 UNL     1     -31.969  19.262  -0.873  1.00 20.00    -0.334 OA
HETATM   11  C3  UNL     1     -32.170  18.328  -1.840  1.00 20.00     0.153 A 
ENDBRANCH   2   7
TORSDOF 1
ENDMDL
MODEL 7
REMARK VINA RESULT:      -4.6      3.234      5.003
REMARK  1 active torsions:
REMARK  status: ('A' for Active; 'I' for Inactive)
REMARK    1  A    between atoms: C4_4  and  C6_6 
ROOT
HETATM    1  C5  UNL     1     -35.172  15.871  -2.441  1.00 20.00     0.001 C 
HETATM    2  C6  UNL     1     -34.299  16.695  -1.841  1.00 20.00    -0.048 C 
HETATM    3  C7  UNL     1     -33.059  16.848  -2.677  1.00 20.00     0.041 C 
HETATM    4  C8  UNL     1     -33.160  15.675  -3.655  1.00 20.00     0.028 C 
HETATM    5  C9  UNL     1     -34.651  15.357  -3.743  1.00 20.00     0.106 C 
HETATM    6 CL11 UNL     1     -34.938  13.622  -3.929  1.00 20.00    -0.121 Cl
ENDROOT
BRANCH   2   7
HETATM    7  C4  UNL     1     -34.491  17.414  -0.569  1.00 20.00    -0.006 A 
HETATM    8  C1  UNL     1     -33.644  18.375   0.031  1.00 20.00     0.038 A 
HETATM    9  C2  UNL     1     -34.260  18.747   1.203  1.00 20.00     0.142 A 
HETATM   10  O10 UNL     1     -35.431  18.077   1.362  1.00 20.00    -0.334 OA
HETATM   11  C3  UNL     1     -35.565  17.268   0.279  1.00 20.00     0.153 A 
ENDBRANCH   2   7
TORSDOF 1
ENDMDL
MODEL 8
REMARK VINA RESULT:      -4.5      1.782      2.387
REMARK  1 active torsions:
REMARK  status: ('A' for Active; 'I' for Inactive)
REMARK    1  A    between atoms: C4_4  and  C6_6 
ROOT
HETATM    1  C5  UNL     1     -35.289  16.288  -2.152  1.00 20.00     0.001 C 
HETATM    2  C6  UNL     1     -34.598  15.915  -3.240  1.00 20.00    -0.048 C 
HETATM    3  C7  UNL     1     -33.156  16.322  -3.113  1.00 20.00     0.041 C 
HETATM    4  C8  UNL     1     -33.189  17.346  -1.978  1.00 20.00     0.028 C 
HETATM    5  C9  UNL     1     -34.426  16.990  -1.156  1.00 20.00     0.106 C 
HETATM    6 CL11 UNL     1     -35.213  18.433  -0.504  1.00 20.00    -0.121 Cl
ENDROOT
BRANCH   2   7
HETATM    7  C4  UNL     1     -35.112  15.169  -4.403  1.00 20.00    -0.006 A 
HETATM    8  C1  UNL     1     -35.036  15.519  -5.772  1.00 20.00     0.038 A 
HETATM    9  C2  UNL     1     -35.659  14.503  -6.460  1.00 20.00     0.142 A 
HETATM   10  O10 UNL     1     -36.113  13.553  -5.602  1.00 20.00    -0.334 OA
HETATM   11  C3  UNL     1     -35.775  13.965  -4.352  1.00 20.00     0.153 A 
ENDBRANCH   2   7
TORSDOF 1
ENDMDL
MODEL 9
REMARK VINA RESULT:      -4.4      1.260      1.479
REMARK  1 active torsions:
REMARK  status: ('A' for Active; 'I' for Inactive)
REMARK    1  A    between atoms: C4_4  and  C6_6 
ROOT
HETATM    1  C5  UNL     1     -33.370  17.935  -0.996  1.00 20.00     0.001 C 
HETATM    2  C6  UNL     1     -34.265  17.015  -1.389  1.00 20.00    -0.048 C 
HETATM    3  C7  UNL     1     -35.477  17.045  -0.500  1.00 20.00     0.041 C 
HETATM    4  C8  UNL     1     -34.987  17.832   0.717  1.00 20.00     0.028 C 
HETATM    5  C9  UNL     1     -33.843  18.699   0.196  1.00 20.00     0.106 C 
HETATM    6 CL11 UNL     1     -32.566  18.889   1.405  1.00 20.00    -0.121 Cl
ENDROOT
BRANCH   2   7
HETATM    7  C4  UNL     1     -34.154  16.110  -2.547  1.00 20.00    -0.006 A 
HETATM    8  C1  UNL     1     -35.116  15.198  -3.043  1.00 20.00     0.038 A 
HETATM    9  C2  UNL     1     -34.539  14.590  -4.134  1.00 20.00     0.142 A 
HETATM   10  O10 UNL     1     -33.285  15.070  -4.341  1.00 20.00    -0.334 OA
HETATM   11  C3  UNL     1     -33.058  15.995  -3.371  1.00 20.00     0.153 A 
ENDBRANCH   2   7
TORSDOF 1
ENDMDL
