MODEL 1
REMARK VINA RESULT:      -5.8      0.000      0.000
REMARK  2 active torsions:
REMARK  status: ('A' for Active; 'I' for Inactive)
REMARK    1  A    between atoms: C4_4  and  C9_9 
REMARK    2  A    between atoms: C8_8  and  O10_10 
ROOT
HETATM    1  C1  UNL     1     -32.917   8.513   0.317  1.00 20.00     0.012 C 
HETATM    2  C2  UNL     1     -32.537   8.103   1.379  1.00 20.00    -0.113 C 
HETATM    3  C9  UNL     1     -32.057   7.617   2.671  1.00 20.00     0.127 C 
ENDROOT
BRANCH   3   4
HETATM    4  C4  UNL     1     -32.998   6.574   3.198  1.00 20.00    -0.070 C 
HETATM    5  C3  UNL     1     -33.817   6.815   4.237  1.00 20.00     0.008 C 
HETATM    6  C8  UNL     1     -34.750   5.790   4.813  1.00 20.00     0.141 C 
HETATM    7  C7  UNL     1     -34.439   4.366   4.344  1.00 20.00     0.036 C 
HETATM    8  C6  UNL     1     -34.155   4.334   2.848  1.00 20.00     0.007 C 
HETATM    9  C5  UNL     1     -32.971   5.238   2.495  1.00 20.00     0.035 C 
BRANCH   6  10
HETATM   10  O10 UNL     1     -34.659   5.839   6.235  1.00 20.00    -0.392 OA
HETATM   11  H22 UNL     1     -35.003   4.994   6.563  1.00 20.00     0.210 HD
ENDBRANCH   6  10
ENDBRANCH   3   4
TORSDOF 2
ENDMDL
MODEL 2
REMARK VINA RESULT:      -5.4      1.246      2.043
REMARK  2 active torsions:
REMARK  status: ('A' for Active; 'I' for Inactive)
REMARK    1  A    between atoms: C4_4  and  C9_9 
REMARK    2  A    between atoms: C8_8  and  O10_10 
ROOT
HETATM    1  C1  UNL     1     -33.156   9.074   0.861  1.00 20.00     0.012 C 
HETATM    2  C2  UNL     1     -32.763   8.052   1.354  1.00 20.00    -0.113 C 
HETATM    3  C9  UNL     1     -32.270   6.807   1.937  1.00 20.00     0.127 C 
ENDROOT
BRANCH   3   4
HETATM    4  C4  UNL     1     -33.018   6.514   3.204  1.00 20.00    -0.070 C 
HETATM    5  C3  UNL     1     -33.813   5.436   3.328  1.00 20.00     0.008 C 
HETATM    6  C8  UNL     1     -34.601   5.125   4.567  1.00 20.00     0.141 C 
HETATM    7  C7  UNL     1     -34.690   6.308   5.534  1.00 20.00     0.036 C 
HETATM    8  C6  UNL     1     -33.339   6.994   5.683  1.00 20.00     0.007 C 
HETATM    9  C5  UNL     1     -32.828   7.500   4.332  1.00 20.00     0.035 C 
BRANCH   6  10
HETATM   10  O10 UNL     1     -35.919   4.739   4.184  1.00 20.00    -0.392 OA
HETATM   11  H22 UNL     1     -36.320   4.320   4.960  1.00 20.00     0.210 HD
ENDBRANCH   6  10
ENDBRANCH   3   4
TORSDOF 2
ENDMDL
MODEL 3
REMARK VINA RESULT:      -4.8     11.042     12.121
REMARK  2 active torsions:
REMARK  status: ('A' for Active; 'I' for Inactive)
REMARK    1  A    between atoms: C4_4  and  C9_9 
REMARK    2  A    between atoms: C8_8  and  O10_10 
ROOT
HETATM    1  C1  UNL     1     -34.506  17.409  -0.957  1.00 20.00     0.012 C 
HETATM    2  C2  UNL     1     -33.954  16.901  -1.895  1.00 20.00    -0.113 C 
HETATM    3  C9  UNL     1     -33.265  16.289  -3.028  1.00 20.00     0.127 C 
ENDROOT
BRANCH   3   4
HETATM    4  C4  UNL     1     -34.270  15.678  -3.960  1.00 20.00    -0.070 C 
HETATM    5  C3  UNL     1     -34.984  14.591  -3.621  1.00 20.00     0.008 C 
HETATM    6  C8  UNL     1     -35.976  13.932  -4.536  1.00 20.00     0.141 C 
HETATM    7  C7  UNL     1     -35.848  14.393  -5.990  1.00 20.00     0.036 C 
HETATM    8  C6  UNL     1     -35.674  15.903  -6.071  1.00 20.00     0.007 C 
HETATM    9  C5  UNL     1     -34.430  16.354  -5.300  1.00 20.00     0.035 C 
BRANCH   6  10
HETATM   10  O10 UNL     1     -35.782  12.521  -4.478  1.00 20.00    -0.392 OA
HETATM   11  H22 UNL     1     -34.906  12.347  -4.855  1.00 20.00     0.210 HD
ENDBRANCH   6  10
ENDBRANCH   3   4
TORSDOF 2
ENDMDL
MODEL 4
REMARK VINA RESULT:      -4.7     15.276     16.549
REMARK  2 active torsions:
REMARK  status: ('A' for Active; 'I' for Inactive)
REMARK    1  A    between atoms: C4_4  and  C9_9 
REMARK    2  A    between atoms: C8_8  and  O10_10 
ROOT
HETATM    1  C1  UNL     1     -26.067  18.837   6.892  1.00 20.00     0.012 C 
HETATM    2  C2  UNL     1     -25.123  18.962   7.624  1.00 20.00    -0.113 C 
HETATM    3  C9  UNL     1     -23.964  19.122   8.498  1.00 20.00     0.127 C 
ENDROOT
BRANCH   3   4
HETATM    4  C4  UNL     1     -24.306  18.650   9.881  1.00 20.00    -0.070 C 
HETATM    5  C3  UNL     1     -23.449  17.919  10.615  1.00 20.00     0.008 C 
HETATM    6  C8  UNL     1     -23.766  17.402  11.989  1.00 20.00     0.141 C 
HETATM    7  C7  UNL     1     -25.255  17.485  12.332  1.00 20.00     0.036 C 
HETATM    8  C6  UNL     1     -25.840  18.824  11.904  1.00 20.00     0.007 C 
HETATM    9  C5  UNL     1     -25.669  19.043  10.399  1.00 20.00     0.035 C 
BRANCH   6  10
HETATM   10  O10 UNL     1     -23.346  16.043  12.072  1.00 20.00    -0.392 OA
HETATM   11  H22 UNL     1     -22.606  15.944  11.453  1.00 20.00     0.210 HD
ENDBRANCH   6  10
ENDBRANCH   3   4
TORSDOF 2
ENDMDL
MODEL 5
REMARK VINA RESULT:      -4.6     11.416     12.069
REMARK  2 active torsions:
REMARK  status: ('A' for Active; 'I' for Inactive)
REMARK    1  A    between atoms: C4_4  and  C9_9 
REMARK    2  A    between atoms: C8_8  and  O10_10 
ROOT
HETATM    1  C1  UNL     1     -34.390  17.939   0.092  1.00 20.00     0.012 C 
HETATM    2  C2  UNL     1     -33.768  17.717  -0.911  1.00 20.00    -0.113 C 
HETATM    3  C9  UNL     1     -32.997  17.461  -2.125  1.00 20.00     0.127 C 
ENDROOT
BRANCH   3   4
HETATM    4  C4  UNL     1     -33.634  16.347  -2.902  1.00 20.00    -0.070 C 
HETATM    5  C3  UNL     1     -32.917  15.530  -3.692  1.00 20.00     0.008 C 
HETATM    6  C8  UNL     1     -33.520  14.424  -4.508  1.00 20.00     0.141 C 
HETATM    7  C7  UNL     1     -35.043  14.531  -4.629  1.00 20.00     0.036 C 
HETATM    8  C6  UNL     1     -35.674  14.874  -3.286  1.00 20.00     0.007 C 
HETATM    9  C5  UNL     1     -35.129  16.199  -2.746  1.00 20.00     0.035 C 
BRANCH   6  10
HETATM   10  O10 UNL     1     -32.949  14.456  -5.813  1.00 20.00    -0.392 OA
HETATM   11  H22 UNL     1     -32.015  14.214  -5.712  1.00 20.00     0.210 HD
ENDBRANCH   6  10
ENDBRANCH   3   4
TORSDOF 2
ENDMDL
MODEL 6
REMARK VINA RESULT:      -4.6     16.120     16.796
REMARK  2 active torsions:
REMARK  status: ('A' for Active; 'I' for Inactive)
REMARK    1  A    between atoms: C4_4  and  C9_9 
REMARK    2  A    between atoms: C8_8  and  O10_10 
ROOT
HETATM    1  C1  UNL     1     -27.610  18.452  11.948  1.00 20.00     0.012 C 
HETATM    2  C2  UNL     1     -26.414  18.366  12.000  1.00 20.00    -0.113 C 
HETATM    3  C9  UNL     1     -24.959  18.263  12.085  1.00 20.00     0.127 C 
ENDROOT
BRANCH   3   4
HETATM    4  C4  UNL     1     -24.388  18.057  10.714  1.00 20.00    -0.070 C 
HETATM    5  C3  UNL     1     -23.569  17.028  10.432  1.00 20.00     0.008 C 
HETATM    6  C8  UNL     1     -22.952  16.805   9.082  1.00 20.00     0.141 C 
HETATM    7  C7  UNL     1     -23.058  18.026   8.165  1.00 20.00     0.036 C 
HETATM    8  C6  UNL     1     -24.448  18.644   8.238  1.00 20.00     0.007 C 
HETATM    9  C5  UNL     1     -24.783  19.072   9.669  1.00 20.00     0.035 C 
BRANCH   6  10
HETATM   10  O10 UNL     1     -21.576  16.476   9.258  1.00 20.00    -0.392 OA
HETATM   11  H22 UNL     1     -21.519  15.956  10.075  1.00 20.00     0.210 HD
ENDBRANCH   6  10
ENDBRANCH   3   4
TORSDOF 2
ENDMDL
MODEL 7
REMARK VINA RESULT:      -4.6     11.240     11.917
REMARK  2 active torsions:
REMARK  status: ('A' for Active; 'I' for Inactive)
REMARK    1  A    between atoms: C4_4  and  C9_9 
REMARK    2  A    between atoms: C8_8  and  O10_10 
ROOT
HETATM    1  C1  UNL     1     -36.228  13.756  -4.540  1.00 20.00     0.012 C 
HETATM    2  C2  UNL     1     -35.163  14.236  -4.263  1.00 20.00    -0.113 C 
HETATM    3  C9  UNL     1     -33.858  14.806  -3.940  1.00 20.00     0.127 C 
ENDROOT
BRANCH   3   4
HETATM    4  C4  UNL     1     -34.016  15.864  -2.888  1.00 20.00    -0.070 C 
HETATM    5  C3  UNL     1     -35.075  15.891  -2.060  1.00 20.00     0.008 C 
HETATM    6  C8  UNL     1     -35.285  16.949  -1.016  1.00 20.00     0.141 C 
HETATM    7  C7  UNL     1     -34.381  18.169  -1.209  1.00 20.00     0.036 C 
HETATM    8  C6  UNL     1     -32.956  17.746  -1.541  1.00 20.00     0.007 C 
HETATM    9  C5  UNL     1     -32.919  16.899  -2.816  1.00 20.00     0.035 C 
BRANCH   6  10
HETATM   10  O10 UNL     1     -36.647  17.369  -1.062  1.00 20.00    -0.392 OA
HETATM   11  H22 UNL     1     -37.139  16.663  -1.507  1.00 20.00     0.210 HD
ENDBRANCH   6  10
ENDBRANCH   3   4
TORSDOF 2
ENDMDL
MODEL 8
REMARK VINA RESULT:      -4.5     11.404     11.893
REMARK  2 active torsions:
REMARK  status: ('A' for Active; 'I' for Inactive)
REMARK    1  A    between atoms: C4_4  and  C9_9 
REMARK    2  A    between atoms: C8_8  and  O10_10 
ROOT
HETATM    1  C1  UNL     1     -32.811  17.737  -2.116  1.00 20.00     0.012 C 
HETATM    2  C2  UNL     1     -33.770  17.030  -1.957  1.00 20.00    -0.113 C 
HETATM    3  C9  UNL     1     -34.935  16.177  -1.743  1.00 20.00     0.127 C 
ENDROOT
BRANCH   3   4
HETATM    4  C4  UNL     1     -35.330  15.529  -3.037  1.00 20.00    -0.070 C 
HETATM    5  C3  UNL     1     -36.615  15.429  -3.419  1.00 20.00     0.008 C 
HETATM    6  C8  UNL     1     -37.053  14.761  -4.691  1.00 20.00     0.141 C 
HETATM    7  C7  UNL     1     -35.953  13.913  -5.332  1.00 20.00     0.036 C 
HETATM    8  C6  UNL     1     -34.618  14.647  -5.316  1.00 20.00     0.007 C 
HETATM    9  C5  UNL     1     -34.201  14.995  -3.885  1.00 20.00     0.035 C 
BRANCH   6  10
HETATM   10  O10 UNL     1     -38.174  13.928  -4.406  1.00 20.00    -0.392 OA
HETATM   11  H22 UNL     1     -38.640  13.795  -5.245  1.00 20.00     0.210 HD
ENDBRANCH   6  10
ENDBRANCH   3   4
TORSDOF 2
ENDMDL
MODEL 9
REMARK VINA RESULT:      -4.5     11.416     12.225
REMARK  2 active torsions:
REMARK  status: ('A' for Active; 'I' for Inactive)
REMARK    1  A    between atoms: C4_4  and  C9_9 
REMARK    2  A    between atoms: C8_8  and  O10_10 
ROOT
HETATM    1  C1  UNL     1     -36.123  13.836  -4.460  1.00 20.00     0.012 C 
HETATM    2  C2  UNL     1     -35.036  14.286  -4.217  1.00 20.00    -0.113 C 
HETATM    3  C9  UNL     1     -33.706  14.819  -3.935  1.00 20.00     0.127 C 
ENDROOT
BRANCH   3   4
HETATM    4  C4  UNL     1     -33.819  15.991  -3.006  1.00 20.00    -0.070 C 
HETATM    5  C3  UNL     1     -32.948  17.015  -3.043  1.00 20.00     0.008 C 
HETATM    6  C8  UNL     1     -33.009  18.190  -2.111  1.00 20.00     0.141 C 
HETATM    7  C7  UNL     1     -33.926  17.954  -0.908  1.00 20.00     0.036 C 
HETATM    8  C6  UNL     1     -35.230  17.296  -1.337  1.00 20.00     0.007 C 
HETATM    9  C5  UNL     1     -34.967  15.954  -2.026  1.00 20.00     0.035 C 
BRANCH   6  10
HETATM   10  O10 UNL     1     -31.692  18.469  -1.642  1.00 20.00    -0.392 OA
HETATM   11  H22 UNL     1     -31.786  19.104  -0.916  1.00 20.00     0.210 HD
ENDBRANCH   6  10
ENDBRANCH   3   4
TORSDOF 2
ENDMDL
