MODEL 1
REMARK VINA RESULT:      -5.8      0.000      0.000
REMARK  1 active torsions:
REMARK  status: ('A' for Active; 'I' for Inactive)
REMARK    1  A    between atoms: C4_4  and  C8_8 
ROOT
HETATM    1  C1  UNL     1     -32.915   8.478   0.446  1.00 20.00     0.012 C 
HETATM    2  C2  UNL     1     -32.522   7.962   1.456  1.00 20.00    -0.113 C 
HETATM    3  C8  UNL     1     -32.035   7.332   2.688  1.00 20.00     0.126 C 
ENDROOT
BRANCH   3   4
HETATM    4  C4  UNL     1     -33.087   6.460   3.269  1.00 20.00    -0.071 C 
HETATM    5  C3  UNL     1     -33.996   6.797   4.194  1.00 20.00    -0.003 C 
HETATM    6  C7  UNL     1     -34.868   5.643   4.561  1.00 20.00     0.105 C 
HETATM    7  C6  UNL     1     -34.583   4.642   3.438  1.00 20.00     0.028 C 
HETATM    8 CL9  UNL     1     -34.384   5.007   6.148  1.00 20.00    -0.121 Cl
HETATM    9  C5  UNL     1     -33.212   5.022   2.875  1.00 20.00     0.036 C 
ENDBRANCH   3   4
TORSDOF 1
ENDMDL
MODEL 2
REMARK VINA RESULT:      -4.7      2.440      4.216
REMARK  1 active torsions:
REMARK  status: ('A' for Active; 'I' for Inactive)
REMARK    1  A    between atoms: C4_4  and  C8_8 
ROOT
HETATM    1  C1  UNL     1     -35.040   4.866   6.329  1.00 20.00     0.012 C 
HETATM    2  C2  UNL     1     -34.415   5.831   5.983  1.00 20.00    -0.113 C 
HETATM    3  C8  UNL     1     -33.654   7.013   5.564  1.00 20.00     0.126 C 
ENDROOT
BRANCH   3   4
HETATM    4  C4  UNL     1     -33.218   6.869   4.153  1.00 20.00    -0.071 C 
HETATM    5  C3  UNL     1     -32.268   7.575   3.525  1.00 20.00    -0.003 C 
HETATM    6  C7  UNL     1     -32.133   7.174   2.094  1.00 20.00     0.105 C 
HETATM    7  C6  UNL     1     -32.903   5.851   2.046  1.00 20.00     0.028 C 
HETATM    8 CL9  UNL     1     -32.880   8.406   1.053  1.00 20.00    -0.121 Cl
HETATM    9  C5  UNL     1     -33.868   5.884   3.232  1.00 20.00     0.036 C 
ENDBRANCH   3   4
TORSDOF 1
ENDMDL
MODEL 3
REMARK VINA RESULT:      -4.3     11.158     11.923
REMARK  1 active torsions:
REMARK  status: ('A' for Active; 'I' for Inactive)
REMARK    1  A    between atoms: C4_4  and  C8_8 
ROOT
HETATM    1  C1  UNL     1     -35.289  17.350  -0.071  1.00 20.00     0.012 C 
HETATM    2  C2  UNL     1     -34.482  17.299  -0.959  1.00 20.00    -0.113 C 
HETATM    3  C8  UNL     1     -33.494  17.243  -2.041  1.00 20.00     0.126 C 
ENDROOT
BRANCH   3   4
HETATM    4  C4  UNL     1     -33.779  16.094  -2.936  1.00 20.00    -0.071 C 
HETATM    5  C3  UNL     1     -32.923  15.490  -3.773  1.00 20.00    -0.003 C 
HETATM    6  C7  UNL     1     -33.580  14.391  -4.540  1.00 20.00     0.105 C 
HETATM    7  C6  UNL     1     -34.884  14.180  -3.766  1.00 20.00     0.028 C 
HETATM    8 CL9  UNL     1     -33.886  14.924  -6.208  1.00 20.00    -0.121 Cl
HETATM    9  C5  UNL     1     -35.145  15.488  -3.017  1.00 20.00     0.036 C 
ENDBRANCH   3   4
TORSDOF 1
ENDMDL
MODEL 4
REMARK VINA RESULT:      -4.3     11.247     12.010
REMARK  1 active torsions:
REMARK  status: ('A' for Active; 'I' for Inactive)
REMARK    1  A    between atoms: C4_4  and  C8_8 
ROOT
HETATM    1  C1  UNL     1     -37.302  14.399  -4.403  1.00 20.00     0.012 C 
HETATM    2  C2  UNL     1     -36.137  14.365  -4.115  1.00 20.00    -0.113 C 
HETATM    3  C8  UNL     1     -34.714  14.318  -3.764  1.00 20.00     0.126 C 
ENDROOT
BRANCH   3   4
HETATM    4  C4  UNL     1     -34.332  15.534  -3.004  1.00 20.00    -0.071 C 
HETATM    5  C3  UNL     1     -34.985  16.078  -1.968  1.00 20.00    -0.003 C 
HETATM    6  C7  UNL     1     -34.318  17.322  -1.483  1.00 20.00     0.105 C 
HETATM    7  C6  UNL     1     -32.944  17.245  -2.155  1.00 20.00     0.028 C 
HETATM    8 CL9  UNL     1     -35.236  18.744  -2.025  1.00 20.00    -0.121 Cl
HETATM    9  C5  UNL     1     -33.122  16.335  -3.372  1.00 20.00     0.036 C 
ENDBRANCH   3   4
TORSDOF 1
ENDMDL
MODEL 5
REMARK VINA RESULT:      -4.2     11.287     12.055
REMARK  1 active torsions:
REMARK  status: ('A' for Active; 'I' for Inactive)
REMARK    1  A    between atoms: C4_4  and  C8_8 
ROOT
HETATM    1  C1  UNL     1     -36.394  13.906  -4.423  1.00 20.00     0.012 C 
HETATM    2  C2  UNL     1     -35.264  14.245  -4.197  1.00 20.00    -0.113 C 
HETATM    3  C8  UNL     1     -33.883  14.653  -3.922  1.00 20.00     0.126 C 
ENDROOT
BRANCH   3   4
HETATM    4  C4  UNL     1     -33.866  15.905  -3.126  1.00 20.00    -0.071 C 
HETATM    5  C3  UNL     1     -33.065  16.965  -3.304  1.00 20.00    -0.003 C 
HETATM    6  C7  UNL     1     -33.314  18.026  -2.284  1.00 20.00     0.105 C 
HETATM    7  C6  UNL     1     -34.653  17.595  -1.677  1.00 20.00     0.028 C 
HETATM    8 CL9  UNL     1     -32.011  18.012  -1.075  1.00 20.00    -0.121 Cl
HETATM    9  C5  UNL     1     -34.776  16.095  -1.952  1.00 20.00     0.036 C 
ENDBRANCH   3   4
TORSDOF 1
ENDMDL
MODEL 6
REMARK VINA RESULT:      -4.2      9.066      9.898
REMARK  1 active torsions:
REMARK  status: ('A' for Active; 'I' for Inactive)
REMARK    1  A    between atoms: C4_4  and  C8_8 
ROOT
HETATM    1  C1  UNL     1     -42.702   3.651  -2.588  1.00 20.00     0.012 C 
HETATM    2  C2  UNL     1     -41.914   4.294  -1.949  1.00 20.00    -0.113 C 
HETATM    3  C8  UNL     1     -40.949   5.075  -1.168  1.00 20.00     0.126 C 
ENDROOT
BRANCH   3   4
HETATM    4  C4  UNL     1     -41.594   6.299  -0.630  1.00 20.00    -0.071 C 
HETATM    5  C3  UNL     1     -41.667   7.499  -1.221  1.00 20.00    -0.003 C 
HETATM    6  C7  UNL     1     -42.362   8.500  -0.359  1.00 20.00     0.105 C 
HETATM    7  C6  UNL     1     -43.027   7.620   0.702  1.00 20.00     0.028 C 
HETATM    8 CL9  UNL     1     -41.168   9.604   0.359  1.00 20.00    -0.121 Cl
HETATM    9  C5  UNL     1     -42.230   6.314   0.725  1.00 20.00     0.036 C 
ENDBRANCH   3   4
TORSDOF 1
ENDMDL
MODEL 7
REMARK VINA RESULT:      -4.2     11.433     12.364
REMARK  1 active torsions:
REMARK  status: ('A' for Active; 'I' for Inactive)
REMARK    1  A    between atoms: C4_4  and  C8_8 
ROOT
HETATM    1  C1  UNL     1     -33.327  14.719  -4.303  1.00 20.00     0.012 C 
HETATM    2  C2  UNL     1     -33.965  15.241  -3.430  1.00 20.00    -0.113 C 
HETATM    3  C8  UNL     1     -34.751  15.875  -2.367  1.00 20.00     0.126 C 
ENDROOT
BRANCH   3   4
HETATM    4  C4  UNL     1     -34.002  17.018  -1.788  1.00 20.00    -0.071 C 
HETATM    5  C3  UNL     1     -32.863  17.554  -2.248  1.00 20.00    -0.003 C 
HETATM    6  C7  UNL     1     -32.385  18.671  -1.380  1.00 20.00     0.105 C 
HETATM    7  C6  UNL     1     -33.615  18.972  -0.519  1.00 20.00     0.028 C 
HETATM    8 CL9  UNL     1     -31.013  18.118  -0.394  1.00 20.00    -0.121 Cl
HETATM    9  C5  UNL     1     -34.461  17.697  -0.535  1.00 20.00     0.036 C 
ENDBRANCH   3   4
TORSDOF 1
ENDMDL
MODEL 8
REMARK VINA RESULT:      -4.2     11.400     12.075
REMARK  1 active torsions:
REMARK  status: ('A' for Active; 'I' for Inactive)
REMARK    1  A    between atoms: C4_4  and  C8_8 
ROOT
HETATM    1  C1  UNL     1     -34.233  15.202  -6.759  1.00 20.00     0.012 C 
HETATM    2  C2  UNL     1     -33.827  14.919  -5.665  1.00 20.00    -0.113 C 
HETATM    3  C8  UNL     1     -33.331  14.568  -4.330  1.00 20.00     0.126 C 
ENDROOT
BRANCH   3   4
HETATM    4  C4  UNL     1     -33.837  15.535  -3.324  1.00 20.00    -0.071 C 
HETATM    5  C3  UNL     1     -34.990  15.466  -2.645  1.00 20.00    -0.003 C 
HETATM    6  C7  UNL     1     -35.175  16.642  -1.745  1.00 20.00     0.105 C 
HETATM    7  C6  UNL     1     -33.773  17.256  -1.709  1.00 20.00     0.028 C 
HETATM    8 CL9  UNL     1     -36.364  17.757  -2.453  1.00 20.00    -0.121 Cl
HETATM    9  C5  UNL     1     -33.071  16.774  -2.980  1.00 20.00     0.036 C 
ENDBRANCH   3   4
TORSDOF 1
ENDMDL
MODEL 9
REMARK VINA RESULT:      -4.1     16.417     16.932
REMARK  1 active torsions:
REMARK  status: ('A' for Active; 'I' for Inactive)
REMARK    1  A    between atoms: C4_4  and  C8_8 
ROOT
HETATM    1  C1  UNL     1     -21.320  17.023   7.364  1.00 20.00     0.012 C 
HETATM    2  C2  UNL     1     -21.321  17.549   8.443  1.00 20.00    -0.113 C 
HETATM    3  C8  UNL     1     -21.315  18.192   9.762  1.00 20.00     0.126 C 
ENDROOT
BRANCH   3   4
HETATM    4  C4  UNL     1     -22.609  17.959  10.451  1.00 20.00    -0.071 C 
HETATM    5  C3  UNL     1     -22.790  17.454  11.679  1.00 20.00    -0.003 C 
HETATM    6  C7  UNL     1     -24.238  17.333  12.021  1.00 20.00     0.105 C 
HETATM    7  C6  UNL     1     -24.906  18.191  10.944  1.00 20.00     0.028 C 
HETATM    8 CL9  UNL     1     -24.739  15.631  11.909  1.00 20.00    -0.121 Cl
HETATM    9  C5  UNL     1     -23.914  18.253   9.780  1.00 20.00     0.036 C 
ENDBRANCH   3   4
TORSDOF 1
ENDMDL
