MODEL 1
REMARK VINA RESULT:      -4.8      0.000      0.000
REMARK  0 active torsions:
REMARK  status: ('A' for Active; 'I' for Inactive)
ROOT
HETATM    1  C1  UNL     1     -36.093  14.156  -4.105  1.00 20.00     0.067 C 
HETATM    2  C2  UNL     1     -34.785  14.565  -3.583  1.00 20.00     0.127 C 
HETATM    3  C3  UNL     1     -34.750  16.004  -3.089  1.00 20.00     0.030 C 
HETATM    4  C4  UNL     1     -33.652  14.552  -4.613  1.00 20.00     0.136 C 
HETATM    5  C5  UNL     1     -33.246  16.264  -3.061  1.00 20.00     0.123 C 
HETATM    6  C6  UNL     1     -35.421  16.214  -1.737  1.00 20.00     0.014 C 
HETATM    7  C7  UNL     1     -34.037  14.927  -6.042  1.00 20.00     0.041 C 
HETATM    8  C8  UNL     1     -32.875  17.731  -3.197  1.00 20.00     0.040 C 
HETATM    9  N9  UNL     1     -37.128  13.833  -4.518  1.00 20.00    -0.197 NA
HETATM   10  O10 UNL     1     -32.692  15.532  -4.167  1.00 20.00    -0.380 OA
ENDROOT
TORSDOF 0
ENDMDL
MODEL 2
REMARK VINA RESULT:      -4.4     16.863     18.068
REMARK  0 active torsions:
REMARK  status: ('A' for Active; 'I' for Inactive)
ROOT
HETATM    1  C1  UNL     1     -22.593  17.902   9.003  1.00 20.00     0.067 C 
HETATM    2  C2  UNL     1     -23.844  17.560   9.687  1.00 20.00     0.127 C 
HETATM    3  C3  UNL     1     -24.741  18.761   9.949  1.00 20.00     0.030 C 
HETATM    4  C4  UNL     1     -23.666  16.979  11.093  1.00 20.00     0.136 C 
HETATM    5  C5  UNL     1     -25.669  18.200  11.024  1.00 20.00     0.123 C 
HETATM    6  C6  UNL     1     -25.484  19.263   8.718  1.00 20.00     0.014 C 
HETATM    7  C7  UNL     1     -22.495  17.528  11.905  1.00 20.00     0.041 C 
HETATM    8  C8  UNL     1     -26.277  19.262  11.924  1.00 20.00     0.040 C 
HETATM    9  N9  UNL     1     -21.603  18.172   8.461  1.00 20.00    -0.197 NA
HETATM   10  O10 UNL     1     -24.869  17.308  11.818  1.00 20.00    -0.380 OA
ENDROOT
TORSDOF 0
ENDMDL
MODEL 3
REMARK VINA RESULT:      -4.1     15.807     17.067
REMARK  0 active torsions:
REMARK  status: ('A' for Active; 'I' for Inactive)
ROOT
HETATM    1  C1  UNL     1     -24.152  19.069   7.474  1.00 20.00     0.067 C 
HETATM    2  C2  UNL     1     -24.037  18.884   8.924  1.00 20.00     0.127 C 
HETATM    3  C3  UNL     1     -23.824  17.434   9.337  1.00 20.00     0.030 C 
HETATM    4  C4  UNL     1     -25.289  19.263   9.719  1.00 20.00     0.136 C 
HETATM    5  C5  UNL     1     -24.204  17.495  10.815  1.00 20.00     0.123 C 
HETATM    6  C6  UNL     1     -22.410  16.921   9.101  1.00 20.00     0.014 C 
HETATM    7  C7  UNL     1     -26.628  18.996   9.035  1.00 20.00     0.041 C 
HETATM    8  C8  UNL     1     -24.678  16.168  11.382  1.00 20.00     0.040 C 
HETATM    9  N9  UNL     1     -24.242  19.215   6.327  1.00 20.00    -0.197 NA
HETATM   10  O10 UNL     1     -25.264  18.460  10.917  1.00 20.00    -0.380 OA
ENDROOT
TORSDOF 0
ENDMDL
MODEL 4
REMARK VINA RESULT:      -4.1      1.652      2.577
REMARK  0 active torsions:
REMARK  status: ('A' for Active; 'I' for Inactive)
ROOT
HETATM    1  C1  UNL     1     -36.757  14.668  -4.528  1.00 20.00     0.067 C 
HETATM    2  C2  UNL     1     -35.702  15.680  -4.641  1.00 20.00     0.127 C 
HETATM    3  C3  UNL     1     -34.519  15.429  -3.716  1.00 20.00     0.030 C 
HETATM    4  C4  UNL     1     -36.126  17.096  -4.241  1.00 20.00     0.136 C 
HETATM    5  C5  UNL     1     -33.859  16.806  -3.709  1.00 20.00     0.123 C 
HETATM    6  C6  UNL     1     -33.586  14.319  -4.185  1.00 20.00     0.014 C 
HETATM    7  C7  UNL     1     -37.143  17.199  -3.106  1.00 20.00     0.041 C 
HETATM    8  C8  UNL     1     -33.034  17.084  -2.465  1.00 20.00     0.040 C 
HETATM    9  N9  UNL     1     -37.592  13.868  -4.440  1.00 20.00    -0.197 NA
HETATM   10  O10 UNL     1     -34.929  17.763  -3.792  1.00 20.00    -0.380 OA
ENDROOT
TORSDOF 0
ENDMDL
MODEL 5
REMARK VINA RESULT:      -4.1      2.306      3.199
REMARK  0 active torsions:
REMARK  status: ('A' for Active; 'I' for Inactive)
ROOT
HETATM    1  C1  UNL     1     -35.913  13.819  -4.417  1.00 20.00     0.067 C 
HETATM    2  C2  UNL     1     -36.014  15.281  -4.349  1.00 20.00     0.127 C 
HETATM    3  C3  UNL     1     -35.717  15.847  -2.969  1.00 20.00     0.030 C 
HETATM    4  C4  UNL     1     -37.412  15.839  -4.630  1.00 20.00     0.136 C 
HETATM    5  C5  UNL     1     -36.334  17.239  -3.087  1.00 20.00     0.123 C 
HETATM    6  C6  UNL     1     -34.236  15.876  -2.613  1.00 20.00     0.014 C 
HETATM    7  C7  UNL     1     -38.586  14.985  -4.157  1.00 20.00     0.041 C 
HETATM    8  C8  UNL     1     -36.748  17.842  -1.756  1.00 20.00     0.040 C 
HETATM    9  N9  UNL     1     -35.832  12.664  -4.471  1.00 20.00    -0.197 NA
HETATM   10  O10 UNL     1     -37.495  17.093  -3.922  1.00 20.00    -0.380 OA
ENDROOT
TORSDOF 0
ENDMDL
MODEL 6
REMARK VINA RESULT:      -4.1      1.609      1.710
REMARK  0 active torsions:
REMARK  status: ('A' for Active; 'I' for Inactive)
ROOT
HETATM    1  C1  UNL     1     -35.376  13.728  -4.378  1.00 20.00     0.067 C 
HETATM    2  C2  UNL     1     -34.582  14.960  -4.433  1.00 20.00     0.127 C 
HETATM    3  C3  UNL     1     -35.180  16.105  -3.628  1.00 20.00     0.030 C 
HETATM    4  C4  UNL     1     -34.459  15.580  -5.828  1.00 20.00     0.136 C 
HETATM    5  C5  UNL     1     -34.445  17.299  -4.232  1.00 20.00     0.123 C 
HETATM    6  C6  UNL     1     -34.983  15.977  -2.123  1.00 20.00     0.014 C 
HETATM    7  C7  UNL     1     -35.674  15.431  -6.741  1.00 20.00     0.041 C 
HETATM    8  C8  UNL     1     -35.198  18.612  -4.103  1.00 20.00     0.040 C 
HETATM    9  N9  UNL     1     -36.003  12.753  -4.333  1.00 20.00    -0.197 NA
HETATM   10  O10 UNL     1     -34.260  16.994  -5.624  1.00 20.00    -0.380 OA
ENDROOT
TORSDOF 0
ENDMDL
MODEL 7
REMARK VINA RESULT:      -4.0      1.720      2.004
REMARK  0 active torsions:
REMARK  status: ('A' for Active; 'I' for Inactive)
ROOT
HETATM    1  C1  UNL     1     -35.659  13.908  -4.201  1.00 20.00     0.067 C 
HETATM    2  C2  UNL     1     -35.274  15.247  -3.745  1.00 20.00     0.127 C 
HETATM    3  C3  UNL     1     -35.530  16.337  -4.776  1.00 20.00     0.030 C 
HETATM    4  C4  UNL     1     -33.779  15.421  -3.459  1.00 20.00     0.136 C 
HETATM    5  C5  UNL     1     -34.643  17.459  -4.239  1.00 20.00     0.123 C 
HETATM    6  C6  UNL     1     -36.993  16.739  -4.907  1.00 20.00     0.014 C 
HETATM    7  C7  UNL     1     -32.826  14.633  -4.355  1.00 20.00     0.041 C 
HETATM    8  C8  UNL     1     -34.193  18.446  -5.301  1.00 20.00     0.040 C 
HETATM    9  N9  UNL     1     -35.964  12.849  -4.561  1.00 20.00    -0.197 NA
HETATM   10  O10 UNL     1     -33.490  16.819  -3.668  1.00 20.00    -0.380 OA
ENDROOT
TORSDOF 0
ENDMDL
MODEL 8
REMARK VINA RESULT:      -3.9      2.594      4.034
REMARK  0 active torsions:
REMARK  status: ('A' for Active; 'I' for Inactive)
ROOT
HETATM    1  C1  UNL     1     -33.264  16.952  -2.414  1.00 20.00     0.067 C 
HETATM    2  C2  UNL     1     -34.164  15.829  -2.698  1.00 20.00     0.127 C 
HETATM    3  C3  UNL     1     -34.057  15.310  -4.125  1.00 20.00     0.030 C 
HETATM    4  C4  UNL     1     -35.654  16.160  -2.588  1.00 20.00     0.136 C 
HETATM    5  C5  UNL     1     -35.362  14.526  -4.246  1.00 20.00     0.123 C 
HETATM    6  C6  UNL     1     -32.820  14.461  -4.388  1.00 20.00     0.014 C 
HETATM    7  C7  UNL     1     -36.065  17.570  -3.005  1.00 20.00     0.041 C 
HETATM    8  C8  UNL     1     -35.861  14.385  -5.674  1.00 20.00     0.040 C 
HETATM    9  N9  UNL     1     -32.552  17.840  -2.190  1.00 20.00    -0.197 NA
HETATM   10  O10 UNL     1     -36.336  15.247  -3.473  1.00 20.00    -0.380 OA
ENDROOT
TORSDOF 0
ENDMDL
MODEL 9
REMARK VINA RESULT:      -3.8      2.084      2.559
REMARK  0 active torsions:
REMARK  status: ('A' for Active; 'I' for Inactive)
ROOT
HETATM    1  C1  UNL     1     -37.411  16.540  -3.947  1.00 20.00     0.067 C 
HETATM    2  C2  UNL     1     -36.536  15.365  -3.891  1.00 20.00     0.127 C 
HETATM    3  C3  UNL     1     -35.098  15.696  -3.519  1.00 20.00     0.030 C 
HETATM    4  C4  UNL     1     -36.361  14.633  -5.225  1.00 20.00     0.136 C 
HETATM    5  C5  UNL     1     -34.379  14.433  -3.985  1.00 20.00     0.123 C 
HETATM    6  C6  UNL     1     -34.890  15.993  -2.039  1.00 20.00     0.014 C 
HETATM    7  C7  UNL     1     -36.362  15.507  -6.478  1.00 20.00     0.041 C 
HETATM    8  C8  UNL     1     -32.913  14.648  -4.317  1.00 20.00     0.040 C 
HETATM    9  N9  UNL     1     -38.104  17.469  -3.991  1.00 20.00    -0.197 NA
HETATM   10  O10 UNL     1     -35.071  13.990  -5.165  1.00 20.00    -0.380 OA
ENDROOT
TORSDOF 0
ENDMDL
