MODEL 1
REMARK VINA RESULT:      -4.8      0.000      0.000
REMARK  2 active torsions:
REMARK  status: ('A' for Active; 'I' for Inactive)
REMARK    1  A    between atoms: C2_2  and  C8_8 
REMARK    2  A    between atoms: C4_4  and  C8_8 
ROOT
HETATM    1  C1  UNL     1     -33.629   5.465   2.773  1.00 20.00    -0.004 C 
HETATM    2  C2  UNL     1     -33.116   6.605   3.253  1.00 20.00    -0.079 C 
HETATM    3  C5  UNL     1     -33.600   6.885   4.641  1.00 20.00     0.036 C 
HETATM    4  C6  UNL     1     -34.781   5.920   4.780  1.00 20.00     0.028 C 
HETATM    5  C7  UNL     1     -34.535   4.806   3.760  1.00 20.00     0.105 C 
HETATM    6 CL9  UNL     1     -33.709   3.414   4.493  1.00 20.00    -0.121 Cl
ENDROOT
BRANCH   2   7
HETATM    7  C8  UNL     1     -32.156   7.511   2.573  1.00 20.00     0.060 C 
BRANCH   7   8
HETATM    8  C4  UNL     1     -32.568   7.826   1.164  1.00 20.00    -0.033 C 
HETATM    9  C3  UNL     1     -32.928   9.042   0.742  1.00 20.00     0.007 C 
ENDBRANCH   7   8
ENDBRANCH   2   7
TORSDOF 2
ENDMDL
MODEL 2
REMARK VINA RESULT:      -4.7      2.310      4.215
REMARK  2 active torsions:
REMARK  status: ('A' for Active; 'I' for Inactive)
REMARK    1  A    between atoms: C2_2  and  C8_8 
REMARK    2  A    between atoms: C4_4  and  C8_8 
ROOT
HETATM    1  C1  UNL     1     -32.976   6.102   2.007  1.00 20.00    -0.004 C 
HETATM    2  C2  UNL     1     -33.493   5.954   3.233  1.00 20.00    -0.079 C 
HETATM    3  C5  UNL     1     -33.062   7.057   4.149  1.00 20.00     0.036 C 
HETATM    4  C6  UNL     1     -31.901   7.691   3.379  1.00 20.00     0.028 C 
HETATM    5  C7  UNL     1     -32.119   7.321   1.911  1.00 20.00     0.105 C 
HETATM    6 CL9  UNL     1     -32.992   8.598   1.035  1.00 20.00    -0.121 Cl
ENDROOT
BRANCH   2   7
HETATM    7  C8  UNL     1     -34.413   4.883   3.693  1.00 20.00     0.060 C 
BRANCH   7   8
HETATM    8  C4  UNL     1     -35.197   5.287   4.907  1.00 20.00    -0.033 C 
HETATM    9  C3  UNL     1     -34.785   5.096   6.165  1.00 20.00     0.007 C 
ENDBRANCH   7   8
ENDBRANCH   2   7
TORSDOF 2
ENDMDL
MODEL 3
REMARK VINA RESULT:      -4.2     11.387     12.022
REMARK  2 active torsions:
REMARK  status: ('A' for Active; 'I' for Inactive)
REMARK    1  A    between atoms: C2_2  and  C8_8 
REMARK    2  A    between atoms: C4_4  and  C8_8 
ROOT
HETATM    1  C1  UNL     1     -35.045  15.924  -2.249  1.00 20.00    -0.004 C 
HETATM    2  C2  UNL     1     -33.907  16.629  -2.211  1.00 20.00    -0.079 C 
HETATM    3  C5  UNL     1     -33.021  16.306  -3.374  1.00 20.00     0.036 C 
HETATM    4  C6  UNL     1     -33.646  15.018  -3.917  1.00 20.00     0.028 C 
HETATM    5  C7  UNL     1     -35.099  15.021  -3.436  1.00 20.00     0.105 C 
HETATM    6 CL9  UNL     1     -36.194  15.703  -4.658  1.00 20.00    -0.121 Cl
ENDROOT
BRANCH   2   7
HETATM    7  C8  UNL     1     -33.517  17.646  -1.202  1.00 20.00     0.060 C 
BRANCH   7   8
HETATM    8  C4  UNL     1     -32.103  18.115  -1.382  1.00 20.00    -0.033 C 
HETATM    9  C3  UNL     1     -31.268  18.388  -0.373  1.00 20.00     0.007 C 
ENDBRANCH   7   8
ENDBRANCH   2   7
TORSDOF 2
ENDMDL
MODEL 4
REMARK VINA RESULT:      -4.1     11.233     12.103
REMARK  2 active torsions:
REMARK  status: ('A' for Active; 'I' for Inactive)
REMARK    1  A    between atoms: C2_2  and  C8_8 
REMARK    2  A    between atoms: C4_4  and  C8_8 
ROOT
HETATM    1  C1  UNL     1     -33.140  15.802  -3.525  1.00 20.00    -0.004 C 
HETATM    2  C2  UNL     1     -34.313  15.197  -3.297  1.00 20.00    -0.079 C 
HETATM    3  C5  UNL     1     -35.155  15.973  -2.333  1.00 20.00     0.036 C 
HETATM    4  C6  UNL     1     -34.146  16.954  -1.730  1.00 20.00     0.028 C 
HETATM    5  C7  UNL     1     -33.012  17.073  -2.751  1.00 20.00     0.105 C 
HETATM    6 CL9  UNL     1     -33.248  18.460  -3.837  1.00 20.00    -0.121 Cl
ENDROOT
BRANCH   2   7
HETATM    7  C8  UNL     1     -34.803  13.936  -3.910  1.00 20.00     0.060 C 
BRANCH   7   8
HETATM    8  C4  UNL     1     -35.943  14.169  -4.858  1.00 20.00    -0.033 C 
HETATM    9  C3  UNL     1     -35.794  14.561  -6.129  1.00 20.00     0.007 C 
ENDBRANCH   7   8
ENDBRANCH   2   7
TORSDOF 2
ENDMDL
MODEL 5
REMARK VINA RESULT:      -4.0      2.072      4.177
REMARK  2 active torsions:
REMARK  status: ('A' for Active; 'I' for Inactive)
REMARK    1  A    between atoms: C2_2  and  C8_8 
REMARK    2  A    between atoms: C4_4  and  C8_8 
ROOT
HETATM    1  C1  UNL     1     -33.926   6.831   3.559  1.00 20.00    -0.004 C 
HETATM    2  C2  UNL     1     -34.151   5.514   3.658  1.00 20.00    -0.079 C 
HETATM    3  C5  UNL     1     -33.298   4.737   2.706  1.00 20.00     0.036 C 
HETATM    4  C6  UNL     1     -32.790   5.823   1.754  1.00 20.00     0.028 C 
HETATM    5  C7  UNL     1     -32.892   7.140   2.527  1.00 20.00     0.105 C 
HETATM    6 CL9  UNL     1     -31.357   7.553   3.324  1.00 20.00    -0.121 Cl
ENDROOT
BRANCH   2   7
HETATM    7  C8  UNL     1     -35.083   4.834   4.592  1.00 20.00     0.060 C 
BRANCH   7   8
HETATM    8  C4  UNL     1     -34.821   5.196   6.025  1.00 20.00    -0.033 C 
HETATM    9  C3  UNL     1     -34.305   6.365   6.421  1.00 20.00     0.007 C 
ENDBRANCH   7   8
ENDBRANCH   2   7
TORSDOF 2
ENDMDL
MODEL 6
REMARK VINA RESULT:      -3.9     11.099     12.075
REMARK  2 active torsions:
REMARK  status: ('A' for Active; 'I' for Inactive)
REMARK    1  A    between atoms: C2_2  and  C8_8 
REMARK    2  A    between atoms: C4_4  and  C8_8 
ROOT
HETATM    1  C1  UNL     1     -35.281  16.042  -4.843  1.00 20.00    -0.004 C 
HETATM    2  C2  UNL     1     -34.517  15.396  -3.953  1.00 20.00    -0.079 C 
HETATM    3  C5  UNL     1     -34.847  13.937  -3.902  1.00 20.00     0.036 C 
HETATM    4  C6  UNL     1     -36.188  13.875  -4.637  1.00 20.00     0.028 C 
HETATM    5  C7  UNL     1     -36.240  15.121  -5.524  1.00 20.00     0.105 C 
HETATM    6 CL9  UNL     1     -35.671  14.778  -7.172  1.00 20.00    -0.121 Cl
ENDROOT
BRANCH   2   7
HETATM    7  C8  UNL     1     -33.437  15.974  -3.115  1.00 20.00     0.060 C 
BRANCH   7   8
HETATM    8  C4  UNL     1     -33.970  16.867  -2.033  1.00 20.00    -0.033 C 
HETATM    9  C3  UNL     1     -35.076  16.611  -1.325  1.00 20.00     0.007 C 
ENDBRANCH   7   8
ENDBRANCH   2   7
TORSDOF 2
ENDMDL
MODEL 7
REMARK VINA RESULT:      -3.9     11.220     11.955
REMARK  2 active torsions:
REMARK  status: ('A' for Active; 'I' for Inactive)
REMARK    1  A    between atoms: C2_2  and  C8_8 
REMARK    2  A    between atoms: C4_4  and  C8_8 
ROOT
HETATM    1  C1  UNL     1     -35.265  17.145  -0.851  1.00 20.00    -0.004 C 
HETATM    2  C2  UNL     1     -34.388  16.733  -1.775  1.00 20.00    -0.079 C 
HETATM    3  C5  UNL     1     -33.134  17.551  -1.747  1.00 20.00     0.036 C 
HETATM    4  C6  UNL     1     -33.549  18.761  -0.907  1.00 20.00     0.028 C 
HETATM    5  C7  UNL     1     -34.740  18.301  -0.064  1.00 20.00     0.105 C 
HETATM    6 CL9  UNL     1     -34.230  17.746   1.545  1.00 20.00    -0.121 Cl
ENDROOT
BRANCH   2   7
HETATM    7  C8  UNL     1     -34.548  15.596  -2.716  1.00 20.00     0.060 C 
BRANCH   7   8
HETATM    8  C4  UNL     1     -33.477  15.571  -3.768  1.00 20.00    -0.033 C 
HETATM    9  C3  UNL     1     -33.061  14.461  -4.389  1.00 20.00     0.007 C 
ENDBRANCH   7   8
ENDBRANCH   2   7
TORSDOF 2
ENDMDL
MODEL 8
REMARK VINA RESULT:      -3.8     10.937     11.940
REMARK  2 active torsions:
REMARK  status: ('A' for Active; 'I' for Inactive)
REMARK    1  A    between atoms: C2_2  and  C8_8 
REMARK    2  A    between atoms: C4_4  and  C8_8 
ROOT
HETATM    1  C1  UNL     1     -35.055  14.010  -3.982  1.00 20.00    -0.004 C 
HETATM    2  C2  UNL     1     -34.251  14.994  -4.405  1.00 20.00    -0.079 C 
HETATM    3  C5  UNL     1     -34.715  15.561  -5.710  1.00 20.00     0.036 C 
HETATM    4  C6  UNL     1     -35.717  14.507  -6.189  1.00 20.00     0.028 C 
HETATM    5  C7  UNL     1     -36.177  13.763  -4.934  1.00 20.00     0.105 C 
HETATM    6 CL9  UNL     1     -37.680  14.448  -4.278  1.00 20.00    -0.121 Cl
ENDROOT
BRANCH   2   7
HETATM    7  C8  UNL     1     -33.057  15.536  -3.709  1.00 20.00     0.060 C 
BRANCH   7   8
HETATM    8  C4  UNL     1     -33.422  16.448  -2.574  1.00 20.00    -0.033 C 
HETATM    9  C3  UNL     1     -33.158  17.759  -2.551  1.00 20.00     0.007 C 
ENDBRANCH   7   8
ENDBRANCH   2   7
TORSDOF 2
ENDMDL
MODEL 9
REMARK VINA RESULT:      -3.8     11.219     11.985
REMARK  2 active torsions:
REMARK  status: ('A' for Active; 'I' for Inactive)
REMARK    1  A    between atoms: C2_2  and  C8_8 
REMARK    2  A    between atoms: C4_4  and  C8_8 
ROOT
HETATM    1  C1  UNL     1     -33.197  16.837  -3.409  1.00 20.00    -0.004 C 
HETATM    2  C2  UNL     1     -33.747  16.941  -2.192  1.00 20.00    -0.079 C 
HETATM    3  C5  UNL     1     -34.901  16.002  -2.028  1.00 20.00     0.036 C 
HETATM    4  C6  UNL     1     -35.193  15.582  -3.471  1.00 20.00     0.028 C 
HETATM    5  C7  UNL     1     -33.896  15.819  -4.248  1.00 20.00     0.105 C 
HETATM    6 CL9  UNL     1     -32.909  14.344  -4.343  1.00 20.00    -0.121 Cl
ENDROOT
BRANCH   2   7
HETATM    7  C8  UNL     1     -33.303  17.821  -1.082  1.00 20.00     0.060 C 
BRANCH   7   8
HETATM    8  C4  UNL     1     -34.418  18.147  -0.132  1.00 20.00    -0.033 C 
HETATM    9  C3  UNL     1     -34.383  17.897   1.182  1.00 20.00     0.007 C 
ENDBRANCH   7   8
ENDBRANCH   2   7
TORSDOF 2
ENDMDL
