MODEL 1
REMARK VINA RESULT:      -6.2      0.000      0.000
REMARK  3 active torsions:
REMARK  status: ('A' for Active; 'I' for Inactive)
REMARK    1  A    between atoms: C4_4  and  C10_10 
REMARK    2  A    between atoms: C8_8  and  O11_11 
REMARK    3  A    between atoms: C9_9  and  C10_10 
ROOT
HETATM    1  C1  UNL     1     -33.217   9.188   0.154  1.00 20.00     0.012 C 
HETATM    2  C2  UNL     1     -32.798   8.320   0.870  1.00 20.00    -0.117 C 
HETATM    3  C9  UNL     1     -32.283   7.254   1.743  1.00 20.00     0.097 C 
ENDROOT
BRANCH   3   4
HETATM    4  C10 UNL     1     -32.262   7.675   3.206  1.00 20.00     0.046 C 
BRANCH   4   5
HETATM    5  C4  UNL     1     -33.178   6.810   4.020  1.00 20.00    -0.080 C 
HETATM    6  C3  UNL     1     -33.824   5.758   3.485  1.00 20.00     0.007 C 
HETATM    7  C8  UNL     1     -34.724   4.850   4.272  1.00 20.00     0.141 C 
HETATM    8  C7  UNL     1     -34.570   5.018   5.785  1.00 20.00     0.036 C 
HETATM    9  C6  UNL     1     -34.506   6.491   6.167  1.00 20.00     0.007 C 
HETATM   10  C5  UNL     1     -33.333   7.189   5.473  1.00 20.00     0.034 C 
BRANCH   7  11
HETATM   11  O11 UNL     1     -34.426   3.501   3.924  1.00 20.00    -0.392 OA
HETATM   12  H25 UNL     1     -33.608   3.269   4.390  1.00 20.00     0.210 HD
ENDBRANCH   7  11
ENDBRANCH   4   5
ENDBRANCH   3   4
TORSDOF 3
ENDMDL
MODEL 2
REMARK VINA RESULT:      -5.5     11.151     12.093
REMARK  3 active torsions:
REMARK  status: ('A' for Active; 'I' for Inactive)
REMARK    1  A    between atoms: C4_4  and  C10_10 
REMARK    2  A    between atoms: C8_8  and  O11_11 
REMARK    3  A    between atoms: C9_9  and  C10_10 
ROOT
HETATM    1  C1  UNL     1     -30.709  18.494   0.666  1.00 20.00     0.012 C 
HETATM    2  C2  UNL     1     -31.351  18.380  -0.342  1.00 20.00    -0.117 C 
HETATM    3  C9  UNL     1     -32.134  18.242  -1.580  1.00 20.00     0.097 C 
ENDROOT
BRANCH   3   4
HETATM    4  C10 UNL     1     -33.515  17.655  -1.319  1.00 20.00     0.046 C 
BRANCH   4   5
HETATM    5  C4  UNL     1     -33.839  16.595  -2.330  1.00 20.00    -0.080 C 
HETATM    6  C3  UNL     1     -32.989  16.274  -3.322  1.00 20.00     0.007 C 
HETATM    7  C8  UNL     1     -33.263  15.199  -4.333  1.00 20.00     0.141 C 
HETATM    8  C7  UNL     1     -34.420  14.281  -3.932  1.00 20.00     0.036 C 
HETATM    9  C6  UNL     1     -35.593  15.085  -3.388  1.00 20.00     0.007 C 
HETATM   10  C5  UNL     1     -35.175  15.910  -2.168  1.00 20.00     0.034 C 
BRANCH   7  11
HETATM   11  O11 UNL     1     -32.084  14.415  -4.494  1.00 20.00    -0.392 OA
HETATM   12  H25 UNL     1     -32.338  13.639  -5.016  1.00 20.00     0.210 HD
ENDBRANCH   7  11
ENDBRANCH   4   5
ENDBRANCH   3   4
TORSDOF 3
ENDMDL
MODEL 3
REMARK VINA RESULT:      -5.2     10.913     11.865
REMARK  3 active torsions:
REMARK  status: ('A' for Active; 'I' for Inactive)
REMARK    1  A    between atoms: C4_4  and  C10_10 
REMARK    2  A    between atoms: C8_8  and  O11_11 
REMARK    3  A    between atoms: C9_9  and  C10_10 
ROOT
HETATM    1  C1  UNL     1     -32.765  18.577   1.376  1.00 20.00     0.012 C 
HETATM    2  C2  UNL     1     -33.333  18.268   0.364  1.00 20.00    -0.117 C 
HETATM    3  C9  UNL     1     -34.032  17.893  -0.875  1.00 20.00     0.097 C 
ENDROOT
BRANCH   3   4
HETATM    4  C10 UNL     1     -33.069  17.391  -1.943  1.00 20.00     0.046 C 
BRANCH   4   5
HETATM    5  C4  UNL     1     -33.695  16.288  -2.744  1.00 20.00    -0.080 C 
HETATM    6  C3  UNL     1     -33.010  15.617  -3.687  1.00 20.00     0.007 C 
HETATM    7  C8  UNL     1     -33.591  14.487  -4.487  1.00 20.00     0.141 C 
HETATM    8  C7  UNL     1     -34.898  13.947  -3.900  1.00 20.00     0.036 C 
HETATM    9  C6  UNL     1     -35.816  15.085  -3.474  1.00 20.00     0.007 C 
HETATM   10  C5  UNL     1     -35.138  15.975  -2.428  1.00 20.00     0.034 C 
BRANCH   7  11
HETATM   11  O11 UNL     1     -32.637  13.430  -4.540  1.00 20.00    -0.392 OA
HETATM   12  H25 UNL     1     -33.107  12.649  -4.872  1.00 20.00     0.210 HD
ENDBRANCH   7  11
ENDBRANCH   4   5
ENDBRANCH   3   4
TORSDOF 3
ENDMDL
MODEL 4
REMARK VINA RESULT:      -5.2      1.653      2.254
REMARK  3 active torsions:
REMARK  status: ('A' for Active; 'I' for Inactive)
REMARK    1  A    between atoms: C4_4  and  C10_10 
REMARK    2  A    between atoms: C8_8  and  O11_11 
REMARK    3  A    between atoms: C9_9  and  C10_10 
ROOT
HETATM    1  C1  UNL     1     -33.281   9.085  -0.003  1.00 20.00     0.012 C 
HETATM    2  C2  UNL     1     -32.847   8.427   0.903  1.00 20.00    -0.117 C 
HETATM    3  C9  UNL     1     -32.315   7.626   2.015  1.00 20.00     0.097 C 
ENDROOT
BRANCH   3   4
HETATM    4  C10 UNL     1     -32.968   6.252   2.093  1.00 20.00     0.046 C 
BRANCH   4   5
HETATM    5  C4  UNL     1     -33.499   5.996   3.472  1.00 20.00    -0.080 C 
HETATM    6  C3  UNL     1     -33.194   6.794   4.511  1.00 20.00     0.007 C 
HETATM    7  C8  UNL     1     -33.730   6.589   5.899  1.00 20.00     0.141 C 
HETATM    8  C7  UNL     1     -34.909   5.614   5.948  1.00 20.00     0.036 C 
HETATM    9  C6  UNL     1     -34.641   4.390   5.083  1.00 20.00     0.007 C 
HETATM   10  C5  UNL     1     -34.395   4.790   3.625  1.00 20.00     0.034 C 
BRANCH   7  11
HETATM   11  O11 UNL     1     -34.151   7.849   6.414  1.00 20.00    -0.392 OA
HETATM   12  H25 UNL     1     -34.889   7.669   7.017  1.00 20.00     0.210 HD
ENDBRANCH   7  11
ENDBRANCH   4   5
ENDBRANCH   3   4
TORSDOF 3
ENDMDL
MODEL 5
REMARK VINA RESULT:      -5.0     11.145     12.261
REMARK  3 active torsions:
REMARK  status: ('A' for Active; 'I' for Inactive)
REMARK    1  A    between atoms: C4_4  and  C10_10 
REMARK    2  A    between atoms: C8_8  and  O11_11 
REMARK    3  A    between atoms: C9_9  and  C10_10 
ROOT
HETATM    1  C1  UNL     1     -31.984  18.398  -0.629  1.00 20.00     0.012 C 
HETATM    2  C2  UNL     1     -32.435  17.817  -1.578  1.00 20.00    -0.117 C 
HETATM    3  C9  UNL     1     -32.984  17.107  -2.744  1.00 20.00     0.097 C 
ENDROOT
BRANCH   3   4
HETATM    4  C10 UNL     1     -34.148  16.202  -2.364  1.00 20.00     0.046 C 
BRANCH   4   5
HETATM    5  C4  UNL     1     -34.678  15.487  -3.571  1.00 20.00    -0.080 C 
HETATM    6  C3  UNL     1     -35.594  14.507  -3.472  1.00 20.00     0.007 C 
HETATM    7  C8  UNL     1     -36.171  13.789  -4.657  1.00 20.00     0.141 C 
HETATM    8  C7  UNL     1     -35.888  14.497  -5.984  1.00 20.00     0.036 C 
HETATM    9  C6  UNL     1     -34.442  14.970  -6.052  1.00 20.00     0.007 C 
HETATM   10  C5  UNL     1     -34.123  15.932  -4.903  1.00 20.00     0.034 C 
BRANCH   7  11
HETATM   11  O11 UNL     1     -37.581  13.682  -4.482  1.00 20.00    -0.392 OA
HETATM   12  H25 UNL     1     -37.982  14.360  -5.047  1.00 20.00     0.210 HD
ENDBRANCH   7  11
ENDBRANCH   4   5
ENDBRANCH   3   4
TORSDOF 3
ENDMDL
MODEL 6
REMARK VINA RESULT:      -4.9     11.135     11.905
REMARK  3 active torsions:
REMARK  status: ('A' for Active; 'I' for Inactive)
REMARK    1  A    between atoms: C4_4  and  C10_10 
REMARK    2  A    between atoms: C8_8  and  O11_11 
REMARK    3  A    between atoms: C9_9  and  C10_10 
ROOT
HETATM    1  C1  UNL     1     -31.777  18.573  -0.815  1.00 20.00     0.012 C 
HETATM    2  C2  UNL     1     -32.707  17.920  -1.204  1.00 20.00    -0.117 C 
HETATM    3  C9  UNL     1     -33.849  17.122  -1.676  1.00 20.00     0.097 C 
ENDROOT
BRANCH   3   4
HETATM    4  C10 UNL     1     -33.470  16.219  -2.842  1.00 20.00     0.046 C 
BRANCH   4   5
HETATM    5  C4  UNL     1     -34.694  15.615  -3.464  1.00 20.00    -0.080 C 
HETATM    6  C3  UNL     1     -34.676  14.397  -4.034  1.00 20.00     0.007 C 
HETATM    7  C8  UNL     1     -35.886  13.746  -4.639  1.00 20.00     0.141 C 
HETATM    8  C7  UNL     1     -37.196  14.433  -4.244  1.00 20.00     0.036 C 
HETATM    9  C6  UNL     1     -37.065  15.948  -4.329  1.00 20.00     0.007 C 
HETATM   10  C5  UNL     1     -35.948  16.455  -3.411  1.00 20.00     0.034 C 
BRANCH   7  11
HETATM   11  O11 UNL     1     -35.930  12.387  -4.214  1.00 20.00    -0.392 OA
HETATM   12  H25 UNL     1     -36.785  12.033  -4.507  1.00 20.00     0.210 HD
ENDBRANCH   7  11
ENDBRANCH   4   5
ENDBRANCH   3   4
TORSDOF 3
ENDMDL
MODEL 7
REMARK VINA RESULT:      -4.9     11.222     12.138
REMARK  3 active torsions:
REMARK  status: ('A' for Active; 'I' for Inactive)
REMARK    1  A    between atoms: C4_4  and  C10_10 
REMARK    2  A    between atoms: C8_8  and  O11_11 
REMARK    3  A    between atoms: C9_9  and  C10_10 
ROOT
HETATM    1  C1  UNL     1     -30.860  18.781   0.646  1.00 20.00     0.012 C 
HETATM    2  C2  UNL     1     -31.440  18.485  -0.363  1.00 20.00    -0.117 C 
HETATM    3  C9  UNL     1     -32.145  18.123  -1.602  1.00 20.00     0.097 C 
ENDROOT
BRANCH   3   4
HETATM    4  C10 UNL     1     -33.555  17.616  -1.329  1.00 20.00     0.046 C 
BRANCH   4   5
HETATM    5  C4  UNL     1     -33.931  16.545  -2.309  1.00 20.00    -0.080 C 
HETATM    6  C3  UNL     1     -35.096  15.877  -2.220  1.00 20.00     0.007 C 
HETATM    7  C8  UNL     1     -35.522  14.821  -3.198  1.00 20.00     0.141 C 
HETATM    8  C7  UNL     1     -34.687  14.819  -4.480  1.00 20.00     0.036 C 
HETATM    9  C6  UNL     1     -33.204  14.963  -4.166  1.00 20.00     0.007 C 
HETATM   10  C5  UNL     1     -32.928  16.262  -3.401  1.00 20.00     0.034 C 
BRANCH   7  11
HETATM   11  O11 UNL     1     -36.889  15.041  -3.537  1.00 20.00    -0.392 OA
HETATM   12  H25 UNL     1     -37.415  14.498  -2.930  1.00 20.00     0.210 HD
ENDBRANCH   7  11
ENDBRANCH   4   5
ENDBRANCH   3   4
TORSDOF 3
ENDMDL
MODEL 8
REMARK VINA RESULT:      -4.8     11.284     11.995
REMARK  3 active torsions:
REMARK  status: ('A' for Active; 'I' for Inactive)
REMARK    1  A    between atoms: C4_4  and  C10_10 
REMARK    2  A    between atoms: C8_8  and  O11_11 
REMARK    3  A    between atoms: C9_9  and  C10_10 
ROOT
HETATM    1  C1  UNL     1     -34.099  15.132  -6.749  1.00 20.00     0.012 C 
HETATM    2  C2  UNL     1     -33.825  15.006  -5.587  1.00 20.00    -0.117 C 
HETATM    3  C9  UNL     1     -33.484  14.852  -4.164  1.00 20.00     0.097 C 
ENDROOT
BRANCH   3   4
HETATM    4  C10 UNL     1     -34.680  15.117  -3.259  1.00 20.00     0.046 C 
BRANCH   4   5
HETATM    5  C4  UNL     1     -34.370  16.211  -2.280  1.00 20.00    -0.080 C 
HETATM    6  C3  UNL     1     -35.208  16.524  -1.275  1.00 20.00     0.007 C 
HETATM    7  C8  UNL     1     -34.920  17.590  -0.258  1.00 20.00     0.141 C 
HETATM    8  C7  UNL     1     -33.457  18.042  -0.260  1.00 20.00     0.036 C 
HETATM    9  C6  UNL     1     -32.948  18.236  -1.683  1.00 20.00     0.007 C 
HETATM   10  C5  UNL     1     -33.064  16.939  -2.489  1.00 20.00     0.034 C 
BRANCH   7  11
HETATM   11  O11 UNL     1     -35.246  17.085   1.034  1.00 20.00    -0.392 OA
HETATM   12  H25 UNL     1     -34.630  16.357   1.210  1.00 20.00     0.210 HD
ENDBRANCH   7  11
ENDBRANCH   4   5
ENDBRANCH   3   4
TORSDOF 3
ENDMDL
MODEL 9
REMARK VINA RESULT:      -4.8     11.129     12.158
REMARK  3 active torsions:
REMARK  status: ('A' for Active; 'I' for Inactive)
REMARK    1  A    between atoms: C4_4  and  C10_10 
REMARK    2  A    between atoms: C8_8  and  O11_11 
REMARK    3  A    between atoms: C9_9  and  C10_10 
ROOT
HETATM    1  C1  UNL     1     -34.409  17.967   0.706  1.00 20.00     0.012 C 
HETATM    2  C2  UNL     1     -34.794  17.398  -0.279  1.00 20.00    -0.117 C 
HETATM    3  C9  UNL     1     -35.270  16.702  -1.484  1.00 20.00     0.097 C 
ENDROOT
BRANCH   3   4
HETATM    4  C10 UNL     1     -34.119  16.203  -2.347  1.00 20.00     0.046 C 
BRANCH   4   5
HETATM    5  C4  UNL     1     -34.637  15.490  -3.561  1.00 20.00    -0.080 C 
HETATM    6  C3  UNL     1     -35.543  14.500  -3.471  1.00 20.00     0.007 C 
HETATM    7  C8  UNL     1     -36.109  13.783  -4.662  1.00 20.00     0.141 C 
HETATM    8  C7  UNL     1     -35.829  14.503  -5.984  1.00 20.00     0.036 C 
HETATM    9  C6  UNL     1     -34.387  14.991  -6.044  1.00 20.00     0.007 C 
HETATM   10  C5  UNL     1     -34.083  15.949  -4.888  1.00 20.00     0.034 C 
BRANCH   7  11
HETATM   11  O11 UNL     1     -37.518  13.661  -4.492  1.00 20.00    -0.392 OA
HETATM   12  H25 UNL     1     -37.851  14.550  -4.292  1.00 20.00     0.210 HD
ENDBRANCH   7  11
ENDBRANCH   4   5
ENDBRANCH   3   4
TORSDOF 3
ENDMDL
