MODEL 1
REMARK VINA RESULT:      -4.6      0.000      0.000
REMARK  1 active torsions:
REMARK  status: ('A' for Active; 'I' for Inactive)
REMARK    1  A    between atoms: C3_3  and  C5_5 
ROOT
HETATM    1  C1  UNL     1     -37.175  18.358   0.958  1.00 20.00     0.109 A 
HETATM    2  C2  UNL     1     -36.302  17.729   1.801  1.00 20.00     0.107 A 
HETATM    3  C3  UNL     1     -35.627  17.366  -0.276  1.00 20.00     0.113 A 
HETATM    4  C10 UNL     1     -37.374  18.606  -1.527  1.00 20.00     0.157 C 
HETATM    5  N11 UNL     1     -36.732  18.118  -0.321  1.00 20.00    -0.346 N 
HETATM    6  N12 UNL     1     -35.354  17.124   1.010  1.00 20.00    -0.350 N 
HETATM    7  H27 UNL     1     -34.569  16.577   1.352  1.00 20.00     0.166 HD
ENDROOT
BRANCH   3   8
HETATM    8  C5  UNL     1     -34.829  16.878  -1.427  1.00 20.00    -0.016 C 
HETATM    9  C4  UNL     1     -35.253  15.837  -2.172  1.00 20.00     0.004 C 
HETATM   10  C9  UNL     1     -34.494  15.278  -3.341  1.00 20.00     0.105 C 
HETATM   11  C8  UNL     1     -33.055  15.797  -3.434  1.00 20.00     0.024 C 
HETATM   12 CL13 UNL     1     -35.399  15.685  -4.834  1.00 20.00    -0.121 Cl
HETATM   13  C7  UNL     1     -32.974  17.288  -3.122  1.00 20.00     0.006 C 
HETATM   14  C6  UNL     1     -33.523  17.581  -1.722  1.00 20.00     0.042 C 
ENDBRANCH   3   8
TORSDOF 1
ENDMDL
MODEL 2
REMARK VINA RESULT:      -4.6      2.854      4.335
REMARK  1 active torsions:
REMARK  status: ('A' for Active; 'I' for Inactive)
REMARK    1  A    between atoms: C3_3  and  C5_5 
ROOT
HETATM    1  C1  UNL     1     -37.002  14.394  -4.614  1.00 20.00     0.109 A 
HETATM    2  C2  UNL     1     -35.974  13.499  -4.515  1.00 20.00     0.107 A 
HETATM    3  C3  UNL     1     -35.398  15.326  -3.405  1.00 20.00     0.113 A 
HETATM    4  C10 UNL     1     -37.421  16.714  -3.767  1.00 20.00     0.157 C 
HETATM    5  N11 UNL     1     -36.619  15.515  -3.917  1.00 20.00    -0.346 N 
HETATM    6  N12 UNL     1     -34.995  14.102  -3.762  1.00 20.00    -0.350 N 
HETATM    7  H27 UNL     1     -34.103  13.682  -3.515  1.00 20.00     0.166 HD
ENDROOT
BRANCH   3   8
HETATM    8  C5  UNL     1     -34.612  16.282  -2.586  1.00 20.00    -0.016 C 
HETATM    9  C4  UNL     1     -33.415  16.734  -3.010  1.00 20.00     0.004 C 
HETATM   10  C9  UNL     1     -32.557  17.690  -2.232  1.00 20.00     0.105 C 
HETATM   11  C8  UNL     1     -33.017  17.876  -0.782  1.00 20.00     0.024 C 
HETATM   12 CL13 UNL     1     -32.560  19.263  -3.091  1.00 20.00    -0.121 Cl
HETATM   13  C7  UNL     1     -34.537  17.970  -0.682  1.00 20.00     0.006 C 
HETATM   14  C6  UNL     1     -35.198  16.715  -1.262  1.00 20.00     0.042 C 
ENDBRANCH   3   8
TORSDOF 1
ENDMDL
MODEL 3
REMARK VINA RESULT:      -4.4      1.187      1.390
REMARK  1 active torsions:
REMARK  status: ('A' for Active; 'I' for Inactive)
REMARK    1  A    between atoms: C3_3  and  C5_5 
ROOT
HETATM    1  C1  UNL     1     -36.684  18.654  -0.364  1.00 20.00     0.109 A 
HETATM    2  C2  UNL     1     -36.258  17.779   0.596  1.00 20.00     0.107 A 
HETATM    3  C3  UNL     1     -35.574  17.022  -1.369  1.00 20.00     0.113 A 
HETATM    4  C10 UNL     1     -36.482  18.786  -2.858  1.00 20.00     0.157 C 
HETATM    5  N11 UNL     1     -36.245  18.161  -1.571  1.00 20.00    -0.346 N 
HETATM    6  N12 UNL     1     -35.574  16.780  -0.054  1.00 20.00    -0.350 N 
HETATM    7  H27 UNL     1     -35.137  15.981   0.396  1.00 20.00     0.166 HD
ENDROOT
BRANCH   3   8
HETATM    8  C5  UNL     1     -34.935  16.165  -2.398  1.00 20.00    -0.016 C 
HETATM    9  C4  UNL     1     -35.643  15.222  -3.050  1.00 20.00     0.004 C 
HETATM   10  C9  UNL     1     -35.063  14.308  -4.091  1.00 20.00     0.105 C 
HETATM   11  C8  UNL     1     -33.532  14.337  -4.138  1.00 20.00     0.024 C 
HETATM   12 CL13 UNL     1     -35.741  14.780  -5.681  1.00 20.00    -0.121 Cl
HETATM   13  C7  UNL     1     -32.990  15.756  -3.989  1.00 20.00     0.006 C 
HETATM   14  C6  UNL     1     -33.465  16.383  -2.675  1.00 20.00     0.042 C 
ENDBRANCH   3   8
TORSDOF 1
ENDMDL
MODEL 4
REMARK VINA RESULT:      -4.4      1.758      2.595
REMARK  1 active torsions:
REMARK  status: ('A' for Active; 'I' for Inactive)
REMARK    1  A    between atoms: C3_3  and  C5_5 
ROOT
HETATM    1  C1  UNL     1     -34.108  18.078   0.370  1.00 20.00     0.109 A 
HETATM    2  C2  UNL     1     -35.365  17.592   0.593  1.00 20.00     0.107 A 
HETATM    3  C3  UNL     1     -34.783  17.059  -1.476  1.00 20.00     0.113 A 
HETATM    4  C10 UNL     1     -32.514  18.056  -1.563  1.00 20.00     0.157 C 
HETATM    5  N11 UNL     1     -33.772  17.733  -0.918  1.00 20.00    -0.346 N 
HETATM    6  N12 UNL     1     -35.758  16.965  -0.566  1.00 20.00    -0.350 N 
HETATM    7  H27 UNL     1     -36.652  16.504  -0.707  1.00 20.00     0.166 HD
ENDROOT
BRANCH   3   8
HETATM    8  C5  UNL     1     -34.839  16.503  -2.850  1.00 20.00    -0.016 C 
HETATM    9  C4  UNL     1     -34.625  15.191  -3.075  1.00 20.00     0.004 C 
HETATM   10  C9  UNL     1     -34.651  14.559  -4.437  1.00 20.00     0.105 C 
HETATM   11  C8  UNL     1     -34.645  15.579  -5.580  1.00 20.00     0.024 C 
HETATM   12 CL13 UNL     1     -36.109  13.521  -4.538  1.00 20.00    -0.121 Cl
HETATM   13  C7  UNL     1     -35.556  16.766  -5.279  1.00 20.00     0.006 C 
HETATM   14  C6  UNL     1     -35.130  17.462  -3.982  1.00 20.00     0.042 C 
ENDBRANCH   3   8
TORSDOF 1
ENDMDL
MODEL 5
REMARK VINA RESULT:      -4.3      2.101      3.047
REMARK  1 active torsions:
REMARK  status: ('A' for Active; 'I' for Inactive)
REMARK    1  A    between atoms: C3_3  and  C5_5 
ROOT
HETATM    1  C1  UNL     1     -33.250  18.389   0.120  1.00 20.00     0.109 A 
HETATM    2  C2  UNL     1     -32.059  18.674  -0.485  1.00 20.00     0.107 A 
HETATM    3  C3  UNL     1     -33.305  17.548  -1.928  1.00 20.00     0.113 A 
HETATM    4  C10 UNL     1     -35.344  17.193  -0.561  1.00 20.00     0.157 C 
HETATM    5  N11 UNL     1     -34.003  17.692  -0.796  1.00 20.00    -0.346 N 
HETATM    6  N12 UNL     1     -32.120  18.142  -1.751  1.00 20.00    -0.350 N 
HETATM    7  H27 UNL     1     -31.379  18.193  -2.444  1.00 20.00     0.166 HD
ENDROOT
BRANCH   3   8
HETATM    8  C5  UNL     1     -33.742  16.860  -3.168  1.00 20.00    -0.016 C 
HETATM    9  C4  UNL     1     -33.575  15.531  -3.317  1.00 20.00     0.004 C 
HETATM   10  C9  UNL     1     -33.978  14.768  -4.546  1.00 20.00     0.105 C 
HETATM   11  C8  UNL     1     -34.321  15.671  -5.735  1.00 20.00     0.024 C 
HETATM   12 CL13 UNL     1     -35.383  13.738  -4.123  1.00 20.00    -0.121 Cl
HETATM   13  C7  UNL     1     -35.130  16.890  -5.301  1.00 20.00     0.006 C 
HETATM   14  C6  UNL     1     -34.365  17.706  -4.255  1.00 20.00     0.042 C 
ENDBRANCH   3   8
TORSDOF 1
ENDMDL
MODEL 6
REMARK VINA RESULT:      -4.2      0.749      1.587
REMARK  1 active torsions:
REMARK  status: ('A' for Active; 'I' for Inactive)
REMARK    1  A    between atoms: C3_3  and  C5_5 
ROOT
HETATM    1  C1  UNL     1     -36.766  18.278   1.365  1.00 20.00     0.109 A 
HETATM    2  C2  UNL     1     -37.783  18.195   0.456  1.00 20.00     0.107 A 
HETATM    3  C3  UNL     1     -35.920  17.528  -0.538  1.00 20.00     0.113 A 
HETATM    4  C10 UNL     1     -34.310  17.789   1.330  1.00 20.00     0.157 C 
HETATM    5  N11 UNL     1     -35.626  17.858   0.724  1.00 20.00    -0.346 N 
HETATM    6  N12 UNL     1     -37.231  17.728  -0.713  1.00 20.00    -0.350 N 
HETATM    7  H27 UNL     1     -37.741  17.562  -1.576  1.00 20.00     0.166 HD
ENDROOT
BRANCH   3   8
HETATM    8  C5  UNL     1     -34.984  17.028  -1.575  1.00 20.00    -0.016 C 
HETATM    9  C4  UNL     1     -35.212  15.859  -2.206  1.00 20.00     0.004 C 
HETATM   10  C9  UNL     1     -34.305  15.281  -3.254  1.00 20.00     0.105 C 
HETATM   11  C8  UNL     1     -32.946  15.984  -3.334  1.00 20.00     0.024 C 
HETATM   12 CL13 UNL     1     -35.149  15.380  -4.832  1.00 20.00    -0.121 Cl
HETATM   13  C7  UNL     1     -33.086  17.497  -3.206  1.00 20.00     0.006 C 
HETATM   14  C6  UNL     1     -33.767  17.869  -1.885  1.00 20.00     0.042 C 
ENDBRANCH   3   8
TORSDOF 1
ENDMDL
MODEL 7
REMARK VINA RESULT:      -4.2      1.922      2.915
REMARK  1 active torsions:
REMARK  status: ('A' for Active; 'I' for Inactive)
REMARK    1  A    between atoms: C3_3  and  C5_5 
ROOT
HETATM    1  C1  UNL     1     -34.084  17.977  -0.007  1.00 20.00     0.109 A 
HETATM    2  C2  UNL     1     -35.274  17.349   0.230  1.00 20.00     0.107 A 
HETATM    3  C3  UNL     1     -34.666  16.900  -1.851  1.00 20.00     0.113 A 
HETATM    4  C10 UNL     1     -32.528  18.150  -1.962  1.00 20.00     0.157 C 
HETATM    5  N11 UNL     1     -33.731  17.681  -1.302  1.00 20.00    -0.346 N 
HETATM    6  N12 UNL     1     -35.611  16.689  -0.928  1.00 20.00    -0.350 N 
HETATM    7  H27 UNL     1     -36.449  16.130  -1.061  1.00 20.00     0.166 HD
ENDROOT
BRANCH   3   8
HETATM    8  C5  UNL     1     -34.679  16.351  -3.229  1.00 20.00    -0.016 C 
HETATM    9  C4  UNL     1     -35.298  17.008  -4.230  1.00 20.00     0.004 C 
HETATM   10  C9  UNL     1     -35.366  16.509  -5.645  1.00 20.00     0.105 C 
HETATM   11  C8  UNL     1     -34.929  15.048  -5.795  1.00 20.00     0.024 C 
HETATM   12 CL13 UNL     1     -34.336  17.571  -6.656  1.00 20.00    -0.121 Cl
HETATM   13  C7  UNL     1     -33.704  14.736  -4.940  1.00 20.00     0.006 C 
HETATM   14  C6  UNL     1     -33.985  15.028  -3.462  1.00 20.00     0.042 C 
ENDBRANCH   3   8
TORSDOF 1
ENDMDL
MODEL 8
REMARK VINA RESULT:      -4.2      1.883      3.029
REMARK  1 active torsions:
REMARK  status: ('A' for Active; 'I' for Inactive)
REMARK    1  A    between atoms: C3_3  and  C5_5 
ROOT
HETATM    1  C1  UNL     1     -33.156  18.979  -0.163  1.00 20.00     0.109 A 
HETATM    2  C2  UNL     1     -32.193  19.204  -1.107  1.00 20.00     0.107 A 
HETATM    3  C3  UNL     1     -33.457  17.527  -1.807  1.00 20.00     0.113 A 
HETATM    4  C10 UNL     1     -35.064  17.373   0.076  1.00 20.00     0.157 C 
HETATM    5  N11 UNL     1     -33.925  17.936  -0.623  1.00 20.00    -0.346 N 
HETATM    6  N12 UNL     1     -32.403  18.291  -2.113  1.00 20.00    -0.350 N 
HETATM    7  H27 UNL     1     -31.844  18.211  -2.957  1.00 20.00     0.166 HD
ENDROOT
BRANCH   3   8
HETATM    8  C5  UNL     1     -33.991  16.428  -2.650  1.00 20.00    -0.016 C 
HETATM    9  C4  UNL     1     -35.310  16.154  -2.674  1.00 20.00     0.004 C 
HETATM   10  C9  UNL     1     -35.922  15.051  -3.489  1.00 20.00     0.105 C 
HETATM   11  C8  UNL     1     -34.890  14.074  -4.060  1.00 20.00     0.024 C 
HETATM   12 CL13 UNL     1     -36.866  15.802  -4.815  1.00 20.00    -0.121 Cl
HETATM   13  C7  UNL     1     -33.653  14.802  -4.579  1.00 20.00     0.006 C 
HETATM   14  C6  UNL     1     -33.002  15.627  -3.464  1.00 20.00     0.042 C 
ENDBRANCH   3   8
TORSDOF 1
ENDMDL
MODEL 9
REMARK VINA RESULT:      -4.1      2.297      3.106
REMARK  1 active torsions:
REMARK  status: ('A' for Active; 'I' for Inactive)
REMARK    1  A    between atoms: C3_3  and  C5_5 
ROOT
HETATM    1  C1  UNL     1     -32.900  19.263  -1.226  1.00 20.00     0.109 A 
HETATM    2  C2  UNL     1     -33.373  18.588  -0.136  1.00 20.00     0.107 A 
HETATM    3  C3  UNL     1     -33.801  17.369  -1.934  1.00 20.00     0.113 A 
HETATM    4  C10 UNL     1     -32.843  18.831  -3.693  1.00 20.00     0.157 C 
HETATM    5  N11 UNL     1     -33.177  18.485  -2.325  1.00 20.00    -0.346 N 
HETATM    6  N12 UNL     1     -33.925  17.419  -0.603  1.00 20.00    -0.350 N 
HETATM    7  H27 UNL     1     -34.360  16.705  -0.026  1.00 20.00     0.166 HD
ENDROOT
BRANCH   3   8
HETATM    8  C5  UNL     1     -34.278  16.260  -2.796  1.00 20.00    -0.016 C 
HETATM    9  C4  UNL     1     -35.593  15.994  -2.917  1.00 20.00     0.004 C 
HETATM   10  C9  UNL     1     -36.150  14.881  -3.759  1.00 20.00     0.105 C 
HETATM   11  C8  UNL     1     -35.084  13.887  -4.232  1.00 20.00     0.024 C 
HETATM   12 CL13 UNL     1     -36.984  15.615  -5.165  1.00 20.00    -0.121 Cl
HETATM   13  C7  UNL     1     -33.806  14.598  -4.667  1.00 20.00     0.006 C 
HETATM   14  C6  UNL     1     -33.235  15.438  -3.520  1.00 20.00     0.042 C 
ENDBRANCH   3   8
TORSDOF 1
ENDMDL
