MODEL 1
REMARK VINA RESULT:      -5.2      0.000      0.000
REMARK  0 active torsions:
REMARK  status: ('A' for Active; 'I' for Inactive)
ROOT
HETATM    1  C1  UNL     1     -32.817  17.755  -1.690  1.00 20.00     0.019 A 
HETATM    2  C2  UNL     1     -32.955  18.689  -0.688  1.00 20.00     0.050 A 
HETATM    3  C3  UNL     1     -34.951  17.268  -0.909  1.00 20.00     0.061 A 
HETATM    4  C4  UNL     1     -33.973  16.933  -1.819  1.00 20.00    -0.023 A 
HETATM    5  C5  UNL     1     -35.180  15.083  -2.927  1.00 20.00     0.058 A 
HETATM    6  C6  UNL     1     -34.126  15.891  -2.754  1.00 20.00    -0.043 A 
HETATM    7  C7  UNL     1     -34.838  14.173  -4.029  1.00 20.00     0.150 A 
HETATM    8  C8  UNL     1     -32.993  15.607  -3.708  1.00 20.00     0.047 A 
HETATM    9  C9  UNL     1     -33.469  14.444  -4.570  1.00 20.00     0.087 A 
HETATM   10  O10 UNL     1     -35.593  13.306  -4.438  1.00 20.00    -0.293 OA
HETATM   11  S11 UNL     1     -34.474  18.571   0.095  1.00 20.00    -0.113 SA
ENDROOT
TORSDOF 0
ENDMDL
MODEL 2
REMARK VINA RESULT:      -5.0      1.077      1.929
REMARK  0 active torsions:
REMARK  status: ('A' for Active; 'I' for Inactive)
ROOT
HETATM    1  C1  UNL     1     -34.997  17.213  -0.653  1.00 20.00     0.019 A 
HETATM    2  C2  UNL     1     -34.608  18.173   0.254  1.00 20.00     0.050 A 
HETATM    3  C3  UNL     1     -32.908  17.800  -1.484  1.00 20.00     0.061 A 
HETATM    4  C4  UNL     1     -34.012  16.996  -1.659  1.00 20.00    -0.023 A 
HETATM    5  C5  UNL     1     -33.244  15.826  -3.695  1.00 20.00     0.058 A 
HETATM    6  C6  UNL     1     -34.128  16.078  -2.720  1.00 20.00    -0.043 A 
HETATM    7  C7  UNL     1     -33.840  14.786  -4.545  1.00 20.00     0.150 A 
HETATM    8  C8  UNL     1     -35.380  15.244  -2.818  1.00 20.00     0.047 A 
HETATM    9  C9  UNL     1     -35.191  14.371  -4.053  1.00 20.00     0.087 A 
HETATM   10  O10 UNL     1     -33.284  14.329  -5.531  1.00 20.00    -0.293 OA
HETATM   11  S11 UNL     1     -33.060  18.811  -0.110  1.00 20.00    -0.113 SA
ENDROOT
TORSDOF 0
ENDMDL
MODEL 3
REMARK VINA RESULT:      -4.9     13.873     15.695
REMARK  0 active torsions:
REMARK  status: ('A' for Active; 'I' for Inactive)
ROOT
HETATM    1  C1  UNL     1     -24.990  18.221  11.140  1.00 20.00     0.019 A 
HETATM    2  C2  UNL     1     -24.401  17.862  12.331  1.00 20.00     0.050 A 
HETATM    3  C3  UNL     1     -22.776  17.955  10.487  1.00 20.00     0.061 A 
HETATM    4  C4  UNL     1     -24.050  18.274  10.072  1.00 20.00    -0.023 A 
HETATM    5  C5  UNL     1     -23.524  18.683   7.692  1.00 20.00     0.058 A 
HETATM    6  C6  UNL     1     -24.356  18.613   8.740  1.00 20.00    -0.043 A 
HETATM    7  C7  UNL     1     -24.338  19.075   6.533  1.00 20.00     0.150 A 
HETATM    8  C8  UNL     1     -25.785  18.944   8.390  1.00 20.00     0.047 A 
HETATM    9  C9  UNL     1     -25.777  19.260   6.900  1.00 20.00     0.087 A 
HETATM   10  O10 UNL     1     -23.876  19.227   5.413  1.00 20.00    -0.293 OA
HETATM   11  S11 UNL     1     -22.718  17.592  12.160  1.00 20.00    -0.113 SA
ENDROOT
TORSDOF 0
ENDMDL
MODEL 4
REMARK VINA RESULT:      -4.9      1.487      1.882
REMARK  0 active torsions:
REMARK  status: ('A' for Active; 'I' for Inactive)
ROOT
HETATM    1  C1  UNL     1     -33.161  16.597  -2.649  1.00 20.00     0.019 A 
HETATM    2  C2  UNL     1     -32.686  17.745  -2.055  1.00 20.00     0.050 A 
HETATM    3  C3  UNL     1     -35.131  17.786  -2.321  1.00 20.00     0.061 A 
HETATM    4  C4  UNL     1     -34.577  16.621  -2.805  1.00 20.00    -0.023 A 
HETATM    5  C5  UNL     1     -36.674  15.548  -3.552  1.00 20.00     0.058 A 
HETATM    6  C6  UNL     1     -35.346  15.590  -3.377  1.00 20.00    -0.043 A 
HETATM    7  C7  UNL     1     -36.974  14.260  -4.193  1.00 20.00     0.150 A 
HETATM    8  C8  UNL     1     -34.639  14.356  -3.877  1.00 20.00     0.047 A 
HETATM    9  C9  UNL     1     -35.736  13.453  -4.427  1.00 20.00     0.087 A 
HETATM   10  O10 UNL     1     -38.105  13.909  -4.490  1.00 20.00    -0.293 OA
HETATM   11  S11 UNL     1     -33.946  18.845  -1.685  1.00 20.00    -0.113 SA
ENDROOT
TORSDOF 0
ENDMDL
MODEL 5
REMARK VINA RESULT:      -4.7      3.061      4.688
REMARK  0 active torsions:
REMARK  status: ('A' for Active; 'I' for Inactive)
ROOT
HETATM    1  C1  UNL     1     -33.086  15.670  -3.670  1.00 20.00     0.019 A 
HETATM    2  C2  UNL     1     -33.550  14.686  -4.513  1.00 20.00     0.050 A 
HETATM    3  C3  UNL     1     -35.238  15.353  -2.853  1.00 20.00     0.061 A 
HETATM    4  C4  UNL     1     -34.063  16.056  -2.707  1.00 20.00    -0.023 A 
HETATM    5  C5  UNL     1     -34.751  17.447  -0.785  1.00 20.00     0.058 A 
HETATM    6  C6  UNL     1     -33.878  17.038  -1.716  1.00 20.00    -0.043 A 
HETATM    7  C7  UNL     1     -34.071  18.485   0.003  1.00 20.00     0.150 A 
HETATM    8  C8  UNL     1     -32.550  17.749  -1.643  1.00 20.00     0.047 A 
HETATM    9  C9  UNL     1     -32.677  18.730  -0.484  1.00 20.00     0.087 A 
HETATM   10  O10 UNL     1     -34.598  19.067   0.938  1.00 20.00    -0.293 OA
HETATM   11  S11 UNL     1     -35.160  14.231  -4.145  1.00 20.00    -0.113 SA
ENDROOT
TORSDOF 0
ENDMDL
MODEL 6
REMARK VINA RESULT:      -4.6      0.985      1.232
REMARK  0 active torsions:
REMARK  status: ('A' for Active; 'I' for Inactive)
ROOT
HETATM    1  C1  UNL     1     -33.230  18.404  -0.460  1.00 20.00     0.019 A 
HETATM    2  C2  UNL     1     -33.546  19.150   0.653  1.00 20.00     0.050 A 
HETATM    3  C3  UNL     1     -35.360  17.613   0.026  1.00 20.00     0.061 A 
HETATM    4  C4  UNL     1     -34.281  17.514  -0.824  1.00 20.00    -0.023 A 
HETATM    5  C5  UNL     1     -35.195  15.765  -2.312  1.00 20.00     0.058 A 
HETATM    6  C6  UNL     1     -34.247  16.625  -1.916  1.00 20.00    -0.043 A 
HETATM    7  C7  UNL     1     -34.670  15.076  -3.498  1.00 20.00     0.150 A 
HETATM    8  C8  UNL     1     -33.016  16.598  -2.786  1.00 20.00     0.047 A 
HETATM    9  C9  UNL     1     -33.297  15.550  -3.855  1.00 20.00     0.087 A 
HETATM   10  O10 UNL     1     -35.296  14.222  -4.106  1.00 20.00    -0.293 OA
HETATM   11  S11 UNL     1     -35.104  18.776   1.256  1.00 20.00    -0.113 SA
ENDROOT
TORSDOF 0
ENDMDL
MODEL 7
REMARK VINA RESULT:      -4.6      3.192      5.036
REMARK  0 active torsions:
REMARK  status: ('A' for Active; 'I' for Inactive)
ROOT
HETATM    1  C1  UNL     1     -35.332  15.205  -2.985  1.00 20.00     0.019 A 
HETATM    2  C2  UNL     1     -35.092  14.450  -4.111  1.00 20.00     0.050 A 
HETATM    3  C3  UNL     1     -33.184  15.893  -3.542  1.00 20.00     0.061 A 
HETATM    4  C4  UNL     1     -34.228  16.042  -2.656  1.00 20.00    -0.023 A 
HETATM    5  C5  UNL     1     -33.177  17.734  -1.193  1.00 20.00     0.058 A 
HETATM    6  C6  UNL     1     -34.179  16.923  -1.559  1.00 20.00    -0.043 A 
HETATM    7  C7  UNL     1     -33.627  18.443   0.012  1.00 20.00     0.150 A 
HETATM    8  C8  UNL     1     -35.379  17.011  -0.650  1.00 20.00     0.047 A 
HETATM    9  C9  UNL     1     -35.009  18.035   0.416  1.00 20.00     0.087 A 
HETATM   10  O10 UNL     1     -32.939  19.263   0.601  1.00 20.00    -0.293 OA
HETATM   11  S11 UNL     1     -33.538  14.750  -4.766  1.00 20.00    -0.113 SA
ENDROOT
TORSDOF 0
ENDMDL
MODEL 8
REMARK VINA RESULT:      -4.5      3.314      5.081
REMARK  0 active torsions:
REMARK  status: ('A' for Active; 'I' for Inactive)
ROOT
HETATM    1  C1  UNL     1     -35.289  16.121  -2.341  1.00 20.00     0.019 A 
HETATM    2  C2  UNL     1     -35.682  15.294  -3.369  1.00 20.00     0.050 A 
HETATM    3  C3  UNL     1     -33.328  15.976  -3.579  1.00 20.00     0.061 A 
HETATM    4  C4  UNL     1     -33.926  16.517  -2.462  1.00 20.00    -0.023 A 
HETATM    5  C5  UNL     1     -31.970  17.768  -1.617  1.00 20.00     0.058 A 
HETATM    6  C6  UNL     1     -33.245  17.358  -1.562  1.00 20.00    -0.043 A 
HETATM    7  C7  UNL     1     -31.754  18.629  -0.446  1.00 20.00     0.150 A 
HETATM    8  C8  UNL     1     -33.995  17.898  -0.371  1.00 20.00     0.047 A 
HETATM    9  C9  UNL     1     -32.990  18.756   0.388  1.00 20.00     0.087 A 
HETATM   10  O10 UNL     1     -30.686  19.168  -0.201  1.00 20.00    -0.293 OA
HETATM   11  S11 UNL     1     -34.408  14.996  -4.476  1.00 20.00    -0.113 SA
ENDROOT
TORSDOF 0
ENDMDL
MODEL 9
REMARK VINA RESULT:      -4.3     13.959     15.971
REMARK  0 active torsions:
REMARK  status: ('A' for Active; 'I' for Inactive)
ROOT
HETATM    1  C1  UNL     1     -26.533  19.015   8.288  1.00 20.00     0.019 A 
HETATM    2  C2  UNL     1     -26.876  19.263   6.978  1.00 20.00     0.050 A 
HETATM    3  C3  UNL     1     -24.460  18.886   7.247  1.00 20.00     0.061 A 
HETATM    4  C4  UNL     1     -25.134  18.798   8.444  1.00 20.00    -0.023 A 
HETATM    5  C5  UNL     1     -23.185  18.306   9.881  1.00 20.00     0.058 A 
HETATM    6  C6  UNL     1     -24.490  18.520   9.665  1.00 20.00    -0.043 A 
HETATM    7  C7  UNL     1     -23.030  18.065  11.322  1.00 20.00     0.150 A 
HETATM    8  C8  UNL     1     -25.322  18.447  10.920  1.00 20.00     0.047 A 
HETATM    9  C9  UNL     1     -24.340  18.136  12.042  1.00 20.00     0.087 A 
HETATM   10  O10 UNL     1     -21.953  17.835  11.849  1.00 20.00    -0.293 OA
HETATM   11  S11 UNL     1     -25.513  19.232   5.941  1.00 20.00    -0.113 SA
ENDROOT
TORSDOF 0
ENDMDL
