MODEL 1
REMARK VINA RESULT:      -4.8      0.000      0.000
REMARK  0 active torsions:
REMARK  status: ('A' for Active; 'I' for Inactive)
ROOT
HETATM    1  C1  UNL     1     -36.224  14.015  -4.204  1.00 20.00     0.067 C 
HETATM    2  C2  UNL     1     -34.913  14.443  -3.712  1.00 20.00     0.127 C 
HETATM    3  C3  UNL     1     -34.936  15.594  -2.702  1.00 20.00     0.030 C 
HETATM    4  C4  UNL     1     -33.916  14.906  -4.783  1.00 20.00     0.136 C 
HETATM    5  C5  UNL     1     -33.483  16.066  -2.806  1.00 20.00     0.123 C 
HETATM    6  C6  UNL     1     -35.960  16.692  -3.008  1.00 20.00     0.014 C 
HETATM    7  C7  UNL     1     -34.490  15.389  -6.109  1.00 20.00     0.041 C 
HETATM    8  C8  UNL     1     -33.175  17.458  -2.285  1.00 20.00     0.040 C 
HETATM    9  N9  UNL     1     -37.262  13.675  -4.596  1.00 20.00    -0.197 NA
HETATM   10  O10 UNL     1     -33.165  15.995  -4.205  1.00 20.00    -0.380 OA
ENDROOT
TORSDOF 0
ENDMDL
MODEL 2
REMARK VINA RESULT:      -4.6     15.969     17.685
REMARK  0 active torsions:
REMARK  status: ('A' for Active; 'I' for Inactive)
ROOT
HETATM    1  C1  UNL     1     -22.453  17.688   8.420  1.00 20.00     0.067 C 
HETATM    2  C2  UNL     1     -23.142  18.486   9.437  1.00 20.00     0.127 C 
HETATM    3  C3  UNL     1     -23.614  17.712  10.671  1.00 20.00     0.030 C 
HETATM    4  C4  UNL     1     -24.397  19.233   8.962  1.00 20.00     0.136 C 
HETATM    5  C5  UNL     1     -24.655  18.694  11.216  1.00 20.00     0.123 C 
HETATM    6  C6  UNL     1     -24.182  16.320  10.373  1.00 20.00     0.014 C 
HETATM    7  C7  UNL     1     -25.105  18.692   7.727  1.00 20.00     0.041 C 
HETATM    8  C8  UNL     1     -25.669  18.140  12.200  1.00 20.00     0.040 C 
HETATM    9  N9  UNL     1     -21.908  17.056   7.614  1.00 20.00    -0.197 NA
HETATM   10  O10 UNL     1     -25.335  19.202  10.058  1.00 20.00    -0.380 OA
ENDROOT
TORSDOF 0
ENDMDL
MODEL 3
REMARK VINA RESULT:      -4.5      1.059      1.216
REMARK  0 active torsions:
REMARK  status: ('A' for Active; 'I' for Inactive)
ROOT
HETATM    1  C1  UNL     1     -35.254  13.815  -4.355  1.00 20.00     0.067 C 
HETATM    2  C2  UNL     1     -34.206  14.839  -4.359  1.00 20.00     0.127 C 
HETATM    3  C3  UNL     1     -33.973  15.544  -3.020  1.00 20.00     0.030 C 
HETATM    4  C4  UNL     1     -34.399  15.988  -5.358  1.00 20.00     0.136 C 
HETATM    5  C5  UNL     1     -33.234  16.794  -3.505  1.00 20.00     0.123 C 
HETATM    6  C6  UNL     1     -35.249  15.854  -2.230  1.00 20.00     0.014 C 
HETATM    7  C7  UNL     1     -35.819  16.268  -5.833  1.00 20.00     0.041 C 
HETATM    8  C8  UNL     1     -33.183  17.973  -2.551  1.00 20.00     0.040 C 
HETATM    9  N9  UNL     1     -36.085  13.005  -4.352  1.00 20.00    -0.197 NA
HETATM   10  O10 UNL     1     -33.906  17.181  -4.714  1.00 20.00    -0.380 OA
ENDROOT
TORSDOF 0
ENDMDL
MODEL 4
REMARK VINA RESULT:      -4.2      2.090      3.297
REMARK  0 active torsions:
REMARK  status: ('A' for Active; 'I' for Inactive)
ROOT
HETATM    1  C1  UNL     1     -34.864  15.699  -2.507  1.00 20.00     0.067 C 
HETATM    2  C2  UNL     1     -34.447  14.935  -3.685  1.00 20.00     0.127 C 
HETATM    3  C3  UNL     1     -33.870  15.765  -4.835  1.00 20.00     0.030 C 
HETATM    4  C4  UNL     1     -35.538  14.083  -4.349  1.00 20.00     0.136 C 
HETATM    5  C5  UNL     1     -34.020  14.764  -5.984  1.00 20.00     0.123 C 
HETATM    6  C6  UNL     1     -34.588  17.096  -5.085  1.00 20.00     0.014 C 
HETATM    7  C7  UNL     1     -36.985  14.492  -4.109  1.00 20.00     0.041 C 
HETATM    8  C8  UNL     1     -33.960  15.324  -7.393  1.00 20.00     0.040 C 
HETATM    9  N9  UNL     1     -35.196  16.304  -1.574  1.00 20.00    -0.197 NA
HETATM   10  O10 UNL     1     -35.293  14.135  -5.770  1.00 20.00    -0.380 OA
ENDROOT
TORSDOF 0
ENDMDL
MODEL 5
REMARK VINA RESULT:      -4.1      1.576      3.066
REMARK  0 active torsions:
REMARK  status: ('A' for Active; 'I' for Inactive)
ROOT
HETATM    1  C1  UNL     1     -35.964  13.832  -4.683  1.00 20.00     0.067 C 
HETATM    2  C2  UNL     1     -36.065  15.271  -4.936  1.00 20.00     0.127 C 
HETATM    3  C3  UNL     1     -35.414  15.757  -6.233  1.00 20.00     0.030 C 
HETATM    4  C4  UNL     1     -35.469  16.183  -3.854  1.00 20.00     0.136 C 
HETATM    5  C5  UNL     1     -35.281  17.250  -5.920  1.00 20.00     0.123 C 
HETATM    6  C6  UNL     1     -34.080  15.082  -6.570  1.00 20.00     0.014 C 
HETATM    7  C7  UNL     1     -34.401  15.584  -2.948  1.00 20.00     0.041 C 
HETATM    8  C8  UNL     1     -34.303  18.044  -6.765  1.00 20.00     0.040 C 
HETATM    9  N9  UNL     1     -35.882  12.692  -4.481  1.00 20.00    -0.197 NA
HETATM   10  O10 UNL     1     -34.885  17.310  -4.541  1.00 20.00    -0.380 OA
ENDROOT
TORSDOF 0
ENDMDL
MODEL 6
REMARK VINA RESULT:      -4.0      2.059      2.457
REMARK  0 active torsions:
REMARK  status: ('A' for Active; 'I' for Inactive)
ROOT
HETATM    1  C1  UNL     1     -33.713  15.150  -5.064  1.00 20.00     0.067 C 
HETATM    2  C2  UNL     1     -33.508  15.816  -3.775  1.00 20.00     0.127 C 
HETATM    3  C3  UNL     1     -34.580  15.541  -2.717  1.00 20.00     0.030 C 
HETATM    4  C4  UNL     1     -33.413  17.347  -3.823  1.00 20.00     0.136 C 
HETATM    5  C5  UNL     1     -34.322  16.716  -1.770  1.00 20.00     0.123 C 
HETATM    6  C6  UNL     1     -36.013  15.492  -3.256  1.00 20.00     0.014 C 
HETATM    7  C7  UNL     1     -34.051  18.049  -5.015  1.00 20.00     0.041 C 
HETATM    8  C8  UNL     1     -35.435  17.071  -0.800  1.00 20.00     0.040 C 
HETATM    9  N9  UNL     1     -33.876  14.624  -6.085  1.00 20.00    -0.197 NA
HETATM   10  O10 UNL     1     -34.054  17.837  -2.626  1.00 20.00    -0.380 OA
ENDROOT
TORSDOF 0
ENDMDL
MODEL 7
REMARK VINA RESULT:      -4.0     17.678     18.539
REMARK  0 active torsions:
REMARK  status: ('A' for Active; 'I' for Inactive)
ROOT
HETATM    1  C1  UNL     1     -22.694  16.760   9.229  1.00 20.00     0.067 C 
HETATM    2  C2  UNL     1     -23.735  16.834  10.257  1.00 20.00     0.127 C 
HETATM    3  C3  UNL     1     -24.806  17.904  10.030  1.00 20.00     0.030 C 
HETATM    4  C4  UNL     1     -23.243  17.094  11.687  1.00 20.00     0.136 C 
HETATM    5  C5  UNL     1     -25.373  18.015  11.448  1.00 20.00     0.123 C 
HETATM    6  C6  UNL     1     -24.276  19.231   9.477  1.00 20.00     0.014 C 
HETATM    7  C7  UNL     1     -21.886  17.766  11.847  1.00 20.00     0.041 C 
HETATM    8  C8  UNL     1     -26.174  19.263  11.770  1.00 20.00     0.040 C 
HETATM    9  N9  UNL     1     -21.868  16.702   8.416  1.00 20.00    -0.197 NA
HETATM   10  O10 UNL     1     -24.231  17.938  12.315  1.00 20.00    -0.380 OA
ENDROOT
TORSDOF 0
ENDMDL
MODEL 8
REMARK VINA RESULT:      -4.0      1.608      2.045
REMARK  0 active torsions:
REMARK  status: ('A' for Active; 'I' for Inactive)
ROOT
HETATM    1  C1  UNL     1     -37.780  14.552  -4.324  1.00 20.00     0.067 C 
HETATM    2  C2  UNL     1     -36.411  14.089  -4.564  1.00 20.00     0.127 C 
HETATM    3  C3  UNL     1     -35.362  14.603  -3.573  1.00 20.00     0.030 C 
HETATM    4  C4  UNL     1     -35.822  14.429  -5.940  1.00 20.00     0.136 C 
HETATM    5  C5  UNL     1     -34.088  14.350  -4.383  1.00 20.00     0.123 C 
HETATM    6  C6  UNL     1     -35.541  16.066  -3.155  1.00 20.00     0.014 C 
HETATM    7  C7  UNL     1     -36.430  15.609  -6.687  1.00 20.00     0.041 C 
HETATM    8  C8  UNL     1     -32.841  15.099  -3.950  1.00 20.00     0.040 C 
HETATM    9  N9  UNL     1     -38.864  14.920  -4.136  1.00 20.00    -0.197 NA
HETATM   10  O10 UNL     1     -34.422  14.711  -5.732  1.00 20.00    -0.380 OA
ENDROOT
TORSDOF 0
ENDMDL
MODEL 9
REMARK VINA RESULT:      -3.9     10.919     12.485
REMARK  0 active torsions:
REMARK  status: ('A' for Active; 'I' for Inactive)
ROOT
HETATM    1  C1  UNL     1     -43.004   5.032  -1.525  1.00 20.00     0.067 C 
HETATM    2  C2  UNL     1     -43.282   6.326  -0.898  1.00 20.00     0.127 C 
HETATM    3  C3  UNL     1     -42.248   7.423  -1.171  1.00 20.00     0.030 C 
HETATM    4  C4  UNL     1     -43.416   6.312   0.631  1.00 20.00     0.136 C 
HETATM    5  C5  UNL     1     -42.577   8.386  -0.028  1.00 20.00     0.123 C 
HETATM    6  C6  UNL     1     -40.792   6.944  -1.168  1.00 20.00     0.014 C 
HETATM    7  C7  UNL     1     -42.748   5.166   1.380  1.00 20.00     0.041 C 
HETATM    8  C8  UNL     1     -41.517   9.411   0.331  1.00 20.00     0.040 C 
HETATM    9  N9  UNL     1     -42.784   4.006  -2.020  1.00 20.00    -0.197 NA
HETATM   10  O10 UNL     1     -42.840   7.547   1.107  1.00 20.00    -0.380 OA
ENDROOT
TORSDOF 0
ENDMDL
