MODEL 1
REMARK VINA RESULT:      -5.5      0.000      0.000
REMARK  2 active torsions:
REMARK  status: ('A' for Active; 'I' for Inactive)
REMARK    1  A    between atoms: C4_4  and  C12_12 
REMARK    2  A    between atoms: C11_11  and  C12_12 
ROOT
HETATM    1  C1  UNL     1     -32.011  18.490  -0.684  1.00 20.00     0.012 C 
HETATM    2  C2  UNL     1     -32.439  17.811  -1.578  1.00 20.00    -0.117 C 
HETATM    3  C11 UNL     1     -32.959  16.981  -2.674  1.00 20.00     0.097 C 
ENDROOT
BRANCH   3   4
HETATM    4  C12 UNL     1     -34.236  16.252  -2.282  1.00 20.00     0.046 C 
BRANCH   4   5
HETATM    5  C4  UNL     1     -34.858  15.594  -3.479  1.00 20.00    -0.075 C 
HETATM    6  C3  UNL     1     -36.051  14.986  -3.396  1.00 20.00     0.053 C 
HETATM    7  C5  UNL     1     -36.628  14.291  -4.571  1.00 20.00     0.150 C 
HETATM    8  C7  UNL     1     -35.811  14.208  -5.842  1.00 20.00     0.092 C 
HETATM    9  O13 UNL     1     -37.728  13.747  -4.477  1.00 20.00    -0.293 OA
HETATM   10  C8  UNL     1     -34.892  15.426  -6.034  1.00 20.00    -0.037 C 
HETATM   11  C6  UNL     1     -34.056  15.652  -4.755  1.00 20.00     0.043 C 
HETATM   12  C9  UNL     1     -35.730  16.680  -6.362  1.00 20.00     0.015 C 
HETATM   13  C10 UNL     1     -33.944  15.164  -7.218  1.00 20.00     0.015 C 
ENDBRANCH   4   5
ENDBRANCH   3   4
TORSDOF 2
ENDMDL
MODEL 2
REMARK VINA RESULT:      -5.4      1.584      2.060
REMARK  2 active torsions:
REMARK  status: ('A' for Active; 'I' for Inactive)
REMARK    1  A    between atoms: C4_4  and  C12_12 
REMARK    2  A    between atoms: C11_11  and  C12_12 
ROOT
HETATM    1  C1  UNL     1     -35.307  17.021  -0.554  1.00 20.00     0.012 C 
HETATM    2  C2  UNL     1     -34.447  17.211  -1.371  1.00 20.00    -0.117 C 
HETATM    3  C11 UNL     1     -33.395  17.449  -2.370  1.00 20.00     0.097 C 
ENDROOT
BRANCH   3   4
HETATM    4  C12 UNL     1     -33.026  16.180  -3.123  1.00 20.00     0.046 C 
BRANCH   4   5
HETATM    5  C4  UNL     1     -34.210  15.644  -3.873  1.00 20.00    -0.075 C 
HETATM    6  C3  UNL     1     -34.603  14.369  -3.733  1.00 20.00     0.053 C 
HETATM    7  C5  UNL     1     -35.741  13.838  -4.522  1.00 20.00     0.150 C 
HETATM    8  C7  UNL     1     -36.396  14.736  -5.549  1.00 20.00     0.092 C 
HETATM    9  O13 UNL     1     -36.092  12.669  -4.372  1.00 20.00    -0.293 OA
HETATM   10  C8  UNL     1     -36.354  16.220  -5.149  1.00 20.00    -0.037 C 
HETATM   11  C6  UNL     1     -34.906  16.620  -4.789  1.00 20.00     0.043 C 
HETATM   12  C9  UNL     1     -37.301  16.479  -3.957  1.00 20.00     0.015 C 
HETATM   13  C10 UNL     1     -36.835  17.078  -6.333  1.00 20.00     0.015 C 
ENDBRANCH   4   5
ENDBRANCH   3   4
TORSDOF 2
ENDMDL
MODEL 3
REMARK VINA RESULT:      -5.2      2.894      5.705
REMARK  2 active torsions:
REMARK  status: ('A' for Active; 'I' for Inactive)
REMARK    1  A    between atoms: C4_4  and  C12_12 
REMARK    2  A    between atoms: C11_11  and  C12_12 
ROOT
HETATM    1  C1  UNL     1     -34.075  15.112  -6.752  1.00 20.00     0.012 C 
HETATM    2  C2  UNL     1     -33.794  14.987  -5.591  1.00 20.00    -0.117 C 
HETATM    3  C11 UNL     1     -33.447  14.833  -4.171  1.00 20.00     0.097 C 
ENDROOT
BRANCH   3   4
HETATM    4  C12 UNL     1     -34.605  15.202  -3.256  1.00 20.00     0.046 C 
BRANCH   4   5
HETATM    5  C4  UNL     1     -34.201  16.287  -2.301  1.00 20.00    -0.075 C 
HETATM    6  C3  UNL     1     -33.067  16.981  -2.476  1.00 20.00     0.053 C 
HETATM    7  C5  UNL     1     -32.653  18.011  -1.494  1.00 20.00     0.150 C 
HETATM    8  C7  UNL     1     -33.489  18.207  -0.247  1.00 20.00     0.092 C 
HETATM    9  O13 UNL     1     -31.614  18.644  -1.677  1.00 20.00    -0.293 OA
HETATM   10  C8  UNL     1     -34.980  17.916  -0.484  1.00 20.00    -0.037 C 
HETATM   11  C6  UNL     1     -35.139  16.527  -1.144  1.00 20.00     0.043 C 
HETATM   12  C9  UNL     1     -35.604  19.012  -1.374  1.00 20.00     0.015 C 
HETATM   13  C10 UNL     1     -35.718  17.921   0.866  1.00 20.00     0.015 C 
ENDBRANCH   4   5
ENDBRANCH   3   4
TORSDOF 2
ENDMDL
MODEL 4
REMARK VINA RESULT:      -5.0      2.060      3.035
REMARK  2 active torsions:
REMARK  status: ('A' for Active; 'I' for Inactive)
REMARK    1  A    between atoms: C4_4  and  C12_12 
REMARK    2  A    between atoms: C11_11  and  C12_12 
ROOT
HETATM    1  C1  UNL     1     -30.738  18.466   0.662  1.00 20.00     0.012 C 
HETATM    2  C2  UNL     1     -31.436  18.461  -0.315  1.00 20.00    -0.117 C 
HETATM    3  C11 UNL     1     -32.288  18.456  -1.513  1.00 20.00     0.097 C 
ENDROOT
BRANCH   3   4
HETATM    4  C12 UNL     1     -33.486  17.531  -1.359  1.00 20.00     0.046 C 
BRANCH   4   5
HETATM    5  C4  UNL     1     -33.924  17.004  -2.694  1.00 20.00    -0.075 C 
HETATM    6  C3  UNL     1     -33.815  17.747  -3.805  1.00 20.00     0.053 C 
HETATM    7  C5  UNL     1     -34.303  17.235  -5.108  1.00 20.00     0.150 C 
HETATM    8  C7  UNL     1     -35.003  15.894  -5.147  1.00 20.00     0.092 C 
HETATM    9  O13 UNL     1     -34.185  17.929  -6.117  1.00 20.00    -0.293 OA
HETATM   10  C8  UNL     1     -34.477  14.921  -4.079  1.00 20.00    -0.037 C 
HETATM   11  C6  UNL     1     -34.498  15.609  -2.695  1.00 20.00     0.043 C 
HETATM   12  C9  UNL     1     -33.046  14.462  -4.433  1.00 20.00     0.015 C 
HETATM   13  C10 UNL     1     -35.379  13.676  -4.038  1.00 20.00     0.015 C 
ENDBRANCH   4   5
ENDBRANCH   3   4
TORSDOF 2
ENDMDL
MODEL 5
REMARK VINA RESULT:      -4.9      2.808      5.506
REMARK  2 active torsions:
REMARK  status: ('A' for Active; 'I' for Inactive)
REMARK    1  A    between atoms: C4_4  and  C12_12 
REMARK    2  A    between atoms: C11_11  and  C12_12 
ROOT
HETATM    1  C1  UNL     1     -36.899  16.762  -5.287  1.00 20.00     0.012 C 
HETATM    2  C2  UNL     1     -35.813  16.262  -5.173  1.00 20.00    -0.117 C 
HETATM    3  C11 UNL     1     -34.483  15.651  -5.038  1.00 20.00     0.097 C 
ENDROOT
BRANCH   3   4
HETATM    4  C12 UNL     1     -34.261  15.066  -3.651  1.00 20.00     0.046 C 
BRANCH   4   5
HETATM    5  C4  UNL     1     -34.018  16.157  -2.649  1.00 20.00    -0.075 C 
HETATM    6  C3  UNL     1     -32.935  16.944  -2.727  1.00 20.00     0.053 C 
HETATM    7  C5  UNL     1     -32.678  17.981  -1.698  1.00 20.00     0.150 C 
HETATM    8  C7  UNL     1     -33.616  18.079  -0.514  1.00 20.00     0.092 C 
HETATM    9  O13 UNL     1     -31.684  18.698  -1.792  1.00 20.00    -0.293 OA
HETATM   10  C8  UNL     1     -35.057  17.674  -0.866  1.00 20.00    -0.037 C 
HETATM   11  C6  UNL     1     -35.053  16.294  -1.560  1.00 20.00     0.043 C 
HETATM   12  C9  UNL     1     -35.702  18.738  -1.780  1.00 20.00     0.015 C 
HETATM   13  C10 UNL     1     -35.889  17.588   0.425  1.00 20.00     0.015 C 
ENDBRANCH   4   5
ENDBRANCH   3   4
TORSDOF 2
ENDMDL
MODEL 6
REMARK VINA RESULT:      -4.9      1.436      1.900
REMARK  2 active torsions:
REMARK  status: ('A' for Active; 'I' for Inactive)
REMARK    1  A    between atoms: C4_4  and  C12_12 
REMARK    2  A    between atoms: C11_11  and  C12_12 
ROOT
HETATM    1  C1  UNL     1     -33.130  18.447   0.081  1.00 20.00     0.012 C 
HETATM    2  C2  UNL     1     -34.167  17.925  -0.229  1.00 20.00    -0.117 C 
HETATM    3  C11 UNL     1     -35.435  17.285  -0.604  1.00 20.00     0.097 C 
ENDROOT
BRANCH   3   4
HETATM    4  C12 UNL     1     -35.804  17.554  -2.056  1.00 20.00     0.046 C 
BRANCH   4   5
HETATM    5  C4  UNL     1     -35.661  16.307  -2.878  1.00 20.00    -0.075 C 
HETATM    6  C3  UNL     1     -36.736  15.628  -3.305  1.00 20.00     0.053 C 
HETATM    7  C5  UNL     1     -36.579  14.367  -4.069  1.00 20.00     0.150 C 
HETATM    8  C7  UNL     1     -35.186  13.816  -4.286  1.00 20.00     0.092 C 
HETATM    9  O13 UNL     1     -37.578  13.764  -4.459  1.00 20.00    -0.293 OA
HETATM   10  C8  UNL     1     -34.122  14.921  -4.386  1.00 20.00    -0.037 C 
HETATM   11  C6  UNL     1     -34.247  15.872  -3.174  1.00 20.00     0.043 C 
HETATM   12  C9  UNL     1     -34.286  15.703  -5.707  1.00 20.00     0.015 C 
HETATM   13  C10 UNL     1     -32.723  14.280  -4.383  1.00 20.00     0.015 C 
ENDBRANCH   4   5
ENDBRANCH   3   4
TORSDOF 2
ENDMDL
MODEL 7
REMARK VINA RESULT:      -4.7      1.834      2.655
REMARK  2 active torsions:
REMARK  status: ('A' for Active; 'I' for Inactive)
REMARK    1  A    between atoms: C4_4  and  C12_12 
REMARK    2  A    between atoms: C11_11  and  C12_12 
ROOT
HETATM    1  C1  UNL     1     -35.332  17.225  -0.496  1.00 20.00     0.012 C 
HETATM    2  C2  UNL     1     -34.246  17.446  -0.960  1.00 20.00    -0.117 C 
HETATM    3  C11 UNL     1     -32.917  17.716  -1.525  1.00 20.00     0.097 C 
ENDROOT
BRANCH   3   4
HETATM    4  C12 UNL     1     -32.980  18.025  -3.013  1.00 20.00     0.046 C 
BRANCH   4   5
HETATM    5  C4  UNL     1     -33.570  16.871  -3.770  1.00 20.00    -0.075 C 
HETATM    6  C3  UNL     1     -33.048  15.639  -3.677  1.00 20.00     0.053 C 
HETATM    7  C5  UNL     1     -33.606  14.520  -4.474  1.00 20.00     0.150 C 
HETATM    8  C7  UNL     1     -34.721  14.810  -5.455  1.00 20.00     0.092 C 
HETATM    9  O13 UNL     1     -33.119  13.395  -4.367  1.00 20.00    -0.293 OA
HETATM   10  C8  UNL     1     -35.628  15.964  -4.995  1.00 20.00    -0.037 C 
HETATM   11  C6  UNL     1     -34.762  17.192  -4.636  1.00 20.00     0.043 C 
HETATM   12  C9  UNL     1     -36.476  15.526  -3.782  1.00 20.00     0.015 C 
HETATM   13  C10 UNL     1     -36.589  16.339  -6.137  1.00 20.00     0.015 C 
ENDBRANCH   4   5
ENDBRANCH   3   4
TORSDOF 2
ENDMDL
MODEL 8
REMARK VINA RESULT:      -4.7      1.559      2.862
REMARK  2 active torsions:
REMARK  status: ('A' for Active; 'I' for Inactive)
REMARK    1  A    between atoms: C4_4  and  C12_12 
REMARK    2  A    between atoms: C11_11  and  C12_12 
ROOT
HETATM    1  C1  UNL     1     -33.223  16.692  -2.709  1.00 20.00     0.012 C 
HETATM    2  C2  UNL     1     -33.197  15.767  -3.474  1.00 20.00    -0.117 C 
HETATM    3  C11 UNL     1     -33.164  14.633  -4.409  1.00 20.00     0.097 C 
ENDROOT
BRANCH   3   4
HETATM    4  C12 UNL     1     -33.897  14.940  -5.706  1.00 20.00     0.046 C 
BRANCH   4   5
HETATM    5  C4  UNL     1     -35.330  15.293  -5.435  1.00 20.00    -0.075 C 
HETATM    6  C3  UNL     1     -36.191  14.385  -4.953  1.00 20.00     0.053 C 
HETATM    7  C5  UNL     1     -37.617  14.733  -4.742  1.00 20.00     0.150 C 
HETATM    8  C7  UNL     1     -38.101  16.105  -5.159  1.00 20.00     0.092 C 
HETATM    9  O13 UNL     1     -38.389  13.888  -4.291  1.00 20.00    -0.293 OA
HETATM   10  C8  UNL     1     -37.011  17.182  -5.026  1.00 20.00    -0.037 C 
HETATM   11  C6  UNL     1     -35.729  16.714  -5.749  1.00 20.00     0.043 C 
HETATM   12  C9  UNL     1     -36.721  17.466  -3.536  1.00 20.00     0.015 C 
HETATM   13  C10 UNL     1     -37.507  18.488  -5.671  1.00 20.00     0.015 C 
ENDBRANCH   4   5
ENDBRANCH   3   4
TORSDOF 2
ENDMDL
MODEL 9
REMARK VINA RESULT:      -4.7      1.750      2.515
REMARK  2 active torsions:
REMARK  status: ('A' for Active; 'I' for Inactive)
REMARK    1  A    between atoms: C4_4  and  C12_12 
REMARK    2  A    between atoms: C11_11  and  C12_12 
ROOT
HETATM    1  C1  UNL     1     -31.880  18.249  -0.951  1.00 20.00     0.012 C 
HETATM    2  C2  UNL     1     -33.074  18.187  -1.065  1.00 20.00    -0.117 C 
HETATM    3  C11 UNL     1     -34.536  18.116  -1.204  1.00 20.00     0.097 C 
ENDROOT
BRANCH   3   4
HETATM    4  C12 UNL     1     -35.037  16.680  -1.238  1.00 20.00     0.046 C 
BRANCH   4   5
HETATM    5  C4  UNL     1     -35.099  16.172  -2.649  1.00 20.00    -0.075 C 
HETATM    6  C3  UNL     1     -34.170  15.332  -3.126  1.00 20.00     0.053 C 
HETATM    7  C5  UNL     1     -34.212  14.883  -4.539  1.00 20.00     0.150 C 
HETATM    8  C7  UNL     1     -35.272  15.455  -5.454  1.00 20.00     0.092 C 
HETATM    9  O13 UNL     1     -33.355  14.104  -4.955  1.00 20.00    -0.293 OA
HETATM   10  C8  UNL     1     -36.574  15.797  -4.709  1.00 20.00    -0.037 C 
HETATM   11  C6  UNL     1     -36.252  16.677  -3.480  1.00 20.00     0.043 C 
HETATM   12  C9  UNL     1     -37.296  14.503  -4.274  1.00 20.00     0.015 C 
HETATM   13  C10 UNL     1     -37.511  16.570  -5.653  1.00 20.00     0.015 C 
ENDBRANCH   4   5
ENDBRANCH   3   4
TORSDOF 2
ENDMDL
