MODEL 1
REMARK VINA RESULT:      -4.1      0.000      0.000
REMARK  1 active torsions:
REMARK  status: ('A' for Active; 'I' for Inactive)
REMARK    1  A    between atoms: C2_2  and  C8_8 
ROOT
HETATM    1  C1  UNL     1     -34.057  15.887  -4.840  1.00 20.00     0.018 C 
HETATM    2  C2  UNL     1     -34.614  15.061  -3.676  1.00 20.00     0.034 C 
HETATM    3  C3  UNL     1     -34.039  14.823  -5.941  1.00 20.00     0.122 C 
HETATM    4  C4  UNL     1     -35.573  14.068  -4.352  1.00 20.00     0.123 C 
HETATM    5  C5  UNL     1     -34.876  17.131  -5.186  1.00 20.00     0.013 C 
HETATM    6  C6  UNL     1     -33.971  15.321  -7.372  1.00 20.00     0.040 C 
HETATM    7  C7  UNL     1     -37.063  14.344  -4.221  1.00 20.00     0.040 C 
HETATM    8  O9  UNL     1     -35.240  14.058  -5.754  1.00 20.00    -0.381 OA
ENDROOT
BRANCH   2   9
HETATM    9  C8  UNL     1     -35.164  15.837  -2.489  1.00 20.00     0.122 C 
HETATM   10 CL10 UNL     1     -33.892  16.846  -1.781  1.00 20.00    -0.130 Cl
ENDBRANCH   2   9
TORSDOF 1
ENDMDL
MODEL 2
REMARK VINA RESULT:      -3.9      1.683      2.880
REMARK  1 active torsions:
REMARK  status: ('A' for Active; 'I' for Inactive)
REMARK    1  A    between atoms: C2_2  and  C8_8 
ROOT
HETATM    1  C1  UNL     1     -34.480  14.919  -3.292  1.00 20.00     0.018 C 
HETATM    2  C2  UNL     1     -34.421  16.345  -2.735  1.00 20.00     0.034 C 
HETATM    3  C3  UNL     1     -35.945  14.861  -3.730  1.00 20.00     0.122 C 
HETATM    4  C4  UNL     1     -35.405  17.129  -3.617  1.00 20.00     0.123 C 
HETATM    5  C5  UNL     1     -33.480  14.633  -4.414  1.00 20.00     0.013 C 
HETATM    6  C6  UNL     1     -36.318  13.785  -4.732  1.00 20.00     0.040 C 
HETATM    7  C7  UNL     1     -34.810  18.046  -4.674  1.00 20.00     0.040 C 
HETATM    8  O9  UNL     1     -36.232  16.154  -4.284  1.00 20.00    -0.381 OA
ENDROOT
BRANCH   2   9
HETATM    9  C8  UNL     1     -33.038  16.951  -2.553  1.00 20.00     0.122 C 
HETATM   10 CL10 UNL     1     -32.991  17.927  -1.076  1.00 20.00    -0.130 Cl
ENDBRANCH   2   9
TORSDOF 1
ENDMDL
MODEL 3
REMARK VINA RESULT:      -3.8      2.612      3.872
REMARK  1 active torsions:
REMARK  status: ('A' for Active; 'I' for Inactive)
REMARK    1  A    between atoms: C2_2  and  C8_8 
ROOT
HETATM    1  C1  UNL     1     -34.167  16.043  -2.391  1.00 20.00     0.018 C 
HETATM    2  C2  UNL     1     -34.684  15.710  -3.795  1.00 20.00     0.034 C 
HETATM    3  C3  UNL     1     -32.999  16.967  -2.747  1.00 20.00     0.122 C 
HETATM    4  C4  UNL     1     -34.414  16.989  -4.602  1.00 20.00     0.123 C 
HETATM    5  C5  UNL     1     -35.206  16.677  -1.465  1.00 20.00     0.013 C 
HETATM    6  C6  UNL     1     -32.483  17.873  -1.645  1.00 20.00     0.040 C 
HETATM    7  C7  UNL     1     -35.609  17.878  -4.912  1.00 20.00     0.040 C 
HETATM    8  O9  UNL     1     -33.462  17.764  -3.848  1.00 20.00    -0.381 OA
ENDROOT
BRANCH   2   9
HETATM    9  C8  UNL     1     -36.086  15.129  -3.886  1.00 20.00     0.122 C 
HETATM   10 CL10 UNL     1     -36.013  13.440  -4.411  1.00 20.00    -0.130 Cl
ENDBRANCH   2   9
TORSDOF 1
ENDMDL
MODEL 4
REMARK VINA RESULT:      -3.8      1.879      2.816
REMARK  1 active torsions:
REMARK  status: ('A' for Active; 'I' for Inactive)
REMARK    1  A    between atoms: C2_2  and  C8_8 
ROOT
HETATM    1  C1  UNL     1     -33.781  15.759  -4.132  1.00 20.00     0.018 C 
HETATM    2  C2  UNL     1     -33.415  16.417  -2.797  1.00 20.00     0.034 C 
HETATM    3  C3  UNL     1     -34.732  14.664  -3.640  1.00 20.00     0.122 C 
HETATM    4  C4  UNL     1     -34.691  16.275  -1.952  1.00 20.00     0.123 C 
HETATM    5  C5  UNL     1     -34.399  16.707  -5.160  1.00 20.00     0.013 C 
HETATM    6  C6  UNL     1     -35.667  14.057  -4.669  1.00 20.00     0.040 C 
HETATM    7  C7  UNL     1     -35.542  17.521  -1.767  1.00 20.00     0.040 C 
HETATM    8  O9  UNL     1     -35.502  15.268  -2.589  1.00 20.00    -0.381 OA
ENDROOT
BRANCH   2   9
HETATM    9  C8  UNL     1     -32.795  17.804  -2.867  1.00 20.00     0.122 C 
HETATM   10 CL10 UNL     1     -31.981  18.184  -1.341  1.00 20.00    -0.130 Cl
ENDBRANCH   2   9
TORSDOF 1
ENDMDL
MODEL 5
REMARK VINA RESULT:      -3.8      2.282      3.499
REMARK  1 active torsions:
REMARK  status: ('A' for Active; 'I' for Inactive)
REMARK    1  A    between atoms: C2_2  and  C8_8 
ROOT
HETATM    1  C1  UNL     1     -35.561  15.925  -3.066  1.00 20.00     0.018 C 
HETATM    2  C2  UNL     1     -35.504  14.626  -3.877  1.00 20.00     0.034 C 
HETATM    3  C3  UNL     1     -34.148  15.937  -2.477  1.00 20.00     0.122 C 
HETATM    4  C4  UNL     1     -34.044  14.548  -4.349  1.00 20.00     0.123 C 
HETATM    5  C5  UNL     1     -35.908  17.170  -3.885  1.00 20.00     0.013 C 
HETATM    6  C6  UNL     1     -33.632  17.269  -1.965  1.00 20.00     0.040 C 
HETATM    7  C7  UNL     1     -33.767  14.887  -5.805  1.00 20.00     0.040 C 
HETATM    8  O9  UNL     1     -33.291  15.460  -3.525  1.00 20.00    -0.381 OA
ENDROOT
BRANCH   2   9
HETATM    9  C8  UNL     1     -36.575  14.436  -4.940  1.00 20.00     0.122 C 
HETATM   10 CL10 UNL     1     -38.181  14.455  -4.195  1.00 20.00    -0.130 Cl
ENDBRANCH   2   9
TORSDOF 1
ENDMDL
MODEL 6
REMARK VINA RESULT:      -3.8      1.935      2.563
REMARK  1 active torsions:
REMARK  status: ('A' for Active; 'I' for Inactive)
REMARK    1  A    between atoms: C2_2  and  C8_8 
ROOT
HETATM    1  C1  UNL     1     -33.981  15.889  -2.558  1.00 20.00     0.018 C 
HETATM    2  C2  UNL     1     -35.368  16.313  -2.064  1.00 20.00     0.034 C 
HETATM    3  C3  UNL     1     -34.377  14.933  -3.687  1.00 20.00     0.122 C 
HETATM    4  C4  UNL     1     -36.232  16.306  -3.336  1.00 20.00     0.123 C 
HETATM    5  C5  UNL     1     -33.084  17.045  -3.003  1.00 20.00     0.013 C 
HETATM    6  C6  UNL     1     -33.316  14.626  -4.727  1.00 20.00     0.040 C 
HETATM    7  C7  UNL     1     -36.580  17.655  -3.945  1.00 20.00     0.040 C 
HETATM    8  O9  UNL     1     -35.512  15.540  -4.323  1.00 20.00    -0.381 OA
ENDROOT
BRANCH   2   9
HETATM    9  C8  UNL     1     -35.434  17.565  -1.204  1.00 20.00     0.122 C 
HETATM   10 CL10 UNL     1     -35.480  17.122   0.510  1.00 20.00    -0.130 Cl
ENDBRANCH   2   9
TORSDOF 1
ENDMDL
MODEL 7
REMARK VINA RESULT:      -3.7     17.468     18.740
REMARK  1 active torsions:
REMARK  status: ('A' for Active; 'I' for Inactive)
REMARK    1  A    between atoms: C2_2  and  C8_8 
ROOT
HETATM    1  C1  UNL     1     -23.472  18.801   9.371  1.00 20.00     0.018 C 
HETATM    2  C2  UNL     1     -24.212  18.624  10.701  1.00 20.00     0.034 C 
HETATM    3  C3  UNL     1     -22.149  18.107   9.703  1.00 20.00     0.122 C 
HETATM    4  C4  UNL     1     -23.706  17.273  11.229  1.00 20.00     0.123 C 
HETATM    5  C5  UNL     1     -24.197  18.217   8.158  1.00 20.00     0.013 C 
HETATM    6  C6  UNL     1     -21.293  17.667   8.531  1.00 20.00     0.040 C 
HETATM    7  C7  UNL     1     -24.650  16.086  11.114  1.00 20.00     0.040 C 
HETATM    8  O9  UNL     1     -22.504  16.963  10.495  1.00 20.00    -0.381 OA
ENDROOT
BRANCH   2   9
HETATM    9  C8  UNL     1     -25.719  18.825  10.677  1.00 20.00     0.122 C 
HETATM   10 CL10 UNL     1     -26.348  18.904  12.330  1.00 20.00    -0.130 Cl
ENDBRANCH   2   9
TORSDOF 1
ENDMDL
MODEL 8
REMARK VINA RESULT:      -3.7      2.940      4.717
REMARK  1 active torsions:
REMARK  status: ('A' for Active; 'I' for Inactive)
REMARK    1  A    between atoms: C2_2  and  C8_8 
ROOT
HETATM    1  C1  UNL     1     -35.407  16.228  -2.110  1.00 20.00     0.018 C 
HETATM    2  C2  UNL     1     -34.005  15.962  -2.667  1.00 20.00     0.034 C 
HETATM    3  C3  UNL     1     -35.048  16.951  -0.809  1.00 20.00     0.122 C 
HETATM    4  C4  UNL     1     -33.183  17.171  -2.195  1.00 20.00     0.123 C 
HETATM    5  C5  UNL     1     -36.319  17.030  -3.040  1.00 20.00     0.013 C 
HETATM    6  C6  UNL     1     -36.142  17.779  -0.162  1.00 20.00     0.040 C 
HETATM    7  C7  UNL     1     -32.855  18.234  -3.233  1.00 20.00     0.040 C 
HETATM    8  O9  UNL     1     -33.934  17.796  -1.135  1.00 20.00    -0.381 OA
ENDROOT
BRANCH   2   9
HETATM    9  C8  UNL     1     -33.912  15.609  -4.143  1.00 20.00     0.122 C 
HETATM   10 CL10 UNL     1     -32.653  14.391  -4.399  1.00 20.00    -0.130 Cl
ENDBRANCH   2   9
TORSDOF 1
ENDMDL
MODEL 9
REMARK VINA RESULT:      -3.6     18.460     19.409
REMARK  1 active torsions:
REMARK  status: ('A' for Active; 'I' for Inactive)
REMARK    1  A    between atoms: C2_2  and  C8_8 
ROOT
HETATM    1  C1  UNL     1     -24.674  17.545  10.218  1.00 20.00     0.018 C 
HETATM    2  C2  UNL     1     -23.179  17.226  10.110  1.00 20.00     0.034 C 
HETATM    3  C3  UNL     1     -25.049  16.675  11.421  1.00 20.00     0.122 C 
HETATM    4  C4  UNL     1     -22.742  17.001  11.566  1.00 20.00     0.123 C 
HETATM    5  C5  UNL     1     -24.996  19.030  10.396  1.00 20.00     0.013 C 
HETATM    6  C6  UNL     1     -26.337  17.023  12.142  1.00 20.00     0.040 C 
HETATM    7  C7  UNL     1     -21.951  18.115  12.233  1.00 20.00     0.040 C 
HETATM    8  O9  UNL     1     -23.944  16.783  12.332  1.00 20.00    -0.381 OA
ENDROOT
BRANCH   2   9
HETATM    9  C8  UNL     1     -22.334  18.185   9.286  1.00 20.00     0.122 C 
HETATM   10 CL10 UNL     1     -21.706  17.361   7.850  1.00 20.00    -0.130 Cl
ENDBRANCH   2   9
TORSDOF 1
ENDMDL
