MODEL 1
REMARK VINA RESULT:      -4.8      0.000      0.000
REMARK  1 active torsions:
REMARK  status: ('A' for Active; 'I' for Inactive)
REMARK    1  A    between atoms: C2_2  and  C10_10 
ROOT
HETATM    1  C1  UNL     1     -33.007  16.746  -2.801  1.00 20.00    -0.003 C 
HETATM    2  C2  UNL     1     -34.077  15.988  -3.114  1.00 20.00    -0.075 C 
HETATM    3  C3  UNL     1     -35.343  16.051  -2.287  1.00 20.00     0.034 C 
HETATM    4  C4  UNL     1     -35.164  16.737  -0.930  1.00 20.00     0.006 C 
HETATM    5  C5  UNL     1     -34.359  18.023  -1.079  1.00 20.00     0.024 C 
HETATM    6  C6  UNL     1     -32.975  17.723  -1.661  1.00 20.00     0.105 C 
HETATM    7 CL11 UNL     1     -32.211  19.248  -2.192  1.00 20.00    -0.121 Cl
ENDROOT
BRANCH   2   8
HETATM    8  C10 UNL     1     -34.094  15.028  -4.244  1.00 20.00    -0.028 C 
HETATM    9  C7  UNL     1     -35.138  13.936  -3.967  1.00 20.00     0.019 C 
HETATM   10  C8  UNL     1     -32.707  14.381  -4.398  1.00 20.00     0.019 C 
HETATM   11  C9  UNL     1     -34.453  15.762  -5.547  1.00 20.00     0.019 C 
ENDBRANCH   2   8
TORSDOF 1
ENDMDL
MODEL 2
REMARK VINA RESULT:      -4.8      0.055      1.313
REMARK  1 active torsions:
REMARK  status: ('A' for Active; 'I' for Inactive)
REMARK    1  A    between atoms: C2_2  and  C10_10 
ROOT
HETATM    1  C1  UNL     1     -33.003  16.700  -2.836  1.00 20.00    -0.003 C 
HETATM    2  C2  UNL     1     -34.077  15.944  -3.141  1.00 20.00    -0.075 C 
HETATM    3  C3  UNL     1     -35.339  16.017  -2.310  1.00 20.00     0.034 C 
HETATM    4  C4  UNL     1     -35.153  16.710  -0.958  1.00 20.00     0.006 C 
HETATM    5  C5  UNL     1     -34.343  17.992  -1.117  1.00 20.00     0.024 C 
HETATM    6  C6  UNL     1     -32.963  17.683  -1.703  1.00 20.00     0.105 C 
HETATM    7 CL11 UNL     1     -32.195  19.202  -2.245  1.00 20.00    -0.121 Cl
ENDROOT
BRANCH   2   8
HETATM    8  C10 UNL     1     -34.102  14.977  -4.265  1.00 20.00    -0.028 C 
HETATM    9  C7  UNL     1     -32.713  14.337  -4.416  1.00 20.00     0.019 C 
HETATM   10  C8  UNL     1     -34.473  15.703  -5.569  1.00 20.00     0.019 C 
HETATM   11  C9  UNL     1     -35.143  13.881  -3.987  1.00 20.00     0.019 C 
ENDBRANCH   2   8
TORSDOF 1
ENDMDL
MODEL 3
REMARK VINA RESULT:      -4.6      2.324      4.504
REMARK  1 active torsions:
REMARK  status: ('A' for Active; 'I' for Inactive)
REMARK    1  A    between atoms: C2_2  and  C10_10 
ROOT
HETATM    1  C1  UNL     1     -35.282  15.417  -2.717  1.00 20.00    -0.003 C 
HETATM    2  C2  UNL     1     -34.357  16.384  -2.553  1.00 20.00    -0.075 C 
HETATM    3  C3  UNL     1     -33.081  16.386  -3.366  1.00 20.00     0.034 C 
HETATM    4  C4  UNL     1     -32.796  15.060  -4.077  1.00 20.00     0.006 C 
HETATM    5  C5  UNL     1     -34.056  14.528  -4.750  1.00 20.00     0.024 C 
HETATM    6  C6  UNL     1     -35.161  14.301  -3.714  1.00 20.00     0.105 C 
HETATM    7 CL11 UNL     1     -36.721  14.066  -4.552  1.00 20.00    -0.121 Cl
ENDROOT
BRANCH   2   8
HETATM    8  C10 UNL     1     -34.491  17.482  -1.564  1.00 20.00    -0.028 C 
HETATM    9  C7  UNL     1     -35.201  18.675  -2.222  1.00 20.00     0.019 C 
HETATM   10  C8  UNL     1     -33.099  17.919  -1.080  1.00 20.00     0.019 C 
HETATM   11  C9  UNL     1     -35.313  16.998  -0.358  1.00 20.00     0.019 C 
ENDBRANCH   2   8
TORSDOF 1
ENDMDL
MODEL 4
REMARK VINA RESULT:      -4.6      1.929      4.061
REMARK  1 active torsions:
REMARK  status: ('A' for Active; 'I' for Inactive)
REMARK    1  A    between atoms: C2_2  and  C10_10 
ROOT
HETATM    1  C1  UNL     1     -33.077  16.351  -3.295  1.00 20.00    -0.003 C 
HETATM    2  C2  UNL     1     -33.905  16.801  -2.331  1.00 20.00    -0.075 C 
HETATM    3  C3  UNL     1     -35.265  16.171  -2.118  1.00 20.00     0.034 C 
HETATM    4  C4  UNL     1     -35.723  15.279  -3.274  1.00 20.00     0.006 C 
HETATM    5  C5  UNL     1     -34.591  14.366  -3.732  1.00 20.00     0.024 C 
HETATM    6  C6  UNL     1     -33.392  15.195  -4.199  1.00 20.00     0.105 C 
HETATM    7 CL11 UNL     1     -31.961  14.136  -4.349  1.00 20.00    -0.121 Cl
ENDROOT
BRANCH   2   8
HETATM    8  C10 UNL     1     -33.580  17.944  -1.444  1.00 20.00    -0.028 C 
HETATM    9  C7  UNL     1     -34.295  17.762  -0.097  1.00 20.00     0.019 C 
HETATM   10  C8  UNL     1     -34.045  19.258  -2.095  1.00 20.00     0.019 C 
HETATM   11  C9  UNL     1     -32.061  18.009  -1.213  1.00 20.00     0.019 C 
ENDBRANCH   2   8
TORSDOF 1
ENDMDL
MODEL 5
REMARK VINA RESULT:      -4.4      1.636      2.582
REMARK  1 active torsions:
REMARK  status: ('A' for Active; 'I' for Inactive)
REMARK    1  A    between atoms: C2_2  and  C10_10 
ROOT
HETATM    1  C1  UNL     1     -35.071  16.737  -1.922  1.00 20.00    -0.003 C 
HETATM    2  C2  UNL     1     -34.135  16.395  -2.830  1.00 20.00    -0.075 C 
HETATM    3  C3  UNL     1     -32.745  16.990  -2.774  1.00 20.00     0.034 C 
HETATM    4  C4  UNL     1     -32.631  18.219  -1.869  1.00 20.00     0.006 C 
HETATM    5  C5  UNL     1     -33.345  17.979  -0.543  1.00 20.00     0.024 C 
HETATM    6  C6  UNL     1     -34.828  17.682  -0.781  1.00 20.00     0.105 C 
HETATM    7 CL11 UNL     1     -35.548  17.022   0.715  1.00 20.00    -0.121 Cl
ENDROOT
BRANCH   2   8
HETATM    8  C10 UNL     1     -34.390  15.459  -3.952  1.00 20.00    -0.028 C 
HETATM    9  C7  UNL     1     -34.804  16.259  -5.196  1.00 20.00     0.019 C 
HETATM   10  C8  UNL     1     -35.518  14.485  -3.572  1.00 20.00     0.019 C 
HETATM   11  C9  UNL     1     -33.115  14.656  -4.260  1.00 20.00     0.019 C 
ENDBRANCH   2   8
TORSDOF 1
ENDMDL
MODEL 6
REMARK VINA RESULT:      -4.4      1.636      2.580
REMARK  1 active torsions:
REMARK  status: ('A' for Active; 'I' for Inactive)
REMARK    1  A    between atoms: C2_2  and  C10_10 
ROOT
HETATM    1  C1  UNL     1     -35.060  16.727  -1.909  1.00 20.00    -0.003 C 
HETATM    2  C2  UNL     1     -34.123  16.393  -2.820  1.00 20.00    -0.075 C 
HETATM    3  C3  UNL     1     -32.739  17.003  -2.771  1.00 20.00     0.034 C 
HETATM    4  C4  UNL     1     -32.636  18.235  -1.869  1.00 20.00     0.006 C 
HETATM    5  C5  UNL     1     -33.342  17.991  -0.540  1.00 20.00     0.024 C 
HETATM    6  C6  UNL     1     -34.822  17.677  -0.771  1.00 20.00     0.105 C 
HETATM    7 CL11 UNL     1     -35.529  17.013   0.729  1.00 20.00    -0.121 Cl
ENDROOT
BRANCH   2   8
HETATM    8  C10 UNL     1     -34.373  15.452  -3.939  1.00 20.00    -0.028 C 
HETATM    9  C7  UNL     1     -33.082  14.679  -4.250  1.00 20.00     0.019 C 
HETATM   10  C8  UNL     1     -34.814  16.233  -5.188  1.00 20.00     0.019 C 
HETATM   11  C9  UNL     1     -35.482  14.460  -3.548  1.00 20.00     0.019 C 
ENDBRANCH   2   8
TORSDOF 1
ENDMDL
MODEL 7
REMARK VINA RESULT:      -4.4      1.634      2.222
REMARK  1 active torsions:
REMARK  status: ('A' for Active; 'I' for Inactive)
REMARK    1  A    between atoms: C2_2  and  C10_10 
ROOT
HETATM    1  C1  UNL     1     -35.070  16.722  -1.923  1.00 20.00    -0.003 C 
HETATM    2  C2  UNL     1     -34.131  16.386  -2.830  1.00 20.00    -0.075 C 
HETATM    3  C3  UNL     1     -32.746  16.993  -2.777  1.00 20.00     0.034 C 
HETATM    4  C4  UNL     1     -32.643  18.225  -1.876  1.00 20.00     0.006 C 
HETATM    5  C5  UNL     1     -33.354  17.983  -0.549  1.00 20.00     0.024 C 
HETATM    6  C6  UNL     1     -34.834  17.672  -0.785  1.00 20.00     0.105 C 
HETATM    7 CL11 UNL     1     -35.547  17.011   0.714  1.00 20.00    -0.121 Cl
ENDROOT
BRANCH   2   8
HETATM    8  C10 UNL     1     -34.378  15.444  -3.949  1.00 20.00    -0.028 C 
HETATM    9  C7  UNL     1     -35.496  14.467  -3.553  1.00 20.00     0.019 C 
HETATM   10  C8  UNL     1     -33.096  14.654  -4.259  1.00 20.00     0.019 C 
HETATM   11  C9  UNL     1     -34.802  16.225  -5.204  1.00 20.00     0.019 C 
ENDBRANCH   2   8
TORSDOF 1
ENDMDL
MODEL 8
REMARK VINA RESULT:      -4.2      2.489      4.056
REMARK  1 active torsions:
REMARK  status: ('A' for Active; 'I' for Inactive)
REMARK    1  A    between atoms: C2_2  and  C10_10 
ROOT
HETATM    1  C1  UNL     1     -33.777  18.196   0.338  1.00 20.00    -0.003 C 
HETATM    2  C2  UNL     1     -33.269  17.894  -0.874  1.00 20.00    -0.075 C 
HETATM    3  C3  UNL     1     -31.807  18.127  -1.185  1.00 20.00     0.034 C 
HETATM    4  C4  UNL     1     -31.094  19.027  -0.173  1.00 20.00     0.006 C 
HETATM    5  C5  UNL     1     -31.453  18.626   1.253  1.00 20.00     0.024 C 
HETATM    6  C6  UNL     1     -32.963  18.740   1.476  1.00 20.00     0.105 C 
HETATM    7 CL11 UNL     1     -33.405  17.902   2.991  1.00 20.00    -0.121 Cl
ENDROOT
BRANCH   2   8
HETATM    8  C10 UNL     1     -34.086  17.356  -1.990  1.00 20.00    -0.028 C 
HETATM    9  C7  UNL     1     -33.201  16.483  -2.892  1.00 20.00     0.019 C 
HETATM   10  C8  UNL     1     -34.670  18.515  -2.814  1.00 20.00     0.019 C 
HETATM   11  C9  UNL     1     -35.239  16.507  -1.429  1.00 20.00     0.019 C 
ENDBRANCH   2   8
TORSDOF 1
ENDMDL
MODEL 9
REMARK VINA RESULT:      -4.1      1.742      2.542
REMARK  1 active torsions:
REMARK  status: ('A' for Active; 'I' for Inactive)
REMARK    1  A    between atoms: C2_2  and  C10_10 
ROOT
HETATM    1  C1  UNL     1     -35.761  16.518  -2.685  1.00 20.00    -0.003 C 
HETATM    2  C2  UNL     1     -34.988  15.686  -3.412  1.00 20.00    -0.075 C 
HETATM    3  C3  UNL     1     -33.479  15.778  -3.355  1.00 20.00     0.034 C 
HETATM    4  C4  UNL     1     -32.960  17.070  -2.721  1.00 20.00     0.006 C 
HETATM    5  C5  UNL     1     -33.731  17.392  -1.445  1.00 20.00     0.024 C 
HETATM    6  C6  UNL     1     -35.221  17.561  -1.750  1.00 20.00     0.105 C 
HETATM    7 CL11 UNL     1     -36.145  17.540  -0.221  1.00 20.00    -0.121 Cl
ENDROOT
BRANCH   2   8
HETATM    8  C10 UNL     1     -35.536  14.659  -4.331  1.00 20.00    -0.028 C 
HETATM    9  C7  UNL     1     -34.925  13.292  -3.989  1.00 20.00     0.019 C 
HETATM   10  C8  UNL     1     -35.190  15.024  -5.784  1.00 20.00     0.019 C 
HETATM   11  C9  UNL     1     -37.065  14.588  -4.182  1.00 20.00     0.019 C 
ENDBRANCH   2   8
TORSDOF 1
ENDMDL
