MODEL 1
REMARK VINA RESULT:      -5.1      0.000      0.000
REMARK  2 active torsions:
REMARK  status: ('A' for Active; 'I' for Inactive)
REMARK    1  A    between atoms: C4_4  and  C10_10 
REMARK    2  A    between atoms: C9_9  and  C10_10 
ROOT
HETATM    1  C1  UNL     1     -33.307   9.158   0.048  1.00 20.00     0.012 C 
HETATM    2  C2  UNL     1     -32.816   8.355   0.792  1.00 20.00    -0.117 C 
HETATM    3  C9  UNL     1     -32.214   7.367   1.701  1.00 20.00     0.097 C 
ENDROOT
BRANCH   3   4
HETATM    4  C10 UNL     1     -32.314   7.797   3.159  1.00 20.00     0.046 C 
BRANCH   4   5
HETATM    5  C4  UNL     1     -33.144   6.843   3.933  1.00 20.00    -0.081 C 
HETATM    6  C3  UNL     1     -33.706   5.743   3.396  1.00 20.00    -0.004 C 
HETATM    7  C8  UNL     1     -34.550   4.770   4.167  1.00 20.00     0.105 C 
HETATM    8  C7  UNL     1     -34.457   4.954   5.684  1.00 20.00     0.024 C 
HETATM    9 CL11 UNL     1     -34.083   3.097   3.743  1.00 20.00    -0.121 Cl
HETATM   10  C6  UNL     1     -34.516   6.433   6.046  1.00 20.00     0.006 C 
HETATM   11  C5  UNL     1     -33.364   7.198   5.389  1.00 20.00     0.034 C 
ENDBRANCH   4   5
ENDBRANCH   3   4
TORSDOF 2
ENDMDL
MODEL 2
REMARK VINA RESULT:      -5.1     11.104     12.032
REMARK  2 active torsions:
REMARK  status: ('A' for Active; 'I' for Inactive)
REMARK    1  A    between atoms: C4_4  and  C10_10 
REMARK    2  A    between atoms: C9_9  and  C10_10 
ROOT
HETATM    1  C1  UNL     1     -30.662  18.485   0.780  1.00 20.00     0.012 C 
HETATM    2  C2  UNL     1     -31.274  18.360  -0.245  1.00 20.00    -0.117 C 
HETATM    3  C9  UNL     1     -32.022  18.208  -1.503  1.00 20.00     0.097 C 
ENDROOT
BRANCH   3   4
HETATM    4  C10 UNL     1     -33.458  17.764  -1.263  1.00 20.00     0.046 C 
BRANCH   4   5
HETATM    5  C4  UNL     1     -33.847  16.699  -2.219  1.00 20.00    -0.081 C 
HETATM    6  C3  UNL     1     -33.055  16.281  -3.226  1.00 20.00    -0.004 C 
HETATM    7  C8  UNL     1     -33.435  15.206  -4.202  1.00 20.00     0.105 C 
HETATM    8  C7  UNL     1     -34.661  14.398  -3.769  1.00 20.00     0.024 C 
HETATM    9 CL11 UNL     1     -32.053  14.099  -4.449  1.00 20.00    -0.121 Cl
HETATM   10  C6  UNL     1     -35.745  15.323  -3.228  1.00 20.00     0.006 C 
HETATM   11  C5  UNL     1     -35.230  16.114  -2.024  1.00 20.00     0.034 C 
ENDBRANCH   4   5
ENDBRANCH   3   4
TORSDOF 2
ENDMDL
MODEL 3
REMARK VINA RESULT:      -5.0     10.975     12.100
REMARK  2 active torsions:
REMARK  status: ('A' for Active; 'I' for Inactive)
REMARK    1  A    between atoms: C4_4  and  C10_10 
REMARK    2  A    between atoms: C9_9  and  C10_10 
ROOT
HETATM    1  C1  UNL     1     -35.516  15.199  -7.108  1.00 20.00     0.012 C 
HETATM    2  C2  UNL     1     -35.768  14.708  -6.042  1.00 20.00    -0.117 C 
HETATM    3  C9  UNL     1     -36.082  14.107  -4.736  1.00 20.00     0.097 C 
ENDROOT
BRANCH   3   4
HETATM    4  C10 UNL     1     -34.838  13.929  -3.876  1.00 20.00     0.046 C 
BRANCH   4   5
HETATM    5  C4  UNL     1     -34.478  15.199  -3.200  1.00 20.00    -0.081 C 
HETATM    6  C3  UNL     1     -35.289  15.831  -2.330  1.00 20.00    -0.004 C 
HETATM    7  C8  UNL     1     -34.939  17.117  -1.639  1.00 20.00     0.105 C 
HETATM    8  C7  UNL     1     -33.459  17.488  -1.757  1.00 20.00     0.024 C 
HETATM    9 CL11 UNL     1     -35.389  17.017   0.088  1.00 20.00    -0.121 Cl
HETATM   10  C6  UNL     1     -32.963  17.252  -3.179  1.00 20.00     0.006 C 
HETATM   11  C5  UNL     1     -33.133  15.784  -3.576  1.00 20.00     0.034 C 
ENDBRANCH   4   5
ENDBRANCH   3   4
TORSDOF 2
ENDMDL
MODEL 4
REMARK VINA RESULT:      -4.9     11.242     12.071
REMARK  2 active torsions:
REMARK  status: ('A' for Active; 'I' for Inactive)
REMARK    1  A    between atoms: C4_4  and  C10_10 
REMARK    2  A    between atoms: C9_9  and  C10_10 
ROOT
HETATM    1  C1  UNL     1     -34.165  15.152  -7.054  1.00 20.00     0.012 C 
HETATM    2  C2  UNL     1     -33.820  14.898  -5.933  1.00 20.00    -0.117 C 
HETATM    3  C9  UNL     1     -33.393  14.585  -4.560  1.00 20.00     0.097 C 
ENDROOT
BRANCH   3   4
HETATM    4  C10 UNL     1     -34.530  14.739  -3.559  1.00 20.00     0.046 C 
BRANCH   4   5
HETATM    5  C4  UNL     1     -34.291  15.897  -2.665  1.00 20.00    -0.081 C 
HETATM    6  C3  UNL     1     -35.196  16.343  -1.771  1.00 20.00    -0.004 C 
HETATM    7  C8  UNL     1     -34.969  17.515  -0.860  1.00 20.00     0.105 C 
HETATM    8  C7  UNL     1     -33.507  17.965  -0.801  1.00 20.00     0.024 C 
HETATM    9 CL11 UNL     1     -35.533  17.116   0.789  1.00 20.00    -0.121 Cl
HETATM   10  C6  UNL     1     -32.899  17.985  -2.199  1.00 20.00     0.006 C 
HETATM   11  C5  UNL     1     -32.958  16.595  -2.836  1.00 20.00     0.034 C 
ENDBRANCH   4   5
ENDBRANCH   3   4
TORSDOF 2
ENDMDL
MODEL 5
REMARK VINA RESULT:      -4.9     11.221     12.079
REMARK  2 active torsions:
REMARK  status: ('A' for Active; 'I' for Inactive)
REMARK    1  A    between atoms: C4_4  and  C10_10 
REMARK    2  A    between atoms: C9_9  and  C10_10 
ROOT
HETATM    1  C1  UNL     1     -30.937  18.406   0.164  1.00 20.00     0.012 C 
HETATM    2  C2  UNL     1     -31.731  18.310  -0.731  1.00 20.00    -0.117 C 
HETATM    3  C9  UNL     1     -32.702  18.194  -1.830  1.00 20.00     0.097 C 
ENDROOT
BRANCH   3   4
HETATM    4  C10 UNL     1     -33.870  17.287  -1.467  1.00 20.00     0.046 C 
BRANCH   4   5
HETATM    5  C4  UNL     1     -34.090  16.266  -2.519  1.00 20.00    -0.081 C 
HETATM    6  C3  UNL     1     -35.202  15.509  -2.597  1.00 20.00    -0.004 C 
HETATM    7  C8  UNL     1     -35.438  14.470  -3.654  1.00 20.00     0.105 C 
HETATM    8  C7  UNL     1     -34.457  14.561  -4.826  1.00 20.00     0.024 C 
HETATM    9 CL11 UNL     1     -37.111  14.604  -4.270  1.00 20.00    -0.121 Cl
HETATM   10  C6  UNL     1     -33.039  14.790  -4.317  1.00 20.00     0.006 C 
HETATM   11  C5  UNL     1     -32.957  16.086  -3.507  1.00 20.00     0.034 C 
ENDBRANCH   4   5
ENDBRANCH   3   4
TORSDOF 2
ENDMDL
MODEL 6
REMARK VINA RESULT:      -4.7     11.364     12.123
REMARK  2 active torsions:
REMARK  status: ('A' for Active; 'I' for Inactive)
REMARK    1  A    between atoms: C4_4  and  C10_10 
REMARK    2  A    between atoms: C9_9  and  C10_10 
ROOT
HETATM    1  C1  UNL     1     -36.024  13.591  -4.522  1.00 20.00     0.012 C 
HETATM    2  C2  UNL     1     -35.298  14.349  -3.941  1.00 20.00    -0.117 C 
HETATM    3  C9  UNL     1     -34.403  15.277  -3.231  1.00 20.00     0.097 C 
ENDROOT
BRANCH   3   4
HETATM    4  C10 UNL     1     -35.151  16.116  -2.204  1.00 20.00     0.046 C 
BRANCH   4   5
HETATM    5  C4  UNL     1     -34.218  17.010  -1.475  1.00 20.00    -0.081 C 
HETATM    6  C3  UNL     1     -34.509  17.575  -0.287  1.00 20.00    -0.004 C 
HETATM    7  C8  UNL     1     -33.577  18.483   0.461  1.00 20.00     0.105 C 
HETATM    8  C7  UNL     1     -32.144  18.461  -0.077  1.00 20.00     0.024 C 
HETATM    9 CL11 UNL     1     -33.566  18.042   2.194  1.00 20.00    -0.121 Cl
HETATM   10  C6  UNL     1     -32.147  18.496  -1.601  1.00 20.00     0.006 C 
HETATM   11  C5  UNL     1     -32.903  17.292  -2.169  1.00 20.00     0.034 C 
ENDBRANCH   4   5
ENDBRANCH   3   4
TORSDOF 2
ENDMDL
MODEL 7
REMARK VINA RESULT:      -4.7      9.707     10.511
REMARK  2 active torsions:
REMARK  status: ('A' for Active; 'I' for Inactive)
REMARK    1  A    between atoms: C4_4  and  C10_10 
REMARK    2  A    between atoms: C9_9  and  C10_10 
ROOT
HETATM    1  C1  UNL     1     -41.768   2.070  -4.323  1.00 20.00     0.012 C 
HETATM    2  C2  UNL     1     -42.124   2.820  -3.456  1.00 20.00    -0.117 C 
HETATM    3  C9  UNL     1     -42.565   3.738  -2.393  1.00 20.00     0.097 C 
ENDROOT
BRANCH   3   4
HETATM    4  C10 UNL     1     -41.406   4.537  -1.812  1.00 20.00     0.046 C 
BRANCH   4   5
HETATM    5  C4  UNL     1     -41.884   5.467  -0.761  1.00 20.00    -0.081 C 
HETATM    6  C3  UNL     1     -41.223   6.586  -0.406  1.00 20.00    -0.004 C 
HETATM    7  C8  UNL     1     -41.692   7.537   0.657  1.00 20.00     0.105 C 
HETATM    8  C7  UNL     1     -43.144   7.304   1.083  1.00 20.00     0.024 C 
HETATM    9 CL11 UNL     1     -41.505   9.221   0.087  1.00 20.00    -0.121 Cl
HETATM   10  C6  UNL     1     -43.417   5.813   1.249  1.00 20.00     0.006 C 
HETATM   11  C5  UNL     1     -43.166   5.067  -0.063  1.00 20.00     0.034 C 
ENDBRANCH   4   5
ENDBRANCH   3   4
TORSDOF 2
ENDMDL
MODEL 8
REMARK VINA RESULT:      -4.6      1.868      2.406
REMARK  2 active torsions:
REMARK  status: ('A' for Active; 'I' for Inactive)
REMARK    1  A    between atoms: C4_4  and  C10_10 
REMARK    2  A    between atoms: C9_9  and  C10_10 
ROOT
HETATM    1  C1  UNL     1     -33.288   9.106  -0.050  1.00 20.00     0.012 C 
HETATM    2  C2  UNL     1     -32.849   8.456   0.858  1.00 20.00    -0.117 C 
HETATM    3  C9  UNL     1     -32.308   7.663   1.973  1.00 20.00     0.097 C 
ENDROOT
BRANCH   3   4
HETATM    4  C10 UNL     1     -32.953   6.286   2.060  1.00 20.00     0.046 C 
BRANCH   4   5
HETATM    5  C4  UNL     1     -33.481   6.037   3.422  1.00 20.00    -0.081 C 
HETATM    6  C3  UNL     1     -33.140   6.774   4.497  1.00 20.00    -0.004 C 
HETATM    7  C8  UNL     1     -33.665   6.532   5.882  1.00 20.00     0.105 C 
HETATM    8  C7  UNL     1     -34.866   5.584   5.920  1.00 20.00     0.024 C 
HETATM    9 CL11 UNL     1     -34.116   8.089   6.637  1.00 20.00    -0.121 Cl
HETATM   10  C6  UNL     1     -34.633   4.392   4.998  1.00 20.00     0.006 C 
HETATM   11  C5  UNL     1     -34.421   4.857   3.555  1.00 20.00     0.034 C 
ENDBRANCH   4   5
ENDBRANCH   3   4
TORSDOF 2
ENDMDL
MODEL 9
REMARK VINA RESULT:      -4.6     11.627     12.475
REMARK  2 active torsions:
REMARK  status: ('A' for Active; 'I' for Inactive)
REMARK    1  A    between atoms: C4_4  and  C10_10 
REMARK    2  A    between atoms: C9_9  and  C10_10 
ROOT
HETATM    1  C1  UNL     1     -34.398  15.203  -7.114  1.00 20.00     0.012 C 
HETATM    2  C2  UNL     1     -33.929  14.955  -6.038  1.00 20.00    -0.117 C 
HETATM    3  C9  UNL     1     -33.349  14.649  -4.720  1.00 20.00     0.097 C 
ENDROOT
BRANCH   3   4
HETATM    4  C10 UNL     1     -34.391  14.708  -3.611  1.00 20.00     0.046 C 
BRANCH   4   5
HETATM    5  C4  UNL     1     -34.198  15.914  -2.771  1.00 20.00    -0.081 C 
HETATM    6  C3  UNL     1     -33.107  16.701  -2.842  1.00 20.00    -0.004 C 
HETATM    7  C8  UNL     1     -32.898  17.924  -1.997  1.00 20.00     0.105 C 
HETATM    8  C7  UNL     1     -34.165  18.388  -1.274  1.00 20.00     0.024 C 
HETATM    9 CL11 UNL     1     -32.271  19.258  -3.010  1.00 20.00    -0.121 Cl
HETATM   10  C6  UNL     1     -34.905  17.195  -0.680  1.00 20.00     0.006 C 
HETATM   11  C5  UNL     1     -35.302  16.203  -1.775  1.00 20.00     0.034 C 
ENDBRANCH   4   5
ENDBRANCH   3   4
TORSDOF 2
ENDMDL
