MODEL 1
REMARK VINA RESULT:      -4.5      0.000      0.000
REMARK  4 active torsions:
REMARK  status: ('A' for Active; 'I' for Inactive)
REMARK    1  A    between atoms: C2_2  and  C8_8 
REMARK    2  A    between atoms: C8_8  and  C11_11 
REMARK    3  A    between atoms: C9_9  and  C10_10 
REMARK    4  A    between atoms: C10_10  and  C11_11 
ROOT
HETATM    1  C1  UNL     1     -33.114  16.358  -3.099  1.00 20.00    -0.004 C 
HETATM    2  C2  UNL     1     -34.264  15.696  -2.916  1.00 20.00    -0.082 C 
HETATM    3  C3  UNL     1     -35.017  16.216  -1.732  1.00 20.00     0.036 C 
HETATM    4  C4  UNL     1     -34.314  17.544  -1.444  1.00 20.00     0.028 C 
HETATM    5  C5  UNL     1     -32.919  17.411  -2.059  1.00 20.00     0.105 C 
HETATM    6 CL12 UNL     1     -32.368  18.936  -2.767  1.00 20.00    -0.121 Cl
ENDROOT
BRANCH   2   7
HETATM    7  C8  UNL     1     -34.777  14.555  -3.717  1.00 20.00     0.038 C 
BRANCH   7   8
HETATM    8  C11 UNL     1     -35.851  14.927  -4.757  1.00 20.00    -0.015 C 
HETATM    9  C7  UNL     1     -37.209  14.315  -4.396  1.00 20.00     0.010 C 
BRANCH   8  10
HETATM   10  C10 UNL     1     -35.481  14.550  -6.208  1.00 20.00     0.004 C 
BRANCH  10  11
HETATM   11  C9  UNL     1     -34.325  15.374  -6.778  1.00 20.00    -0.004 C 
HETATM   12  C6  UNL     1     -34.558  16.865  -6.581  1.00 20.00     0.005 C 
ENDBRANCH  10  11
ENDBRANCH   8  10
ENDBRANCH   7   8
ENDBRANCH   2   7
TORSDOF 4
ENDMDL
MODEL 2
REMARK VINA RESULT:      -4.4      1.512      1.901
REMARK  4 active torsions:
REMARK  status: ('A' for Active; 'I' for Inactive)
REMARK    1  A    between atoms: C2_2  and  C8_8 
REMARK    2  A    between atoms: C8_8  and  C11_11 
REMARK    3  A    between atoms: C9_9  and  C10_10 
REMARK    4  A    between atoms: C10_10  and  C11_11 
ROOT
HETATM    1  C1  UNL     1     -35.124  16.238  -1.868  1.00 20.00    -0.004 C 
HETATM    2  C2  UNL     1     -34.171  15.901  -2.746  1.00 20.00    -0.082 C 
HETATM    3  C3  UNL     1     -33.032  16.871  -2.724  1.00 20.00     0.036 C 
HETATM    4  C4  UNL     1     -33.279  17.648  -1.431  1.00 20.00     0.028 C 
HETATM    5  C5  UNL     1     -34.773  17.490  -1.135  1.00 20.00     0.105 C 
HETATM    6 CL12 UNL     1     -35.084  17.343   0.600  1.00 20.00    -0.121 Cl
ENDROOT
BRANCH   2   7
HETATM    7  C8  UNL     1     -34.187  14.750  -3.686  1.00 20.00     0.038 C 
BRANCH   7   8
HETATM    8  C11 UNL     1     -35.315  14.788  -4.735  1.00 20.00    -0.015 C 
HETATM    9  C7  UNL     1     -36.207  13.544  -4.637  1.00 20.00     0.010 C 
BRANCH   8  10
HETATM   10  C10 UNL     1     -34.820  14.958  -6.187  1.00 20.00     0.004 C 
BRANCH  10  11
HETATM   11  C9  UNL     1     -34.529  16.411  -6.567  1.00 20.00    -0.004 C 
HETATM   12  C6  UNL     1     -35.540  17.361  -5.942  1.00 20.00     0.005 C 
ENDBRANCH  10  11
ENDBRANCH   8  10
ENDBRANCH   7   8
ENDBRANCH   2   7
TORSDOF 4
ENDMDL
MODEL 3
REMARK VINA RESULT:      -4.4      2.615      5.544
REMARK  4 active torsions:
REMARK  status: ('A' for Active; 'I' for Inactive)
REMARK    1  A    between atoms: C2_2  and  C8_8 
REMARK    2  A    between atoms: C8_8  and  C11_11 
REMARK    3  A    between atoms: C9_9  and  C10_10 
REMARK    4  A    between atoms: C10_10  and  C11_11 
ROOT
HETATM    1  C1  UNL     1     -35.347  15.535  -2.841  1.00 20.00    -0.004 C 
HETATM    2  C2  UNL     1     -34.390  16.451  -2.650  1.00 20.00    -0.082 C 
HETATM    3  C3  UNL     1     -33.099  16.042  -3.287  1.00 20.00     0.036 C 
HETATM    4  C4  UNL     1     -33.527  14.898  -4.208  1.00 20.00     0.028 C 
HETATM    5  C5  UNL     1     -34.839  14.369  -3.622  1.00 20.00     0.105 C 
HETATM    6 CL12 UNL     1     -35.973  13.884  -4.891  1.00 20.00    -0.121 Cl
ENDROOT
BRANCH   2   7
HETATM    7  C8  UNL     1     -34.505  17.718  -1.883  1.00 20.00     0.038 C 
BRANCH   7   8
HETATM    8  C11 UNL     1     -33.637  17.786  -0.611  1.00 20.00    -0.015 C 
HETATM    9  C7  UNL     1     -34.499  17.995   0.639  1.00 20.00     0.010 C 
BRANCH   8  10
HETATM   10  C10 UNL     1     -32.527  18.857  -0.662  1.00 20.00     0.004 C 
BRANCH  10  11
HETATM   11  C9  UNL     1     -31.125  18.296  -0.418  1.00 20.00    -0.004 C 
HETATM   12  C6  UNL     1     -30.701  18.474   1.033  1.00 20.00     0.005 C 
ENDBRANCH  10  11
ENDBRANCH   8  10
ENDBRANCH   7   8
ENDBRANCH   2   7
TORSDOF 4
ENDMDL
MODEL 4
REMARK VINA RESULT:      -4.4      2.432      4.005
REMARK  4 active torsions:
REMARK  status: ('A' for Active; 'I' for Inactive)
REMARK    1  A    between atoms: C2_2  and  C8_8 
REMARK    2  A    between atoms: C8_8  and  C11_11 
REMARK    3  A    between atoms: C9_9  and  C10_10 
REMARK    4  A    between atoms: C10_10  and  C11_11 
ROOT
HETATM    1  C1  UNL     1     -33.766  18.128   0.589  1.00 20.00    -0.004 C 
HETATM    2  C2  UNL     1     -33.347  18.028  -0.679  1.00 20.00    -0.082 C 
HETATM    3  C3  UNL     1     -31.898  18.374  -0.810  1.00 20.00     0.036 C 
HETATM    4  C4  UNL     1     -31.414  18.347   0.641  1.00 20.00     0.028 C 
HETATM    5  C5  UNL     1     -32.665  18.568   1.495  1.00 20.00     0.105 C 
HETATM    6 CL12 UNL     1     -32.618  17.613   2.983  1.00 20.00    -0.121 Cl
ENDROOT
BRANCH   2   7
HETATM    7  C8  UNL     1     -34.165  17.664  -1.865  1.00 20.00     0.038 C 
BRANCH   7   8
HETATM    8  C11 UNL     1     -33.964  16.223  -2.372  1.00 20.00    -0.015 C 
HETATM    9  C7  UNL     1     -32.951  16.174  -3.522  1.00 20.00     0.010 C 
BRANCH   8  10
HETATM   10  C10 UNL     1     -35.269  15.517  -2.798  1.00 20.00     0.004 C 
BRANCH  10  11
HETATM   11  C9  UNL     1     -35.047  14.351  -3.764  1.00 20.00    -0.004 C 
HETATM   12  C6  UNL     1     -36.348  13.925  -4.428  1.00 20.00     0.005 C 
ENDBRANCH  10  11
ENDBRANCH   8  10
ENDBRANCH   7   8
ENDBRANCH   2   7
TORSDOF 4
ENDMDL
MODEL 5
REMARK VINA RESULT:      -4.3      0.902      1.559
REMARK  4 active torsions:
REMARK  status: ('A' for Active; 'I' for Inactive)
REMARK    1  A    between atoms: C2_2  and  C8_8 
REMARK    2  A    between atoms: C8_8  and  C11_11 
REMARK    3  A    between atoms: C9_9  and  C10_10 
REMARK    4  A    between atoms: C10_10  and  C11_11 
ROOT
HETATM    1  C1  UNL     1     -33.063  16.262  -3.212  1.00 20.00    -0.004 C 
HETATM    2  C2  UNL     1     -34.195  15.556  -3.094  1.00 20.00    -0.082 C 
HETATM    3  C3  UNL     1     -35.036  16.046  -1.958  1.00 20.00     0.036 C 
HETATM    4  C4  UNL     1     -34.403  17.399  -1.632  1.00 20.00     0.028 C 
HETATM    5  C5  UNL     1     -32.970  17.321  -2.165  1.00 20.00     0.105 C 
HETATM    6 CL12 UNL     1     -32.440  18.867  -2.842  1.00 20.00    -0.121 Cl
ENDROOT
BRANCH   2   7
HETATM    7  C8  UNL     1     -34.615  14.395  -3.922  1.00 20.00     0.038 C 
BRANCH   7   8
HETATM    8  C11 UNL     1     -35.205  14.762  -5.298  1.00 20.00    -0.015 C 
HETATM    9  C7  UNL     1     -34.097  14.999  -6.331  1.00 20.00     0.010 C 
BRANCH   8  10
HETATM   10  C10 UNL     1     -36.160  15.975  -5.272  1.00 20.00     0.004 C 
BRANCH  10  11
HETATM   11  C9  UNL     1     -35.634  17.184  -6.047  1.00 20.00    -0.004 C 
HETATM   12  C6  UNL     1     -35.481  18.398  -5.143  1.00 20.00     0.005 C 
ENDBRANCH  10  11
ENDBRANCH   8  10
ENDBRANCH   7   8
ENDBRANCH   2   7
TORSDOF 4
ENDMDL
MODEL 6
REMARK VINA RESULT:      -4.3      2.677      5.503
REMARK  4 active torsions:
REMARK  status: ('A' for Active; 'I' for Inactive)
REMARK    1  A    between atoms: C2_2  and  C8_8 
REMARK    2  A    between atoms: C8_8  and  C11_11 
REMARK    3  A    between atoms: C9_9  and  C10_10 
REMARK    4  A    between atoms: C10_10  and  C11_11 
ROOT
HETATM    1  C1  UNL     1     -35.193  15.137  -2.844  1.00 20.00    -0.004 C 
HETATM    2  C2  UNL     1     -34.242  16.053  -2.619  1.00 20.00    -0.082 C 
HETATM    3  C3  UNL     1     -33.056  15.846  -3.506  1.00 20.00     0.036 C 
HETATM    4  C4  UNL     1     -33.590  14.876  -4.561  1.00 20.00     0.028 C 
HETATM    5  C5  UNL     1     -34.780  14.172  -3.904  1.00 20.00     0.105 C 
HETATM    6 CL12 UNL     1     -36.084  13.874  -5.063  1.00 20.00    -0.121 Cl
ENDROOT
BRANCH   2   7
HETATM    7  C8  UNL     1     -34.271  17.143  -1.609  1.00 20.00     0.038 C 
BRANCH   7   8
HETATM    8  C11 UNL     1     -35.534  17.172  -0.725  1.00 20.00    -0.015 C 
HETATM    9  C7  UNL     1     -36.520  18.244  -1.201  1.00 20.00     0.010 C 
BRANCH   8  10
HETATM   10  C10 UNL     1     -35.245  17.362   0.779  1.00 20.00     0.004 C 
BRANCH  10  11
HETATM   11  C9  UNL     1     -33.978  18.171   1.061  1.00 20.00    -0.004 C 
HETATM   12  C6  UNL     1     -33.620  18.143   2.540  1.00 20.00     0.005 C 
ENDBRANCH  10  11
ENDBRANCH   8  10
ENDBRANCH   7   8
ENDBRANCH   2   7
TORSDOF 4
ENDMDL
MODEL 7
REMARK VINA RESULT:      -4.2      2.857      4.523
REMARK  4 active torsions:
REMARK  status: ('A' for Active; 'I' for Inactive)
REMARK    1  A    between atoms: C2_2  and  C8_8 
REMARK    2  A    between atoms: C8_8  and  C11_11 
REMARK    3  A    between atoms: C9_9  and  C10_10 
REMARK    4  A    between atoms: C10_10  and  C11_11 
ROOT
HETATM    1  C1  UNL     1     -33.294  18.299   0.382  1.00 20.00    -0.004 C 
HETATM    2  C2  UNL     1     -32.597  18.143  -0.751  1.00 20.00    -0.082 C 
HETATM    3  C3  UNL     1     -31.128  18.312  -0.525  1.00 20.00     0.036 C 
HETATM    4  C4  UNL     1     -31.013  18.235   0.998  1.00 20.00     0.028 C 
HETATM    5  C5  UNL     1     -32.397  18.609   1.534  1.00 20.00     0.105 C 
HETATM    6 CL12 UNL     1     -32.822  17.663   2.968  1.00 20.00    -0.121 Cl
ENDROOT
BRANCH   2   7
HETATM    7  C8  UNL     1     -33.144  17.874  -2.106  1.00 20.00     0.038 C 
BRANCH   7   8
HETATM    8  C11 UNL     1     -33.624  16.427  -2.335  1.00 20.00    -0.015 C 
HETATM    9  C7  UNL     1     -33.350  15.971  -3.772  1.00 20.00     0.010 C 
BRANCH   8  10
HETATM   10  C10 UNL     1     -35.111  16.195  -1.990  1.00 20.00     0.004 C 
BRANCH  10  11
HETATM   11  C9  UNL     1     -36.024  17.346  -2.416  1.00 20.00    -0.004 C 
HETATM   12  C6  UNL     1     -36.722  17.973  -1.218  1.00 20.00     0.005 C 
ENDBRANCH  10  11
ENDBRANCH   8  10
ENDBRANCH   7   8
ENDBRANCH   2   7
TORSDOF 4
ENDMDL
MODEL 8
REMARK VINA RESULT:      -4.2      1.658      2.706
REMARK  4 active torsions:
REMARK  status: ('A' for Active; 'I' for Inactive)
REMARK    1  A    between atoms: C2_2  and  C8_8 
REMARK    2  A    between atoms: C8_8  and  C11_11 
REMARK    3  A    between atoms: C9_9  and  C10_10 
REMARK    4  A    between atoms: C10_10  and  C11_11 
ROOT
HETATM    1  C1  UNL     1     -35.063  15.977  -2.176  1.00 20.00    -0.004 C 
HETATM    2  C2  UNL     1     -33.979  15.822  -2.947  1.00 20.00    -0.082 C 
HETATM    3  C3  UNL     1     -32.994  16.930  -2.743  1.00 20.00     0.036 C 
HETATM    4  C4  UNL     1     -33.491  17.588  -1.456  1.00 20.00     0.028 C 
HETATM    5  C5  UNL     1     -34.973  17.217  -1.351  1.00 20.00     0.105 C 
HETATM    6 CL12 UNL     1     -35.457  16.926   0.326  1.00 20.00    -0.121 Cl
ENDROOT
BRANCH   2   7
HETATM    7  C8  UNL     1     -33.729  14.738  -3.931  1.00 20.00     0.038 C 
BRANCH   7   8
HETATM    8  C11 UNL     1     -34.471  14.899  -5.272  1.00 20.00    -0.015 C 
HETATM    9  C7  UNL     1     -34.568  16.373  -5.680  1.00 20.00     0.010 C 
BRANCH   8  10
HETATM   10  C10 UNL     1     -35.877  14.260  -5.295  1.00 20.00     0.004 C 
BRANCH  10  11
HETATM   11  C9  UNL     1     -37.014  15.281  -5.245  1.00 20.00    -0.004 C 
HETATM   12  C6  UNL     1     -38.097  14.857  -4.263  1.00 20.00     0.005 C 
ENDBRANCH  10  11
ENDBRANCH   8  10
ENDBRANCH   7   8
ENDBRANCH   2   7
TORSDOF 4
ENDMDL
MODEL 9
REMARK VINA RESULT:      -4.2      0.779      2.100
REMARK  4 active torsions:
REMARK  status: ('A' for Active; 'I' for Inactive)
REMARK    1  A    between atoms: C2_2  and  C8_8 
REMARK    2  A    between atoms: C8_8  and  C11_11 
REMARK    3  A    between atoms: C9_9  and  C10_10 
REMARK    4  A    between atoms: C10_10  and  C11_11 
ROOT
HETATM    1  C1  UNL     1     -33.000  16.340  -3.156  1.00 20.00    -0.004 C 
HETATM    2  C2  UNL     1     -34.121  15.611  -3.072  1.00 20.00    -0.082 C 
HETATM    3  C3  UNL     1     -34.988  16.060  -1.938  1.00 20.00     0.036 C 
HETATM    4  C4  UNL     1     -34.384  17.416  -1.570  1.00 20.00     0.028 C 
HETATM    5  C5  UNL     1     -32.942  17.375  -2.082  1.00 20.00     0.105 C 
HETATM    6 CL12 UNL     1     -32.428  18.946  -2.715  1.00 20.00    -0.121 Cl
ENDROOT
BRANCH   2   7
HETATM    7  C8  UNL     1     -34.508  14.464  -3.933  1.00 20.00     0.038 C 
BRANCH   7   8
HETATM    8  C11 UNL     1     -35.204  14.852  -5.253  1.00 20.00    -0.015 C 
HETATM    9  C7  UNL     1     -34.190  14.994  -6.394  1.00 20.00     0.010 C 
BRANCH   8  10
HETATM   10  C10 UNL     1     -36.065  16.130  -5.160  1.00 20.00     0.004 C 
BRANCH  10  11
HETATM   11  C9  UNL     1     -37.565  15.868  -5.304  1.00 20.00    -0.004 C 
HETATM   12  C6  UNL     1     -38.044  14.827  -4.303  1.00 20.00     0.005 C 
ENDBRANCH  10  11
ENDBRANCH   8  10
ENDBRANCH   7   8
ENDBRANCH   2   7
TORSDOF 4
ENDMDL
