MODEL 1
REMARK VINA RESULT:      -4.7      0.000      0.000
REMARK  1 active torsions:
REMARK  status: ('A' for Active; 'I' for Inactive)
REMARK    1  A    between atoms: C2_2  and  C9_9 
ROOT
HETATM    1  C1  UNL     1     -35.153  16.323  -1.811  1.00 20.00    -0.004 C 
HETATM    2  C2  UNL     1     -34.213  15.929  -2.692  1.00 20.00    -0.078 C 
HETATM    3  C3  UNL     1     -32.913  16.691  -2.837  1.00 20.00     0.034 C 
HETATM    4  C4  UNL     1     -32.934  18.079  -2.191  1.00 20.00     0.006 C 
HETATM    5  C5  UNL     1     -33.561  18.018  -0.803  1.00 20.00     0.024 C 
HETATM    6  C8  UNL     1     -34.998  17.498  -0.889  1.00 20.00     0.105 C 
HETATM    7 CL10 UNL     1     -35.569  17.061   0.747  1.00 20.00    -0.121 Cl
ENDROOT
BRANCH   2   8
HETATM    8  C9  UNL     1     -34.381  14.766  -3.598  1.00 20.00     0.014 A 
HETATM    9  C6  UNL     1     -34.456  15.025  -5.065  1.00 20.00     0.010 A 
HETATM   10  C7  UNL     1     -33.234  14.389  -4.474  1.00 20.00     0.010 A 
ENDBRANCH   2   8
TORSDOF 1
ENDMDL
MODEL 2
REMARK VINA RESULT:      -4.6      2.311      4.455
REMARK  1 active torsions:
REMARK  status: ('A' for Active; 'I' for Inactive)
REMARK    1  A    between atoms: C2_2  and  C9_9 
ROOT
HETATM    1  C1  UNL     1     -32.839  17.109  -2.861  1.00 20.00    -0.004 C 
HETATM    2  C2  UNL     1     -33.133  17.670  -1.672  1.00 20.00    -0.078 C 
HETATM    3  C3  UNL     1     -34.425  17.343  -0.955  1.00 20.00     0.034 C 
HETATM    4  C4  UNL     1     -35.463  16.646  -1.837  1.00 20.00     0.006 C 
HETATM    5  C5  UNL     1     -34.816  15.536  -2.658  1.00 20.00     0.024 C 
HETATM    6  C8  UNL     1     -33.717  16.109  -3.556  1.00 20.00     0.105 C 
HETATM    7 CL10 UNL     1     -32.719  14.772  -4.198  1.00 20.00    -0.121 Cl
ENDROOT
BRANCH   2   8
HETATM    8  C9  UNL     1     -32.255  18.657  -0.997  1.00 20.00     0.014 A 
HETATM    9  C6  UNL     1     -32.178  18.623   0.492  1.00 20.00     0.010 A 
HETATM   10  C7  UNL     1     -31.017  18.156  -0.333  1.00 20.00     0.010 A 
ENDBRANCH   2   8
TORSDOF 1
ENDMDL
MODEL 3
REMARK VINA RESULT:      -4.5      1.744      2.432
REMARK  1 active torsions:
REMARK  status: ('A' for Active; 'I' for Inactive)
REMARK    1  A    between atoms: C2_2  and  C9_9 
ROOT
HETATM    1  C1  UNL     1     -32.957  16.680  -2.761  1.00 20.00    -0.004 C 
HETATM    2  C2  UNL     1     -33.995  15.854  -2.994  1.00 20.00    -0.078 C 
HETATM    3  C3  UNL     1     -35.279  15.976  -2.202  1.00 20.00     0.034 C 
HETATM    4  C4  UNL     1     -35.150  16.831  -0.940  1.00 20.00     0.006 C 
HETATM    5  C5  UNL     1     -34.383  18.115  -1.234  1.00 20.00     0.024 C 
HETATM    6  C8  UNL     1     -32.979  17.790  -1.750  1.00 20.00     0.105 C 
HETATM    7 CL10 UNL     1     -32.252  19.263  -2.457  1.00 20.00    -0.121 Cl
ENDROOT
BRANCH   2   8
HETATM    8  C9  UNL     1     -33.958  14.759  -3.995  1.00 20.00     0.014 A 
HETATM    9  C6  UNL     1     -35.117  13.822  -4.051  1.00 20.00     0.010 A 
HETATM   10  C7  UNL     1     -34.908  14.827  -5.143  1.00 20.00     0.010 A 
ENDBRANCH   2   8
TORSDOF 1
ENDMDL
MODEL 4
REMARK VINA RESULT:      -4.5     10.301     11.159
REMARK  1 active torsions:
REMARK  status: ('A' for Active; 'I' for Inactive)
REMARK    1  A    between atoms: C2_2  and  C9_9 
ROOT
HETATM    1  C1  UNL     1     -32.782   7.233   3.639  1.00 20.00    -0.004 C 
HETATM    2  C2  UNL     1     -32.813   7.072   2.302  1.00 20.00    -0.078 C 
HETATM    3  C3  UNL     1     -33.411   5.828   1.682  1.00 20.00     0.034 C 
HETATM    4  C4  UNL     1     -33.623   4.682   2.675  1.00 20.00     0.006 C 
HETATM    5  C5  UNL     1     -34.252   5.195   3.965  1.00 20.00     0.024 C 
HETATM    6  C8  UNL     1     -33.349   6.245   4.617  1.00 20.00     0.105 C 
HETATM    7 CL10 UNL     1     -34.266   7.109   5.885  1.00 20.00    -0.121 Cl
ENDROOT
BRANCH   2   8
HETATM    8  C9  UNL     1     -32.246   8.057   1.348  1.00 20.00     0.014 A 
HETATM    9  C6  UNL     1     -32.943   8.249   0.044  1.00 20.00     0.010 A 
HETATM   10  C7  UNL     1     -33.013   9.312   1.099  1.00 20.00     0.010 A 
ENDBRANCH   2   8
TORSDOF 1
ENDMDL
MODEL 5
REMARK VINA RESULT:      -4.3      2.007      3.986
REMARK  1 active torsions:
REMARK  status: ('A' for Active; 'I' for Inactive)
REMARK    1  A    between atoms: C2_2  and  C9_9 
ROOT
HETATM    1  C1  UNL     1     -35.252  15.570  -2.556  1.00 20.00    -0.004 C 
HETATM    2  C2  UNL     1     -34.141  16.327  -2.470  1.00 20.00    -0.078 C 
HETATM    3  C3  UNL     1     -33.000  16.147  -3.447  1.00 20.00     0.034 C 
HETATM    4  C4  UNL     1     -33.074  14.849  -4.254  1.00 20.00     0.006 C 
HETATM    5  C5  UNL     1     -34.487  14.620  -4.777  1.00 20.00     0.024 C 
HETATM    6  C8  UNL     1     -35.478  14.529  -3.614  1.00 20.00     0.105 C 
HETATM    7 CL10 UNL     1     -37.146  14.661  -4.244  1.00 20.00    -0.121 Cl
ENDROOT
BRANCH   2   8
HETATM    8  C9  UNL     1     -33.932  17.352  -1.418  1.00 20.00     0.014 A 
HETATM    9  C6  UNL     1     -32.585  17.983  -1.313  1.00 20.00     0.010 A 
HETATM   10  C7  UNL     1     -33.745  18.768  -1.846  1.00 20.00     0.010 A 
ENDBRANCH   2   8
TORSDOF 1
ENDMDL
MODEL 6
REMARK VINA RESULT:      -4.3      2.355      4.464
REMARK  1 active torsions:
REMARK  status: ('A' for Active; 'I' for Inactive)
REMARK    1  A    between atoms: C2_2  and  C9_9 
ROOT
HETATM    1  C1  UNL     1     -33.017  16.304  -3.205  1.00 20.00    -0.004 C 
HETATM    2  C2  UNL     1     -33.766  16.761  -2.183  1.00 20.00    -0.078 C 
HETATM    3  C3  UNL     1     -35.169  16.242  -1.955  1.00 20.00     0.034 C 
HETATM    4  C4  UNL     1     -35.748  15.475  -3.146  1.00 20.00     0.006 C 
HETATM    5  C5  UNL     1     -34.722  14.498  -3.707  1.00 20.00     0.024 C 
HETATM    6  C8  UNL     1     -33.469  15.246  -4.170  1.00 20.00     0.105 C 
HETATM    7 CL10 UNL     1     -32.147  14.075  -4.445  1.00 20.00    -0.121 Cl
ENDROOT
BRANCH   2   8
HETATM    8  C9  UNL     1     -33.305  17.808  -1.238  1.00 20.00     0.014 A 
HETATM    9  C6  UNL     1     -34.126  19.046  -1.111  1.00 20.00     0.010 A 
HETATM   10  C7  UNL     1     -34.107  18.038  -0.002  1.00 20.00     0.010 A 
ENDBRANCH   2   8
TORSDOF 1
ENDMDL
MODEL 7
REMARK VINA RESULT:      -4.1      1.555      3.967
REMARK  1 active torsions:
REMARK  status: ('A' for Active; 'I' for Inactive)
REMARK    1  A    between atoms: C2_2  and  C9_9 
ROOT
HETATM    1  C1  UNL     1     -34.175  17.927  -0.392  1.00 20.00    -0.004 C 
HETATM    2  C2  UNL     1     -33.085  17.976  -1.182  1.00 20.00    -0.078 C 
HETATM    3  C3  UNL     1     -32.994  17.131  -2.435  1.00 20.00     0.034 C 
HETATM    4  C4  UNL     1     -34.036  16.012  -2.505  1.00 20.00     0.006 C 
HETATM    5  C5  UNL     1     -35.413  16.533  -2.109  1.00 20.00     0.024 C 
HETATM    6  C8  UNL     1     -35.384  17.084  -0.682  1.00 20.00     0.105 C 
HETATM    7 CL10 UNL     1     -36.868  18.035  -0.384  1.00 20.00    -0.121 Cl
ENDROOT
BRANCH   2   8
HETATM    8  C9  UNL     1     -31.898  18.812  -0.883  1.00 20.00     0.014 A 
HETATM    9  C6  UNL     1     -31.685  19.247   0.528  1.00 20.00     0.010 A 
HETATM   10  C7  UNL     1     -30.796  18.205  -0.081  1.00 20.00     0.010 A 
ENDBRANCH   2   8
TORSDOF 1
ENDMDL
MODEL 8
REMARK VINA RESULT:      -4.1      3.005      4.946
REMARK  1 active torsions:
REMARK  status: ('A' for Active; 'I' for Inactive)
REMARK    1  A    between atoms: C2_2  and  C9_9 
ROOT
HETATM    1  C1  UNL     1     -34.461  16.369  -5.069  1.00 20.00    -0.004 C 
HETATM    2  C2  UNL     1     -34.431  15.551  -3.999  1.00 20.00    -0.078 C 
HETATM    3  C3  UNL     1     -35.169  14.229  -4.009  1.00 20.00     0.034 C 
HETATM    4  C4  UNL     1     -36.190  14.098  -5.142  1.00 20.00     0.006 C 
HETATM    5  C5  UNL     1     -35.597  14.581  -6.460  1.00 20.00     0.024 C 
HETATM    6  C8  UNL     1     -35.176  16.048  -6.350  1.00 20.00     0.105 C 
HETATM    7 CL10 UNL     1     -34.138  16.473  -7.743  1.00 20.00    -0.121 Cl
ENDROOT
BRANCH   2   8
HETATM    8  C9  UNL     1     -33.722  15.881  -2.739  1.00 20.00     0.014 A 
HETATM    9  C6  UNL     1     -33.105  17.234  -2.616  1.00 20.00     0.010 A 
HETATM   10  C7  UNL     1     -34.337  16.894  -1.833  1.00 20.00     0.010 A 
ENDBRANCH   2   8
TORSDOF 1
ENDMDL
MODEL 9
REMARK VINA RESULT:      -4.0      1.954      4.051
REMARK  1 active torsions:
REMARK  status: ('A' for Active; 'I' for Inactive)
REMARK    1  A    between atoms: C2_2  and  C9_9 
ROOT
HETATM    1  C1  UNL     1     -35.295  16.020  -2.001  1.00 20.00    -0.004 C 
HETATM    2  C2  UNL     1     -34.507  17.074  -1.711  1.00 20.00    -0.078 C 
HETATM    3  C3  UNL     1     -33.237  17.334  -2.494  1.00 20.00     0.034 C 
HETATM    4  C4  UNL     1     -32.778  16.145  -3.341  1.00 20.00     0.006 C 
HETATM    5  C5  UNL     1     -33.953  15.534  -4.095  1.00 20.00     0.024 C 
HETATM    6  C8  UNL     1     -35.022  15.049  -3.113  1.00 20.00     0.105 C 
HETATM    7 CL10 UNL     1     -36.535  14.710  -4.003  1.00 20.00    -0.121 Cl
ENDROOT
BRANCH   2   8
HETATM    8  C9  UNL     1     -34.789  18.025  -0.609  1.00 20.00     0.014 A 
HETATM    9  C6  UNL     1     -35.132  17.464   0.730  1.00 20.00     0.010 A 
HETATM   10  C7  UNL     1     -33.802  18.118   0.506  1.00 20.00     0.010 A 
ENDBRANCH   2   8
TORSDOF 1
ENDMDL
