MODEL 1
REMARK VINA RESULT:      -3.8      0.000      0.000
REMARK  2 active torsions:
REMARK  status: ('A' for Active; 'I' for Inactive)
REMARK    1  A    between atoms: C4_4  and  C5_5 
REMARK    2  A    between atoms: C4_4  and  C6_6 
ROOT
HETATM    1  C1  UNL     1     -35.484  13.863  -4.589  1.00 20.00     0.063 C 
HETATM    2  C2  UNL     1     -34.298  15.197  -6.274  1.00 20.00     0.025 C 
HETATM    3  C5  UNL     1     -34.700  15.096  -4.800  1.00 20.00     0.090 C 
HETATM    4  N7  UNL     1     -36.102  12.895  -4.422  1.00 20.00    -0.197 NA
ENDROOT
BRANCH   3   5
HETATM    5  C4  UNL     1     -33.442  15.116  -3.906  1.00 20.00     0.034 C 
BRANCH   5   6
HETATM    6  C6  UNL     1     -33.373  16.286  -2.916  1.00 20.00     0.055 C 
HETATM    7  C3  UNL     1     -33.217  17.619  -3.637  1.00 20.00     0.022 C 
HETATM    8 BR8  UNL     1     -35.022  16.370  -1.855  1.00 20.00    -0.092 Br
ENDBRANCH   5   6
ENDBRANCH   3   5
TORSDOF 2
ENDMDL
MODEL 2
REMARK VINA RESULT:      -3.8      1.657      1.953
REMARK  2 active torsions:
REMARK  status: ('A' for Active; 'I' for Inactive)
REMARK    1  A    between atoms: C4_4  and  C5_5 
REMARK    2  A    between atoms: C4_4  and  C6_6 
ROOT
HETATM    1  C1  UNL     1     -35.354  13.839  -4.297  1.00 20.00     0.063 C 
HETATM    2  C2  UNL     1     -33.074  14.748  -4.307  1.00 20.00     0.025 C 
HETATM    3  C5  UNL     1     -34.548  15.046  -4.025  1.00 20.00     0.090 C 
HETATM    4  N7  UNL     1     -35.988  12.892  -4.513  1.00 20.00    -0.197 NA
ENDROOT
BRANCH   3   5
HETATM    5  C4  UNL     1     -34.723  15.514  -2.565  1.00 20.00     0.034 C 
BRANCH   5   6
HETATM    6  C6  UNL     1     -34.743  17.037  -2.374  1.00 20.00     0.055 C 
HETATM    7  C3  UNL     1     -35.670  17.445  -1.236  1.00 20.00     0.022 C 
HETATM    8 BR8  UNL     1     -32.943  17.687  -1.939  1.00 20.00    -0.092 Br
ENDBRANCH   5   6
ENDBRANCH   3   5
TORSDOF 2
ENDMDL
MODEL 3
REMARK VINA RESULT:      -3.7      1.158      1.158
REMARK  2 active torsions:
REMARK  status: ('A' for Active; 'I' for Inactive)
REMARK    1  A    between atoms: C4_4  and  C5_5 
REMARK    2  A    between atoms: C4_4  and  C6_6 
ROOT
HETATM    1  C1  UNL     1     -36.870  14.448  -4.493  1.00 20.00     0.063 C 
HETATM    2  C2  UNL     1     -35.051  14.845  -6.093  1.00 20.00     0.025 C 
HETATM    3  C5  UNL     1     -35.576  15.132  -4.684  1.00 20.00     0.090 C 
HETATM    4  N7  UNL     1     -37.888  13.912  -4.343  1.00 20.00    -0.197 NA
ENDROOT
BRANCH   3   5
HETATM    5  C4  UNL     1     -34.543  14.675  -3.632  1.00 20.00     0.034 C 
BRANCH   5   6
HETATM    6  C6  UNL     1     -33.919  15.808  -2.805  1.00 20.00     0.055 C 
HETATM    7  C3  UNL     1     -33.381  16.919  -3.699  1.00 20.00     0.022 C 
HETATM    8 BR8  UNL     1     -35.267  16.597  -1.618  1.00 20.00    -0.092 Br
ENDBRANCH   5   6
ENDBRANCH   3   5
TORSDOF 2
ENDMDL
MODEL 4
REMARK VINA RESULT:      -3.7     11.141     11.809
REMARK  2 active torsions:
REMARK  status: ('A' for Active; 'I' for Inactive)
REMARK    1  A    between atoms: C4_4  and  C5_5 
REMARK    2  A    between atoms: C4_4  and  C6_6 
ROOT
HETATM    1  C1  UNL     1     -32.575   7.670   1.574  1.00 20.00     0.063 C 
HETATM    2  C2  UNL     1     -32.979   5.323   2.172  1.00 20.00     0.025 C 
HETATM    3  C5  UNL     1     -32.614   6.714   2.699  1.00 20.00     0.090 C 
HETATM    4  N7  UNL     1     -32.543   8.421   0.691  1.00 20.00    -0.197 NA
ENDROOT
BRANCH   3   5
HETATM    5  C4  UNL     1     -33.631   7.157   3.772  1.00 20.00     0.034 C 
BRANCH   5   6
HETATM    6  C6  UNL     1     -33.730   6.226   4.989  1.00 20.00     0.055 C 
HETATM    7  C3  UNL     1     -33.937   7.013   6.277  1.00 20.00     0.022 C 
HETATM    8 BR8  UNL     1     -35.254   5.007   4.784  1.00 20.00    -0.092 Br
ENDBRANCH   5   6
ENDBRANCH   3   5
TORSDOF 2
ENDMDL
MODEL 5
REMARK VINA RESULT:      -3.7     17.780     18.634
REMARK  2 active torsions:
REMARK  status: ('A' for Active; 'I' for Inactive)
REMARK    1  A    between atoms: C4_4  and  C5_5 
REMARK    2  A    between atoms: C4_4  and  C6_6 
ROOT
HETATM    1  C1  UNL     1     -24.888  17.922  12.036  1.00 20.00     0.063 C 
HETATM    2  C2  UNL     1     -22.451  17.696  12.229  1.00 20.00     0.025 C 
HETATM    3  C5  UNL     1     -23.737  17.062  11.693  1.00 20.00     0.090 C 
HETATM    4  N7  UNL     1     -25.792  18.596  12.306  1.00 20.00    -0.197 NA
ENDROOT
BRANCH   3   5
HETATM    5  C4  UNL     1     -23.630  16.857  10.168  1.00 20.00     0.034 C 
BRANCH   5   6
HETATM    6  C6  UNL     1     -22.846  17.947   9.423  1.00 20.00     0.055 C 
HETATM    7  C3  UNL     1     -22.016  17.360   8.289  1.00 20.00     0.022 C 
HETATM    8 BR8  UNL     1     -24.084  19.254   8.643  1.00 20.00    -0.092 Br
ENDBRANCH   5   6
ENDBRANCH   3   5
TORSDOF 2
ENDMDL
MODEL 6
REMARK VINA RESULT:      -3.7      2.528      3.020
REMARK  2 active torsions:
REMARK  status: ('A' for Active; 'I' for Inactive)
REMARK    1  A    between atoms: C4_4  and  C5_5 
REMARK    2  A    between atoms: C4_4  and  C6_6 
ROOT
HETATM    1  C1  UNL     1     -36.066  14.044  -4.226  1.00 20.00     0.063 C 
HETATM    2  C2  UNL     1     -34.869  15.546  -2.697  1.00 20.00     0.025 C 
HETATM    3  C5  UNL     1     -34.725  14.475  -3.781  1.00 20.00     0.090 C 
HETATM    4  N7  UNL     1     -37.118  13.704  -4.575  1.00 20.00    -0.197 NA
ENDROOT
BRANCH   3   5
HETATM    5  C4  UNL     1     -33.897  15.025  -4.961  1.00 20.00     0.034 C 
BRANCH   5   6
HETATM    6  C6  UNL     1     -34.696  15.846  -5.983  1.00 20.00     0.055 C 
HETATM    7  C3  UNL     1     -34.494  17.342  -5.777  1.00 20.00     0.022 C 
HETATM    8 BR8  UNL     1     -34.110  15.410  -7.804  1.00 20.00    -0.092 Br
ENDBRANCH   5   6
ENDBRANCH   3   5
TORSDOF 2
ENDMDL
MODEL 7
REMARK VINA RESULT:      -3.7     11.634     12.491
REMARK  2 active torsions:
REMARK  status: ('A' for Active; 'I' for Inactive)
REMARK    1  A    between atoms: C4_4  and  C5_5 
REMARK    2  A    between atoms: C4_4  and  C6_6 
ROOT
HETATM    1  C1  UNL     1     -32.781   6.885   2.327  1.00 20.00     0.063 C 
HETATM    2  C2  UNL     1     -33.090   4.450   2.278  1.00 20.00     0.025 C 
HETATM    3  C5  UNL     1     -33.225   5.722   3.120  1.00 20.00     0.090 C 
HETATM    4  N7  UNL     1     -32.430   7.799   1.705  1.00 20.00    -0.197 NA
ENDROOT
BRANCH   3   5
HETATM    5  C4  UNL     1     -34.685   5.893   3.590  1.00 20.00     0.034 C 
BRANCH   5   6
HETATM    6  C6  UNL     1     -34.872   5.929   5.114  1.00 20.00     0.055 C 
HETATM    7  C3  UNL     1     -34.649   4.557   5.736  1.00 20.00     0.022 C 
HETATM    8 BR8  UNL     1     -33.582   7.167   5.922  1.00 20.00    -0.092 Br
ENDBRANCH   5   6
ENDBRANCH   3   5
TORSDOF 2
ENDMDL
MODEL 8
REMARK VINA RESULT:      -3.6     10.824     12.452
REMARK  2 active torsions:
REMARK  status: ('A' for Active; 'I' for Inactive)
REMARK    1  A    between atoms: C4_4  and  C5_5 
REMARK    2  A    between atoms: C4_4  and  C6_6 
ROOT
HETATM    1  C1  UNL     1     -41.655   9.297   0.127  1.00 20.00     0.063 C 
HETATM    2  C2  UNL     1     -43.417   8.265  -1.236  1.00 20.00     0.025 C 
HETATM    3  C5  UNL     1     -42.196   8.008  -0.349  1.00 20.00     0.090 C 
HETATM    4  N7  UNL     1     -41.228  10.309   0.500  1.00 20.00    -0.197 NA
ENDROOT
BRANCH   3   5
HETATM    5  C4  UNL     1     -42.585   7.097   0.834  1.00 20.00     0.034 C 
BRANCH   5   6
HETATM    6  C6  UNL     1     -42.163   5.628   0.682  1.00 20.00     0.055 C 
HETATM    7  C3  UNL     1     -43.372   4.710   0.561  1.00 20.00     0.022 C 
HETATM    8 BR8  UNL     1     -41.076   5.403  -0.936  1.00 20.00    -0.092 Br
ENDBRANCH   5   6
ENDBRANCH   3   5
TORSDOF 2
ENDMDL
MODEL 9
REMARK VINA RESULT:      -3.6     11.366     12.097
REMARK  2 active torsions:
REMARK  status: ('A' for Active; 'I' for Inactive)
REMARK    1  A    between atoms: C4_4  and  C5_5 
REMARK    2  A    between atoms: C4_4  and  C6_6 
ROOT
HETATM    1  C1  UNL     1     -34.202   6.208   4.949  1.00 20.00     0.063 C 
HETATM    2  C2  UNL     1     -34.237   3.973   3.935  1.00 20.00     0.025 C 
HETATM    3  C5  UNL     1     -34.304   5.479   3.669  1.00 20.00     0.090 C 
HETATM    4  N7  UNL     1     -34.124   6.782   5.953  1.00 20.00    -0.197 NA
ENDROOT
BRANCH   3   5
HETATM    5  C4  UNL     1     -33.177   5.895   2.700  1.00 20.00     0.034 C 
BRANCH   5   6
HETATM    6  C6  UNL     1     -32.804   7.383   2.744  1.00 20.00     0.055 C 
HETATM    7  C3  UNL     1     -31.478   7.605   3.461  1.00 20.00     0.022 C 
HETATM    8 BR8  UNL     1     -32.624   8.088   0.922  1.00 20.00    -0.092 Br
ENDBRANCH   5   6
ENDBRANCH   3   5
TORSDOF 2
ENDMDL
