MODEL 1
REMARK VINA RESULT:      -4.5      0.000      0.000
REMARK  0 active torsions:
REMARK  status: ('A' for Active; 'I' for Inactive)
ROOT
HETATM    1  C1  UNL     1     -32.571   7.836   1.560  1.00 20.00     0.064 C 
HETATM    2  C2  UNL     1     -32.287   7.679   4.021  1.00 20.00     0.021 C 
HETATM    3  C3  UNL     1     -33.296   6.904   4.870  1.00 20.00     0.021 C 
HETATM    4  C4  UNL     1     -33.187   5.768   2.784  1.00 20.00     0.039 C 
HETATM    5  C5  UNL     1     -32.206   6.943   2.672  1.00 20.00     0.094 C 
HETATM    6  C6  UNL     1     -34.185   6.225   3.840  1.00 20.00     0.083 C 
HETATM    7  N7  UNL     1     -32.860   8.541   0.683  1.00 20.00    -0.197 NA
HETATM    8 CL8  UNL     1     -35.100   4.876   4.528  1.00 20.00    -0.125 Cl
ENDROOT
TORSDOF 0
ENDMDL
MODEL 2
REMARK VINA RESULT:      -4.1     15.389     16.202
REMARK  0 active torsions:
REMARK  status: ('A' for Active; 'I' for Inactive)
ROOT
HETATM    1  C1  UNL     1     -22.817  17.606   8.524  1.00 20.00     0.064 C 
HETATM    2  C2  UNL     1     -22.154  17.781  10.910  1.00 20.00     0.021 C 
HETATM    3  C3  UNL     1     -23.203  18.060  11.987  1.00 20.00     0.021 C 
HETATM    4  C4  UNL     1     -24.301  16.764  10.324  1.00 20.00     0.039 C 
HETATM    5  C5  UNL     1     -22.857  16.935   9.834  1.00 20.00     0.094 C 
HETATM    6  C6  UNL     1     -24.522  17.963  11.238  1.00 20.00     0.083 C 
HETATM    7  N7  UNL     1     -22.785  18.135   7.490  1.00 20.00    -0.197 NA
HETATM    8 CL8  UNL     1     -25.897  17.734  12.327  1.00 20.00    -0.125 Cl
ENDROOT
TORSDOF 0
ENDMDL
MODEL 3
REMARK VINA RESULT:      -4.0      9.187      9.594
REMARK  0 active torsions:
REMARK  status: ('A' for Active; 'I' for Inactive)
ROOT
HETATM    1  C1  UNL     1     -41.725   9.166  -0.083  1.00 20.00     0.064 C 
HETATM    2  C2  UNL     1     -41.107   7.022  -1.173  1.00 20.00     0.021 C 
HETATM    3  C3  UNL     1     -41.415   5.689  -0.490  1.00 20.00     0.021 C 
HETATM    4  C4  UNL     1     -43.174   7.163   0.130  1.00 20.00     0.039 C 
HETATM    5  C5  UNL     1     -42.247   7.979  -0.781  1.00 20.00     0.094 C 
HETATM    6  C6  UNL     1     -42.264   6.085   0.707  1.00 20.00     0.083 C 
HETATM    7  N7  UNL     1     -41.313  10.102   0.468  1.00 20.00    -0.197 NA
HETATM    8 CL8  UNL     1     -43.174   4.719   1.366  1.00 20.00    -0.125 Cl
ENDROOT
TORSDOF 0
ENDMDL
MODEL 4
REMARK VINA RESULT:      -4.0      9.221      9.834
REMARK  0 active torsions:
REMARK  status: ('A' for Active; 'I' for Inactive)
ROOT
HETATM    1  C1  UNL     1     -41.761   8.382   0.361  1.00 20.00     0.064 C 
HETATM    2  C2  UNL     1     -42.847   6.319   1.215  1.00 20.00     0.021 C 
HETATM    3  C3  UNL     1     -43.203   5.179   0.260  1.00 20.00     0.021 C 
HETATM    4  C4  UNL     1     -41.220   6.163  -0.607  1.00 20.00     0.039 C 
HETATM    5  C5  UNL     1     -41.559   6.956   0.663  1.00 20.00     0.094 C 
HETATM    6  C6  UNL     1     -42.562   5.597  -1.054  1.00 20.00     0.083 C 
HETATM    7  N7  UNL     1     -41.921   9.508   0.122  1.00 20.00    -0.197 NA
HETATM    8 CL8  UNL     1     -42.380   4.239  -2.173  1.00 20.00    -0.125 Cl
ENDROOT
TORSDOF 0
ENDMDL
MODEL 5
REMARK VINA RESULT:      -3.9     10.920     11.510
REMARK  0 active torsions:
REMARK  status: ('A' for Active; 'I' for Inactive)
ROOT
HETATM    1  C1  UNL     1     -37.297  14.763  -4.324  1.00 20.00     0.064 C 
HETATM    2  C2  UNL     1     -35.764  16.049  -2.855  1.00 20.00     0.021 C 
HETATM    3  C3  UNL     1     -34.277  15.698  -2.790  1.00 20.00     0.021 C 
HETATM    4  C4  UNL     1     -34.962  15.232  -5.018  1.00 20.00     0.039 C 
HETATM    5  C5  UNL     1     -36.211  15.757  -4.298  1.00 20.00     0.094 C 
HETATM    6  C6  UNL     1     -34.102  14.668  -3.894  1.00 20.00     0.083 C 
HETATM    7  N7  UNL     1     -38.153  13.978  -4.344  1.00 20.00    -0.197 NA
HETATM    8 CL8  UNL     1     -32.409  14.477  -4.373  1.00 20.00    -0.125 Cl
ENDROOT
TORSDOF 0
ENDMDL
MODEL 6
REMARK VINA RESULT:      -3.9     10.845     11.824
REMARK  0 active torsions:
REMARK  status: ('A' for Active; 'I' for Inactive)
ROOT
HETATM    1  C1  UNL     1     -37.048  14.070  -4.563  1.00 20.00     0.064 C 
HETATM    2  C2  UNL     1     -35.313  15.174  -5.952  1.00 20.00     0.021 C 
HETATM    3  C3  UNL     1     -34.277  16.097  -5.309  1.00 20.00     0.021 C 
HETATM    4  C4  UNL     1     -34.752  14.420  -3.692  1.00 20.00     0.039 C 
HETATM    5  C5  UNL     1     -35.619  14.081  -4.913  1.00 20.00     0.094 C 
HETATM    6  C6  UNL     1     -34.514  15.919  -3.818  1.00 20.00     0.083 C 
HETATM    7  N7  UNL     1     -38.177  14.061  -4.286  1.00 20.00    -0.197 NA
HETATM    8 CL8  UNL     1     -33.137  16.464  -2.849  1.00 20.00    -0.125 Cl
ENDROOT
TORSDOF 0
ENDMDL
MODEL 7
REMARK VINA RESULT:      -3.9     10.988     11.404
REMARK  0 active torsions:
REMARK  status: ('A' for Active; 'I' for Inactive)
ROOT
HETATM    1  C1  UNL     1     -35.598  14.390  -5.179  1.00 20.00     0.064 C 
HETATM    2  C2  UNL     1     -33.299  14.748  -4.312  1.00 20.00     0.021 C 
HETATM    3  C3  UNL     1     -32.999  15.913  -3.368  1.00 20.00     0.021 C 
HETATM    4  C4  UNL     1     -35.221  15.225  -2.874  1.00 20.00     0.039 C 
HETATM    5  C5  UNL     1     -34.734  14.292  -3.991  1.00 20.00     0.094 C 
HETATM    6  C6  UNL     1     -34.373  16.479  -3.049  1.00 20.00     0.083 C 
HETATM    7  N7  UNL     1     -36.279  14.467  -6.116  1.00 20.00    -0.197 NA
HETATM    8 CL8  UNL     1     -34.362  17.491  -1.597  1.00 20.00    -0.125 Cl
ENDROOT
TORSDOF 0
ENDMDL
MODEL 8
REMARK VINA RESULT:      -3.8     11.158     11.719
REMARK  0 active torsions:
REMARK  status: ('A' for Active; 'I' for Inactive)
ROOT
HETATM    1  C1  UNL     1     -32.832  18.283  -3.435  1.00 20.00     0.064 C 
HETATM    2  C2  UNL     1     -34.243  17.156  -1.730  1.00 20.00     0.021 C 
HETATM    3  C3  UNL     1     -35.073  15.927  -2.101  1.00 20.00     0.021 C 
HETATM    4  C4  UNL     1     -33.110  15.817  -3.438  1.00 20.00     0.039 C 
HETATM    5  C5  UNL     1     -32.966  17.087  -2.587  1.00 20.00     0.094 C 
HETATM    6  C6  UNL     1     -34.616  15.597  -3.513  1.00 20.00     0.083 C 
HETATM    7  N7  UNL     1     -32.727  19.226  -4.104  1.00 20.00    -0.197 NA
HETATM    8 CL8  UNL     1     -35.030  13.942  -3.982  1.00 20.00    -0.125 Cl
ENDROOT
TORSDOF 0
ENDMDL
MODEL 9
REMARK VINA RESULT:      -3.7     11.310     12.141
REMARK  0 active torsions:
REMARK  status: ('A' for Active; 'I' for Inactive)
ROOT
HETATM    1  C1  UNL     1     -35.857  13.901  -4.187  1.00 20.00     0.064 C 
HETATM    2  C2  UNL     1     -34.553  15.492  -2.797  1.00 20.00     0.021 C 
HETATM    3  C3  UNL     1     -33.850  16.688  -3.441  1.00 20.00     0.021 C 
HETATM    4  C4  UNL     1     -35.824  16.325  -4.715  1.00 20.00     0.039 C 
HETATM    5  C5  UNL     1     -35.837  15.257  -3.613  1.00 20.00     0.094 C 
HETATM    6  C6  UNL     1     -34.348  16.667  -4.877  1.00 20.00     0.083 C 
HETATM    7  N7  UNL     1     -35.874  12.832  -4.640  1.00 20.00    -0.197 NA
HETATM    8 CL8  UNL     1     -34.103  18.216  -5.695  1.00 20.00    -0.125 Cl
ENDROOT
TORSDOF 0
ENDMDL
