MODEL 1
REMARK VINA RESULT:      -5.2      0.000      0.000
REMARK  3 active torsions:
REMARK  status: ('A' for Active; 'I' for Inactive)
REMARK    1  A    between atoms: C4_4  and  C5_5 
REMARK    2  A    between atoms: C5_5  and  C7_7 
REMARK    3  A    between atoms: C6_6  and  C7_7 
ROOT
HETATM    1  C1  UNL     1     -32.619   8.099   1.296  1.00 20.00     0.059 C 
HETATM    2  C4  UNL     1     -32.166   7.348   2.475  1.00 20.00     0.125 C 
HETATM    3  N8  UNL     1     -32.975   8.693   0.364  1.00 20.00    -0.197 NA
ENDROOT
BRANCH   2   4
HETATM    4  C5  UNL     1     -33.141   6.215   2.810  1.00 20.00     0.034 C 
BRANCH   4   5
HETATM    5  C7  UNL     1     -34.054   6.535   4.009  1.00 20.00     0.086 C 
HETATM    6 CL9  UNL     1     -33.114   7.344   5.306  1.00 20.00    -0.125 Cl
BRANCH   5   7
HETATM    7  C6  UNL     1     -34.795   5.281   4.542  1.00 20.00    -0.004 C 
HETATM    8  C2  UNL     1     -34.240   3.989   3.931  1.00 20.00     0.011 C 
HETATM    9  C3  UNL     1     -34.815   5.165   6.070  1.00 20.00     0.011 C 
ENDBRANCH   5   7
ENDBRANCH   4   5
ENDBRANCH   2   4
TORSDOF 3
ENDMDL
MODEL 2
REMARK VINA RESULT:      -4.1     11.519     12.121
REMARK  3 active torsions:
REMARK  status: ('A' for Active; 'I' for Inactive)
REMARK    1  A    between atoms: C4_4  and  C5_5 
REMARK    2  A    between atoms: C5_5  and  C7_7 
REMARK    3  A    between atoms: C6_6  and  C7_7 
ROOT
HETATM    1  C1  UNL     1     -36.847  14.253  -4.769  1.00 20.00     0.059 C 
HETATM    2  C4  UNL     1     -35.565  14.689  -5.337  1.00 20.00     0.125 C 
HETATM    3  N8  UNL     1     -37.862  13.907  -4.321  1.00 20.00    -0.197 NA
ENDROOT
BRANCH   2   4
HETATM    4  C5  UNL     1     -35.109  16.010  -4.710  1.00 20.00     0.034 C 
BRANCH   4   5
HETATM    5  C7  UNL     1     -33.713  15.925  -4.065  1.00 20.00     0.086 C 
HETATM    6 CL9  UNL     1     -32.944  14.351  -4.454  1.00 20.00    -0.125 Cl
BRANCH   5   7
HETATM    7  C6  UNL     1     -33.749  16.177  -2.535  1.00 20.00    -0.004 C 
HETATM    8  C2  UNL     1     -32.985  17.451  -2.151  1.00 20.00     0.011 C 
HETATM    9  C3  UNL     1     -35.159  16.218  -1.938  1.00 20.00     0.011 C 
ENDBRANCH   5   7
ENDBRANCH   4   5
ENDBRANCH   2   4
TORSDOF 3
ENDMDL
MODEL 3
REMARK VINA RESULT:      -4.1     11.196     11.889
REMARK  3 active torsions:
REMARK  status: ('A' for Active; 'I' for Inactive)
REMARK    1  A    between atoms: C4_4  and  C5_5 
REMARK    2  A    between atoms: C5_5  and  C7_7 
REMARK    3  A    between atoms: C6_6  and  C7_7 
ROOT
HETATM    1  C1  UNL     1     -36.366  13.845  -4.361  1.00 20.00     0.059 C 
HETATM    2  C4  UNL     1     -36.954  15.130  -3.960  1.00 20.00     0.125 C 
HETATM    3  N8  UNL     1     -35.903  12.828  -4.677  1.00 20.00    -0.197 NA
ENDROOT
BRANCH   2   4
HETATM    4  C5  UNL     1     -35.864  16.179  -3.717  1.00 20.00     0.034 C 
BRANCH   4   5
HETATM    5  C7  UNL     1     -34.910  15.806  -2.567  1.00 20.00     0.086 C 
HETATM    6 CL9  UNL     1     -35.347  16.711  -1.080  1.00 20.00    -0.125 Cl
BRANCH   5   7
HETATM    7  C6  UNL     1     -33.419  16.014  -2.941  1.00 20.00    -0.004 C 
HETATM    8  C2  UNL     1     -32.994  15.111  -4.105  1.00 20.00     0.011 C 
HETATM    9  C3  UNL     1     -33.046  17.468  -3.249  1.00 20.00     0.011 C 
ENDBRANCH   5   7
ENDBRANCH   4   5
ENDBRANCH   2   4
TORSDOF 3
ENDMDL
MODEL 4
REMARK VINA RESULT:      -4.1     11.208     12.039
REMARK  3 active torsions:
REMARK  status: ('A' for Active; 'I' for Inactive)
REMARK    1  A    between atoms: C4_4  and  C5_5 
REMARK    2  A    between atoms: C5_5  and  C7_7 
REMARK    3  A    between atoms: C6_6  and  C7_7 
ROOT
HETATM    1  C1  UNL     1     -36.321  13.773  -4.338  1.00 20.00     0.059 C 
HETATM    2  C4  UNL     1     -34.885  13.633  -4.059  1.00 20.00     0.125 C 
HETATM    3  N8  UNL     1     -37.456  13.881  -4.557  1.00 20.00    -0.197 NA
ENDROOT
BRANCH   2   4
HETATM    4  C5  UNL     1     -34.115  14.879  -4.510  1.00 20.00     0.034 C 
BRANCH   4   5
HETATM    5  C7  UNL     1     -34.599  16.171  -3.826  1.00 20.00     0.086 C 
HETATM    6 CL9  UNL     1     -34.137  17.602  -4.805  1.00 20.00    -0.125 Cl
BRANCH   5   7
HETATM    7  C6  UNL     1     -34.092  16.294  -2.365  1.00 20.00    -0.004 C 
HETATM    8  C2  UNL     1     -32.931  17.289  -2.248  1.00 20.00     0.011 C 
HETATM    9  C3  UNL     1     -35.183  16.649  -1.350  1.00 20.00     0.011 C 
ENDBRANCH   5   7
ENDBRANCH   4   5
ENDBRANCH   2   4
TORSDOF 3
ENDMDL
MODEL 5
REMARK VINA RESULT:      -4.1     11.340     12.030
REMARK  3 active torsions:
REMARK  status: ('A' for Active; 'I' for Inactive)
REMARK    1  A    between atoms: C4_4  and  C5_5 
REMARK    2  A    between atoms: C5_5  and  C7_7 
REMARK    3  A    between atoms: C6_6  and  C7_7 
ROOT
HETATM    1  C1  UNL     1     -31.584  18.313  -0.980  1.00 20.00     0.059 C 
HETATM    2  C4  UNL     1     -32.836  18.297  -1.749  1.00 20.00     0.125 C 
HETATM    3  N8  UNL     1     -30.594  18.328  -0.373  1.00 20.00    -0.197 NA
ENDROOT
BRANCH   2   4
HETATM    4  C5  UNL     1     -32.985  16.984  -2.525  1.00 20.00     0.034 C 
BRANCH   4   5
HETATM    5  C7  UNL     1     -34.443  16.498  -2.620  1.00 20.00     0.086 C 
HETATM    6 CL9  UNL     1     -35.236  16.596  -1.012  1.00 20.00    -0.125 Cl
BRANCH   5   7
HETATM    7  C6  UNL     1     -34.558  15.075  -3.224  1.00 20.00    -0.004 C 
HETATM    8  C2  UNL     1     -35.936  14.832  -3.851  1.00 20.00     0.011 C 
HETATM    9  C3  UNL     1     -33.460  14.732  -4.237  1.00 20.00     0.011 C 
ENDBRANCH   5   7
ENDBRANCH   4   5
ENDBRANCH   2   4
TORSDOF 3
ENDMDL
MODEL 6
REMARK VINA RESULT:      -4.1     11.108     12.186
REMARK  3 active torsions:
REMARK  status: ('A' for Active; 'I' for Inactive)
REMARK    1  A    between atoms: C4_4  and  C5_5 
REMARK    2  A    between atoms: C5_5  and  C7_7 
REMARK    3  A    between atoms: C6_6  and  C7_7 
ROOT
HETATM    1  C1  UNL     1     -36.550  13.995  -4.300  1.00 20.00     0.059 C 
HETATM    2  C4  UNL     1     -35.098  14.077  -4.090  1.00 20.00     0.125 C 
HETATM    3  N8  UNL     1     -37.697  13.929  -4.466  1.00 20.00    -0.197 NA
ENDROOT
BRANCH   2   4
HETATM    4  C5  UNL     1     -34.630  15.535  -4.057  1.00 20.00     0.034 C 
BRANCH   4   5
HETATM    5  C7  UNL     1     -33.959  15.926  -2.728  1.00 20.00     0.086 C 
HETATM    6 CL9  UNL     1     -35.203  16.318  -1.495  1.00 20.00    -0.125 Cl
BRANCH   5   7
HETATM    7  C6  UNL     1     -32.941  17.084  -2.894  1.00 20.00    -0.004 C 
HETATM    8  C2  UNL     1     -33.381  18.077  -3.978  1.00 20.00     0.011 C 
HETATM    9  C3  UNL     1     -32.628  17.838  -1.598  1.00 20.00     0.011 C 
ENDBRANCH   5   7
ENDBRANCH   4   5
ENDBRANCH   2   4
TORSDOF 3
ENDMDL
MODEL 7
REMARK VINA RESULT:      -4.0     11.204     12.054
REMARK  3 active torsions:
REMARK  status: ('A' for Active; 'I' for Inactive)
REMARK    1  A    between atoms: C4_4  and  C5_5 
REMARK    2  A    between atoms: C5_5  and  C7_7 
REMARK    3  A    between atoms: C6_6  and  C7_7 
ROOT
HETATM    1  C1  UNL     1     -36.017  13.884  -4.292  1.00 20.00     0.059 C 
HETATM    2  C4  UNL     1     -36.155  15.282  -3.864  1.00 20.00     0.125 C 
HETATM    3  N8  UNL     1     -35.910  12.778  -4.631  1.00 20.00    -0.197 NA
ENDROOT
BRANCH   2   4
HETATM    4  C5  UNL     1     -35.205  15.597  -2.704  1.00 20.00     0.034 C 
BRANCH   4   5
HETATM    5  C7  UNL     1     -33.962  16.396  -3.138  1.00 20.00     0.086 C 
HETATM    6 CL9  UNL     1     -32.762  15.308  -3.910  1.00 20.00    -0.125 Cl
BRANCH   5   7
HETATM    7  C6  UNL     1     -33.333  17.196  -1.968  1.00 20.00    -0.004 C 
HETATM    8  C2  UNL     1     -32.539  18.409  -2.471  1.00 20.00     0.011 C 
HETATM    9  C3  UNL     1     -34.336  17.641  -0.898  1.00 20.00     0.011 C 
ENDBRANCH   5   7
ENDBRANCH   4   5
ENDBRANCH   2   4
TORSDOF 3
ENDMDL
MODEL 8
REMARK VINA RESULT:      -3.8     11.199     11.800
REMARK  3 active torsions:
REMARK  status: ('A' for Active; 'I' for Inactive)
REMARK    1  A    between atoms: C4_4  and  C5_5 
REMARK    2  A    between atoms: C5_5  and  C7_7 
REMARK    3  A    between atoms: C6_6  and  C7_7 
ROOT
HETATM    1  C1  UNL     1     -35.830  13.954  -4.252  1.00 20.00     0.059 C 
HETATM    2  C4  UNL     1     -35.725  15.346  -3.791  1.00 20.00     0.125 C 
HETATM    3  N8  UNL     1     -35.915  12.855  -4.616  1.00 20.00    -0.197 NA
ENDROOT
BRANCH   2   4
HETATM    4  C5  UNL     1     -34.687  15.475  -2.672  1.00 20.00     0.034 C 
BRANCH   4   5
HETATM    5  C7  UNL     1     -34.503  16.923  -2.180  1.00 20.00     0.086 C 
HETATM    6 CL9  UNL     1     -32.768  17.377  -2.223  1.00 20.00    -0.125 Cl
BRANCH   5   7
HETATM    7  C6  UNL     1     -35.117  17.156  -0.775  1.00 20.00    -0.004 C 
HETATM    8  C2  UNL     1     -34.176  17.961   0.130  1.00 20.00     0.011 C 
HETATM    9  C3  UNL     1     -36.502  17.811  -0.795  1.00 20.00     0.011 C 
ENDBRANCH   5   7
ENDBRANCH   4   5
ENDBRANCH   2   4
TORSDOF 3
ENDMDL
MODEL 9
REMARK VINA RESULT:      -3.8     11.190     12.055
REMARK  3 active torsions:
REMARK  status: ('A' for Active; 'I' for Inactive)
REMARK    1  A    between atoms: C4_4  and  C5_5 
REMARK    2  A    between atoms: C5_5  and  C7_7 
REMARK    3  A    between atoms: C6_6  and  C7_7 
ROOT
HETATM    1  C1  UNL     1     -35.262  13.709  -4.199  1.00 20.00     0.059 C 
HETATM    2  C4  UNL     1     -34.337  14.757  -3.747  1.00 20.00     0.125 C 
HETATM    3  N8  UNL     1     -35.991  12.880  -4.558  1.00 20.00    -0.197 NA
ENDROOT
BRANCH   2   4
HETATM    4  C5  UNL     1     -34.956  15.583  -2.615  1.00 20.00     0.034 C 
BRANCH   4   5
HETATM    5  C7  UNL     1     -34.860  17.102  -2.850  1.00 20.00     0.086 C 
HETATM    6 CL9  UNL     1     -33.865  17.444  -4.304  1.00 20.00    -0.125 Cl
BRANCH   5   7
HETATM    7  C6  UNL     1     -34.330  17.863  -1.607  1.00 20.00    -0.004 C 
HETATM    8  C2  UNL     1     -34.974  17.354  -0.311  1.00 20.00     0.011 C 
HETATM    9  C3  UNL     1     -32.804  17.851  -1.467  1.00 20.00     0.011 C 
ENDBRANCH   5   7
ENDBRANCH   4   5
ENDBRANCH   2   4
TORSDOF 3
ENDMDL
