MODEL 1
REMARK VINA RESULT:      -4.3      0.000      0.000
REMARK  2 active torsions:
REMARK  status: ('A' for Active; 'I' for Inactive)
REMARK    1  A    between atoms: C4_4  and  C5_5 
REMARK    2  A    between atoms: C4_4  and  C6_6 
ROOT
HETATM    1  C1  UNL     1     -32.637   7.579   1.678  1.00 20.00     0.063 C 
HETATM    2  C2  UNL     1     -33.046   5.225   2.244  1.00 20.00     0.025 C 
HETATM    3  C5  UNL     1     -32.676   6.607   2.788  1.00 20.00     0.090 C 
HETATM    4  N7  UNL     1     -32.603   8.342   0.805  1.00 20.00    -0.197 NA
ENDROOT
BRANCH   3   5
HETATM    5  C4  UNL     1     -33.687   7.036   3.871  1.00 20.00     0.038 C 
BRANCH   5   6
HETATM    6  C6  UNL     1     -34.120   5.922   4.839  1.00 20.00     0.079 C 
HETATM    7  C3  UNL     1     -34.231   6.452   6.265  1.00 20.00     0.026 C 
HETATM    8 CL8  UNL     1     -35.699   5.230   4.359  1.00 20.00    -0.125 Cl
ENDBRANCH   5   6
ENDBRANCH   3   5
TORSDOF 2
ENDMDL
MODEL 2
REMARK VINA RESULT:      -4.0     11.148     11.804
REMARK  2 active torsions:
REMARK  status: ('A' for Active; 'I' for Inactive)
REMARK    1  A    between atoms: C4_4  and  C5_5 
REMARK    2  A    between atoms: C4_4  and  C6_6 
ROOT
HETATM    1  C1  UNL     1     -36.017  13.867  -4.255  1.00 20.00     0.063 C 
HETATM    2  C2  UNL     1     -36.165  16.240  -4.866  1.00 20.00     0.025 C 
HETATM    3  C5  UNL     1     -36.136  15.235  -3.713  1.00 20.00     0.090 C 
HETATM    4  N7  UNL     1     -35.925  12.792  -4.681  1.00 20.00    -0.197 NA
ENDROOT
BRANCH   3   5
HETATM    5  C4  UNL     1     -34.970  15.560  -2.757  1.00 20.00     0.038 C 
BRANCH   5   6
HETATM    6  C6  UNL     1     -33.740  16.205  -3.421  1.00 20.00     0.079 C 
HETATM    7  C3  UNL     1     -32.963  17.053  -2.420  1.00 20.00     0.026 C 
HETATM    8 CL8  UNL     1     -32.644  14.960  -4.092  1.00 20.00    -0.125 Cl
ENDBRANCH   5   6
ENDBRANCH   3   5
TORSDOF 2
ENDMDL
MODEL 3
REMARK VINA RESULT:      -3.9     16.189     16.528
REMARK  2 active torsions:
REMARK  status: ('A' for Active; 'I' for Inactive)
REMARK    1  A    between atoms: C4_4  and  C5_5 
REMARK    2  A    between atoms: C4_4  and  C6_6 
ROOT
HETATM    1  C1  UNL     1     -22.431  17.370   8.237  1.00 20.00     0.063 C 
HETATM    2  C2  UNL     1     -23.860  19.252   8.903  1.00 20.00     0.025 C 
HETATM    3  C5  UNL     1     -23.384  17.843   9.261  1.00 20.00     0.090 C 
HETATM    4  N7  UNL     1     -21.684  16.998   7.433  1.00 20.00    -0.197 NA
ENDROOT
BRANCH   3   5
HETATM    5  C4  UNL     1     -22.743  17.842  10.663  1.00 20.00     0.038 C 
BRANCH   5   6
HETATM    6  C6  UNL     1     -23.626  17.266  11.785  1.00 20.00     0.079 C 
HETATM    7  C3  UNL     1     -24.574  18.329  12.332  1.00 20.00     0.026 C 
HETATM    8 CL8  UNL     1     -24.594  15.882  11.196  1.00 20.00    -0.125 Cl
ENDBRANCH   5   6
ENDBRANCH   3   5
TORSDOF 2
ENDMDL
MODEL 4
REMARK VINA RESULT:      -3.9     15.952     16.286
REMARK  2 active torsions:
REMARK  status: ('A' for Active; 'I' for Inactive)
REMARK    1  A    between atoms: C4_4  and  C5_5 
REMARK    2  A    between atoms: C4_4  and  C6_6 
ROOT
HETATM    1  C1  UNL     1     -24.132  18.747   7.703  1.00 20.00     0.063 C 
HETATM    2  C2  UNL     1     -22.239  17.421   8.531  1.00 20.00     0.025 C 
HETATM    3  C5  UNL     1     -23.265  18.504   8.872  1.00 20.00     0.090 C 
HETATM    4  N7  UNL     1     -24.813  18.939   6.784  1.00 20.00    -0.197 NA
ENDROOT
BRANCH   3   5
HETATM    5  C4  UNL     1     -24.091  18.081  10.103  1.00 20.00     0.038 C 
BRANCH   5   6
HETATM    6  C6  UNL     1     -23.419  17.039  11.015  1.00 20.00     0.079 C 
HETATM    7  C3  UNL     1     -22.838  17.699  12.261  1.00 20.00     0.026 C 
HETATM    8 CL8  UNL     1     -24.586  15.781  11.523  1.00 20.00    -0.125 Cl
ENDBRANCH   5   6
ENDBRANCH   3   5
TORSDOF 2
ENDMDL
MODEL 5
REMARK VINA RESULT:      -3.9     11.133     11.509
REMARK  2 active torsions:
REMARK  status: ('A' for Active; 'I' for Inactive)
REMARK    1  A    between atoms: C4_4  and  C5_5 
REMARK    2  A    between atoms: C4_4  and  C6_6 
ROOT
HETATM    1  C1  UNL     1     -35.343  13.838  -4.292  1.00 20.00     0.063 C 
HETATM    2  C2  UNL     1     -33.077  14.780  -4.280  1.00 20.00     0.025 C 
HETATM    3  C5  UNL     1     -34.556  15.052  -4.003  1.00 20.00     0.090 C 
HETATM    4  N7  UNL     1     -35.962  12.885  -4.522  1.00 20.00    -0.197 NA
ENDROOT
BRANCH   3   5
HETATM    5  C4  UNL     1     -34.745  15.505  -2.541  1.00 20.00     0.038 C 
BRANCH   5   6
HETATM    6  C6  UNL     1     -34.572  17.015  -2.297  1.00 20.00     0.079 C 
HETATM    7  C3  UNL     1     -35.408  17.474  -1.106  1.00 20.00     0.026 C 
HETATM    8 CL8  UNL     1     -32.858  17.424  -1.987  1.00 20.00    -0.125 Cl
ENDBRANCH   5   6
ENDBRANCH   3   5
TORSDOF 2
ENDMDL
MODEL 6
REMARK VINA RESULT:      -3.9     11.232     11.946
REMARK  2 active torsions:
REMARK  status: ('A' for Active; 'I' for Inactive)
REMARK    1  A    between atoms: C4_4  and  C5_5 
REMARK    2  A    between atoms: C4_4  and  C6_6 
ROOT
HETATM    1  C1  UNL     1     -36.850  14.431  -4.613  1.00 20.00     0.063 C 
HETATM    2  C2  UNL     1     -35.166  14.863  -6.345  1.00 20.00     0.025 C 
HETATM    3  C5  UNL     1     -35.568  15.107  -4.890  1.00 20.00     0.090 C 
HETATM    4  N7  UNL     1     -37.859  13.902  -4.396  1.00 20.00    -0.197 NA
ENDROOT
BRANCH   3   5
HETATM    5  C4  UNL     1     -34.457  14.607  -3.944  1.00 20.00     0.038 C 
BRANCH   5   6
HETATM    6  C6  UNL     1     -33.906  15.661  -2.967  1.00 20.00     0.079 C 
HETATM    7  C3  UNL     1     -33.446  16.908  -3.714  1.00 20.00     0.026 C 
HETATM    8 CL8  UNL     1     -35.144  16.135  -1.766  1.00 20.00    -0.125 Cl
ENDBRANCH   5   6
ENDBRANCH   3   5
TORSDOF 2
ENDMDL
MODEL 7
REMARK VINA RESULT:      -3.8      2.950      3.768
REMARK  2 active torsions:
REMARK  status: ('A' for Active; 'I' for Inactive)
REMARK    1  A    between atoms: C4_4  and  C5_5 
REMARK    2  A    between atoms: C4_4  and  C6_6 
ROOT
HETATM    1  C1  UNL     1     -34.164   6.252   4.991  1.00 20.00     0.063 C 
HETATM    2  C2  UNL     1     -34.307   4.008   4.005  1.00 20.00     0.025 C 
HETATM    3  C5  UNL     1     -34.300   5.512   3.722  1.00 20.00     0.090 C 
HETATM    4  N7  UNL     1     -34.060   6.833   5.989  1.00 20.00    -0.197 NA
ENDROOT
BRANCH   3   5
HETATM    5  C4  UNL     1     -33.157   5.860   2.747  1.00 20.00     0.038 C 
BRANCH   5   6
HETATM    6  C6  UNL     1     -32.776   7.350   2.692  1.00 20.00     0.079 C 
HETATM    7  C3  UNL     1     -31.486   7.612   3.463  1.00 20.00     0.026 C 
HETATM    8 CL8  UNL     1     -32.556   7.897   1.002  1.00 20.00    -0.125 Cl
ENDBRANCH   5   6
ENDBRANCH   3   5
TORSDOF 2
ENDMDL
MODEL 8
REMARK VINA RESULT:      -3.8     11.504     12.582
REMARK  2 active torsions:
REMARK  status: ('A' for Active; 'I' for Inactive)
REMARK    1  A    between atoms: C4_4  and  C5_5 
REMARK    2  A    between atoms: C4_4  and  C6_6 
ROOT
HETATM    1  C1  UNL     1     -36.006  13.997  -4.227  1.00 20.00     0.063 C 
HETATM    2  C2  UNL     1     -34.834  15.549  -2.729  1.00 20.00     0.025 C 
HETATM    3  C5  UNL     1     -34.675  14.424  -3.753  1.00 20.00     0.090 C 
HETATM    4  N7  UNL     1     -37.051  13.660  -4.599  1.00 20.00    -0.197 NA
ENDROOT
BRANCH   3   5
HETATM    5  C4  UNL     1     -33.789  14.895  -4.923  1.00 20.00     0.038 C 
BRANCH   5   6
HETATM    6  C6  UNL     1     -34.545  15.543  -6.096  1.00 20.00     0.079 C 
HETATM    7  C3  UNL     1     -34.560  17.063  -5.962  1.00 20.00     0.026 C 
HETATM    8 CL8  UNL     1     -33.795  15.112  -7.662  1.00 20.00    -0.125 Cl
ENDBRANCH   5   6
ENDBRANCH   3   5
TORSDOF 2
ENDMDL
MODEL 9
REMARK VINA RESULT:      -3.8      9.337      9.571
REMARK  2 active torsions:
REMARK  status: ('A' for Active; 'I' for Inactive)
REMARK    1  A    between atoms: C4_4  and  C5_5 
REMARK    2  A    between atoms: C4_4  and  C6_6 
ROOT
HETATM    1  C1  UNL     1     -41.599   9.293   0.104  1.00 20.00     0.063 C 
HETATM    2  C2  UNL     1     -43.300   8.148  -1.244  1.00 20.00     0.025 C 
HETATM    3  C5  UNL     1     -42.045   7.975  -0.387  1.00 20.00     0.090 C 
HETATM    4  N7  UNL     1     -41.246  10.329   0.487  1.00 20.00    -0.197 NA
ENDROOT
BRANCH   3   5
HETATM    5  C4  UNL     1     -42.333   7.012   0.783  1.00 20.00     0.038 C 
BRANCH   5   6
HETATM    6  C6  UNL     1     -42.023   5.531   0.502  1.00 20.00     0.079 C 
HETATM    7  C3  UNL     1     -43.306   4.743   0.256  1.00 20.00     0.026 C 
HETATM    8 CL8  UNL     1     -40.959   5.355  -0.926  1.00 20.00    -0.125 Cl
ENDBRANCH   5   6
ENDBRANCH   3   5
TORSDOF 2
ENDMDL
