MODEL 1
REMARK VINA RESULT:      -3.8      0.000      0.000
REMARK  1 active torsions:
REMARK  status: ('A' for Active; 'I' for Inactive)
REMARK    1  A    between atoms: C4_4  and  C7_7 
ROOT
HETATM    1  C1  UNL     1     -23.560  18.486   7.786  1.00 20.00     0.034 A 
HETATM    2  C2  UNL     1     -23.098  18.157   9.092  1.00 20.00     0.026 A 
HETATM    3  C3  UNL     1     -24.889  18.852   7.784  1.00 20.00    -0.019 A 
HETATM    4  C4  UNL     1     -24.089  18.284  10.039  1.00 20.00     0.018 A 
HETATM    5  C5  UNL     1     -25.729  19.261   6.638  1.00 20.00     0.056 C 
HETATM    6  S8  UNL     1     -25.571  18.799   9.353  1.00 20.00    -0.097 SA
HETATM    7 BR10 UNL     1     -21.321  17.617   9.415  1.00 20.00    -0.050 Br
ENDROOT
BRANCH   4   8
HETATM    8  C7  UNL     1     -24.025  18.042  11.498  1.00 20.00     0.119 C 
HETATM    9  C6  UNL     1     -23.978  16.559  11.904  1.00 20.00     0.032 C 
HETATM   10 CL9  UNL     1     -25.414  18.826  12.330  1.00 20.00    -0.120 Cl
ENDBRANCH   4   8
TORSDOF 1
ENDMDL
MODEL 2
REMARK VINA RESULT:      -3.5     14.962     15.670
REMARK  1 active torsions:
REMARK  status: ('A' for Active; 'I' for Inactive)
REMARK    1  A    between atoms: C4_4  and  C7_7 
ROOT
HETATM    1  C1  UNL     1     -32.872  16.424  -3.045  1.00 20.00     0.034 A 
HETATM    2  C2  UNL     1     -33.294  17.312  -2.015  1.00 20.00     0.026 A 
HETATM    3  C3  UNL     1     -33.896  15.609  -3.477  1.00 20.00    -0.019 A 
HETATM    4  C4  UNL     1     -34.623  17.143  -1.697  1.00 20.00     0.018 A 
HETATM    5  C5  UNL     1     -33.861  14.564  -4.523  1.00 20.00     0.056 C 
HETATM    6  S8  UNL     1     -35.358  15.917  -2.641  1.00 20.00    -0.097 SA
HETATM    7 BR10 UNL     1     -32.115  18.550  -1.221  1.00 20.00    -0.050 Br
ENDROOT
BRANCH   4   8
HETATM    8  C7  UNL     1     -35.443  17.857  -0.693  1.00 20.00     0.119 C 
HETATM    9  C6  UNL     1     -35.454  17.216   0.705  1.00 20.00     0.032 C 
HETATM   10 CL9  UNL     1     -37.140  18.024  -1.266  1.00 20.00    -0.120 Cl
ENDBRANCH   4   8
TORSDOF 1
ENDMDL
MODEL 3
REMARK VINA RESULT:      -3.5     16.083     18.101
REMARK  1 active torsions:
REMARK  status: ('A' for Active; 'I' for Inactive)
REMARK    1  A    between atoms: C4_4  and  C7_7 
ROOT
HETATM    1  C1  UNL     1     -34.867  15.656  -2.703  1.00 20.00     0.034 A 
HETATM    2  C2  UNL     1     -35.167  15.320  -4.054  1.00 20.00     0.026 A 
HETATM    3  C3  UNL     1     -34.124  16.812  -2.610  1.00 20.00    -0.019 A 
HETATM    4  C4  UNL     1     -34.642  16.231  -4.943  1.00 20.00     0.018 A 
HETATM    5  C5  UNL     1     -33.618  17.486  -1.395  1.00 20.00     0.056 C 
HETATM    6  S8  UNL     1     -33.791  17.487  -4.148  1.00 20.00    -0.097 SA
HETATM    7 BR10 UNL     1     -36.172  13.789  -4.502  1.00 20.00    -0.050 Br
ENDROOT
BRANCH   4   8
HETATM    8  C7  UNL     1     -34.724  16.250  -6.421  1.00 20.00     0.119 C 
HETATM    9  C6  UNL     1     -33.876  15.179  -7.127  1.00 20.00     0.032 C 
HETATM   10 CL9  UNL     1     -34.262  17.867  -7.059  1.00 20.00    -0.120 Cl
ENDBRANCH   4   8
TORSDOF 1
ENDMDL
MODEL 4
REMARK VINA RESULT:      -3.5     16.145     18.187
REMARK  1 active torsions:
REMARK  status: ('A' for Active; 'I' for Inactive)
REMARK    1  A    between atoms: C4_4  and  C7_7 
ROOT
HETATM    1  C1  UNL     1     -34.788  15.653  -2.684  1.00 20.00     0.034 A 
HETATM    2  C2  UNL     1     -35.085  15.346  -4.042  1.00 20.00     0.026 A 
HETATM    3  C3  UNL     1     -34.087  16.833  -2.561  1.00 20.00    -0.019 A 
HETATM    4  C4  UNL     1     -34.599  16.301  -4.907  1.00 20.00     0.018 A 
HETATM    5  C5  UNL     1     -33.598  17.489  -1.330  1.00 20.00     0.056 C 
HETATM    6  S8  UNL     1     -33.790  17.564  -4.081  1.00 20.00    -0.097 SA
HETATM    7 BR10 UNL     1     -36.036  13.793  -4.529  1.00 20.00    -0.050 Br
ENDROOT
BRANCH   4   8
HETATM    8  C7  UNL     1     -34.692  16.359  -6.384  1.00 20.00     0.119 C 
HETATM    9  C6  UNL     1     -36.126  16.380  -6.940  1.00 20.00     0.032 C 
HETATM   10 CL9  UNL     1     -33.802  14.983  -7.126  1.00 20.00    -0.120 Cl
ENDBRANCH   4   8
TORSDOF 1
ENDMDL
MODEL 5
REMARK VINA RESULT:      -3.4     13.492     14.907
REMARK  1 active torsions:
REMARK  status: ('A' for Active; 'I' for Inactive)
REMARK    1  A    between atoms: C4_4  and  C7_7 
ROOT
HETATM    1  C1  UNL     1     -35.376  16.253  -1.802  1.00 20.00     0.034 A 
HETATM    2  C2  UNL     1     -35.068  17.252  -0.835  1.00 20.00     0.026 A 
HETATM    3  C3  UNL     1     -34.330  16.033  -2.671  1.00 20.00    -0.019 A 
HETATM    4  C4  UNL     1     -33.798  17.758  -1.000  1.00 20.00     0.018 A 
HETATM    5  C5  UNL     1     -34.257  15.085  -3.803  1.00 20.00     0.056 C 
HETATM    6  S8  UNL     1     -32.982  17.029  -2.318  1.00 20.00    -0.097 SA
HETATM    7 BR10 UNL     1     -36.304  17.772   0.490  1.00 20.00    -0.050 Br
ENDROOT
BRANCH   4   8
HETATM    8  C7  UNL     1     -33.097  18.800  -0.216  1.00 20.00     0.119 C 
HETATM    9  C6  UNL     1     -31.757  19.263  -0.811  1.00 20.00     0.032 C 
HETATM   10 CL9  UNL     1     -32.818  18.238   1.471  1.00 20.00    -0.120 Cl
ENDBRANCH   4   8
TORSDOF 1
ENDMDL
MODEL 6
REMARK VINA RESULT:      -3.4     12.047     14.074
REMARK  1 active torsions:
REMARK  status: ('A' for Active; 'I' for Inactive)
REMARK    1  A    between atoms: C4_4  and  C7_7 
ROOT
HETATM    1  C1  UNL     1     -32.891  18.397   1.409  1.00 20.00     0.034 A 
HETATM    2  C2  UNL     1     -33.838  18.031   0.410  1.00 20.00     0.026 A 
HETATM    3  C3  UNL     1     -31.643  18.636   0.876  1.00 20.00    -0.019 A 
HETATM    4  C4  UNL     1     -33.279  18.004  -0.849  1.00 20.00     0.018 A 
HETATM    5  C5  UNL     1     -30.404  19.036   1.577  1.00 20.00     0.056 C 
HETATM    6  S8  UNL     1     -31.618  18.420  -0.823  1.00 20.00    -0.097 SA
HETATM    7 BR10 UNL     1     -35.634  17.642   0.832  1.00 20.00    -0.050 Br
ENDROOT
BRANCH   4   8
HETATM    8  C7  UNL     1     -33.912  17.677  -2.146  1.00 20.00     0.119 C 
HETATM    9  C6  UNL     1     -34.194  16.181  -2.367  1.00 20.00     0.032 C 
HETATM   10 CL9  UNL     1     -32.908  18.285  -3.509  1.00 20.00    -0.120 Cl
ENDBRANCH   4   8
TORSDOF 1
ENDMDL
MODEL 7
REMARK VINA RESULT:      -3.4      2.515      2.728
REMARK  1 active torsions:
REMARK  status: ('A' for Active; 'I' for Inactive)
REMARK    1  A    between atoms: C4_4  and  C7_7 
ROOT
HETATM    1  C1  UNL     1     -25.733  19.255   9.148  1.00 20.00     0.034 A 
HETATM    2  C2  UNL     1     -25.397  18.836  10.467  1.00 20.00     0.026 A 
HETATM    3  C3  UNL     1     -24.726  18.985   8.247  1.00 20.00    -0.019 A 
HETATM    4  C4  UNL     1     -24.147  18.261  10.525  1.00 20.00     0.018 A 
HETATM    5  C5  UNL     1     -24.690  19.263   6.795  1.00 20.00     0.056 C 
HETATM    6  S8  UNL     1     -23.383  18.228   8.993  1.00 20.00    -0.097 SA
HETATM    7 BR10 UNL     1     -26.576  19.072  11.919  1.00 20.00    -0.050 Br
ENDROOT
BRANCH   4   8
HETATM    8  C7  UNL     1     -23.429  17.701  11.693  1.00 20.00     0.119 C 
HETATM    9  C6  UNL     1     -21.895  17.759  11.595  1.00 20.00     0.032 C 
HETATM   10 CL9  UNL     1     -23.926  15.996  11.980  1.00 20.00    -0.120 Cl
ENDBRANCH   4   8
TORSDOF 1
ENDMDL
MODEL 8
REMARK VINA RESULT:      -3.3     13.715     14.744
REMARK  1 active torsions:
REMARK  status: ('A' for Active; 'I' for Inactive)
REMARK    1  A    between atoms: C4_4  and  C7_7 
ROOT
HETATM    1  C1  UNL     1     -33.884  18.355   0.962  1.00 20.00     0.034 A 
HETATM    2  C2  UNL     1     -33.022  18.128  -0.149  1.00 20.00     0.026 A 
HETATM    3  C3  UNL     1     -35.165  17.907   0.724  1.00 20.00    -0.019 A 
HETATM    4  C4  UNL     1     -33.676  17.515  -1.195  1.00 20.00     0.018 A 
HETATM    5  C5  UNL     1     -36.339  17.958   1.620  1.00 20.00     0.056 C 
HETATM    6  S8  UNL     1     -35.324  17.214  -0.835  1.00 20.00    -0.097 SA
HETATM    7 BR10 UNL     1     -31.207  18.635  -0.124  1.00 20.00    -0.050 Br
ENDROOT
BRANCH   4   8
HETATM    8  C7  UNL     1     -33.150  17.108  -2.518  1.00 20.00     0.119 C 
HETATM    9  C6  UNL     1     -33.312  18.161  -3.627  1.00 20.00     0.032 C 
HETATM   10 CL9  UNL     1     -33.919  15.574  -3.058  1.00 20.00    -0.120 Cl
ENDBRANCH   4   8
TORSDOF 1
ENDMDL
MODEL 9
REMARK VINA RESULT:      -3.3     12.025     13.710
REMARK  1 active torsions:
REMARK  status: ('A' for Active; 'I' for Inactive)
REMARK    1  A    between atoms: C4_4  and  C7_7 
ROOT
HETATM    1  C1  UNL     1     -33.444  17.455  -1.609  1.00 20.00     0.034 A 
HETATM    2  C2  UNL     1     -33.052  18.106  -0.405  1.00 20.00     0.026 A 
HETATM    3  C3  UNL     1     -34.712  16.924  -1.522  1.00 20.00    -0.019 A 
HETATM    4  C4  UNL     1     -34.035  18.048   0.558  1.00 20.00     0.018 A 
HETATM    5  C5  UNL     1     -35.471  16.180  -2.550  1.00 20.00     0.056 C 
HETATM    6  S8  UNL     1     -35.425  17.212   0.008  1.00 20.00    -0.097 SA
HETATM    7 BR10 UNL     1     -31.367  18.931  -0.218  1.00 20.00    -0.050 Br
ENDROOT
BRANCH   4   8
HETATM    8  C7  UNL     1     -34.030  18.594   1.934  1.00 20.00     0.119 C 
HETATM    9  C6  UNL     1     -33.048  17.906   2.898  1.00 20.00     0.032 C 
HETATM   10 CL9  UNL     1     -35.680  18.528   2.646  1.00 20.00    -0.120 Cl
ENDBRANCH   4   8
TORSDOF 1
ENDMDL
