MODEL 1
REMARK VINA RESULT:      -4.5      0.000      0.000
REMARK  0 active torsions:
REMARK  status: ('A' for Active; 'I' for Inactive)
ROOT
HETATM    1  C1  UNL     1     -32.591   7.910   1.485  1.00 20.00     0.064 C 
HETATM    2  C2  UNL     1     -32.035   7.733   3.898  1.00 20.00     0.020 C 
HETATM    3  C3  UNL     1     -33.084   7.107   4.819  1.00 20.00     0.017 C 
HETATM    4  C4  UNL     1     -33.164   5.878   2.782  1.00 20.00     0.035 C 
HETATM    5  C5  UNL     1     -32.143   6.998   2.550  1.00 20.00     0.094 C 
HETATM    6  C6  UNL     1     -34.061   6.432   3.877  1.00 20.00     0.059 C 
HETATM    7  N7  UNL     1     -32.945   8.629   0.644  1.00 20.00    -0.197 NA
HETATM    8 BR8  UNL     1     -35.055   5.031   4.760  1.00 20.00    -0.091 Br
ENDROOT
TORSDOF 0
ENDMDL
MODEL 2
REMARK VINA RESULT:      -4.4     15.368     15.969
REMARK  0 active torsions:
REMARK  status: ('A' for Active; 'I' for Inactive)
ROOT
HETATM    1  C1  UNL     1     -21.866  17.527   8.012  1.00 20.00     0.064 C 
HETATM    2  C2  UNL     1     -23.612  19.045   8.911  1.00 20.00     0.020 C 
HETATM    3  C3  UNL     1     -24.683  18.432   9.815  1.00 20.00     0.017 C 
HETATM    4  C4  UNL     1     -22.641  17.336  10.358  1.00 20.00     0.035 C 
HETATM    5  C5  UNL     1     -22.308  18.280   9.197  1.00 20.00     0.094 C 
HETATM    6  C6  UNL     1     -24.128  17.072  10.190  1.00 20.00     0.059 C 
HETATM    7  N7  UNL     1     -21.517  16.933   7.078  1.00 20.00    -0.197 NA
HETATM    8 BR8  UNL     1     -24.920  16.399  11.818  1.00 20.00    -0.091 Br
ENDROOT
TORSDOF 0
ENDMDL
MODEL 3
REMARK VINA RESULT:      -3.9     10.836     11.778
REMARK  0 active torsions:
REMARK  status: ('A' for Active; 'I' for Inactive)
ROOT
HETATM    1  C1  UNL     1     -36.950  14.086  -4.522  1.00 20.00     0.064 C 
HETATM    2  C2  UNL     1     -35.200  15.184  -5.897  1.00 20.00     0.020 C 
HETATM    3  C3  UNL     1     -34.369  16.285  -5.235  1.00 20.00     0.017 C 
HETATM    4  C4  UNL     1     -34.727  14.623  -3.569  1.00 20.00     0.035 C 
HETATM    5  C5  UNL     1     -35.506  14.149  -4.801  1.00 20.00     0.094 C 
HETATM    6  C6  UNL     1     -34.648  16.130  -3.753  1.00 20.00     0.059 C 
HETATM    7  N7  UNL     1     -38.089  14.037  -4.302  1.00 20.00    -0.197 NA
HETATM    8 BR8  UNL     1     -33.246  16.906  -2.675  1.00 20.00    -0.091 Br
ENDROOT
TORSDOF 0
ENDMDL
MODEL 4
REMARK VINA RESULT:      -3.9     10.885     11.318
REMARK  0 active torsions:
REMARK  status: ('A' for Active; 'I' for Inactive)
ROOT
HETATM    1  C1  UNL     1     -35.635  14.400  -5.065  1.00 20.00     0.064 C 
HETATM    2  C2  UNL     1     -33.312  14.735  -4.257  1.00 20.00     0.020 C 
HETATM    3  C3  UNL     1     -33.020  16.004  -3.454  1.00 20.00     0.017 C 
HETATM    4  C4  UNL     1     -35.187  15.274  -2.791  1.00 20.00     0.035 C 
HETATM    5  C5  UNL     1     -34.745  14.308  -3.896  1.00 20.00     0.094 C 
HETATM    6  C6  UNL     1     -34.389  16.536  -3.077  1.00 20.00     0.059 C 
HETATM    7  N7  UNL     1     -36.337  14.472  -5.987  1.00 20.00    -0.197 NA
HETATM    8 BR8  UNL     1     -34.307  17.692  -1.533  1.00 20.00    -0.091 Br
ENDROOT
TORSDOF 0
ENDMDL
MODEL 5
REMARK VINA RESULT:      -3.9      9.278      9.672
REMARK  0 active torsions:
REMARK  status: ('A' for Active; 'I' for Inactive)
ROOT
HETATM    1  C1  UNL     1     -41.640   9.265  -0.043  1.00 20.00     0.064 C 
HETATM    2  C2  UNL     1     -41.165   7.105  -1.169  1.00 20.00     0.020 C 
HETATM    3  C3  UNL     1     -41.475   5.822  -0.395  1.00 20.00     0.017 C 
HETATM    4  C4  UNL     1     -43.214   7.360   0.132  1.00 20.00     0.035 C 
HETATM    5  C5  UNL     1     -42.238   8.130  -0.764  1.00 20.00     0.094 C 
HETATM    6  C6  UNL     1     -42.349   6.278   0.757  1.00 20.00     0.059 C 
HETATM    7  N7  UNL     1     -41.169  10.161   0.527  1.00 20.00    -0.197 NA
HETATM    8 BR8  UNL     1     -43.417   4.831   1.461  1.00 20.00    -0.091 Br
ENDROOT
TORSDOF 0
ENDMDL
MODEL 6
REMARK VINA RESULT:      -3.8     11.173     11.648
REMARK  0 active torsions:
REMARK  status: ('A' for Active; 'I' for Inactive)
ROOT
HETATM    1  C1  UNL     1     -32.802  18.216  -3.357  1.00 20.00     0.064 C 
HETATM    2  C2  UNL     1     -34.157  17.045  -1.639  1.00 20.00     0.020 C 
HETATM    3  C3  UNL     1     -35.176  16.013  -2.126  1.00 20.00     0.017 C 
HETATM    4  C4  UNL     1     -33.270  15.790  -3.535  1.00 20.00     0.035 C 
HETATM    5  C5  UNL     1     -32.959  16.963  -2.600  1.00 20.00     0.094 C 
HETATM    6  C6  UNL     1     -34.789  15.752  -3.569  1.00 20.00     0.059 C 
HETATM    7  N7  UNL     1     -32.678  19.204  -3.955  1.00 20.00    -0.197 NA
HETATM    8 BR8  UNL     1     -35.446  14.044  -4.188  1.00 20.00    -0.091 Br
ENDROOT
TORSDOF 0
ENDMDL
MODEL 7
REMARK VINA RESULT:      -3.7     15.596     16.204
REMARK  0 active torsions:
REMARK  status: ('A' for Active; 'I' for Inactive)
ROOT
HETATM    1  C1  UNL     1     -24.246  16.633  11.502  1.00 20.00     0.064 C 
HETATM    2  C2  UNL     1     -22.411  17.899  10.412  1.00 20.00     0.020 C 
HETATM    3  C3  UNL     1     -22.613  18.322   8.956  1.00 20.00     0.017 C 
HETATM    4  C4  UNL     1     -24.727  18.561  10.022  1.00 20.00     0.035 C 
HETATM    5  C5  UNL     1     -23.793  17.969  11.083  1.00 20.00     0.094 C 
HETATM    6  C6  UNL     1     -24.096  18.129   8.709  1.00 20.00     0.059 C 
HETATM    7  N7  UNL     1     -24.604  15.579  11.832  1.00 20.00    -0.197 NA
HETATM    8 BR8  UNL     1     -24.721  19.205   7.231  1.00 20.00    -0.091 Br
ENDROOT
TORSDOF 0
ENDMDL
MODEL 8
REMARK VINA RESULT:      -3.7     11.278     12.103
REMARK  0 active torsions:
REMARK  status: ('A' for Active; 'I' for Inactive)
ROOT
HETATM    1  C1  UNL     1     -35.840  13.908  -4.177  1.00 20.00     0.064 C 
HETATM    2  C2  UNL     1     -34.458  15.496  -2.862  1.00 20.00     0.020 C 
HETATM    3  C3  UNL     1     -33.767  16.628  -3.624  1.00 20.00     0.017 C 
HETATM    4  C4  UNL     1     -35.900  16.341  -4.641  1.00 20.00     0.035 C 
HETATM    5  C5  UNL     1     -35.802  15.248  -3.570  1.00 20.00     0.094 C 
HETATM    6  C6  UNL     1     -34.450  16.645  -4.978  1.00 20.00     0.059 C 
HETATM    7  N7  UNL     1     -35.871  12.850  -4.656  1.00 20.00    -0.197 NA
HETATM    8 BR8  UNL     1     -34.265  18.357  -5.851  1.00 20.00    -0.091 Br
ENDROOT
TORSDOF 0
ENDMDL
MODEL 9
REMARK VINA RESULT:      -3.7     10.706     11.579
REMARK  0 active torsions:
REMARK  status: ('A' for Active; 'I' for Inactive)
ROOT
HETATM    1  C1  UNL     1     -35.192  13.773  -4.124  1.00 20.00     0.064 C 
HETATM    2  C2  UNL     1     -34.211  15.960  -4.771  1.00 20.00     0.020 C 
HETATM    3  C3  UNL     1     -34.917  17.224  -4.276  1.00 20.00     0.017 C 
HETATM    4  C4  UNL     1     -35.054  15.642  -2.503  1.00 20.00     0.035 C 
HETATM    5  C5  UNL     1     -34.373  14.906  -3.662  1.00 20.00     0.094 C 
HETATM    6  C6  UNL     1     -35.857  16.733  -3.193  1.00 20.00     0.059 C 
HETATM    7  N7  UNL     1     -35.838  12.880  -4.488  1.00 20.00    -0.197 NA
HETATM    8 BR8  UNL     1     -36.339  18.146  -1.967  1.00 20.00    -0.091 Br
ENDROOT
TORSDOF 0
ENDMDL
