MODEL 1
REMARK VINA RESULT:      -4.4      0.000      0.000
REMARK  2 active torsions:
REMARK  status: ('A' for Active; 'I' for Inactive)
REMARK    1  A    between atoms: C3_3  and  C4_4 
REMARK    2  A    between atoms: C4_4  and  C5_5 
ROOT
HETATM    1  C1  UNL     1     -32.713   7.447   1.891  1.00 20.00     0.059 C 
HETATM    2  C3  UNL     1     -32.784   6.388   2.905  1.00 20.00     0.125 C 
HETATM    3  N6  UNL     1     -32.656   8.284   1.088  1.00 20.00    -0.197 NA
ENDROOT
BRANCH   2   4
HETATM    4  C4  UNL     1     -33.752   6.735   4.041  1.00 20.00     0.034 C 
BRANCH   4   5
HETATM    5  C5  UNL     1     -34.700   5.600   4.461  1.00 20.00     0.079 C 
HETATM    6  C2  UNL     1     -34.754   5.469   5.980  1.00 20.00     0.026 C 
HETATM    7 CL7  UNL     1     -34.178   4.035   3.767  1.00 20.00    -0.125 Cl
ENDBRANCH   4   5
ENDBRANCH   2   4
TORSDOF 2
ENDMDL
MODEL 2
REMARK VINA RESULT:      -4.1      1.607      1.631
REMARK  2 active torsions:
REMARK  status: ('A' for Active; 'I' for Inactive)
REMARK    1  A    between atoms: C3_3  and  C4_4 
REMARK    2  A    between atoms: C4_4  and  C5_5 
ROOT
HETATM    1  C1  UNL     1     -32.582   7.833   1.634  1.00 20.00     0.059 C 
HETATM    2  C3  UNL     1     -32.426   7.059   2.872  1.00 20.00     0.125 C 
HETATM    3  N6  UNL     1     -32.704   8.446   0.656  1.00 20.00    -0.197 NA
ENDROOT
BRANCH   2   4
HETATM    4  C4  UNL     1     -33.422   5.898   2.961  1.00 20.00     0.034 C 
BRANCH   4   5
HETATM    5  C5  UNL     1     -33.949   5.596   4.374  1.00 20.00     0.079 C 
HETATM    6  C2  UNL     1     -35.437   5.266   4.342  1.00 20.00     0.026 C 
HETATM    7 CL7  UNL     1     -33.691   6.988   5.468  1.00 20.00    -0.125 Cl
ENDBRANCH   4   5
ENDBRANCH   2   4
TORSDOF 2
ENDMDL
MODEL 3
REMARK VINA RESULT:      -3.7      2.670      3.966
REMARK  2 active torsions:
REMARK  status: ('A' for Active; 'I' for Inactive)
REMARK    1  A    between atoms: C3_3  and  C4_4 
REMARK    2  A    between atoms: C4_4  and  C5_5 
ROOT
HETATM    1  C1  UNL     1     -34.404   5.805   5.881  1.00 20.00     0.059 C 
HETATM    2  C3  UNL     1     -33.607   6.956   5.438  1.00 20.00     0.125 C 
HETATM    3  N6  UNL     1     -35.033   4.896   6.232  1.00 20.00    -0.197 NA
ENDROOT
BRANCH   2   4
HETATM    4  C4  UNL     1     -33.779   7.241   3.942  1.00 20.00     0.034 C 
BRANCH   4   5
HETATM    5  C5  UNL     1     -32.709   6.618   3.031  1.00 20.00     0.079 C 
HETATM    6  C2  UNL     1     -32.456   7.493   1.808  1.00 20.00     0.026 C 
HETATM    7 CL7  UNL     1     -33.201   4.988   2.481  1.00 20.00    -0.125 Cl
ENDBRANCH   4   5
ENDBRANCH   2   4
TORSDOF 2
ENDMDL
MODEL 4
REMARK VINA RESULT:      -3.7     11.571     11.856
REMARK  2 active torsions:
REMARK  status: ('A' for Active; 'I' for Inactive)
REMARK    1  A    between atoms: C3_3  and  C4_4 
REMARK    2  A    between atoms: C4_4  and  C5_5 
ROOT
HETATM    1  C1  UNL     1     -36.480  13.935  -4.290  1.00 20.00     0.059 C 
HETATM    2  C3  UNL     1     -35.035  14.031  -4.049  1.00 20.00     0.125 C 
HETATM    3  N6  UNL     1     -37.622  13.858  -4.481  1.00 20.00    -0.197 NA
ENDROOT
BRANCH   2   4
HETATM    4  C4  UNL     1     -34.559  15.484  -3.939  1.00 20.00     0.034 C 
BRANCH   4   5
HETATM    5  C5  UNL     1     -34.032  15.895  -2.555  1.00 20.00     0.079 C 
HETATM    6  C2  UNL     1     -35.169  16.380  -1.661  1.00 20.00     0.026 C 
HETATM    7 CL7  UNL     1     -32.812  17.196  -2.690  1.00 20.00    -0.125 Cl
ENDBRANCH   4   5
ENDBRANCH   2   4
TORSDOF 2
ENDMDL
MODEL 5
REMARK VINA RESULT:      -3.6      2.834      4.023
REMARK  2 active torsions:
REMARK  status: ('A' for Active; 'I' for Inactive)
REMARK    1  A    between atoms: C3_3  and  C4_4 
REMARK    2  A    between atoms: C4_4  and  C5_5 
ROOT
HETATM    1  C1  UNL     1     -34.498   5.406   4.623  1.00 20.00     0.059 C 
HETATM    2  C3  UNL     1     -34.229   4.918   3.264  1.00 20.00     0.125 C 
HETATM    3  N6  UNL     1     -34.712   5.791   5.696  1.00 20.00    -0.197 NA
ENDROOT
BRANCH   2   4
HETATM    4  C4  UNL     1     -32.975   5.555   2.656  1.00 20.00     0.034 C 
BRANCH   4   5
HETATM    5  C5  UNL     1     -32.926   7.090   2.719  1.00 20.00     0.079 C 
HETATM    6  C2  UNL     1     -32.561   7.681   1.361  1.00 20.00     0.026 C 
HETATM    7 CL7  UNL     1     -31.731   7.648   3.929  1.00 20.00    -0.125 Cl
ENDBRANCH   4   5
ENDBRANCH   2   4
TORSDOF 2
ENDMDL
MODEL 6
REMARK VINA RESULT:      -3.6     11.200     11.739
REMARK  2 active torsions:
REMARK  status: ('A' for Active; 'I' for Inactive)
REMARK    1  A    between atoms: C3_3  and  C4_4 
REMARK    2  A    between atoms: C4_4  and  C5_5 
ROOT
HETATM    1  C1  UNL     1     -35.223  13.743  -4.117  1.00 20.00     0.059 C 
HETATM    2  C3  UNL     1     -34.420  14.861  -3.607  1.00 20.00     0.125 C 
HETATM    3  N6  UNL     1     -35.856  12.858  -4.522  1.00 20.00    -0.197 NA
ENDROOT
BRANCH   2   4
HETATM    4  C4  UNL     1     -35.169  15.679  -2.550  1.00 20.00     0.034 C 
BRANCH   4   5
HETATM    5  C5  UNL     1     -34.509  17.015  -2.170  1.00 20.00     0.079 C 
HETATM    6  C2  UNL     1     -33.019  17.000  -2.498  1.00 20.00     0.026 C 
HETATM    7 CL7  UNL     1     -34.711  17.361  -0.426  1.00 20.00    -0.125 Cl
ENDBRANCH   4   5
ENDBRANCH   2   4
TORSDOF 2
ENDMDL
MODEL 7
REMARK VINA RESULT:      -3.6     16.374     16.766
REMARK  2 active torsions:
REMARK  status: ('A' for Active; 'I' for Inactive)
REMARK    1  A    between atoms: C3_3  and  C4_4 
REMARK    2  A    between atoms: C4_4  and  C5_5 
ROOT
HETATM    1  C1  UNL     1     -24.257  18.938   7.541  1.00 20.00     0.059 C 
HETATM    2  C3  UNL     1     -24.358  18.714   8.989  1.00 20.00     0.125 C 
HETATM    3  N6  UNL     1     -24.179  19.115   6.397  1.00 20.00    -0.197 NA
ENDROOT
BRANCH   2   4
HETATM    4  C4  UNL     1     -22.988  18.499   9.640  1.00 20.00     0.034 C 
BRANCH   4   5
HETATM    5  C5  UNL     1     -22.927  17.360  10.671  1.00 20.00     0.079 C 
HETATM    6  C2  UNL     1     -24.183  16.499  10.607  1.00 20.00     0.026 C 
HETATM    7 CL7  UNL     1     -22.754  18.004  12.332  1.00 20.00    -0.125 Cl
ENDBRANCH   4   5
ENDBRANCH   2   4
TORSDOF 2
ENDMDL
MODEL 8
REMARK VINA RESULT:      -3.4     11.682     12.346
REMARK  2 active torsions:
REMARK  status: ('A' for Active; 'I' for Inactive)
REMARK    1  A    between atoms: C3_3  and  C4_4 
REMARK    2  A    between atoms: C4_4  and  C5_5 
ROOT
HETATM    1  C1  UNL     1     -31.716  18.179  -0.939  1.00 20.00     0.059 C 
HETATM    2  C3  UNL     1     -33.023  17.814  -1.500  1.00 20.00     0.125 C 
HETATM    3  N6  UNL     1     -30.684  18.469  -0.494  1.00 20.00    -0.197 NA
ENDROOT
BRANCH   2   4
HETATM    4  C4  UNL     1     -32.897  17.124  -2.863  1.00 20.00     0.034 C 
BRANCH   4   5
HETATM    5  C5  UNL     1     -34.117  16.290  -3.288  1.00 20.00     0.079 C 
HETATM    6  C2  UNL     1     -35.024  16.005  -2.095  1.00 20.00     0.026 C 
HETATM    7 CL7  UNL     1     -33.613  14.734  -4.012  1.00 20.00    -0.125 Cl
ENDBRANCH   4   5
ENDBRANCH   2   4
TORSDOF 2
ENDMDL
MODEL 9
REMARK VINA RESULT:      -3.4      2.430      3.583
REMARK  2 active torsions:
REMARK  status: ('A' for Active; 'I' for Inactive)
REMARK    1  A    between atoms: C3_3  and  C4_4 
REMARK    2  A    between atoms: C4_4  and  C5_5 
ROOT
HETATM    1  C1  UNL     1     -34.280   6.286   5.874  1.00 20.00     0.059 C 
HETATM    2  C3  UNL     1     -34.837   5.097   5.217  1.00 20.00     0.125 C 
HETATM    3  N6  UNL     1     -33.842   7.226   6.395  1.00 20.00    -0.197 NA
ENDROOT
BRANCH   2   4
HETATM    4  C4  UNL     1     -34.713   5.165   3.691  1.00 20.00     0.034 C 
BRANCH   4   5
HETATM    5  C5  UNL     1     -33.274   5.226   3.155  1.00 20.00     0.079 C 
HETATM    6  C2  UNL     1     -32.947   6.620   2.628  1.00 20.00     0.026 C 
HETATM    7 CL7  UNL     1     -33.026   4.040   1.838  1.00 20.00    -0.125 Cl
ENDBRANCH   4   5
ENDBRANCH   2   4
TORSDOF 2
ENDMDL
