MODEL 1
REMARK VINA RESULT:      -4.2      0.000      0.000
REMARK  0 active torsions:
REMARK  status: ('A' for Active; 'I' for Inactive)
ROOT
HETATM    1  C1  UNL     1     -32.728   7.655   1.820  1.00 20.00     0.064 C 
HETATM    2  C2  UNL     1     -33.138   5.259   2.368  1.00 20.00     0.021 C 
HETATM    3  C3  UNL     1     -34.270   4.980   3.353  1.00 20.00     0.021 C 
HETATM    4  C4  UNL     1     -33.187   6.941   4.153  1.00 20.00     0.039 C 
HETATM    5  C5  UNL     1     -32.517   6.594   2.815  1.00 20.00     0.094 C 
HETATM    6  C6  UNL     1     -33.766   5.618   4.637  1.00 20.00     0.083 C 
HETATM    7  N7  UNL     1     -32.894   8.492   1.034  1.00 20.00    -0.197 NA
HETATM    8 CL8  UNL     1     -35.053   5.839   5.829  1.00 20.00    -0.125 Cl
ENDROOT
TORSDOF 0
ENDMDL
MODEL 2
REMARK VINA RESULT:      -4.1     16.032     16.631
REMARK  0 active torsions:
REMARK  status: ('A' for Active; 'I' for Inactive)
ROOT
HETATM    1  C1  UNL     1     -22.376  17.464   8.549  1.00 20.00     0.064 C 
HETATM    2  C2  UNL     1     -22.117  17.868  10.994  1.00 20.00     0.021 C 
HETATM    3  C3  UNL     1     -23.094  17.129  11.904  1.00 20.00     0.021 C 
HETATM    4  C4  UNL     1     -24.361  17.796  10.004  1.00 20.00     0.039 C 
HETATM    5  C5  UNL     1     -22.905  18.190   9.712  1.00 20.00     0.094 C 
HETATM    6  C6  UNL     1     -24.435  17.735  11.524  1.00 20.00     0.083 C 
HETATM    7  N7  UNL     1     -21.958  16.891   7.631  1.00 20.00    -0.197 NA
HETATM    8 CL8  UNL     1     -25.798  16.763  12.095  1.00 20.00    -0.125 Cl
ENDROOT
TORSDOF 0
ENDMDL
MODEL 3
REMARK VINA RESULT:      -4.1      9.178      9.571
REMARK  0 active torsions:
REMARK  status: ('A' for Active; 'I' for Inactive)
ROOT
HETATM    1  C1  UNL     1     -41.850   9.255   0.153  1.00 20.00     0.064 C 
HETATM    2  C2  UNL     1     -42.876   7.125   0.939  1.00 20.00     0.021 C 
HETATM    3  C3  UNL     1     -42.069   5.856   0.683  1.00 20.00     0.021 C 
HETATM    4  C4  UNL     1     -41.776   7.209  -1.252  1.00 20.00     0.039 C 
HETATM    5  C5  UNL     1     -42.587   8.051  -0.255  1.00 20.00     0.094 C 
HETATM    6  C6  UNL     1     -42.047   5.769  -0.834  1.00 20.00     0.083 C 
HETATM    7  N7  UNL     1     -41.269  10.206   0.476  1.00 20.00    -0.197 NA
HETATM    8 CL8  UNL     1     -40.812   4.650  -1.427  1.00 20.00    -0.125 Cl
ENDROOT
TORSDOF 0
ENDMDL
MODEL 4
REMARK VINA RESULT:      -4.0     15.870     16.078
REMARK  0 active torsions:
REMARK  status: ('A' for Active; 'I' for Inactive)
ROOT
HETATM    1  C1  UNL     1     -24.423  19.034   7.350  1.00 20.00     0.064 C 
HETATM    2  C2  UNL     1     -22.474  18.060   8.556  1.00 20.00     0.021 C 
HETATM    3  C3  UNL     1     -22.754  16.810   9.386  1.00 20.00     0.021 C 
HETATM    4  C4  UNL     1     -24.646  18.220   9.685  1.00 20.00     0.039 C 
HETATM    5  C5  UNL     1     -23.749  18.916   8.650  1.00 20.00     0.094 C 
HETATM    6  C6  UNL     1     -23.694  17.323  10.465  1.00 20.00     0.083 C 
HETATM    7  N7  UNL     1     -24.955  19.128   6.323  1.00 20.00    -0.197 NA
HETATM    8 CL8  UNL     1     -24.534  16.013  11.303  1.00 20.00    -0.125 Cl
ENDROOT
TORSDOF 0
ENDMDL
MODEL 5
REMARK VINA RESULT:      -4.0     11.103     11.627
REMARK  0 active torsions:
REMARK  status: ('A' for Active; 'I' for Inactive)
ROOT
HETATM    1  C1  UNL     1     -35.631  13.944  -4.415  1.00 20.00     0.064 C 
HETATM    2  C2  UNL     1     -33.778  15.602  -4.261  1.00 20.00     0.021 C 
HETATM    3  C3  UNL     1     -33.442  16.107  -2.861  1.00 20.00     0.021 C 
HETATM    4  C4  UNL     1     -35.813  15.926  -2.930  1.00 20.00     0.039 C 
HETATM    5  C5  UNL     1     -35.299  15.368  -4.266  1.00 20.00     0.094 C 
HETATM    6  C6  UNL     1     -34.702  16.856  -2.460  1.00 20.00     0.083 C 
HETATM    7  N7  UNL     1     -35.893  12.820  -4.532  1.00 20.00    -0.197 NA
HETATM    8 CL8  UNL     1     -34.774  17.168  -0.721  1.00 20.00    -0.125 Cl
ENDROOT
TORSDOF 0
ENDMDL
MODEL 6
REMARK VINA RESULT:      -4.0      9.092      9.535
REMARK  0 active torsions:
REMARK  status: ('A' for Active; 'I' for Inactive)
ROOT
HETATM    1  C1  UNL     1     -41.380   9.153   0.034  1.00 20.00     0.064 C 
HETATM    2  C2  UNL     1     -42.508   7.543  -1.496  1.00 20.00     0.021 C 
HETATM    3  C3  UNL     1     -43.417   6.511  -0.834  1.00 20.00     0.021 C 
HETATM    4  C4  UNL     1     -41.543   6.743   0.613  1.00 20.00     0.039 C 
HETATM    5  C5  UNL     1     -41.359   7.785  -0.502  1.00 20.00     0.094 C 
HETATM    6  C6  UNL     1     -42.445   5.684  -0.008  1.00 20.00     0.083 C 
HETATM    7  N7  UNL     1     -41.396  10.233   0.458  1.00 20.00    -0.197 NA
HETATM    8 CL8  UNL     1     -43.266   4.698   1.209  1.00 20.00    -0.125 Cl
ENDROOT
TORSDOF 0
ENDMDL
MODEL 7
REMARK VINA RESULT:      -3.9     11.641     12.267
REMARK  0 active torsions:
REMARK  status: ('A' for Active; 'I' for Inactive)
ROOT
HETATM    1  C1  UNL     1     -31.705  18.193  -1.075  1.00 20.00     0.064 C 
HETATM    2  C2  UNL     1     -34.192  18.088  -0.974  1.00 20.00     0.021 C 
HETATM    3  C3  UNL     1     -34.821  16.736  -1.301  1.00 20.00     0.021 C 
HETATM    4  C4  UNL     1     -33.002  16.985  -2.814  1.00 20.00     0.039 C 
HETATM    5  C5  UNL     1     -32.943  18.193  -1.866  1.00 20.00     0.094 C 
HETATM    6  C6  UNL     1     -34.457  16.540  -2.764  1.00 20.00     0.083 C 
HETATM    7  N7  UNL     1     -30.727  18.194  -0.450  1.00 20.00    -0.197 NA
HETATM    8 CL8  UNL     1     -34.669  14.865  -3.291  1.00 20.00    -0.125 Cl
ENDROOT
TORSDOF 0
ENDMDL
MODEL 8
REMARK VINA RESULT:      -3.9      9.281      9.857
REMARK  0 active torsions:
REMARK  status: ('A' for Active; 'I' for Inactive)
ROOT
HETATM    1  C1  UNL     1     -42.624   4.843  -1.601  1.00 20.00     0.064 C 
HETATM    2  C2  UNL     1     -42.378   5.531   0.781  1.00 20.00     0.021 C 
HETATM    3  C3  UNL     1     -42.522   7.024   1.067  1.00 20.00     0.021 C 
HETATM    4  C4  UNL     1     -41.330   6.871  -0.987  1.00 20.00     0.039 C 
HETATM    5  C5  UNL     1     -41.719   5.435  -0.606  1.00 20.00     0.094 C 
HETATM    6  C6  UNL     1     -41.330   7.623   0.338  1.00 20.00     0.083 C 
HETATM    7  N7  UNL     1     -43.339   4.376  -2.387  1.00 20.00    -0.197 NA
HETATM    8 CL8  UNL     1     -41.485   9.372   0.122  1.00 20.00    -0.125 Cl
ENDROOT
TORSDOF 0
ENDMDL
MODEL 9
REMARK VINA RESULT:      -3.9     11.522     11.873
REMARK  0 active torsions:
REMARK  status: ('A' for Active; 'I' for Inactive)
ROOT
HETATM    1  C1  UNL     1     -33.930  14.828  -5.538  1.00 20.00     0.064 C 
HETATM    2  C2  UNL     1     -35.297  14.832  -3.456  1.00 20.00     0.021 C 
HETATM    3  C3  UNL     1     -35.361  16.154  -2.696  1.00 20.00     0.021 C 
HETATM    4  C4  UNL     1     -33.124  15.970  -3.485  1.00 20.00     0.039 C 
HETATM    5  C5  UNL     1     -33.888  14.772  -4.070  1.00 20.00     0.094 C 
HETATM    6  C6  UNL     1     -33.923  16.355  -2.247  1.00 20.00     0.083 C 
HETATM    7  N7  UNL     1     -33.963  14.873  -6.697  1.00 20.00    -0.197 NA
HETATM    8 CL8  UNL     1     -33.607  18.017  -1.729  1.00 20.00    -0.125 Cl
ENDROOT
TORSDOF 0
ENDMDL
