MODEL 1
REMARK VINA RESULT:      -4.0      0.000      0.000
REMARK  2 active torsions:
REMARK  status: ('A' for Active; 'I' for Inactive)
REMARK    1  A    between atoms: C4_4  and  C5_5 
REMARK    2  A    between atoms: C4_4  and  C6_6 
ROOT
HETATM    1  C1  UNL     1     -22.214  17.384   8.258  1.00 20.00     0.063 C 
HETATM    2  C2  UNL     1     -23.803  19.130   8.933  1.00 20.00     0.025 C 
HETATM    3  C5  UNL     1     -22.893  17.998   9.416  1.00 20.00     0.090 C 
HETATM    4  N7  UNL     1     -21.677  16.902   7.350  1.00 20.00    -0.197 NA
ENDROOT
BRANCH   3   5
HETATM    5  C4  UNL     1     -23.719  16.955  10.196  1.00 20.00     0.038 C 
BRANCH   5   6
HETATM    6  C6  UNL     1     -23.584  17.029  11.728  1.00 20.00     0.079 C 
HETATM    7  C3  UNL     1     -24.697  17.879  12.332  1.00 20.00     0.026 C 
HETATM    8 CL8  UNL     1     -22.006  17.726  12.201  1.00 20.00    -0.125 Cl
ENDBRANCH   5   6
ENDBRANCH   3   5
TORSDOF 2
ENDMDL
MODEL 2
REMARK VINA RESULT:      -3.9     15.929     16.383
REMARK  2 active torsions:
REMARK  status: ('A' for Active; 'I' for Inactive)
REMARK    1  A    between atoms: C4_4  and  C5_5 
REMARK    2  A    between atoms: C4_4  and  C6_6 
ROOT
HETATM    1  C1  UNL     1     -32.721   7.966   1.453  1.00 20.00     0.063 C 
HETATM    2  C2  UNL     1     -31.586   7.540   3.588  1.00 20.00     0.025 C 
HETATM    3  C5  UNL     1     -32.593   7.006   2.567  1.00 20.00     0.090 C 
HETATM    4  N7  UNL     1     -32.822   8.719   0.576  1.00 20.00    -0.197 NA
ENDROOT
BRANCH   3   5
HETATM    5  C4  UNL     1     -33.953   6.757   3.249  1.00 20.00     0.038 C 
BRANCH   5   6
HETATM    6  C6  UNL     1     -33.901   5.873   4.507  1.00 20.00     0.079 C 
HETATM    7  C3  UNL     1     -35.025   4.843   4.497  1.00 20.00     0.026 C 
HETATM    8 CL8  UNL     1     -34.039   6.861   5.993  1.00 20.00    -0.125 Cl
ENDBRANCH   5   6
ENDBRANCH   3   5
TORSDOF 2
ENDMDL
MODEL 3
REMARK VINA RESULT:      -3.9     18.412     19.088
REMARK  2 active torsions:
REMARK  status: ('A' for Active; 'I' for Inactive)
REMARK    1  A    between atoms: C4_4  and  C5_5 
REMARK    2  A    between atoms: C4_4  and  C6_6 
ROOT
HETATM    1  C1  UNL     1     -36.991  14.111  -4.565  1.00 20.00     0.063 C 
HETATM    2  C2  UNL     1     -35.352  15.232  -6.009  1.00 20.00     0.025 C 
HETATM    3  C5  UNL     1     -35.571  14.133  -4.966  1.00 20.00     0.090 C 
HETATM    4  N7  UNL     1     -38.107  14.090  -4.250  1.00 20.00    -0.197 NA
ENDROOT
BRANCH   3   5
HETATM    5  C4  UNL     1     -34.651  14.368  -3.752  1.00 20.00     0.038 C 
BRANCH   5   6
HETATM    6  C6  UNL     1     -34.486  15.840  -3.333  1.00 20.00     0.079 C 
HETATM    7  C3  UNL     1     -33.014  16.232  -3.287  1.00 20.00     0.026 C 
HETATM    8 CL8  UNL     1     -35.210  16.134  -1.723  1.00 20.00    -0.125 Cl
ENDBRANCH   5   6
ENDBRANCH   3   5
TORSDOF 2
ENDMDL
MODEL 4
REMARK VINA RESULT:      -3.8      1.963      2.193
REMARK  2 active torsions:
REMARK  status: ('A' for Active; 'I' for Inactive)
REMARK    1  A    between atoms: C4_4  and  C5_5 
REMARK    2  A    between atoms: C4_4  and  C6_6 
ROOT
HETATM    1  C1  UNL     1     -24.081  18.882   7.780  1.00 20.00     0.063 C 
HETATM    2  C2  UNL     1     -25.518  19.262   9.734  1.00 20.00     0.025 C 
HETATM    3  C5  UNL     1     -24.124  18.850   9.255  1.00 20.00     0.090 C 
HETATM    4  N7  UNL     1     -24.045  18.909   6.621  1.00 20.00    -0.197 NA
ENDROOT
BRANCH   3   5
HETATM    5  C4  UNL     1     -23.775  17.449   9.794  1.00 20.00     0.038 C 
BRANCH   5   6
HETATM    6  C6  UNL     1     -24.017  17.249  11.300  1.00 20.00     0.079 C 
HETATM    7  C3  UNL     1     -22.738  17.487  12.095  1.00 20.00     0.026 C 
HETATM    8 CL8  UNL     1     -24.607  15.595  11.642  1.00 20.00    -0.125 Cl
ENDBRANCH   5   6
ENDBRANCH   3   5
TORSDOF 2
ENDMDL
MODEL 5
REMARK VINA RESULT:      -3.7     17.575     18.209
REMARK  2 active torsions:
REMARK  status: ('A' for Active; 'I' for Inactive)
REMARK    1  A    between atoms: C4_4  and  C5_5 
REMARK    2  A    between atoms: C4_4  and  C6_6 
ROOT
HETATM    1  C1  UNL     1     -36.366  14.086  -4.231  1.00 20.00     0.063 C 
HETATM    2  C2  UNL     1     -34.156  14.763  -5.058  1.00 20.00     0.025 C 
HETATM    3  C5  UNL     1     -35.063  14.652  -3.831  1.00 20.00     0.090 C 
HETATM    4  N7  UNL     1     -37.390  13.638  -4.543  1.00 20.00    -0.197 NA
ENDROOT
BRANCH   3   5
HETATM    5  C4  UNL     1     -35.234  16.037  -3.175  1.00 20.00     0.038 C 
BRANCH   5   6
HETATM    6  C6  UNL     1     -34.379  16.275  -1.918  1.00 20.00     0.079 C 
HETATM    7  C3  UNL     1     -35.176  17.014  -0.849  1.00 20.00     0.026 C 
HETATM    8 CL8  UNL     1     -32.916  17.228  -2.307  1.00 20.00    -0.125 Cl
ENDBRANCH   5   6
ENDBRANCH   3   5
TORSDOF 2
ENDMDL
MODEL 6
REMARK VINA RESULT:      -3.7     17.361     18.044
REMARK  2 active torsions:
REMARK  status: ('A' for Active; 'I' for Inactive)
REMARK    1  A    between atoms: C4_4  and  C5_5 
REMARK    2  A    between atoms: C4_4  and  C6_6 
ROOT
HETATM    1  C1  UNL     1     -35.699  13.976  -4.301  1.00 20.00     0.063 C 
HETATM    2  C2  UNL     1     -36.752  16.146  -3.843  1.00 20.00     0.025 C 
HETATM    3  C5  UNL     1     -35.428  15.390  -3.974  1.00 20.00     0.090 C 
HETATM    4  N7  UNL     1     -35.909  12.865  -4.560  1.00 20.00    -0.197 NA
ENDROOT
BRANCH   3   5
HETATM    5  C4  UNL     1     -34.618  15.516  -2.669  1.00 20.00     0.038 C 
BRANCH   5   6
HETATM    6  C6  UNL     1     -34.562  16.932  -2.069  1.00 20.00     0.079 C 
HETATM    7  C3  UNL     1     -33.124  17.429  -1.978  1.00 20.00     0.026 C 
HETATM    8 CL8  UNL     1     -35.288  16.967  -0.434  1.00 20.00    -0.125 Cl
ENDBRANCH   5   6
ENDBRANCH   3   5
TORSDOF 2
ENDMDL
MODEL 7
REMARK VINA RESULT:      -3.6     18.397     19.051
REMARK  2 active torsions:
REMARK  status: ('A' for Active; 'I' for Inactive)
REMARK    1  A    between atoms: C4_4  and  C5_5 
REMARK    2  A    between atoms: C4_4  and  C6_6 
ROOT
HETATM    1  C1  UNL     1     -36.180  13.769  -4.643  1.00 20.00     0.063 C 
HETATM    2  C2  UNL     1     -38.048  15.324  -4.296  1.00 20.00     0.025 C 
HETATM    3  C5  UNL     1     -36.636  15.155  -4.863  1.00 20.00     0.090 C 
HETATM    4  N7  UNL     1     -35.820  12.679  -4.473  1.00 20.00    -0.197 NA
ENDROOT
BRANCH   3   5
HETATM    5  C4  UNL     1     -35.679  16.169  -4.207  1.00 20.00     0.038 C 
BRANCH   5   6
HETATM    6  C6  UNL     1     -34.817  15.607  -3.062  1.00 20.00     0.079 C 
HETATM    7  C3  UNL     1     -35.105  16.336  -1.754  1.00 20.00     0.026 C 
HETATM    8 CL8  UNL     1     -33.074  15.762  -3.436  1.00 20.00    -0.125 Cl
ENDBRANCH   5   6
ENDBRANCH   3   5
TORSDOF 2
ENDMDL
MODEL 8
REMARK VINA RESULT:      -3.6     23.658     24.081
REMARK  2 active torsions:
REMARK  status: ('A' for Active; 'I' for Inactive)
REMARK    1  A    between atoms: C4_4  and  C5_5 
REMARK    2  A    between atoms: C4_4  and  C6_6 
ROOT
HETATM    1  C1  UNL     1     -41.710   9.237   0.121  1.00 20.00     0.063 C 
HETATM    2  C2  UNL     1     -43.415   8.213  -1.319  1.00 20.00     0.025 C 
HETATM    3  C5  UNL     1     -42.268   7.950  -0.341  1.00 20.00     0.090 C 
HETATM    4  N7  UNL     1     -41.273  10.247   0.488  1.00 20.00    -0.197 NA
ENDROOT
BRANCH   3   5
HETATM    5  C4  UNL     1     -41.187   7.084  -1.017  1.00 20.00     0.038 C 
BRANCH   5   6
HETATM    6  C6  UNL     1     -41.191   5.600  -0.611  1.00 20.00     0.079 C 
HETATM    7  C3  UNL     1     -41.767   4.732  -1.724  1.00 20.00     0.026 C 
HETATM    8 CL8  UNL     1     -42.153   5.343   0.875  1.00 20.00    -0.125 Cl
ENDBRANCH   5   6
ENDBRANCH   3   5
TORSDOF 2
ENDMDL
MODEL 9
REMARK VINA RESULT:      -3.6     16.390     16.877
REMARK  2 active torsions:
REMARK  status: ('A' for Active; 'I' for Inactive)
REMARK    1  A    between atoms: C4_4  and  C5_5 
REMARK    2  A    between atoms: C4_4  and  C6_6 
ROOT
HETATM    1  C1  UNL     1     -32.618   6.794   2.851  1.00 20.00     0.063 C 
HETATM    2  C2  UNL     1     -33.131   4.416   2.518  1.00 20.00     0.025 C 
HETATM    3  C5  UNL     1     -33.714   5.823   2.667  1.00 20.00     0.090 C 
HETATM    4  N7  UNL     1     -31.757   7.559   2.993  1.00 20.00    -0.197 NA
ENDROOT
BRANCH   3   5
HETATM    5  C4  UNL     1     -34.700   5.862   3.852  1.00 20.00     0.038 C 
BRANCH   5   6
HETATM    6  C6  UNL     1     -34.058   5.697   5.241  1.00 20.00     0.079 C 
HETATM    7  C3  UNL     1     -34.904   4.791   6.128  1.00 20.00     0.026 C 
HETATM    8 CL8  UNL     1     -33.867   7.280   6.052  1.00 20.00    -0.125 Cl
ENDBRANCH   5   6
ENDBRANCH   3   5
TORSDOF 2
ENDMDL
