MODEL 1
REMARK VINA RESULT:      -4.6      0.000      0.000
REMARK  0 active torsions:
REMARK  status: ('A' for Active; 'I' for Inactive)
ROOT
HETATM    1  C1  UNL     1     -35.279  13.818  -4.059  1.00 20.00     0.095 C 
HETATM    2  C2  UNL     1     -33.452  15.398  -3.803  1.00 20.00     0.011 C 
HETATM    3  C3  UNL     1     -34.675  14.960  -3.484  1.00 20.00     0.020 C 
HETATM    4  C4  UNL     1     -35.327  15.834  -2.459  1.00 20.00     0.051 C 
HETATM    5  C5  UNL     1     -34.146  16.650  -1.927  1.00 20.00     0.029 C 
HETATM    6  C6  UNL     1     -33.091  16.629  -3.037  1.00 20.00     0.106 C 
HETATM    7  N7  UNL     1     -35.775  12.881  -4.532  1.00 20.00    -0.192 NA
HETATM    8 CL8  UNL     1     -33.222  18.052  -4.094  1.00 20.00    -0.121 Cl
ENDROOT
TORSDOF 0
ENDMDL
MODEL 2
REMARK VINA RESULT:      -4.3     11.182     12.319
REMARK  0 active torsions:
REMARK  status: ('A' for Active; 'I' for Inactive)
ROOT
HETATM    1  C1  UNL     1     -41.540   9.115   0.177  1.00 20.00     0.095 C 
HETATM    2  C2  UNL     1     -41.881   6.825   0.915  1.00 20.00     0.011 C 
HETATM    3  C3  UNL     1     -41.537   7.715  -0.024  1.00 20.00     0.020 C 
HETATM    4  C4  UNL     1     -41.166   7.048  -1.311  1.00 20.00     0.051 C 
HETATM    5  C5  UNL     1     -40.970   5.592  -0.879  1.00 20.00     0.029 C 
HETATM    6  C6  UNL     1     -41.788   5.424   0.405  1.00 20.00     0.106 C 
HETATM    7  N7  UNL     1     -41.543  10.263   0.342  1.00 20.00    -0.192 NA
HETATM    8 CL8  UNL     1     -43.417   4.799   0.069  1.00 20.00    -0.121 Cl
ENDROOT
TORSDOF 0
ENDMDL
MODEL 3
REMARK VINA RESULT:      -4.2     17.120     17.912
REMARK  0 active torsions:
REMARK  status: ('A' for Active; 'I' for Inactive)
ROOT
HETATM    1  C1  UNL     1     -22.473  17.660   8.313  1.00 20.00     0.095 C 
HETATM    2  C2  UNL     1     -24.246  17.367   9.948  1.00 20.00     0.011 C 
HETATM    3  C3  UNL     1     -22.961  17.574   9.637  1.00 20.00     0.020 C 
HETATM    4  C4  UNL     1     -22.106  17.688  10.861  1.00 20.00     0.051 C 
HETATM    5  C5  UNL     1     -23.145  17.902  11.965  1.00 20.00     0.029 C 
HETATM    6  C6  UNL     1     -24.454  17.316  11.427  1.00 20.00     0.106 C 
HETATM    7  N7  UNL     1     -22.073  17.730   7.226  1.00 20.00    -0.192 NA
HETATM    8 CL8  UNL     1     -24.680  15.630  11.942  1.00 20.00    -0.121 Cl
ENDROOT
TORSDOF 0
ENDMDL
MODEL 4
REMARK VINA RESULT:      -4.2     16.722     17.619
REMARK  0 active torsions:
REMARK  status: ('A' for Active; 'I' for Inactive)
ROOT
HETATM    1  C1  UNL     1     -23.760  18.513   8.161  1.00 20.00     0.095 C 
HETATM    2  C2  UNL     1     -24.629  17.926  10.353  1.00 20.00     0.011 C 
HETATM    3  C3  UNL     1     -23.610  18.083   9.500  1.00 20.00     0.020 C 
HETATM    4  C4  UNL     1     -22.299  17.734  10.131  1.00 20.00     0.051 C 
HETATM    5  C5  UNL     1     -22.651  17.711  11.622  1.00 20.00     0.029 C 
HETATM    6  C6  UNL     1     -24.159  17.453  11.690  1.00 20.00     0.106 C 
HETATM    7  N7  UNL     1     -23.885  18.866   7.063  1.00 20.00    -0.192 NA
HETATM    8 CL8  UNL     1     -24.523  15.724  11.876  1.00 20.00    -0.121 Cl
ENDROOT
TORSDOF 0
ENDMDL
MODEL 5
REMARK VINA RESULT:      -4.2      1.438      1.969
REMARK  0 active torsions:
REMARK  status: ('A' for Active; 'I' for Inactive)
ROOT
HETATM    1  C1  UNL     1     -35.410  13.803  -4.110  1.00 20.00     0.095 C 
HETATM    2  C2  UNL     1     -35.703  15.968  -3.046  1.00 20.00     0.011 C 
HETATM    3  C3  UNL     1     -34.923  15.018  -3.576  1.00 20.00     0.020 C 
HETATM    4  C4  UNL     1     -33.475  15.395  -3.520  1.00 20.00     0.051 C 
HETATM    5  C5  UNL     1     -33.541  16.896  -3.221  1.00 20.00     0.029 C 
HETATM    6  C6  UNL     1     -34.901  17.130  -2.558  1.00 20.00     0.106 C 
HETATM    7  N7  UNL     1     -35.811  12.806  -4.547  1.00 20.00    -0.192 NA
HETATM    8 CL8  UNL     1     -34.786  17.077  -0.785  1.00 20.00    -0.121 Cl
ENDROOT
TORSDOF 0
ENDMDL
MODEL 6
REMARK VINA RESULT:      -4.2      1.644      2.139
REMARK  0 active torsions:
REMARK  status: ('A' for Active; 'I' for Inactive)
ROOT
HETATM    1  C1  UNL     1     -37.004  14.375  -4.227  1.00 20.00     0.095 C 
HETATM    2  C2  UNL     1     -35.436  16.203  -3.904  1.00 20.00     0.011 C 
HETATM    3  C3  UNL     1     -35.706  14.898  -4.021  1.00 20.00     0.020 C 
HETATM    4  C4  UNL     1     -34.471  14.062  -3.892  1.00 20.00     0.051 C 
HETATM    5  C5  UNL     1     -33.357  15.099  -4.065  1.00 20.00     0.029 C 
HETATM    6  C6  UNL     1     -33.978  16.446  -3.685  1.00 20.00     0.106 C 
HETATM    7  N7  UNL     1     -38.069  13.948  -4.396  1.00 20.00    -0.192 NA
HETATM    8 CL8  UNL     1     -33.687  16.846  -1.977  1.00 20.00    -0.121 Cl
ENDROOT
TORSDOF 0
ENDMDL
MODEL 7
REMARK VINA RESULT:      -4.2     10.963     12.197
REMARK  0 active torsions:
REMARK  status: ('A' for Active; 'I' for Inactive)
ROOT
HETATM    1  C1  UNL     1     -41.597   9.182   0.236  1.00 20.00     0.095 C 
HETATM    2  C2  UNL     1     -41.866   7.279  -1.250  1.00 20.00     0.011 C 
HETATM    3  C3  UNL     1     -41.935   7.836  -0.035  1.00 20.00     0.020 C 
HETATM    4  C4  UNL     1     -42.400   6.858   0.998  1.00 20.00     0.051 C 
HETATM    5  C5  UNL     1     -42.970   5.724   0.140  1.00 20.00     0.029 C 
HETATM    6  C6  UNL     1     -42.278   5.843  -1.221  1.00 20.00     0.106 C 
HETATM    7  N7  UNL     1     -41.318  10.286   0.458  1.00 20.00    -0.192 NA
HETATM    8 CL8  UNL     1     -40.840   4.804  -1.321  1.00 20.00    -0.121 Cl
ENDROOT
TORSDOF 0
ENDMDL
MODEL 8
REMARK VINA RESULT:      -4.1     11.009     11.386
REMARK  0 active torsions:
REMARK  status: ('A' for Active; 'I' for Inactive)
ROOT
HETATM    1  C1  UNL     1     -34.655   5.300   4.254  1.00 20.00     0.095 C 
HETATM    2  C2  UNL     1     -33.178   6.044   2.475  1.00 20.00     0.011 C 
HETATM    3  C3  UNL     1     -33.666   6.155   3.716  1.00 20.00     0.020 C 
HETATM    4  C4  UNL     1     -33.049   7.302   4.454  1.00 20.00     0.051 C 
HETATM    5  C5  UNL     1     -31.828   7.627   3.589  1.00 20.00     0.029 C 
HETATM    6  C6  UNL     1     -32.154   7.094   2.190  1.00 20.00     0.106 C 
HETATM    7  N7  UNL     1     -35.467   4.598   4.695  1.00 20.00    -0.192 NA
HETATM    8 CL8  UNL     1     -32.860   8.355   1.155  1.00 20.00    -0.121 Cl
ENDROOT
TORSDOF 0
ENDMDL
MODEL 9
REMARK VINA RESULT:      -3.9      3.275      4.261
REMARK  0 active torsions:
REMARK  status: ('A' for Active; 'I' for Inactive)
ROOT
HETATM    1  C1  UNL     1     -32.226  18.093  -1.582  1.00 20.00     0.095 C 
HETATM    2  C2  UNL     1     -34.421  17.059  -1.472  1.00 20.00     0.011 C 
HETATM    3  C3  UNL     1     -33.229  17.218  -2.059  1.00 20.00     0.020 C 
HETATM    4  C4  UNL     1     -33.097  16.370  -3.285  1.00 20.00     0.051 C 
HETATM    5  C5  UNL     1     -34.257  15.383  -3.125  1.00 20.00     0.029 C 
HETATM    6  C6  UNL     1     -35.271  16.075  -2.210  1.00 20.00     0.106 C 
HETATM    7  N7  UNL     1     -31.403  18.811  -1.191  1.00 20.00    -0.192 NA
HETATM    8 CL8  UNL     1     -36.515  16.938  -3.141  1.00 20.00    -0.121 Cl
ENDROOT
TORSDOF 0
ENDMDL
