MODEL 1
REMARK VINA RESULT:      -4.1      0.000      0.000
REMARK  2 active torsions:
REMARK  status: ('A' for Active; 'I' for Inactive)
REMARK    1  A    between atoms: C5_5  and  C6_6 
REMARK    2  A    between atoms: C5_5  and  C7_7 
ROOT
HETATM    1  C1  UNL     1     -37.086  14.340  -4.417  1.00 20.00     0.068 C 
HETATM    2  C3  UNL     1     -34.782  13.721  -3.907  1.00 20.00     0.031 C 
HETATM    3  C4  UNL     1     -35.295  15.100  -5.926  1.00 20.00     0.031 C 
HETATM    4  C7  UNL     1     -35.692  14.836  -4.466  1.00 20.00     0.043 C 
HETATM    5  N8  UNL     1     -38.174  13.937  -4.380  1.00 20.00    -0.196 NA
ENDROOT
BRANCH   4   6
HETATM    6  C5  UNL     1     -35.512  16.099  -3.574  1.00 20.00     0.043 C 
BRANCH   6   7
HETATM    7  C6  UNL     1     -34.561  16.011  -2.364  1.00 20.00     0.080 C 
HETATM    8  C2  UNL     1     -35.162  16.728  -1.156  1.00 20.00     0.026 C 
HETATM    9 CL9  UNL     1     -32.962  16.731  -2.701  1.00 20.00    -0.125 Cl
ENDBRANCH   6   7
ENDBRANCH   4   6
TORSDOF 2
ENDMDL
MODEL 2
REMARK VINA RESULT:      -4.0      1.849      2.005
REMARK  2 active torsions:
REMARK  status: ('A' for Active; 'I' for Inactive)
REMARK    1  A    between atoms: C5_5  and  C6_6 
REMARK    2  A    between atoms: C5_5  and  C7_7 
ROOT
HETATM    1  C1  UNL     1     -35.358  13.847  -4.305  1.00 20.00     0.068 C 
HETATM    2  C3  UNL     1     -33.076  14.710  -4.323  1.00 20.00     0.031 C 
HETATM    3  C4  UNL     1     -34.979  16.173  -5.013  1.00 20.00     0.031 C 
HETATM    4  C7  UNL     1     -34.553  15.061  -4.044  1.00 20.00     0.043 C 
HETATM    5  N8  UNL     1     -35.978  12.889  -4.518  1.00 20.00    -0.196 NA
ENDROOT
BRANCH   4   6
HETATM    6  C5  UNL     1     -34.670  15.506  -2.557  1.00 20.00     0.043 C 
BRANCH   6   7
HETATM    7  C6  UNL     1     -34.614  17.014  -2.237  1.00 20.00     0.080 C 
HETATM    8  C2  UNL     1     -33.182  17.442  -1.922  1.00 20.00     0.026 C 
HETATM    9 CL9  UNL     1     -35.647  17.454  -0.848  1.00 20.00    -0.125 Cl
ENDBRANCH   6   7
ENDBRANCH   4   6
TORSDOF 2
ENDMDL
MODEL 3
REMARK VINA RESULT:      -3.9      1.384      2.024
REMARK  2 active torsions:
REMARK  status: ('A' for Active; 'I' for Inactive)
REMARK    1  A    between atoms: C5_5  and  C6_6 
REMARK    2  A    between atoms: C5_5  and  C7_7 
ROOT
HETATM    1  C1  UNL     1     -36.273  13.816  -4.571  1.00 20.00     0.068 C 
HETATM    2  C3  UNL     1     -36.740  15.630  -6.133  1.00 20.00     0.031 C 
HETATM    3  C4  UNL     1     -38.350  15.108  -4.296  1.00 20.00     0.031 C 
HETATM    4  C7  UNL     1     -36.860  15.171  -4.664  1.00 20.00     0.043 C 
HETATM    5  N8  UNL     1     -35.815  12.750  -4.512  1.00 20.00    -0.196 NA
ENDROOT
BRANCH   4   6
HETATM    6  C5  UNL     1     -36.081  16.185  -3.776  1.00 20.00     0.043 C 
BRANCH   6   7
HETATM    7  C6  UNL     1     -35.060  15.634  -2.761  1.00 20.00     0.080 C 
HETATM    8  C2  UNL     1     -35.082  16.461  -1.476  1.00 20.00     0.026 C 
HETATM    9 CL9  UNL     1     -33.392  15.641  -3.400  1.00 20.00    -0.125 Cl
ENDBRANCH   6   7
ENDBRANCH   4   6
TORSDOF 2
ENDMDL
MODEL 4
REMARK VINA RESULT:      -3.7      2.551      3.596
REMARK  2 active torsions:
REMARK  status: ('A' for Active; 'I' for Inactive)
REMARK    1  A    between atoms: C5_5  and  C6_6 
REMARK    2  A    between atoms: C5_5  and  C7_7 
ROOT
HETATM    1  C1  UNL     1     -35.302  13.854  -4.360  1.00 20.00     0.068 C 
HETATM    2  C3  UNL     1     -34.828  15.547  -2.668  1.00 20.00     0.031 C 
HETATM    3  C4  UNL     1     -33.020  14.763  -4.203  1.00 20.00     0.031 C 
HETATM    4  C7  UNL     1     -34.518  15.085  -4.108  1.00 20.00     0.043 C 
HETATM    5  N8  UNL     1     -35.917  12.887  -4.543  1.00 20.00    -0.196 NA
ENDROOT
BRANCH   4   6
HETATM    6  C5  UNL     1     -34.934  16.226  -5.081  1.00 20.00     0.043 C 
BRANCH   6   7
HETATM    7  C6  UNL     1     -34.604  16.066  -6.579  1.00 20.00     0.080 C 
HETATM    8  C2  UNL     1     -34.386  17.432  -7.229  1.00 20.00     0.026 C 
HETATM    9 CL9  UNL     1     -35.900  15.223  -7.475  1.00 20.00    -0.125 Cl
ENDBRANCH   6   7
ENDBRANCH   4   6
TORSDOF 2
ENDMDL
MODEL 5
REMARK VINA RESULT:      -3.7      2.168      2.684
REMARK  2 active torsions:
REMARK  status: ('A' for Active; 'I' for Inactive)
REMARK    1  A    between atoms: C5_5  and  C6_6 
REMARK    2  A    between atoms: C5_5  and  C7_7 
ROOT
HETATM    1  C1  UNL     1     -34.464  14.859  -5.664  1.00 20.00     0.068 C 
HETATM    2  C3  UNL     1     -36.302  16.196  -4.778  1.00 20.00     0.031 C 
HETATM    3  C4  UNL     1     -36.342  13.708  -4.564  1.00 20.00     0.031 C 
HETATM    4  C7  UNL     1     -35.431  14.944  -4.546  1.00 20.00     0.043 C 
HETATM    5  N8  UNL     1     -33.715  14.800  -6.549  1.00 20.00    -0.196 NA
ENDROOT
BRANCH   4   6
HETATM    6  C5  UNL     1     -34.700  15.110  -3.181  1.00 20.00     0.043 C 
BRANCH   6   7
HETATM    7  C6  UNL     1     -34.524  16.533  -2.614  1.00 20.00     0.080 C 
HETATM    8  C2  UNL     1     -33.044  16.909  -2.557  1.00 20.00     0.026 C 
HETATM    9 CL9  UNL     1     -35.206  16.700  -0.971  1.00 20.00    -0.125 Cl
ENDBRANCH   6   7
ENDBRANCH   4   6
TORSDOF 2
ENDMDL
MODEL 6
REMARK VINA RESULT:      -3.7      1.376      2.368
REMARK  2 active torsions:
REMARK  status: ('A' for Active; 'I' for Inactive)
REMARK    1  A    between atoms: C5_5  and  C6_6 
REMARK    2  A    between atoms: C5_5  and  C7_7 
ROOT
HETATM    1  C1  UNL     1     -37.441  14.813  -4.198  1.00 20.00     0.068 C 
HETATM    2  C3  UNL     1     -36.071  16.445  -5.386  1.00 20.00     0.031 C 
HETATM    3  C4  UNL     1     -37.140  17.048  -3.211  1.00 20.00     0.031 C 
HETATM    4  C7  UNL     1     -36.468  15.911  -3.994  1.00 20.00     0.043 C 
HETATM    5  N8  UNL     1     -38.207  13.959  -4.371  1.00 20.00    -0.196 NA
ENDROOT
BRANCH   4   6
HETATM    6  C5  UNL     1     -35.180  15.397  -3.288  1.00 20.00     0.043 C 
BRANCH   6   7
HETATM    7  C6  UNL     1     -33.813  15.853  -3.837  1.00 20.00     0.080 C 
HETATM    8  C2  UNL     1     -32.981  14.648  -4.273  1.00 20.00     0.026 C 
HETATM    9 CL9  UNL     1     -32.870  16.776  -2.633  1.00 20.00    -0.125 Cl
ENDBRANCH   6   7
ENDBRANCH   4   6
TORSDOF 2
ENDMDL
MODEL 7
REMARK VINA RESULT:      -3.6     17.028     18.088
REMARK  2 active torsions:
REMARK  status: ('A' for Active; 'I' for Inactive)
REMARK    1  A    between atoms: C5_5  and  C6_6 
REMARK    2  A    between atoms: C5_5  and  C7_7 
ROOT
HETATM    1  C1  UNL     1     -23.480  18.454   7.732  1.00 20.00     0.068 C 
HETATM    2  C3  UNL     1     -21.549  16.966   7.810  1.00 20.00     0.031 C 
HETATM    3  C4  UNL     1     -21.855  18.720   9.562  1.00 20.00     0.031 C 
HETATM    4  C7  UNL     1     -22.593  17.719   8.661  1.00 20.00     0.043 C 
HETATM    5  N8  UNL     1     -24.165  19.031   6.992  1.00 20.00    -0.196 NA
ENDROOT
BRANCH   4   6
HETATM    6  C5  UNL     1     -23.391  16.668   9.488  1.00 20.00     0.043 C 
BRANCH   6   7
HETATM    7  C6  UNL     1     -23.883  17.064  10.894  1.00 20.00     0.080 C 
HETATM    8  C2  UNL     1     -24.459  15.850  11.622  1.00 20.00     0.026 C 
HETATM    9 CL9  UNL     1     -25.140  18.332  10.844  1.00 20.00    -0.125 Cl
ENDBRANCH   6   7
ENDBRANCH   4   6
TORSDOF 2
ENDMDL
MODEL 8
REMARK VINA RESULT:      -3.6      2.269      3.333
REMARK  2 active torsions:
REMARK  status: ('A' for Active; 'I' for Inactive)
REMARK    1  A    between atoms: C5_5  and  C6_6 
REMARK    2  A    between atoms: C5_5  and  C7_7 
ROOT
HETATM    1  C1  UNL     1     -35.312  13.847  -4.330  1.00 20.00     0.068 C 
HETATM    2  C3  UNL     1     -34.824  15.571  -2.675  1.00 20.00     0.031 C 
HETATM    3  C4  UNL     1     -33.039  14.788  -4.237  1.00 20.00     0.031 C 
HETATM    4  C7  UNL     1     -34.540  15.091  -4.114  1.00 20.00     0.043 C 
HETATM    5  N8  UNL     1     -35.918  12.869  -4.485  1.00 20.00    -0.196 NA
ENDROOT
BRANCH   4   6
HETATM    6  C5  UNL     1     -34.991  16.212  -5.095  1.00 20.00     0.043 C 
BRANCH   6   7
HETATM    7  C6  UNL     1     -36.493  16.336  -5.423  1.00 20.00     0.080 C 
HETATM    8  C2  UNL     1     -36.728  16.186  -6.925  1.00 20.00     0.026 C 
HETATM    9 CL9  UNL     1     -37.175  17.904  -4.905  1.00 20.00    -0.125 Cl
ENDBRANCH   6   7
ENDBRANCH   4   6
TORSDOF 2
ENDMDL
MODEL 9
REMARK VINA RESULT:      -3.6      1.829      2.190
REMARK  2 active torsions:
REMARK  status: ('A' for Active; 'I' for Inactive)
REMARK    1  A    between atoms: C5_5  and  C6_6 
REMARK    2  A    between atoms: C5_5  and  C7_7 
ROOT
HETATM    1  C1  UNL     1     -34.618  15.167  -6.013  1.00 20.00     0.068 C 
HETATM    2  C3  UNL     1     -35.319  13.922  -4.035  1.00 20.00     0.031 C 
HETATM    3  C4  UNL     1     -32.899  14.399  -4.427  1.00 20.00     0.031 C 
HETATM    4  C7  UNL     1     -34.318  14.965  -4.577  1.00 20.00     0.043 C 
HETATM    5  N8  UNL     1     -34.859  15.312  -7.139  1.00 20.00    -0.196 NA
ENDROOT
BRANCH   4   6
HETATM    6  C5  UNL     1     -34.510  16.283  -3.771  1.00 20.00     0.043 C 
BRANCH   6   7
HETATM    7  C6  UNL     1     -34.012  16.327  -2.313  1.00 20.00     0.080 C 
HETATM    8  C2  UNL     1     -35.159  16.675  -1.365  1.00 20.00     0.026 C 
HETATM    9 CL9  UNL     1     -32.709  17.525  -2.075  1.00 20.00    -0.125 Cl
ENDBRANCH   6   7
ENDBRANCH   4   6
TORSDOF 2
ENDMDL
