MODEL 1
REMARK VINA RESULT:      -5.4      0.000      0.000
REMARK  1 active torsions:
REMARK  status: ('A' for Active; 'I' for Inactive)
REMARK    1  A    between atoms: C6_6  and  O11_11 
ROOT
HETATM    1  C1  UNL     1     -25.159  18.928   7.445  1.00 20.00     0.095 C 
HETATM    2  C2  UNL     1     -23.034  18.087   8.136  1.00 20.00     0.022 C 
HETATM    3  C3  UNL     1     -24.259  18.524   8.474  1.00 20.00     0.021 C 
HETATM    4  C4  UNL     1     -24.715  18.592   9.911  1.00 20.00     0.058 C 
HETATM    5  C5  UNL     1     -22.383  17.914  10.593  1.00 20.00     0.045 C 
HETATM    6  C6  UNL     1     -21.995  17.655   9.131  1.00 20.00     0.143 C 
HETATM    7  C7  UNL     1     -23.890  17.710  10.883  1.00 20.00    -0.041 C 
HETATM    8  C8  UNL     1     -24.185  18.142  12.332  1.00 20.00     0.015 C 
HETATM    9  C9  UNL     1     -24.293  16.229  10.739  1.00 20.00     0.015 C 
HETATM   10  N10 UNL     1     -25.893  19.255   6.607  1.00 20.00    -0.192 NA
ENDROOT
BRANCH   6  11
HETATM   11  O11 UNL     1     -21.729  16.264   8.958  1.00 20.00    -0.392 OA
HETATM   12  H24 UNL     1     -21.912  15.840   9.811  1.00 20.00     0.210 HD
ENDBRANCH   6  11
TORSDOF 1
ENDMDL
MODEL 2
REMARK VINA RESULT:      -4.8     15.731     17.372
REMARK  1 active torsions:
REMARK  status: ('A' for Active; 'I' for Inactive)
REMARK    1  A    between atoms: C6_6  and  O11_11 
ROOT
HETATM    1  C1  UNL     1     -35.620  13.843  -4.281  1.00 20.00     0.095 C 
HETATM    2  C2  UNL     1     -35.264  16.089  -5.006  1.00 20.00     0.022 C 
HETATM    3  C3  UNL     1     -35.335  15.209  -3.993  1.00 20.00     0.021 C 
HETATM    4  C4  UNL     1     -35.111  15.623  -2.559  1.00 20.00     0.058 C 
HETATM    5  C5  UNL     1     -34.965  18.010  -3.360  1.00 20.00     0.045 C 
HETATM    6  C6  UNL     1     -34.990  17.554  -4.826  1.00 20.00     0.143 C 
HETATM    7  C7  UNL     1     -34.355  16.966  -2.395  1.00 20.00    -0.041 C 
HETATM    8  C8  UNL     1     -34.519  17.465  -0.946  1.00 20.00     0.015 C 
HETATM    9  C9  UNL     1     -32.848  16.770  -2.659  1.00 20.00     0.015 C 
HETATM   10  N10 UNL     1     -35.851  12.729  -4.514  1.00 20.00    -0.192 NA
ENDROOT
BRANCH   6  11
HETATM   11  O11 UNL     1     -33.742  17.878  -5.438  1.00 20.00    -0.392 OA
HETATM   12  H24 UNL     1     -33.787  18.818  -5.673  1.00 20.00     0.210 HD
ENDBRANCH   6  11
TORSDOF 1
ENDMDL
MODEL 3
REMARK VINA RESULT:      -4.7     16.041     18.049
REMARK  1 active torsions:
REMARK  status: ('A' for Active; 'I' for Inactive)
REMARK    1  A    between atoms: C6_6  and  O11_11 
ROOT
HETATM    1  C1  UNL     1     -37.289  14.689  -4.341  1.00 20.00     0.095 C 
HETATM    2  C2  UNL     1     -35.898  16.229  -5.522  1.00 20.00     0.022 C 
HETATM    3  C3  UNL     1     -36.202  15.610  -4.368  1.00 20.00     0.021 C 
HETATM    4  C4  UNL     1     -35.419  15.853  -3.101  1.00 20.00     0.058 C 
HETATM    5  C5  UNL     1     -34.127  17.629  -4.342  1.00 20.00     0.045 C 
HETATM    6  C6  UNL     1     -34.790  17.231  -5.668  1.00 20.00     0.143 C 
HETATM    7  C7  UNL     1     -34.013  16.465  -3.329  1.00 20.00    -0.041 C 
HETATM    8  C8  UNL     1     -33.476  17.012  -1.993  1.00 20.00     0.015 C 
HETATM    9  C9  UNL     1     -33.031  15.385  -3.826  1.00 20.00     0.015 C 
HETATM   10  N10 UNL     1     -38.174  13.938  -4.318  1.00 20.00    -0.192 NA
ENDROOT
BRANCH   6  11
HETATM   11  O11 UNL     1     -33.796  16.708  -6.548  1.00 20.00    -0.392 OA
HETATM   12  H24 UNL     1     -33.156  17.421  -6.696  1.00 20.00     0.210 HD
ENDBRANCH   6  11
TORSDOF 1
ENDMDL
MODEL 4
REMARK VINA RESULT:      -4.7     15.418     17.461
REMARK  1 active torsions:
REMARK  status: ('A' for Active; 'I' for Inactive)
REMARK    1  A    between atoms: C6_6  and  O11_11 
ROOT
HETATM    1  C1  UNL     1     -33.593  17.227  -2.004  1.00 20.00     0.095 C 
HETATM    2  C2  UNL     1     -33.115  15.455  -3.531  1.00 20.00     0.022 C 
HETATM    3  C3  UNL     1     -34.030  16.174  -2.859  1.00 20.00     0.021 C 
HETATM    4  C4  UNL     1     -35.510  15.907  -2.990  1.00 20.00     0.058 C 
HETATM    5  C5  UNL     1     -34.935  13.910  -4.420  1.00 20.00     0.045 C 
HETATM    6  C6  UNL     1     -33.453  14.311  -4.443  1.00 20.00     0.143 C 
HETATM    7  C7  UNL     1     -35.902  15.107  -4.259  1.00 20.00    -0.041 C 
HETATM    8  C8  UNL     1     -37.338  14.575  -4.098  1.00 20.00     0.015 C 
HETATM    9  C9  UNL     1     -35.873  16.021  -5.501  1.00 20.00     0.015 C 
HETATM   10  N10 UNL     1     -33.238  18.086  -1.309  1.00 20.00    -0.192 NA
ENDROOT
BRANCH   6  11
HETATM   11  O11 UNL     1     -33.082  14.650  -5.778  1.00 20.00    -0.392 OA
HETATM   12  H24 UNL     1     -32.178  14.323  -5.904  1.00 20.00     0.210 HD
ENDBRANCH   6  11
TORSDOF 1
ENDMDL
MODEL 5
REMARK VINA RESULT:      -4.7     14.694     16.131
REMARK  1 active torsions:
REMARK  status: ('A' for Active; 'I' for Inactive)
REMARK    1  A    between atoms: C6_6  and  O11_11 
ROOT
HETATM    1  C1  UNL     1     -33.782  14.839  -4.097  1.00 20.00     0.095 C 
HETATM    2  C2  UNL     1     -35.063  15.736  -2.293  1.00 20.00     0.022 C 
HETATM    3  C3  UNL     1     -33.957  15.794  -3.054  1.00 20.00     0.021 C 
HETATM    4  C4  UNL     1     -32.897  16.848  -2.844  1.00 20.00     0.058 C 
HETATM    5  C5  UNL     1     -34.181  17.613  -0.813  1.00 20.00     0.045 C 
HETATM    6  C6  UNL     1     -35.347  16.674  -1.156  1.00 20.00     0.143 C 
HETATM    7  C7  UNL     1     -33.381  18.088  -2.049  1.00 20.00    -0.041 C 
HETATM    8  C8  UNL     1     -32.157  18.894  -1.575  1.00 20.00     0.015 C 
HETATM    9  C9  UNL     1     -34.231  19.006  -2.949  1.00 20.00     0.015 C 
HETATM   10  N10 UNL     1     -33.640  14.062  -4.948  1.00 20.00    -0.192 NA
ENDROOT
BRANCH   6  11
HETATM   11  O11 UNL     1     -36.500  17.455  -1.467  1.00 20.00    -0.392 OA
HETATM   12  H24 UNL     1     -36.736  17.244  -2.384  1.00 20.00     0.210 HD
ENDBRANCH   6  11
TORSDOF 1
ENDMDL
MODEL 6
REMARK VINA RESULT:      -4.5     15.257     16.480
REMARK  1 active torsions:
REMARK  status: ('A' for Active; 'I' for Inactive)
REMARK    1  A    between atoms: C6_6  and  O11_11 
ROOT
HETATM    1  C1  UNL     1     -35.570  17.320  -0.376  1.00 20.00     0.095 C 
HETATM    2  C2  UNL     1     -33.678  17.480  -1.823  1.00 20.00     0.022 C 
HETATM    3  C3  UNL     1     -34.808  16.839  -1.480  1.00 20.00     0.021 C 
HETATM    4  C4  UNL     1     -35.301  15.629  -2.236  1.00 20.00     0.058 C 
HETATM    5  C5  UNL     1     -33.174  15.714  -3.590  1.00 20.00     0.045 C 
HETATM    6  C6  UNL     1     -32.784  17.055  -2.953  1.00 20.00     0.143 C 
HETATM    7  C7  UNL     1     -34.702  15.480  -3.658  1.00 20.00    -0.041 C 
HETATM    8  C8  UNL     1     -34.969  14.052  -4.172  1.00 20.00     0.015 C 
HETATM    9  C9  UNL     1     -35.377  16.466  -4.633  1.00 20.00     0.015 C 
HETATM   10  N10 UNL     1     -36.192  17.713   0.522  1.00 20.00    -0.192 NA
ENDROOT
BRANCH   6  11
HETATM   11  O11 UNL     1     -32.784  18.068  -3.958  1.00 20.00    -0.392 OA
HETATM   12  H24 UNL     1     -31.913  18.492  -3.922  1.00 20.00     0.210 HD
ENDBRANCH   6  11
TORSDOF 1
ENDMDL
MODEL 7
REMARK VINA RESULT:      -4.5     22.768     24.064
REMARK  1 active torsions:
REMARK  status: ('A' for Active; 'I' for Inactive)
REMARK    1  A    between atoms: C6_6  and  O11_11 
ROOT
HETATM    1  C1  UNL     1     -41.897   8.968   0.247  1.00 20.00     0.095 C 
HETATM    2  C2  UNL     1     -42.494   6.893   1.265  1.00 20.00     0.022 C 
HETATM    3  C3  UNL     1     -42.332   7.615   0.143  1.00 20.00     0.021 C 
HETATM    4  C4  UNL     1     -42.587   7.033  -1.226  1.00 20.00     0.058 C 
HETATM    5  C5  UNL     1     -43.417   4.941  -0.086  1.00 20.00     0.045 C 
HETATM    6  C6  UNL     1     -42.965   5.467   1.283  1.00 20.00     0.143 C 
HETATM    7  C7  UNL     1     -42.579   5.483  -1.269  1.00 20.00    -0.041 C 
HETATM    8  C8  UNL     1     -43.213   5.011  -2.592  1.00 20.00     0.015 C 
HETATM    9  C9  UNL     1     -41.133   4.951  -1.222  1.00 20.00     0.015 C 
HETATM   10  N10 UNL     1     -41.541  10.070   0.330  1.00 20.00    -0.192 NA
ENDROOT
BRANCH   6  11
HETATM   11  O11 UNL     1     -41.920   4.634   1.782  1.00 20.00    -0.392 OA
HETATM   12  H24 UNL     1     -42.333   4.024   2.414  1.00 20.00     0.210 HD
ENDBRANCH   6  11
TORSDOF 1
ENDMDL
MODEL 8
REMARK VINA RESULT:      -4.4     17.102     18.691
REMARK  1 active torsions:
REMARK  status: ('A' for Active; 'I' for Inactive)
REMARK    1  A    between atoms: C6_6  and  O11_11 
ROOT
HETATM    1  C1  UNL     1     -37.433  14.542  -4.609  1.00 20.00     0.095 C 
HETATM    2  C2  UNL     1     -35.616  14.802  -6.136  1.00 20.00     0.022 C 
HETATM    3  C3  UNL     1     -36.250  15.219  -5.027  1.00 20.00     0.021 C 
HETATM    4  C4  UNL     1     -35.742  16.379  -4.205  1.00 20.00     0.058 C 
HETATM    5  C5  UNL     1     -33.976  16.744  -5.968  1.00 20.00     0.045 C 
HETATM    6  C6  UNL     1     -34.376  15.447  -6.685  1.00 20.00     0.143 C 
HETATM    7  C7  UNL     1     -34.250  16.724  -4.445  1.00 20.00    -0.041 C 
HETATM    8  C8  UNL     1     -33.954  18.119  -3.863  1.00 20.00     0.015 C 
HETATM    9  C9  UNL     1     -33.341  15.708  -3.725  1.00 20.00     0.015 C 
HETATM   10  N10 UNL     1     -38.395  13.991  -4.267  1.00 20.00    -0.192 NA
ENDROOT
BRANCH   6  11
HETATM   11  O11 UNL     1     -33.293  14.520  -6.612  1.00 20.00    -0.392 OA
HETATM   12  H24 UNL     1     -33.683  13.635  -6.677  1.00 20.00     0.210 HD
ENDBRANCH   6  11
TORSDOF 1
ENDMDL
MODEL 9
REMARK VINA RESULT:      -4.4     17.291     18.920
REMARK  1 active torsions:
REMARK  status: ('A' for Active; 'I' for Inactive)
REMARK    1  A    between atoms: C6_6  and  O11_11 
ROOT
HETATM    1  C1  UNL     1     -37.622  14.373  -4.469  1.00 20.00     0.095 C 
HETATM    2  C2  UNL     1     -35.394  14.642  -3.654  1.00 20.00     0.022 C 
HETATM    3  C3  UNL     1     -36.232  14.585  -4.703  1.00 20.00     0.021 C 
HETATM    4  C4  UNL     1     -35.748  14.749  -6.123  1.00 20.00     0.058 C 
HETATM    5  C5  UNL     1     -33.392  14.805  -5.222  1.00 20.00     0.045 C 
HETATM    6  C6  UNL     1     -33.911  14.841  -3.777  1.00 20.00     0.143 C 
HETATM    7  C7  UNL     1     -34.364  15.437  -6.247  1.00 20.00    -0.041 C 
HETATM    8  C8  UNL     1     -33.812  15.210  -7.668  1.00 20.00     0.015 C 
HETATM    9  C9  UNL     1     -34.497  16.957  -6.030  1.00 20.00     0.015 C 
HETATM   10  N10 UNL     1     -38.754  14.201  -4.279  1.00 20.00    -0.192 NA
ENDROOT
BRANCH   6  11
HETATM   11  O11 UNL     1     -33.553  16.088  -3.184  1.00 20.00    -0.392 OA
HETATM   12  H24 UNL     1     -32.629  16.254  -3.427  1.00 20.00     0.210 HD
ENDBRANCH   6  11
TORSDOF 1
ENDMDL
