MODEL 1
REMARK VINA RESULT:      -4.7      0.000      0.000
REMARK  4 active torsions:
REMARK  status: ('A' for Active; 'I' for Inactive)
REMARK    1  A    between atoms: C6_6  and  C10_10 
REMARK    2  A    between atoms: C7_7  and  C11_11 
REMARK    3  A    between atoms: C9_9  and  C11_11 
REMARK    4  A    between atoms: C11_11  and  O12_12 
ROOT
HETATM    1  C1  UNL     1     -34.181  17.540  -7.909  1.00 20.00     0.012 C 
HETATM    2  C2  UNL     1     -34.070  16.445  -7.430  1.00 20.00    -0.115 C 
HETATM    3  C9  UNL     1     -33.930  15.101  -6.846  1.00 20.00     0.125 C 
ENDROOT
BRANCH   3   4
HETATM    4  C11 UNL     1     -35.029  14.819  -5.817  1.00 20.00     0.133 C 
BRANCH   4   5
HETATM    5  C7  UNL     1     -34.438  14.340  -4.493  1.00 20.00     0.015 C 
HETATM    6  C4  UNL     1     -35.431  14.497  -3.337  1.00 20.00     0.007 C 
HETATM    7  C3  UNL     1     -35.097  15.824  -2.649  1.00 20.00     0.005 C 
HETATM    8  C6  UNL     1     -33.873  16.392  -3.372  1.00 20.00    -0.014 C 
HETATM    9  C5  UNL     1     -33.240  15.177  -4.048  1.00 20.00     0.012 C 
BRANCH   8  10
HETATM   10  C10 UNL     1     -32.915  17.122  -2.446  1.00 20.00     0.000 C 
HETATM   11  C8  UNL     1     -33.622  17.721  -1.270  1.00 20.00     0.005 C 
ENDBRANCH   8  10
ENDBRANCH   4   5
BRANCH   4  12
HETATM   12  O12 UNL     1     -35.885  13.799  -6.333  1.00 20.00    -0.394 OA
HETATM   13  H30 UNL     1     -35.755  13.792  -7.293  1.00 20.00     0.210 HD
ENDBRANCH   4  12
ENDBRANCH   3   4
TORSDOF 4
ENDMDL
MODEL 2
REMARK VINA RESULT:      -4.5      2.482      4.859
REMARK  4 active torsions:
REMARK  status: ('A' for Active; 'I' for Inactive)
REMARK    1  A    between atoms: C6_6  and  C10_10 
REMARK    2  A    between atoms: C7_7  and  C11_11 
REMARK    3  A    between atoms: C9_9  and  C11_11 
REMARK    4  A    between atoms: C11_11  and  O12_12 
ROOT
HETATM    1  C1  UNL     1     -31.405  18.365  -0.671  1.00 20.00     0.012 C 
HETATM    2  C2  UNL     1     -32.451  18.476  -1.250  1.00 20.00    -0.115 C 
HETATM    3  C9  UNL     1     -33.734  18.615  -1.958  1.00 20.00     0.125 C 
ENDROOT
BRANCH   3   4
HETATM    4  C11 UNL     1     -33.810  17.684  -3.173  1.00 20.00     0.133 C 
BRANCH   4   5
HETATM    5  C7  UNL     1     -33.694  16.219  -2.756  1.00 20.00     0.015 C 
HETATM    6  C4  UNL     1     -32.885  15.402  -3.768  1.00 20.00     0.007 C 
HETATM    7  C3  UNL     1     -33.898  14.733  -4.701  1.00 20.00     0.005 C 
HETATM    8  C6  UNL     1     -35.286  15.117  -4.182  1.00 20.00    -0.014 C 
HETATM    9  C5  UNL     1     -35.046  15.509  -2.725  1.00 20.00     0.012 C 
BRANCH   8  10
HETATM   10  C10 UNL     1     -36.312  14.006  -4.337  1.00 20.00     0.000 C 
HETATM   11  C8  UNL     1     -37.713  14.532  -4.311  1.00 20.00     0.005 C 
ENDBRANCH   8  10
ENDBRANCH   4   5
BRANCH   4  12
HETATM   12  O12 UNL     1     -32.731  17.997  -4.054  1.00 20.00    -0.394 OA
HETATM   13  H30 UNL     1     -32.484  18.916  -3.868  1.00 20.00     0.210 HD
ENDBRANCH   4  12
ENDBRANCH   3   4
TORSDOF 4
ENDMDL
MODEL 3
REMARK VINA RESULT:      -4.5      2.059      3.250
REMARK  4 active torsions:
REMARK  status: ('A' for Active; 'I' for Inactive)
REMARK    1  A    between atoms: C6_6  and  C10_10 
REMARK    2  A    between atoms: C7_7  and  C11_11 
REMARK    3  A    between atoms: C9_9  and  C11_11 
REMARK    4  A    between atoms: C11_11  and  O12_12 
ROOT
HETATM    1  C1  UNL     1     -37.045  14.281  -4.499  1.00 20.00     0.012 C 
HETATM    2  C2  UNL     1     -35.890  14.129  -4.206  1.00 20.00    -0.115 C 
HETATM    3  C9  UNL     1     -34.476  13.938  -3.846  1.00 20.00     0.125 C 
ENDROOT
BRANCH   3   4
HETATM    4  C11 UNL     1     -33.653  15.203  -4.113  1.00 20.00     0.133 C 
BRANCH   4   5
HETATM    5  C7  UNL     1     -34.386  16.453  -3.629  1.00 20.00     0.015 C 
HETATM    6  C4  UNL     1     -33.836  17.723  -4.284  1.00 20.00     0.007 C 
HETATM    7  C3  UNL     1     -32.821  18.319  -3.305  1.00 20.00     0.005 C 
HETATM    8  C6  UNL     1     -32.838  17.423  -2.064  1.00 20.00    -0.014 C 
HETATM    9  C5  UNL     1     -34.187  16.709  -2.136  1.00 20.00     0.012 C 
BRANCH   8  10
HETATM   10  C10 UNL     1     -32.642  18.191  -0.767  1.00 20.00     0.000 C 
HETATM   11  C8  UNL     1     -31.193  18.366  -0.435  1.00 20.00     0.005 C 
ENDBRANCH   8  10
ENDBRANCH   4   5
BRANCH   4  12
HETATM   12  O12 UNL     1     -33.434  15.315  -5.519  1.00 20.00    -0.394 OA
HETATM   13  H30 UNL     1     -33.756  14.490  -5.913  1.00 20.00     0.210 HD
ENDBRANCH   4  12
ENDBRANCH   3   4
TORSDOF 4
ENDMDL
MODEL 4
REMARK VINA RESULT:      -4.4      1.625      2.381
REMARK  4 active torsions:
REMARK  status: ('A' for Active; 'I' for Inactive)
REMARK    1  A    between atoms: C6_6  and  C10_10 
REMARK    2  A    between atoms: C7_7  and  C11_11 
REMARK    3  A    between atoms: C9_9  and  C11_11 
REMARK    4  A    between atoms: C11_11  and  O12_12 
ROOT
HETATM    1  C1  UNL     1     -34.011  15.149  -6.940  1.00 20.00     0.012 C 
HETATM    2  C2  UNL     1     -34.678  14.903  -5.971  1.00 20.00    -0.115 C 
HETATM    3  C9  UNL     1     -35.495  14.599  -4.786  1.00 20.00     0.125 C 
ENDROOT
BRANCH   3   4
HETATM    4  C11 UNL     1     -35.570  15.795  -3.832  1.00 20.00     0.133 C 
BRANCH   4   5
HETATM    5  C7  UNL     1     -34.593  15.639  -2.669  1.00 20.00     0.015 C 
HETATM    6  C4  UNL     1     -35.120  16.296  -1.390  1.00 20.00     0.007 C 
HETATM    7  C3  UNL     1     -34.492  17.691  -1.322  1.00 20.00     0.005 C 
HETATM    8  C6  UNL     1     -33.556  17.805  -2.529  1.00 20.00    -0.014 C 
HETATM    9  C5  UNL     1     -33.266  16.356  -2.916  1.00 20.00     0.012 C 
BRANCH   8  10
HETATM   10  C10 UNL     1     -32.298  18.605  -2.237  1.00 20.00     0.000 C 
HETATM   11  C8  UNL     1     -31.791  18.363  -0.850  1.00 20.00     0.005 C 
ENDBRANCH   8  10
ENDBRANCH   4   5
BRANCH   4  12
HETATM   12  O12 UNL     1     -36.895  15.880  -3.310  1.00 20.00    -0.394 OA
HETATM   13  H30 UNL     1     -37.277  14.992  -3.387  1.00 20.00     0.210 HD
ENDBRANCH   4  12
ENDBRANCH   3   4
TORSDOF 4
ENDMDL
MODEL 5
REMARK VINA RESULT:      -4.4      3.263      5.871
REMARK  4 active torsions:
REMARK  status: ('A' for Active; 'I' for Inactive)
REMARK    1  A    between atoms: C6_6  and  C10_10 
REMARK    2  A    between atoms: C7_7  and  C11_11 
REMARK    3  A    between atoms: C9_9  and  C11_11 
REMARK    4  A    between atoms: C11_11  and  O12_12 
ROOT
HETATM    1  C1  UNL     1     -30.437  18.851   1.391  1.00 20.00     0.012 C 
HETATM    2  C2  UNL     1     -31.042  18.635   0.377  1.00 20.00    -0.115 C 
HETATM    3  C9  UNL     1     -31.780  18.370  -0.869  1.00 20.00     0.125 C 
ENDROOT
BRANCH   3   4
HETATM    4  C11 UNL     1     -33.259  18.082  -0.596  1.00 20.00     0.133 C 
BRANCH   4   5
HETATM    5  C7  UNL     1     -34.072  18.083  -1.889  1.00 20.00     0.015 C 
HETATM    6  C4  UNL     1     -35.379  17.298  -1.740  1.00 20.00     0.007 C 
HETATM    7  C3  UNL     1     -35.109  15.889  -2.277  1.00 20.00     0.005 C 
HETATM    8  C6  UNL     1     -33.667  15.890  -2.791  1.00 20.00    -0.014 C 
HETATM    9  C5  UNL     1     -33.356  17.366  -3.033  1.00 20.00     0.012 C 
BRANCH   8  10
HETATM   10  C10 UNL     1     -33.472  15.032  -4.030  1.00 20.00     0.000 C 
HETATM   11  C8  UNL     1     -34.545  13.997  -4.167  1.00 20.00     0.005 C 
ENDBRANCH   8  10
ENDBRANCH   4   5
BRANCH   4  12
HETATM   12  O12 UNL     1     -33.769  19.099   0.267  1.00 20.00    -0.394 OA
HETATM   13  H30 UNL     1     -33.441  18.895   1.155  1.00 20.00     0.210 HD
ENDBRANCH   4  12
ENDBRANCH   3   4
TORSDOF 4
ENDMDL
MODEL 6
REMARK VINA RESULT:      -4.4      2.154      4.083
REMARK  4 active torsions:
REMARK  status: ('A' for Active; 'I' for Inactive)
REMARK    1  A    between atoms: C6_6  and  C10_10 
REMARK    2  A    between atoms: C7_7  and  C11_11 
REMARK    3  A    between atoms: C9_9  and  C11_11 
REMARK    4  A    between atoms: C11_11  and  O12_12 
ROOT
HETATM    1  C1  UNL     1     -33.254  16.612  -2.717  1.00 20.00     0.012 C 
HETATM    2  C2  UNL     1     -33.456  15.693  -3.463  1.00 20.00    -0.115 C 
HETATM    3  C9  UNL     1     -33.703  14.563  -4.373  1.00 20.00     0.125 C 
ENDROOT
BRANCH   3   4
HETATM    4  C11 UNL     1     -34.086  15.046  -5.776  1.00 20.00     0.133 C 
BRANCH   4   5
HETATM    5  C7  UNL     1     -35.485  14.569  -6.164  1.00 20.00     0.015 C 
HETATM    6  C4  UNL     1     -36.157  15.524  -7.154  1.00 20.00     0.007 C 
HETATM    7  C3  UNL     1     -37.044  16.460  -6.329  1.00 20.00     0.005 C 
HETATM    8  C6  UNL     1     -36.927  15.997  -4.874  1.00 20.00    -0.014 C 
HETATM    9  C5  UNL     1     -36.448  14.550  -4.978  1.00 20.00     0.012 C 
BRANCH   8  10
HETATM   10  C10 UNL     1     -38.224  16.139  -4.094  1.00 20.00     0.000 C 
HETATM   11  C8  UNL     1     -39.073  14.910  -4.194  1.00 20.00     0.005 C 
ENDBRANCH   8  10
ENDBRANCH   4   5
BRANCH   4  12
HETATM   12  O12 UNL     1     -33.146  14.518  -6.712  1.00 20.00    -0.394 OA
HETATM   13  H30 UNL     1     -32.727  15.281  -7.138  1.00 20.00     0.210 HD
ENDBRANCH   4  12
ENDBRANCH   3   4
TORSDOF 4
ENDMDL
MODEL 7
REMARK VINA RESULT:      -4.4      1.796      2.774
REMARK  4 active torsions:
REMARK  status: ('A' for Active; 'I' for Inactive)
REMARK    1  A    between atoms: C6_6  and  C10_10 
REMARK    2  A    between atoms: C7_7  and  C11_11 
REMARK    3  A    between atoms: C9_9  and  C11_11 
REMARK    4  A    between atoms: C11_11  and  O12_12 
ROOT
HETATM    1  C1  UNL     1     -35.908  14.819  -7.114  1.00 20.00     0.012 C 
HETATM    2  C2  UNL     1     -35.883  14.373  -5.999  1.00 20.00    -0.115 C 
HETATM    3  C9  UNL     1     -35.856  13.823  -4.634  1.00 20.00     0.125 C 
ENDROOT
BRANCH   3   4
HETATM    4  C11 UNL     1     -34.669  14.369  -3.833  1.00 20.00     0.133 C 
BRANCH   4   5
HETATM    5  C7  UNL     1     -34.621  15.895  -3.885  1.00 20.00     0.015 C 
HETATM    6  C4  UNL     1     -33.314  16.443  -3.303  1.00 20.00     0.007 C 
HETATM    7  C3  UNL     1     -33.603  16.813  -1.846  1.00 20.00     0.005 C 
HETATM    8  C6  UNL     1     -35.091  16.536  -1.615  1.00 20.00    -0.014 C 
HETATM    9  C5  UNL     1     -35.697  16.547  -3.017  1.00 20.00     0.012 C 
BRANCH   8  10
HETATM   10  C10 UNL     1     -35.748  17.535  -0.677  1.00 20.00     0.000 C 
HETATM   11  C8  UNL     1     -35.457  17.228   0.759  1.00 20.00     0.005 C 
ENDBRANCH   8  10
ENDBRANCH   4   5
BRANCH   4  12
HETATM   12  O12 UNL     1     -33.464  13.853  -4.395  1.00 20.00    -0.394 OA
HETATM   13  H30 UNL     1     -33.660  13.647  -5.321  1.00 20.00     0.210 HD
ENDBRANCH   4  12
ENDBRANCH   3   4
TORSDOF 4
ENDMDL
MODEL 8
REMARK VINA RESULT:      -4.2      2.324      4.943
REMARK  4 active torsions:
REMARK  status: ('A' for Active; 'I' for Inactive)
REMARK    1  A    between atoms: C6_6  and  C10_10 
REMARK    2  A    between atoms: C7_7  and  C11_11 
REMARK    3  A    between atoms: C9_9  and  C11_11 
REMARK    4  A    between atoms: C11_11  and  O12_12 
ROOT
HETATM    1  C1  UNL     1     -35.143  17.392   0.267  1.00 20.00     0.012 C 
HETATM    2  C2  UNL     1     -34.414  17.734  -0.625  1.00 20.00    -0.115 C 
HETATM    3  C9  UNL     1     -33.519  18.155  -1.715  1.00 20.00     0.125 C 
ENDROOT
BRANCH   3   4
HETATM    4  C11 UNL     1     -33.845  17.426  -3.022  1.00 20.00     0.133 C 
BRANCH   4   5
HETATM    5  C7  UNL     1     -33.779  15.911  -2.842  1.00 20.00     0.015 C 
HETATM    6  C4  UNL     1     -33.018  15.235  -3.987  1.00 20.00     0.007 C 
HETATM    7  C3  UNL     1     -34.070  14.757  -4.991  1.00 20.00     0.005 C 
HETATM    8  C6  UNL     1     -35.434  15.103  -4.389  1.00 20.00    -0.014 C 
HETATM    9  C5  UNL     1     -35.157  15.253  -2.894  1.00 20.00     0.012 C 
BRANCH   8  10
HETATM   10  C10 UNL     1     -36.504  14.068  -4.693  1.00 20.00     0.000 C 
HETATM   11  C8  UNL     1     -37.871  14.551  -4.321  1.00 20.00     0.005 C 
ENDBRANCH   8  10
ENDBRANCH   4   5
BRANCH   4  12
HETATM   12  O12 UNL     1     -32.889  17.813  -4.009  1.00 20.00    -0.394 OA
HETATM   13  H30 UNL     1     -32.182  17.152  -3.980  1.00 20.00     0.210 HD
ENDBRANCH   4  12
ENDBRANCH   3   4
TORSDOF 4
ENDMDL
MODEL 9
REMARK VINA RESULT:      -4.2     11.845     13.701
REMARK  4 active torsions:
REMARK  status: ('A' for Active; 'I' for Inactive)
REMARK    1  A    between atoms: C6_6  and  C10_10 
REMARK    2  A    between atoms: C7_7  and  C11_11 
REMARK    3  A    between atoms: C9_9  and  C11_11 
REMARK    4  A    between atoms: C11_11  and  O12_12 
ROOT
HETATM    1  C1  UNL     1     -43.329   1.802  -3.444  1.00 20.00     0.012 C 
HETATM    2  C2  UNL     1     -42.644   2.703  -3.041  1.00 20.00    -0.115 C 
HETATM    3  C9  UNL     1     -41.801   3.805  -2.550  1.00 20.00     0.125 C 
ENDROOT
BRANCH   3   4
HETATM    4  C11 UNL     1     -42.562   4.698  -1.565  1.00 20.00     0.133 C 
BRANCH   4   5
HETATM    5  C7  UNL     1     -41.602   5.492  -0.682  1.00 20.00     0.015 C 
HETATM    6  C4  UNL     1     -42.047   5.495   0.784  1.00 20.00     0.007 C 
HETATM    7  C3  UNL     1     -42.828   6.793   1.003  1.00 20.00     0.005 C 
HETATM    8  C6  UNL     1     -42.774   7.561  -0.320  1.00 20.00    -0.014 C 
HETATM    9  C5  UNL     1     -41.562   6.976  -1.044  1.00 20.00     0.012 C 
BRANCH   8  10
HETATM   10  C10 UNL     1     -42.686   9.067  -0.136  1.00 20.00     0.000 C 
HETATM   11  C8  UNL     1     -41.336   9.492   0.352  1.00 20.00     0.005 C 
ENDBRANCH   8  10
ENDBRANCH   4   5
BRANCH   4  12
HETATM   12  O12 UNL     1     -43.372   3.869  -0.732  1.00 20.00    -0.394 OA
HETATM   13  H30 UNL     1     -42.764   3.305  -0.232  1.00 20.00     0.210 HD
ENDBRANCH   4  12
ENDBRANCH   3   4
TORSDOF 4
ENDMDL
