MODEL 1
REMARK VINA RESULT:      -5.7      0.000      0.000
REMARK  2 active torsions:
REMARK  status: ('A' for Active; 'I' for Inactive)
REMARK    1  A    between atoms: C1_1  and  C7_7 
REMARK    2  A    between atoms: C6_6  and  C10_10 
ROOT
HETATM    1  C2  UNL     1     -33.154  15.505  -3.738  1.00 20.00     0.002 C 
HETATM    2  C3  UNL     1     -33.688  16.351  -2.585  1.00 20.00     0.005 C 
HETATM    3  C4  UNL     1     -34.114  14.372  -4.100  1.00 20.00     0.020 C 
HETATM    4  C5  UNL     1     -36.056  15.749  -3.238  1.00 20.00     0.025 C 
HETATM    5  C6  UNL     1     -35.094  16.894  -2.877  1.00 20.00    -0.014 C 
HETATM    6  C7  UNL     1     -35.531  14.881  -4.386  1.00 20.00     0.045 C 
HETATM    7  C8  UNL     1     -35.645  15.567  -5.746  1.00 20.00     0.027 C 
ENDROOT
BRANCH   6   8
HETATM    8  C1  UNL     1     -36.402  13.629  -4.463  1.00 20.00     0.181 C 
HETATM    9  O11 UNL     1     -35.773  12.535  -4.483  1.00 20.00    -0.647 OA
HETATM   10  O12 UNL     1     -37.645  13.850  -4.495  1.00 20.00    -0.647 OA
ENDBRANCH   6   8
BRANCH   5  11
HETATM   11  C10 UNL     1     -35.624  17.684  -1.681  1.00 20.00     0.000 C 
HETATM   12  C9  UNL     1     -35.327  16.994  -0.390  1.00 20.00     0.005 C 
ENDBRANCH   5  11
TORSDOF 2
ENDMDL
MODEL 2
REMARK VINA RESULT:      -5.2      0.727      1.356
REMARK  2 active torsions:
REMARK  status: ('A' for Active; 'I' for Inactive)
REMARK    1  A    between atoms: C1_1  and  C7_7 
REMARK    2  A    between atoms: C6_6  and  C10_10 
ROOT
HETATM    1  C2  UNL     1     -33.421  15.692  -3.375  1.00 20.00     0.002 C 
HETATM    2  C3  UNL     1     -34.158  16.607  -2.401  1.00 20.00     0.005 C 
HETATM    3  C4  UNL     1     -34.286  14.507  -3.802  1.00 20.00     0.020 C 
HETATM    4  C5  UNL     1     -36.369  15.886  -3.392  1.00 20.00     0.025 C 
HETATM    5  C6  UNL     1     -35.503  17.083  -2.967  1.00 20.00    -0.014 C 
HETATM    6  C7  UNL     1     -35.642  14.949  -4.362  1.00 20.00     0.045 C 
HETATM    7  C8  UNL     1     -35.535  15.526  -5.772  1.00 20.00     0.027 C 
ENDROOT
BRANCH   6   8
HETATM    8  C1  UNL     1     -36.466  13.670  -4.484  1.00 20.00     0.181 C 
HETATM    9  O11 UNL     1     -37.717  13.835  -4.511  1.00 20.00    -0.647 OA
HETATM   10  O12 UNL     1     -35.788  12.606  -4.544  1.00 20.00    -0.647 OA
ENDBRANCH   6   8
BRANCH   5  11
HETATM   11  C10 UNL     1     -36.241  17.946  -1.944  1.00 20.00     0.000 C 
HETATM   12  C9  UNL     1     -37.709  17.989  -2.216  1.00 20.00     0.005 C 
ENDBRANCH   5  11
TORSDOF 2
ENDMDL
MODEL 3
REMARK VINA RESULT:      -5.0      1.065      1.133
REMARK  2 active torsions:
REMARK  status: ('A' for Active; 'I' for Inactive)
REMARK    1  A    between atoms: C1_1  and  C7_7 
REMARK    2  A    between atoms: C6_6  and  C10_10 
ROOT
HETATM    1  C2  UNL     1     -33.649  16.026  -5.085  1.00 20.00     0.002 C 
HETATM    2  C3  UNL     1     -33.420  16.389  -3.621  1.00 20.00     0.005 C 
HETATM    3  C4  UNL     1     -34.596  14.836  -5.230  1.00 20.00     0.020 C 
HETATM    4  C5  UNL     1     -35.687  15.441  -3.027  1.00 20.00     0.025 C 
HETATM    5  C6  UNL     1     -34.740  16.643  -2.880  1.00 20.00    -0.014 C 
HETATM    6  C7  UNL     1     -35.921  15.053  -4.491  1.00 20.00     0.045 C 
HETATM    7  C8  UNL     1     -36.847  16.026  -5.219  1.00 20.00     0.027 C 
ENDROOT
BRANCH   6   8
HETATM    8  C1  UNL     1     -36.622  13.698  -4.511  1.00 20.00     0.181 C 
HETATM    9  O11 UNL     1     -35.861  12.698  -4.628  1.00 20.00    -0.647 OA
HETATM   10  O12 UNL     1     -37.880  13.750  -4.405  1.00 20.00    -0.647 OA
ENDBRANCH   6   8
BRANCH   5  11
HETATM   11  C10 UNL     1     -34.478  16.943  -1.404  1.00 20.00     0.000 C 
HETATM   12  C9  UNL     1     -33.327  17.878  -1.228  1.00 20.00     0.005 C 
ENDBRANCH   5  11
TORSDOF 2
ENDMDL
MODEL 4
REMARK VINA RESULT:      -4.9      1.185      1.438
REMARK  2 active torsions:
REMARK  status: ('A' for Active; 'I' for Inactive)
REMARK    1  A    between atoms: C1_1  and  C7_7 
REMARK    2  A    between atoms: C6_6  and  C10_10 
ROOT
HETATM    1  C2  UNL     1     -32.948  17.038  -3.272  1.00 20.00     0.002 C 
HETATM    2  C3  UNL     1     -33.430  17.201  -1.833  1.00 20.00     0.005 C 
HETATM    3  C4  UNL     1     -33.351  15.683  -3.852  1.00 20.00     0.020 C 
HETATM    4  C5  UNL     1     -35.340  15.609  -2.289  1.00 20.00     0.025 C 
HETATM    5  C6  UNL     1     -34.943  16.975  -1.706  1.00 20.00    -0.014 C 
HETATM    6  C7  UNL     1     -34.855  15.422  -3.730  1.00 20.00     0.045 C 
HETATM    7  C8  UNL     1     -35.675  16.226  -4.738  1.00 20.00     0.027 C 
ENDROOT
BRANCH   6   8
HETATM    8  C1  UNL     1     -35.042  13.953  -4.100  1.00 20.00     0.181 C 
HETATM    9  O11 UNL     1     -33.991  13.254  -4.084  1.00 20.00    -0.647 OA
HETATM   10  O12 UNL     1     -36.230  13.622  -4.374  1.00 20.00    -0.647 OA
ENDBRANCH   6   8
BRANCH   5  11
HETATM   11  C10 UNL     1     -35.381  17.085  -0.246  1.00 20.00     0.000 C 
HETATM   12  C9  UNL     1     -34.501  18.012   0.526  1.00 20.00     0.005 C 
ENDBRANCH   5  11
TORSDOF 2
ENDMDL
MODEL 5
REMARK VINA RESULT:      -4.8      1.475      2.050
REMARK  2 active torsions:
REMARK  status: ('A' for Active; 'I' for Inactive)
REMARK    1  A    between atoms: C1_1  and  C7_7 
REMARK    2  A    between atoms: C6_6  and  C10_10 
ROOT
HETATM    1  C2  UNL     1     -34.531  17.204  -5.119  1.00 20.00     0.002 C 
HETATM    2  C3  UNL     1     -33.888  17.623  -3.800  1.00 20.00     0.005 C 
HETATM    3  C4  UNL     1     -34.610  15.684  -5.250  1.00 20.00     0.020 C 
HETATM    4  C5  UNL     1     -34.675  15.473  -2.728  1.00 20.00     0.025 C 
HETATM    5  C6  UNL     1     -34.602  17.003  -2.591  1.00 20.00    -0.014 C 
HETATM    6  C7  UNL     1     -35.308  15.031  -4.052  1.00 20.00     0.045 C 
HETATM    7  C8  UNL     1     -36.823  15.227  -4.077  1.00 20.00     0.027 C 
ENDROOT
BRANCH   6   8
HETATM    8  C1  UNL     1     -35.066  13.532  -4.210  1.00 20.00     0.181 C 
HETATM    9  O11 UNL     1     -36.085  12.851  -4.512  1.00 20.00    -0.647 OA
HETATM   10  O12 UNL     1     -33.873  13.165  -4.018  1.00 20.00    -0.647 OA
ENDBRANCH   6   8
BRANCH   5  11
HETATM   11  C10 UNL     1     -33.897  17.393  -1.292  1.00 20.00     0.000 C 
HETATM   12  C9  UNL     1     -32.529  17.934  -1.549  1.00 20.00     0.005 C 
ENDBRANCH   5  11
TORSDOF 2
ENDMDL
MODEL 6
REMARK VINA RESULT:      -4.6      3.757      5.401
REMARK  2 active torsions:
REMARK  status: ('A' for Active; 'I' for Inactive)
REMARK    1  A    between atoms: C1_1  and  C7_7 
REMARK    2  A    between atoms: C6_6  and  C10_10 
ROOT
HETATM    1  C2  UNL     1     -35.605  16.781  -1.529  1.00 20.00     0.002 C 
HETATM    2  C3  UNL     1     -35.019  15.681  -2.409  1.00 20.00     0.005 C 
HETATM    3  C4  UNL     1     -34.527  17.469  -0.692  1.00 20.00     0.020 C 
HETATM    4  C5  UNL     1     -32.800  16.892  -2.450  1.00 20.00     0.025 C 
HETATM    5  C6  UNL     1     -33.882  16.204  -3.298  1.00 20.00    -0.014 C 
HETATM    6  C7  UNL     1     -33.371  17.993  -1.549  1.00 20.00     0.045 C 
HETATM    7  C8  UNL     1     -33.739  19.257  -2.323  1.00 20.00     0.027 C 
ENDROOT
BRANCH   6   8
HETATM    8  C1  UNL     1     -32.283  18.398  -0.558  1.00 20.00     0.181 C 
HETATM    9  O11 UNL     1     -31.168  18.692  -1.072  1.00 20.00    -0.647 OA
HETATM   10  O12 UNL     1     -32.639  18.389   0.653  1.00 20.00    -0.647 OA
ENDBRANCH   6   8
BRANCH   5  11
HETATM   11  C10 UNL     1     -33.277  15.066  -4.121  1.00 20.00     0.000 C 
HETATM   12  C9  UNL     1     -33.966  14.912  -5.437  1.00 20.00     0.005 C 
ENDBRANCH   5  11
TORSDOF 2
ENDMDL
MODEL 7
REMARK VINA RESULT:      -4.6     11.504     12.429
REMARK  2 active torsions:
REMARK  status: ('A' for Active; 'I' for Inactive)
REMARK    1  A    between atoms: C1_1  and  C7_7 
REMARK    2  A    between atoms: C6_6  and  C10_10 
ROOT
HETATM    1  C2  UNL     1     -33.676   4.072   2.614  1.00 20.00     0.002 C 
HETATM    2  C3  UNL     1     -32.722   5.149   2.105  1.00 20.00     0.005 C 
HETATM    3  C4  UNL     1     -34.009   4.266   4.092  1.00 20.00     0.020 C 
HETATM    4  C5  UNL     1     -33.592   6.752   3.856  1.00 20.00     0.025 C 
HETATM    5  C6  UNL     1     -33.261   6.563   2.366  1.00 20.00    -0.014 C 
HETATM    6  C7  UNL     1     -34.540   5.673   4.389  1.00 20.00     0.045 C 
HETATM    7  C8  UNL     1     -35.981   5.868   3.920  1.00 20.00     0.027 C 
ENDROOT
BRANCH   6   8
HETATM    8  C1  UNL     1     -34.566   5.783   5.911  1.00 20.00     0.181 C 
HETATM    9  O11 UNL     1     -34.954   4.747   6.520  1.00 20.00    -0.647 OA
HETATM   10  O12 UNL     1     -34.193   6.899   6.369  1.00 20.00    -0.647 OA
ENDBRANCH   6   8
BRANCH   5  11
HETATM   11  C10 UNL     1     -32.256   7.616   1.901  1.00 20.00     0.000 C 
HETATM   12  C9  UNL     1     -32.807   8.453   0.794  1.00 20.00     0.005 C 
ENDBRANCH   5  11
TORSDOF 2
ENDMDL
MODEL 8
REMARK VINA RESULT:      -4.6      1.354      2.137
REMARK  2 active torsions:
REMARK  status: ('A' for Active; 'I' for Inactive)
REMARK    1  A    between atoms: C1_1  and  C7_7 
REMARK    2  A    between atoms: C6_6  and  C10_10 
ROOT
HETATM    1  C2  UNL     1     -36.359  17.571  -4.891  1.00 20.00     0.002 C 
HETATM    2  C3  UNL     1     -35.444  17.705  -3.677  1.00 20.00     0.005 C 
HETATM    3  C4  UNL     1     -36.246  16.190  -5.534  1.00 20.00     0.020 C 
HETATM    4  C5  UNL     1     -35.576  15.209  -3.298  1.00 20.00     0.025 C 
HETATM    5  C6  UNL     1     -35.695  16.596  -2.646  1.00 20.00    -0.014 C 
HETATM    6  C7  UNL     1     -36.479  15.059  -4.527  1.00 20.00     0.045 C 
HETATM    7  C8  UNL     1     -37.953  14.894  -4.161  1.00 20.00     0.027 C 
ENDROOT
BRANCH   6   8
HETATM    8  C1  UNL     1     -36.072  13.780  -5.254  1.00 20.00     0.181 C 
HETATM    9  O11 UNL     1     -35.926  13.892  -6.503  1.00 20.00    -0.647 OA
HETATM   10  O12 UNL     1     -35.932  12.769  -4.510  1.00 20.00    -0.647 OA
ENDBRANCH   6   8
BRANCH   5  11
HETATM   11  C10 UNL     1     -34.722  16.723  -1.473  1.00 20.00     0.000 C 
HETATM   12  C9  UNL     1     -35.425  17.105  -0.213  1.00 20.00     0.005 C 
ENDBRANCH   5  11
TORSDOF 2
ENDMDL
MODEL 9
REMARK VINA RESULT:      -4.5      1.215      1.860
REMARK  2 active torsions:
REMARK  status: ('A' for Active; 'I' for Inactive)
REMARK    1  A    between atoms: C1_1  and  C7_7 
REMARK    2  A    between atoms: C6_6  and  C10_10 
ROOT
HETATM    1  C2  UNL     1     -33.808  14.885  -4.837  1.00 20.00     0.002 C 
HETATM    2  C3  UNL     1     -33.426  15.519  -3.502  1.00 20.00     0.005 C 
HETATM    3  C4  UNL     1     -35.258  14.404  -4.840  1.00 20.00     0.020 C 
HETATM    4  C5  UNL     1     -35.840  16.163  -3.114  1.00 20.00     0.025 C 
HETATM    5  C6  UNL     1     -34.383  16.654  -3.112  1.00 20.00    -0.014 C 
HETATM    6  C7  UNL     1     -36.239  15.513  -4.443  1.00 20.00     0.045 C 
HETATM    7  C8  UNL     1     -36.454  16.533  -5.559  1.00 20.00     0.027 C 
ENDROOT
BRANCH   6   8
HETATM    8  C1  UNL     1     -37.580  14.813  -4.237  1.00 20.00     0.181 C 
HETATM    9  O11 UNL     1     -38.540  15.569  -3.921  1.00 20.00    -0.647 OA
HETATM   10  O12 UNL     1     -37.557  13.562  -4.412  1.00 20.00    -0.647 OA
ENDBRANCH   6   8
BRANCH   5  11
HETATM   11  C10 UNL     1     -34.009  17.225  -1.745  1.00 20.00     0.000 C 
HETATM   12  C9  UNL     1     -32.609  17.744  -1.728  1.00 20.00     0.005 C 
ENDBRANCH   5  11
TORSDOF 2
ENDMDL
