MODEL 1
REMARK VINA RESULT:      -4.2      0.000      0.000
REMARK  1 active torsions:
REMARK  status: ('A' for Active; 'I' for Inactive)
REMARK    1  A    between atoms: C6_6  and  C8_8 
ROOT
HETATM    1  C1  UNL     1     -35.464  13.865  -4.291  1.00 20.00     0.069 C 
HETATM    2  C2  UNL     1     -33.452  15.206  -3.808  1.00 20.00     0.051 C 
HETATM    3  C3  UNL     1     -35.648  15.746  -2.709  1.00 20.00     0.051 C 
HETATM    4  C4  UNL     1     -32.918  16.505  -3.212  1.00 20.00     0.169 C 
HETATM    5  C5  UNL     1     -34.987  17.013  -2.177  1.00 20.00     0.169 C 
HETATM    6  C6  UNL     1     -34.982  15.236  -4.005  1.00 20.00     0.052 C 
HETATM    7  N9  UNL     1     -35.840  12.791  -4.516  1.00 20.00    -0.196 NA
HETATM    8  O10 UNL     1     -33.586  16.815  -1.991  1.00 20.00    -0.391 OA
ENDROOT
BRANCH   6   9
HETATM    9  C8  UNL     1     -35.359  16.133  -5.198  1.00 20.00     0.020 C 
HETATM   10  C7  UNL     1     -34.655  15.705  -6.439  1.00 20.00     0.007 C 
ENDBRANCH   6   9
TORSDOF 1
ENDMDL
MODEL 2
REMARK VINA RESULT:      -4.2      2.007      3.003
REMARK  1 active torsions:
REMARK  status: ('A' for Active; 'I' for Inactive)
REMARK    1  A    between atoms: C6_6  and  C8_8 
ROOT
HETATM    1  C1  UNL     1     -37.274  14.483  -4.507  1.00 20.00     0.069 C 
HETATM    2  C2  UNL     1     -35.573  14.791  -6.264  1.00 20.00     0.051 C 
HETATM    3  C3  UNL     1     -34.893  14.406  -3.875  1.00 20.00     0.051 C 
HETATM    4  C4  UNL     1     -34.105  15.084  -6.559  1.00 20.00     0.169 C 
HETATM    5  C5  UNL     1     -33.465  14.722  -4.307  1.00 20.00     0.169 C 
HETATM    6  C6  UNL     1     -35.944  15.068  -4.792  1.00 20.00     0.052 C 
HETATM    7  N9  UNL     1     -38.317  14.025  -4.284  1.00 20.00    -0.196 NA
HETATM    8  O10 UNL     1     -33.256  14.360  -5.671  1.00 20.00    -0.391 OA
ENDROOT
BRANCH   6   9
HETATM    9  C8  UNL     1     -36.021  16.582  -4.527  1.00 20.00     0.020 C 
HETATM   10  C7  UNL     1     -36.305  16.865  -3.093  1.00 20.00     0.007 C 
ENDBRANCH   6   9
TORSDOF 1
ENDMDL
MODEL 3
REMARK VINA RESULT:      -4.1      2.125      3.392
REMARK  1 active torsions:
REMARK  status: ('A' for Active; 'I' for Inactive)
REMARK    1  A    between atoms: C6_6  and  C8_8 
ROOT
HETATM    1  C1  UNL     1     -37.069  14.504  -4.541  1.00 20.00     0.069 C 
HETATM    2  C2  UNL     1     -35.927  16.637  -5.014  1.00 20.00     0.051 C 
HETATM    3  C3  UNL     1     -35.316  14.549  -6.272  1.00 20.00     0.051 C 
HETATM    4  C4  UNL     1     -34.725  17.302  -5.679  1.00 20.00     0.169 C 
HETATM    5  C5  UNL     1     -34.149  15.334  -6.864  1.00 20.00     0.169 C 
HETATM    6  C6  UNL     1     -35.766  15.106  -4.905  1.00 20.00     0.052 C 
HETATM    7  N9  UNL     1     -38.090  14.033  -4.254  1.00 20.00    -0.196 NA
HETATM    8  O10 UNL     1     -34.466  16.722  -6.955  1.00 20.00    -0.391 OA
ENDROOT
BRANCH   6   9
HETATM    9  C8  UNL     1     -34.749  14.743  -3.808  1.00 20.00     0.020 C 
HETATM   10  C7  UNL     1     -34.945  15.579  -2.592  1.00 20.00     0.007 C 
ENDBRANCH   6   9
TORSDOF 1
ENDMDL
MODEL 4
REMARK VINA RESULT:      -4.1      0.964      1.025
REMARK  1 active torsions:
REMARK  status: ('A' for Active; 'I' for Inactive)
REMARK    1  A    between atoms: C6_6  and  C8_8 
ROOT
HETATM    1  C1  UNL     1     -34.700  14.386  -3.783  1.00 20.00     0.069 C 
HETATM    2  C2  UNL     1     -33.055  16.162  -3.316  1.00 20.00     0.051 C 
HETATM    3  C3  UNL     1     -35.192  16.016  -2.001  1.00 20.00     0.051 C 
HETATM    4  C4  UNL     1     -32.809  17.502  -2.630  1.00 20.00     0.169 C 
HETATM    5  C5  UNL     1     -34.823  17.364  -1.391  1.00 20.00     0.169 C 
HETATM    6  C6  UNL     1     -34.555  15.807  -3.391  1.00 20.00     0.052 C 
HETATM    7  N9  UNL     1     -34.813  13.273  -4.090  1.00 20.00    -0.196 NA
HETATM    8  O10 UNL     1     -33.407  17.525  -1.335  1.00 20.00    -0.391 OA
ENDROOT
BRANCH   6   9
HETATM    9  C8  UNL     1     -35.266  16.668  -4.451  1.00 20.00     0.020 C 
HETATM   10  C7  UNL     1     -34.654  16.485  -5.795  1.00 20.00     0.007 C 
ENDBRANCH   6   9
TORSDOF 1
ENDMDL
MODEL 5
REMARK VINA RESULT:      -4.0      2.265      3.510
REMARK  1 active torsions:
REMARK  status: ('A' for Active; 'I' for Inactive)
REMARK    1  A    between atoms: C6_6  and  C8_8 
ROOT
HETATM    1  C1  UNL     1     -33.650  14.480  -4.342  1.00 20.00     0.069 C 
HETATM    2  C2  UNL     1     -36.044  13.893  -4.307  1.00 20.00     0.051 C 
HETATM    3  C3  UNL     1     -35.289  16.152  -5.112  1.00 20.00     0.051 C 
HETATM    4  C4  UNL     1     -37.472  14.425  -4.381  1.00 20.00     0.169 C 
HETATM    5  C5  UNL     1     -36.760  16.552  -5.139  1.00 20.00     0.169 C 
HETATM    6  C6  UNL     1     -35.008  15.019  -4.102  1.00 20.00     0.052 C 
HETATM    7  N9  UNL     1     -32.586  14.057  -4.530  1.00 20.00    -0.196 NA
HETATM    8  O10 UNL     1     -37.590  15.421  -5.394  1.00 20.00    -0.391 OA
ENDROOT
BRANCH   6   9
HETATM    9  C8  UNL     1     -35.061  15.550  -2.659  1.00 20.00     0.020 C 
HETATM   10  C7  UNL     1     -33.947  16.500  -2.391  1.00 20.00     0.007 C 
ENDBRANCH   6   9
TORSDOF 1
ENDMDL
MODEL 6
REMARK VINA RESULT:      -4.0      1.269      1.601
REMARK  1 active torsions:
REMARK  status: ('A' for Active; 'I' for Inactive)
REMARK    1  A    between atoms: C6_6  and  C8_8 
ROOT
HETATM    1  C1  UNL     1     -36.254  14.448  -4.370  1.00 20.00     0.069 C 
HETATM    2  C2  UNL     1     -34.783  15.471  -2.678  1.00 20.00     0.051 C 
HETATM    3  C3  UNL     1     -35.524  16.779  -4.692  1.00 20.00     0.051 C 
HETATM    4  C4  UNL     1     -33.841  16.629  -2.362  1.00 20.00     0.169 C 
HETATM    5  C5  UNL     1     -34.539  17.861  -4.261  1.00 20.00     0.169 C 
HETATM    6  C6  UNL     1     -35.119  15.380  -4.181  1.00 20.00     0.052 C 
HETATM    7  N9  UNL     1     -37.142  13.716  -4.518  1.00 20.00    -0.196 NA
HETATM    8  O10 UNL     1     -34.374  17.861  -2.844  1.00 20.00    -0.391 OA
ENDROOT
BRANCH   6   9
HETATM    9  C8  UNL     1     -33.918  14.837  -4.975  1.00 20.00     0.020 C 
HETATM   10  C7  UNL     1     -34.130  14.982  -6.442  1.00 20.00     0.007 C 
ENDBRANCH   6   9
TORSDOF 1
ENDMDL
MODEL 7
REMARK VINA RESULT:      -4.0      0.986      1.017
REMARK  1 active torsions:
REMARK  status: ('A' for Active; 'I' for Inactive)
REMARK    1  A    between atoms: C6_6  and  C8_8 
ROOT
HETATM    1  C1  UNL     1     -36.676  14.436  -4.334  1.00 20.00     0.069 C 
HETATM    2  C2  UNL     1     -34.254  14.658  -3.931  1.00 20.00     0.051 C 
HETATM    3  C3  UNL     1     -35.851  16.435  -3.151  1.00 20.00     0.051 C 
HETATM    4  C4  UNL     1     -33.124  15.606  -3.542  1.00 20.00     0.169 C 
HETATM    5  C5  UNL     1     -34.629  17.280  -2.807  1.00 20.00     0.169 C 
HETATM    6  C6  UNL     1     -35.560  15.408  -4.266  1.00 20.00     0.052 C 
HETATM    7  N9  UNL     1     -37.549  13.674  -4.388  1.00 20.00    -0.196 NA
HETATM    8  O10 UNL     1     -33.520  16.451  -2.464  1.00 20.00    -0.391 OA
ENDROOT
BRANCH   6   9
HETATM    9  C8  UNL     1     -35.452  16.105  -5.633  1.00 20.00     0.020 C 
HETATM   10  C7  UNL     1     -35.107  15.136  -6.709  1.00 20.00     0.007 C 
ENDBRANCH   6   9
TORSDOF 1
ENDMDL
MODEL 8
REMARK VINA RESULT:      -4.0      1.345      1.921
REMARK  1 active torsions:
REMARK  status: ('A' for Active; 'I' for Inactive)
REMARK    1  A    between atoms: C6_6  and  C8_8 
ROOT
HETATM    1  C1  UNL     1     -35.754  13.928  -4.269  1.00 20.00     0.069 C 
HETATM    2  C2  UNL     1     -35.035  15.539  -2.548  1.00 20.00     0.051 C 
HETATM    3  C3  UNL     1     -36.380  16.297  -4.532  1.00 20.00     0.051 C 
HETATM    4  C4  UNL     1     -34.850  17.014  -2.202  1.00 20.00     0.169 C 
HETATM    5  C5  UNL     1     -36.117  17.727  -4.071  1.00 20.00     0.169 C 
HETATM    6  C6  UNL     1     -35.288  15.317  -4.054  1.00 20.00     0.052 C 
HETATM    7  N9  UNL     1     -36.119  12.839  -4.437  1.00 20.00    -0.196 NA
HETATM    8  O10 UNL     1     -35.962  17.783  -2.655  1.00 20.00    -0.391 OA
ENDROOT
BRANCH   6   9
HETATM    9  C8  UNL     1     -33.990  15.514  -4.858  1.00 20.00     0.020 C 
HETATM   10  C7  UNL     1     -32.915  14.600  -4.382  1.00 20.00     0.007 C 
ENDBRANCH   6   9
TORSDOF 1
ENDMDL
MODEL 9
REMARK VINA RESULT:      -3.9      2.665      3.720
REMARK  1 active torsions:
REMARK  status: ('A' for Active; 'I' for Inactive)
REMARK    1  A    between atoms: C6_6  and  C8_8 
ROOT
HETATM    1  C1  UNL     1     -36.053  17.150  -3.343  1.00 20.00     0.069 C 
HETATM    2  C2  UNL     1     -35.035  16.136  -5.346  1.00 20.00     0.051 C 
HETATM    3  C3  UNL     1     -36.652  14.832  -3.931  1.00 20.00     0.051 C 
HETATM    4  C4  UNL     1     -34.761  14.839  -6.101  1.00 20.00     0.169 C 
HETATM    5  C5  UNL     1     -36.285  13.611  -4.767  1.00 20.00     0.169 C 
HETATM    6  C6  UNL     1     -35.524  15.886  -3.904  1.00 20.00     0.052 C 
HETATM    7  N9  UNL     1     -36.467  18.141  -2.903  1.00 20.00    -0.196 NA
HETATM    8  O10 UNL     1     -35.910  13.994  -6.089  1.00 20.00    -0.391 OA
ENDROOT
BRANCH   6   9
HETATM    9  C8  UNL     1     -34.363  15.416  -3.010  1.00 20.00     0.020 C 
HETATM   10  C7  UNL     1     -33.231  16.383  -3.042  1.00 20.00     0.007 C 
ENDBRANCH   6   9
TORSDOF 1
ENDMDL
