MODEL 1
REMARK VINA RESULT:      -4.6      0.000      0.000
REMARK  2 active torsions:
REMARK  status: ('A' for Active; 'I' for Inactive)
REMARK    1  A    between atoms: C9_9  and  C10_10 
REMARK    2  A    between atoms: C9_9  and  N11_11 
ROOT
HETATM    1  C1  UNL     1     -34.359   6.747   6.471  1.00 20.00     0.002 C 
HETATM    2  C2  UNL     1     -33.448   4.125   2.531  1.00 20.00     0.028 C 
HETATM    3  C3  UNL     1     -34.890   5.414   5.914  1.00 20.00     0.007 C 
HETATM    4  C4  UNL     1     -34.470   4.172   3.671  1.00 20.00     0.008 C 
HETATM    5  C5  UNL     1     -33.385   7.304   5.418  1.00 20.00     0.034 C 
HETATM    6  C6  UNL     1     -33.083   5.512   1.996  1.00 20.00     0.235 C 
HETATM    7  C7  UNL     1     -33.963   5.117   4.743  1.00 20.00     0.016 C 
HETATM    8  C8  UNL     1     -33.732   6.509   4.171  1.00 20.00     0.192 C 
HETATM    9  N11 UNL     1     -32.659   6.435   3.130  1.00 20.00    -0.065 N 
HETATM   10  H31 UNL     1     -31.821   6.023   3.562  1.00 20.00     0.280 HD
ENDROOT
BRANCH   9  11
HETATM   11  C9  UNL     1     -32.255   7.785   2.601  1.00 20.00     0.250 C 
BRANCH  11  12
HETATM   12  C10 UNL     1     -32.535   7.866   1.112  1.00 20.00     0.142 C 
HETATM   13 CL12 UNL     1     -32.930   9.529   0.611  1.00 20.00    -0.129 Cl
ENDBRANCH  11  12
ENDBRANCH   9  11
TORSDOF 2
ENDMDL
MODEL 2
REMARK VINA RESULT:      -4.6     15.874     16.845
REMARK  2 active torsions:
REMARK  status: ('A' for Active; 'I' for Inactive)
REMARK    1  A    between atoms: C9_9  and  C10_10 
REMARK    2  A    between atoms: C9_9  and  N11_11 
ROOT
HETATM    1  C1  UNL     1     -21.299  17.387   9.224  1.00 20.00     0.002 C 
HETATM    2  C2  UNL     1     -25.708  19.263   8.708  1.00 20.00     0.028 C 
HETATM    3  C3  UNL     1     -22.230  17.646   8.026  1.00 20.00     0.007 C 
HETATM    4  C4  UNL     1     -24.681  18.492   7.873  1.00 20.00     0.008 C 
HETATM    5  C5  UNL     1     -22.087  17.789  10.484  1.00 20.00     0.034 C 
HETATM    6  C6  UNL     1     -25.826  18.744  10.142  1.00 20.00     0.235 C 
HETATM    7  C7  UNL     1     -23.360  18.474   8.619  1.00 20.00     0.016 C 
HETATM    8  C8  UNL     1     -23.523  17.839   9.992  1.00 20.00     0.192 C 
HETATM    9  N11 UNL     1     -24.459  18.676  10.808  1.00 20.00    -0.065 N 
HETATM   10  H31 UNL     1     -24.086  19.635  10.840  1.00 20.00     0.280 HD
ENDROOT
BRANCH   9  11
HETATM   11  C9  UNL     1     -24.578  18.210  12.234  1.00 20.00     0.250 C 
BRANCH  11  12
HETATM   12  C10 UNL     1     -25.497  17.006  12.314  1.00 20.00     0.142 C 
HETATM   13 CL12 UNL     1     -24.677  15.519  11.778  1.00 20.00    -0.129 Cl
ENDBRANCH  11  12
ENDBRANCH   9  11
TORSDOF 2
ENDMDL
MODEL 3
REMARK VINA RESULT:      -4.5     15.181     16.575
REMARK  2 active torsions:
REMARK  status: ('A' for Active; 'I' for Inactive)
REMARK    1  A    between atoms: C9_9  and  C10_10 
REMARK    2  A    between atoms: C9_9  and  N11_11 
ROOT
HETATM    1  C1  UNL     1     -21.560  17.625  10.187  1.00 20.00     0.002 C 
HETATM    2  C2  UNL     1     -26.081  18.493  11.614  1.00 20.00     0.028 C 
HETATM    3  C3  UNL     1     -22.257  17.750  11.554  1.00 20.00     0.007 C 
HETATM    4  C4  UNL     1     -24.677  18.414  12.222  1.00 20.00     0.008 C 
HETATM    5  C5  UNL     1     -22.627  17.936   9.123  1.00 20.00     0.034 C 
HETATM    6  C6  UNL     1     -26.107  19.204  10.259  1.00 20.00     0.235 C 
HETATM    7  C7  UNL     1     -23.736  17.803  11.202  1.00 20.00     0.016 C 
HETATM    8  C8  UNL     1     -23.721  18.625   9.920  1.00 20.00     0.192 C 
HETATM    9  N11 UNL     1     -25.086  18.596   9.308  1.00 20.00    -0.065 N 
HETATM   10  H31 UNL     1     -25.352  17.612   9.163  1.00 20.00     0.280 HD
ENDROOT
BRANCH   9  11
HETATM   11  C9  UNL     1     -25.143  19.263   7.960  1.00 20.00     0.250 C 
BRANCH  11  12
HETATM   12  C10 UNL     1     -26.511  19.062   7.336  1.00 20.00     0.142 C 
HETATM   13 CL12 UNL     1     -26.396  18.788   5.580  1.00 20.00    -0.129 Cl
ENDBRANCH  11  12
ENDBRANCH   9  11
TORSDOF 2
ENDMDL
MODEL 4
REMARK VINA RESULT:      -4.3     11.894     12.579
REMARK  2 active torsions:
REMARK  status: ('A' for Active; 'I' for Inactive)
REMARK    1  A    between atoms: C9_9  and  C10_10 
REMARK    2  A    between atoms: C9_9  and  N11_11 
ROOT
HETATM    1  C1  UNL     1     -33.387  16.614  -2.436  1.00 20.00     0.002 C 
HETATM    2  C2  UNL     1     -36.770  14.050  -4.717  1.00 20.00     0.028 C 
HETATM    3  C3  UNL     1     -34.864  16.284  -2.156  1.00 20.00     0.007 C 
HETATM    4  C4  UNL     1     -36.666  15.042  -3.554  1.00 20.00     0.008 C 
HETATM    5  C5  UNL     1     -33.052  15.996  -3.805  1.00 20.00     0.034 C 
HETATM    6  C6  UNL     1     -35.904  14.440  -5.916  1.00 20.00     0.235 C 
HETATM    7  C7  UNL     1     -35.204  15.234  -3.204  1.00 20.00     0.016 C 
HETATM    8  C8  UNL     1     -34.421  15.735  -4.410  1.00 20.00     0.192 C 
HETATM    9  N11 UNL     1     -34.466  14.695  -5.486  1.00 20.00    -0.065 N 
HETATM   10  H31 UNL     1     -34.103  13.815  -5.096  1.00 20.00     0.280 HD
ENDROOT
BRANCH   9  11
HETATM   11  C9  UNL     1     -33.602  15.034  -6.671  1.00 20.00     0.250 C 
BRANCH  11  12
HETATM   12  C10 UNL     1     -34.409  15.799  -7.703  1.00 20.00     0.142 C 
HETATM   13 CL12 UNL     1     -34.112  17.551  -7.596  1.00 20.00    -0.129 Cl
ENDBRANCH  11  12
ENDBRANCH   9  11
TORSDOF 2
ENDMDL
MODEL 5
REMARK VINA RESULT:      -4.2     15.749     16.304
REMARK  2 active torsions:
REMARK  status: ('A' for Active; 'I' for Inactive)
REMARK    1  A    between atoms: C9_9  and  C10_10 
REMARK    2  A    between atoms: C9_9  and  N11_11 
ROOT
HETATM    1  C1  UNL     1     -26.489  18.816  11.866  1.00 20.00     0.002 C 
HETATM    2  C2  UNL     1     -22.237  17.931   9.777  1.00 20.00     0.028 C 
HETATM    3  C3  UNL     1     -25.187  18.128  12.315  1.00 20.00     0.007 C 
HETATM    4  C4  UNL     1     -23.004  17.530  11.041  1.00 20.00     0.008 C 
HETATM    5  C5  UNL     1     -26.295  19.198  10.388  1.00 20.00     0.034 C 
HETATM    6  C6  UNL     1     -23.121  17.979   8.530  1.00 20.00     0.235 C 
HETATM    7  C7  UNL     1     -24.209  18.438  11.191  1.00 20.00     0.016 C 
HETATM    8  C8  UNL     1     -25.108  18.349   9.965  1.00 20.00     0.192 C 
HETATM    9  N11 UNL     1     -24.352  18.841   8.770  1.00 20.00    -0.065 N 
HETATM   10  H31 UNL     1     -24.022  19.796   8.970  1.00 20.00     0.280 HD
ENDROOT
BRANCH   9  11
HETATM   11  C9  UNL     1     -25.199  18.928   7.529  1.00 20.00     0.250 C 
BRANCH  11  12
HETATM   12  C10 UNL     1     -24.329  19.230   6.324  1.00 20.00     0.142 C 
HETATM   13 CL12 UNL     1     -25.281  19.259   4.820  1.00 20.00    -0.129 Cl
ENDBRANCH  11  12
ENDBRANCH   9  11
TORSDOF 2
ENDMDL
MODEL 6
REMARK VINA RESULT:      -4.2     11.498     12.770
REMARK  2 active torsions:
REMARK  status: ('A' for Active; 'I' for Inactive)
REMARK    1  A    between atoms: C9_9  and  C10_10 
REMARK    2  A    between atoms: C9_9  and  N11_11 
ROOT
HETATM    1  C1  UNL     1     -36.094  13.671  -4.643  1.00 20.00     0.002 C 
HETATM    2  C2  UNL     1     -34.812  17.137  -1.549  1.00 20.00     0.028 C 
HETATM    3  C3  UNL     1     -34.776  14.073  -3.956  1.00 20.00     0.007 C 
HETATM    4  C4  UNL     1     -34.144  16.087  -2.443  1.00 20.00     0.008 C 
HETATM    5  C5  UNL     1     -37.140  14.721  -4.229  1.00 20.00     0.034 C 
HETATM    6  C6  UNL     1     -35.997  17.832  -2.223  1.00 20.00     0.235 C 
HETATM    7  C7  UNL     1     -35.204  15.124  -2.942  1.00 20.00     0.016 C 
HETATM    8  C8  UNL     1     -36.292  15.867  -3.705  1.00 20.00     0.192 C 
HETATM    9  N11 UNL     1     -36.983  16.811  -2.772  1.00 20.00    -0.065 N 
HETATM   10  H31 UNL     1     -37.338  16.269  -1.972  1.00 20.00     0.280 HD
ENDROOT
BRANCH   9  11
HETATM   11  C9  UNL     1     -38.172  17.492  -3.394  1.00 20.00     0.250 C 
BRANCH  11  12
HETATM   12  C10 UNL     1     -39.388  17.338  -2.500  1.00 20.00     0.142 C 
HETATM   13 CL12 UNL     1     -40.378  15.937  -2.979  1.00 20.00    -0.129 Cl
ENDBRANCH  11  12
ENDBRANCH   9  11
TORSDOF 2
ENDMDL
MODEL 7
REMARK VINA RESULT:      -4.1     11.570     12.781
REMARK  2 active torsions:
REMARK  status: ('A' for Active; 'I' for Inactive)
REMARK    1  A    between atoms: C9_9  and  C10_10 
REMARK    2  A    between atoms: C9_9  and  N11_11 
ROOT
HETATM    1  C1  UNL     1     -35.939  13.782  -4.566  1.00 20.00     0.002 C 
HETATM    2  C2  UNL     1     -34.435  17.227  -1.549  1.00 20.00     0.028 C 
HETATM    3  C3  UNL     1     -34.566  14.216  -4.020  1.00 20.00     0.007 C 
HETATM    4  C4  UNL     1     -33.837  16.220  -2.537  1.00 20.00     0.008 C 
HETATM    5  C5  UNL     1     -36.966  14.785  -4.014  1.00 20.00     0.034 C 
HETATM    6  C6  UNL     1     -35.710  17.893  -2.071  1.00 20.00     0.235 C 
HETATM    7  C7  UNL     1     -34.913  15.231  -2.939  1.00 20.00     0.016 C 
HETATM    8  C8  UNL     1     -36.104  15.949  -3.559  1.00 20.00     0.192 C 
HETATM    9  N11 UNL     1     -36.717  16.849  -2.532  1.00 20.00    -0.065 N 
HETATM   10  H31 UNL     1     -36.963  16.278  -1.711  1.00 20.00     0.280 HD
ENDROOT
BRANCH   9  11
HETATM   11  C9  UNL     1     -37.990  17.500  -3.002  1.00 20.00     0.250 C 
BRANCH  11  12
HETATM   12  C10 UNL     1     -38.394  18.606  -2.045  1.00 20.00     0.142 C 
HETATM   13 CL12 UNL     1     -39.101  17.949  -0.548  1.00 20.00    -0.129 Cl
ENDBRANCH  11  12
ENDBRANCH   9  11
TORSDOF 2
ENDMDL
MODEL 8
REMARK VINA RESULT:      -4.1     11.631     12.874
REMARK  2 active torsions:
REMARK  status: ('A' for Active; 'I' for Inactive)
REMARK    1  A    between atoms: C9_9  and  C10_10 
REMARK    2  A    between atoms: C9_9  and  N11_11 
ROOT
HETATM    1  C1  UNL     1     -36.170  13.658  -4.701  1.00 20.00     0.002 C 
HETATM    2  C2  UNL     1     -34.635  17.001  -1.587  1.00 20.00     0.028 C 
HETATM    3  C3  UNL     1     -34.802  14.029  -4.101  1.00 20.00     0.007 C 
HETATM    4  C4  UNL     1     -34.044  15.983  -2.567  1.00 20.00     0.008 C 
HETATM    5  C5  UNL     1     -37.175  14.696  -4.171  1.00 20.00     0.034 C 
HETATM    6  C6  UNL     1     -35.863  17.725  -2.144  1.00 20.00     0.235 C 
HETATM    7  C7  UNL     1     -35.144  15.044  -3.020  1.00 20.00     0.016 C 
HETATM    8  C8  UNL     1     -36.282  15.818  -3.671  1.00 20.00     0.192 C 
HETATM    9  N11 UNL     1     -36.895  16.729  -2.654  1.00 20.00    -0.065 N 
HETATM   10  H31 UNL     1     -37.192  16.160  -1.850  1.00 20.00     0.280 HD
ENDROOT
BRANCH   9  11
HETATM   11  C9  UNL     1     -38.122  17.439  -3.159  1.00 20.00     0.250 C 
BRANCH  11  12
HETATM   12  C10 UNL     1     -37.744  18.421  -4.251  1.00 20.00     0.142 C 
HETATM   13 CL12 UNL     1     -38.315  17.877  -5.848  1.00 20.00    -0.129 Cl
ENDBRANCH  11  12
ENDBRANCH   9  11
TORSDOF 2
ENDMDL
MODEL 9
REMARK VINA RESULT:      -4.1     11.860     12.524
REMARK  2 active torsions:
REMARK  status: ('A' for Active; 'I' for Inactive)
REMARK    1  A    between atoms: C9_9  and  C10_10 
REMARK    2  A    between atoms: C9_9  and  N11_11 
ROOT
HETATM    1  C1  UNL     1     -30.479  18.836   1.075  1.00 20.00     0.002 C 
HETATM    2  C2  UNL     1     -35.171  17.736   1.167  1.00 20.00     0.028 C 
HETATM    3  C3  UNL     1     -31.591  18.932   2.135  1.00 20.00     0.007 C 
HETATM    4  C4  UNL     1     -34.148  18.489   2.024  1.00 20.00     0.008 C 
HETATM    5  C5  UNL     1     -31.149  18.331  -0.215  1.00 20.00     0.034 C 
HETATM    6  C6  UNL     1     -35.007  18.001  -0.331  1.00 20.00     0.235 C 
HETATM    7  C7  UNL     1     -32.756  18.182   1.506  1.00 20.00     0.016 C 
HETATM    8  C8  UNL     1     -32.625  18.578   0.042  1.00 20.00     0.192 C 
HETATM    9  N11 UNL     1     -33.571  17.752  -0.772  1.00 20.00    -0.065 N 
HETATM   10  H31 UNL     1     -33.366  16.759  -0.594  1.00 20.00     0.280 HD
ENDROOT
BRANCH   9  11
HETATM   11  C9  UNL     1     -33.419  17.966  -2.254  1.00 20.00     0.250 C 
BRANCH  11  12
HETATM   12  C10 UNL     1     -33.116  16.649  -2.943  1.00 20.00     0.142 C 
HETATM   13 CL12 UNL     1     -34.466  15.500  -2.781  1.00 20.00    -0.129 Cl
ENDBRANCH  11  12
ENDBRANCH   9  11
TORSDOF 2
ENDMDL
