MODEL 1
REMARK VINA RESULT:      -4.1      0.000      0.000
REMARK  0 active torsions:
REMARK  status: ('A' for Active; 'I' for Inactive)
ROOT
HETATM    1  C1  UNL     1     -36.357  14.367  -4.232  1.00 20.00     0.071 C 
HETATM    2  C2  UNL     1     -34.987  16.256  -5.034  1.00 20.00     0.052 C 
HETATM    3  C3  UNL     1     -34.387  15.527  -6.221  1.00 20.00     0.169 C 
HETATM    4  C4  UNL     1     -33.889  14.311  -4.291  1.00 20.00     0.192 C 
HETATM    5  C5  UNL     1     -35.128  15.154  -3.995  1.00 20.00     0.069 C 
HETATM    6  C6  UNL     1     -35.140  15.688  -2.565  1.00 20.00     0.033 C 
HETATM    7  N7  UNL     1     -37.322  13.750  -4.419  1.00 20.00    -0.196 NA
HETATM    8  O8  UNL     1     -33.621  14.433  -5.699  1.00 20.00    -0.389 OA
ENDROOT
TORSDOF 0
ENDMDL
MODEL 2
REMARK VINA RESULT:      -4.0      1.616      2.540
REMARK  0 active torsions:
REMARK  status: ('A' for Active; 'I' for Inactive)
ROOT
HETATM    1  C1  UNL     1     -35.276  13.815  -4.310  1.00 20.00     0.071 C 
HETATM    2  C2  UNL     1     -34.637  15.574  -2.702  1.00 20.00     0.052 C 
HETATM    3  C3  UNL     1     -35.876  16.428  -2.898  1.00 20.00     0.169 C 
HETATM    4  C4  UNL     1     -34.843  16.153  -4.974  1.00 20.00     0.192 C 
HETATM    5  C5  UNL     1     -34.406  14.989  -4.086  1.00 20.00     0.069 C 
HETATM    6  C6  UNL     1     -32.952  14.591  -4.325  1.00 20.00     0.033 C 
HETATM    7  N7  UNL     1     -35.960  12.893  -4.484  1.00 20.00    -0.196 NA
HETATM    8  O8  UNL     1     -35.875  16.861  -4.265  1.00 20.00    -0.389 OA
ENDROOT
TORSDOF 0
ENDMDL
MODEL 3
REMARK VINA RESULT:      -3.8     18.698     19.362
REMARK  0 active torsions:
REMARK  status: ('A' for Active; 'I' for Inactive)
ROOT
HETATM    1  C1  UNL     1     -22.712  17.522  11.663  1.00 20.00     0.071 C 
HETATM    2  C2  UNL     1     -23.367  16.785   9.401  1.00 20.00     0.052 C 
HETATM    3  C3  UNL     1     -23.289  18.157   8.758  1.00 20.00     0.169 C 
HETATM    4  C4  UNL     1     -24.782  18.275  10.549  1.00 20.00     0.192 C 
HETATM    5  C5  UNL     1     -23.843  17.100  10.811  1.00 20.00     0.069 C 
HETATM    6  C6  UNL     1     -24.557  15.922  11.469  1.00 20.00     0.033 C 
HETATM    7  N7  UNL     1     -21.822  17.854  12.332  1.00 20.00    -0.196 NA
HETATM    8  O8  UNL     1     -24.266  18.981   9.407  1.00 20.00    -0.389 OA
ENDROOT
TORSDOF 0
ENDMDL
MODEL 4
REMARK VINA RESULT:      -3.7     18.484     19.462
REMARK  0 active torsions:
REMARK  status: ('A' for Active; 'I' for Inactive)
ROOT
HETATM    1  C1  UNL     1     -24.764  18.402  10.069  1.00 20.00     0.071 C 
HETATM    2  C2  UNL     1     -23.786  18.506  12.332  1.00 20.00     0.052 C 
HETATM    3  C3  UNL     1     -22.823  17.349  12.144  1.00 20.00     0.169 C 
HETATM    4  C4  UNL     1     -24.983  16.576  11.716  1.00 20.00     0.192 C 
HETATM    5  C5  UNL     1     -24.986  18.087  11.496  1.00 20.00     0.069 C 
HETATM    6  C6  UNL     1     -26.286  18.740  11.960  1.00 20.00     0.033 C 
HETATM    7  N7  UNL     1     -24.588  18.649   8.949  1.00 20.00    -0.196 NA
HETATM    8  O8  UNL     1     -23.615  16.178  11.906  1.00 20.00    -0.389 OA
ENDROOT
TORSDOF 0
ENDMDL
MODEL 5
REMARK VINA RESULT:      -3.7     18.347     19.162
REMARK  0 active torsions:
REMARK  status: ('A' for Active; 'I' for Inactive)
ROOT
HETATM    1  C1  UNL     1     -24.332  18.455   9.398  1.00 20.00     0.071 C 
HETATM    2  C2  UNL     1     -24.205  16.270  10.537  1.00 20.00     0.052 C 
HETATM    3  C3  UNL     1     -24.631  16.776  11.902  1.00 20.00     0.169 C 
HETATM    4  C4  UNL     1     -22.748  17.982  11.232  1.00 20.00     0.192 C 
HETATM    5  C5  UNL     1     -23.420  17.443   9.971  1.00 20.00     0.069 C 
HETATM    6  C6  UNL     1     -22.408  17.018   8.910  1.00 20.00     0.033 C 
HETATM    7  N7  UNL     1     -25.049  19.250   8.949  1.00 20.00    -0.196 NA
HETATM    8  O8  UNL     1     -23.635  17.714  12.331  1.00 20.00    -0.389 OA
ENDROOT
TORSDOF 0
ENDMDL
MODEL 6
REMARK VINA RESULT:      -3.6     18.638     19.384
REMARK  0 active torsions:
REMARK  status: ('A' for Active; 'I' for Inactive)
ROOT
HETATM    1  C1  UNL     1     -25.033  18.133  11.073  1.00 20.00     0.071 C 
HETATM    2  C2  UNL     1     -22.839  17.363  11.898  1.00 20.00     0.052 C 
HETATM    3  C3  UNL     1     -22.022  17.976  10.777  1.00 20.00     0.169 C 
HETATM    4  C4  UNL     1     -23.606  16.549   9.828  1.00 20.00     0.192 C 
HETATM    5  C5  UNL     1     -24.131  16.969  11.200  1.00 20.00     0.069 C 
HETATM    6  C6  UNL     1     -24.866  15.836  11.912  1.00 20.00     0.033 C 
HETATM    7  N7  UNL     1     -25.740  19.048  10.974  1.00 20.00    -0.196 NA
HETATM    8  O8  UNL     1     -22.439  17.345   9.559  1.00 20.00    -0.389 OA
ENDROOT
TORSDOF 0
ENDMDL
MODEL 7
REMARK VINA RESULT:      -3.6     11.161     11.901
REMARK  0 active torsions:
REMARK  status: ('A' for Active; 'I' for Inactive)
ROOT
HETATM    1  C1  UNL     1     -42.657   5.905   0.821  1.00 20.00     0.071 C 
HETATM    2  C2  UNL     1     -41.246   7.834   0.206  1.00 20.00     0.052 C 
HETATM    3  C3  UNL     1     -42.369   8.854   0.186  1.00 20.00     0.169 C 
HETATM    4  C4  UNL     1     -42.915   7.139  -1.302  1.00 20.00     0.192 C 
HETATM    5  C5  UNL     1     -41.931   6.567  -0.284  1.00 20.00     0.069 C 
HETATM    6  C6  UNL     1     -40.956   5.574  -0.912  1.00 20.00     0.033 C 
HETATM    7  N7  UNL     1     -43.227   5.386   1.689  1.00 20.00    -0.196 NA
HETATM    8  O8  UNL     1     -43.284   8.451  -0.842  1.00 20.00    -0.389 OA
ENDROOT
TORSDOF 0
ENDMDL
MODEL 8
REMARK VINA RESULT:      -3.6      1.924      2.265
REMARK  0 active torsions:
REMARK  status: ('A' for Active; 'I' for Inactive)
ROOT
HETATM    1  C1  UNL     1     -35.234  16.702  -4.301  1.00 20.00     0.071 C 
HETATM    2  C2  UNL     1     -33.161  15.685  -3.432  1.00 20.00     0.052 C 
HETATM    3  C3  UNL     1     -33.003  14.667  -4.545  1.00 20.00     0.169 C 
HETATM    4  C4  UNL     1     -35.095  14.351  -3.560  1.00 20.00     0.192 C 
HETATM    5  C5  UNL     1     -34.670  15.791  -3.282  1.00 20.00     0.069 C 
HETATM    6  C6  UNL     1     -35.094  16.265  -1.894  1.00 20.00     0.033 C 
HETATM    7  N7  UNL     1     -35.676  17.417  -5.101  1.00 20.00    -0.196 NA
HETATM    8  O8  UNL     1     -34.144  13.801  -4.487  1.00 20.00    -0.389 OA
ENDROOT
TORSDOF 0
ENDMDL
MODEL 9
REMARK VINA RESULT:      -3.5      1.527      1.777
REMARK  0 active torsions:
REMARK  status: ('A' for Active; 'I' for Inactive)
ROOT
HETATM    1  C1  UNL     1     -35.627  13.900  -4.306  1.00 20.00     0.071 C 
HETATM    2  C2  UNL     1     -36.694  16.124  -4.265  1.00 20.00     0.052 C 
HETATM    3  C3  UNL     1     -36.773  16.291  -5.771  1.00 20.00     0.169 C 
HETATM    4  C4  UNL     1     -34.540  15.931  -5.194  1.00 20.00     0.192 C 
HETATM    5  C5  UNL     1     -35.402  15.343  -4.079  1.00 20.00     0.069 C 
HETATM    6  C6  UNL     1     -34.783  15.545  -2.698  1.00 20.00     0.033 C 
HETATM    7  N7  UNL     1     -35.804  12.766  -4.485  1.00 20.00    -0.196 NA
HETATM    8  O8  UNL     1     -35.427  16.301  -6.264  1.00 20.00    -0.389 OA
ENDROOT
TORSDOF 0
ENDMDL
