MODEL 1
REMARK VINA RESULT:      -5.4      0.000      0.000
REMARK  4 active torsions:
REMARK  status: ('A' for Active; 'I' for Inactive)
REMARK    1  A    between atoms: C6_6  and  C10_10 
REMARK    2  A    between atoms: C7_7  and  C11_11 
REMARK    3  A    between atoms: C9_9  and  C11_11 
REMARK    4  A    between atoms: C11_11  and  O12_12 
ROOT
HETATM    1  C1  UNL     1     -33.382   8.687  -0.762  1.00 20.00     0.012 C 
HETATM    2  C2  UNL     1     -33.067   8.678   0.397  1.00 20.00    -0.115 C 
HETATM    3  C9  UNL     1     -32.681   8.669   1.817  1.00 20.00     0.125 C 
ENDROOT
BRANCH   3   4
HETATM    4  C11 UNL     1     -32.223   7.279   2.267  1.00 20.00     0.133 C 
BRANCH   4   5
HETATM    5  C7  UNL     1     -33.407   6.380   2.575  1.00 20.00     0.015 C 
HETATM    6  C4  UNL     1     -33.074   4.888   2.484  1.00 20.00     0.007 C 
HETATM    7  C3  UNL     1     -33.987   4.189   3.496  1.00 20.00     0.005 C 
HETATM    8  C6  UNL     1     -34.798   5.299   4.173  1.00 20.00    -0.014 C 
HETATM    9  C5  UNL     1     -33.932   6.544   3.998  1.00 20.00     0.012 C 
BRANCH   8  10
HETATM   10  C10 UNL     1     -35.129   5.000   5.625  1.00 20.00     0.000 C 
HETATM   11  C8  UNL     1     -34.475   5.969   6.559  1.00 20.00     0.005 C 
ENDBRANCH   8  10
ENDBRANCH   4   5
BRANCH   4  12
HETATM   12  O12 UNL     1     -31.435   7.420   3.451  1.00 20.00    -0.394 OA
HETATM   13  H30 UNL     1     -30.746   8.070   3.244  1.00 20.00     0.210 HD
ENDBRANCH   4  12
ENDBRANCH   3   4
TORSDOF 4
ENDMDL
MODEL 2
REMARK VINA RESULT:      -5.2     10.770     11.939
REMARK  4 active torsions:
REMARK  status: ('A' for Active; 'I' for Inactive)
REMARK    1  A    between atoms: C6_6  and  C10_10 
REMARK    2  A    between atoms: C7_7  and  C11_11 
REMARK    3  A    between atoms: C9_9  and  C11_11 
REMARK    4  A    between atoms: C11_11  and  O12_12 
ROOT
HETATM    1  C1  UNL     1     -36.971  16.723  -6.658  1.00 20.00     0.012 C 
HETATM    2  C2  UNL     1     -36.367  15.725  -6.372  1.00 20.00    -0.115 C 
HETATM    3  C9  UNL     1     -35.625  14.502  -6.025  1.00 20.00     0.125 C 
ENDROOT
BRANCH   3   4
HETATM    4  C11 UNL     1     -35.938  14.039  -4.600  1.00 20.00     0.133 C 
BRANCH   4   5
HETATM    5  C7  UNL     1     -34.883  14.518  -3.619  1.00 20.00     0.015 C 
HETATM    6  C4  UNL     1     -33.588  14.973  -4.298  1.00 20.00     0.007 C 
HETATM    7  C3  UNL     1     -33.004  16.069  -3.401  1.00 20.00     0.005 C 
HETATM    8  C6  UNL     1     -33.995  16.246  -2.247  1.00 20.00    -0.014 C 
HETATM    9  C5  UNL     1     -35.318  15.743  -2.819  1.00 20.00     0.012 C 
BRANCH   8  10
HETATM   10  C10 UNL     1     -34.070  17.673  -1.734  1.00 20.00     0.000 C 
HETATM   11  C8  UNL     1     -32.732  18.183  -1.298  1.00 20.00     0.005 C 
ENDBRANCH   8  10
ENDBRANCH   4   5
BRANCH   4  12
HETATM   12  O12 UNL     1     -35.967  12.611  -4.581  1.00 20.00    -0.394 OA
HETATM   13  H30 UNL     1     -35.067  12.317  -4.788  1.00 20.00     0.210 HD
ENDBRANCH   4  12
ENDBRANCH   3   4
TORSDOF 4
ENDMDL
MODEL 3
REMARK VINA RESULT:      -4.9     10.655     11.841
REMARK  4 active torsions:
REMARK  status: ('A' for Active; 'I' for Inactive)
REMARK    1  A    between atoms: C6_6  and  C10_10 
REMARK    2  A    between atoms: C7_7  and  C11_11 
REMARK    3  A    between atoms: C9_9  and  C11_11 
REMARK    4  A    between atoms: C11_11  and  O12_12 
ROOT
HETATM    1  C1  UNL     1     -35.951  14.957  -6.884  1.00 20.00     0.012 C 
HETATM    2  C2  UNL     1     -35.806  14.437  -5.811  1.00 20.00    -0.115 C 
HETATM    3  C9  UNL     1     -35.631  13.799  -4.496  1.00 20.00     0.125 C 
ENDROOT
BRANCH   3   4
HETATM    4  C11 UNL     1     -34.317  14.224  -3.835  1.00 20.00     0.133 C 
BRANCH   4   5
HETATM    5  C7  UNL     1     -34.357  15.683  -3.415  1.00 20.00     0.015 C 
HETATM    6  C4  UNL     1     -35.135  15.917  -2.117  1.00 20.00     0.007 C 
HETATM    7  C3  UNL     1     -34.480  17.127  -1.445  1.00 20.00     0.005 C 
HETATM    8  C6  UNL     1     -33.316  17.538  -2.352  1.00 20.00    -0.014 C 
HETATM    9  C5  UNL     1     -32.977  16.260  -3.115  1.00 20.00     0.012 C 
BRANCH   8  10
HETATM   10  C10 UNL     1     -32.134  18.110  -1.589  1.00 20.00     0.000 C 
HETATM   11  C8  UNL     1     -32.484  18.430  -0.169  1.00 20.00     0.005 C 
ENDBRANCH   8  10
ENDBRANCH   4   5
BRANCH   4  12
HETATM   12  O12 UNL     1     -33.256  14.047  -4.775  1.00 20.00    -0.394 OA
HETATM   13  H30 UNL     1     -32.777  14.889  -4.807  1.00 20.00     0.210 HD
ENDBRANCH   4  12
ENDBRANCH   3   4
TORSDOF 4
ENDMDL
MODEL 4
REMARK VINA RESULT:      -4.8     11.047     11.947
REMARK  4 active torsions:
REMARK  status: ('A' for Active; 'I' for Inactive)
REMARK    1  A    between atoms: C6_6  and  C10_10 
REMARK    2  A    between atoms: C7_7  and  C11_11 
REMARK    3  A    between atoms: C9_9  and  C11_11 
REMARK    4  A    between atoms: C11_11  and  O12_12 
ROOT
HETATM    1  C1  UNL     1     -34.335  17.154  -7.426  1.00 20.00     0.012 C 
HETATM    2  C2  UNL     1     -34.836  16.337  -6.702  1.00 20.00    -0.115 C 
HETATM    3  C9  UNL     1     -35.453  15.336  -5.817  1.00 20.00     0.125 C 
ENDROOT
BRANCH   3   4
HETATM    4  C11 UNL     1     -34.399  14.453  -5.144  1.00 20.00     0.133 C 
BRANCH   4   5
HETATM    5  C7  UNL     1     -34.148  14.887  -3.710  1.00 20.00     0.015 C 
HETATM    6  C4  UNL     1     -33.054  15.950  -3.583  1.00 20.00     0.007 C 
HETATM    7  C3  UNL     1     -33.430  16.799  -2.364  1.00 20.00     0.005 C 
HETATM    8  C6  UNL     1     -34.752  16.228  -1.841  1.00 20.00    -0.014 C 
HETATM    9  C5  UNL     1     -35.363  15.544  -3.061  1.00 20.00     0.012 C 
BRANCH   8  10
HETATM   10  C10 UNL     1     -35.659  17.281  -1.229  1.00 20.00     0.000 C 
HETATM   11  C8  UNL     1     -35.577  17.290   0.266  1.00 20.00     0.005 C 
ENDBRANCH   8  10
ENDBRANCH   4   5
BRANCH   4  12
HETATM   12  O12 UNL     1     -33.177  14.565  -5.876  1.00 20.00    -0.394 OA
HETATM   13  H30 UNL     1     -32.859  13.660  -6.015  1.00 20.00     0.210 HD
ENDBRANCH   4  12
ENDBRANCH   3   4
TORSDOF 4
ENDMDL
MODEL 5
REMARK VINA RESULT:      -4.7     11.222     12.344
REMARK  4 active torsions:
REMARK  status: ('A' for Active; 'I' for Inactive)
REMARK    1  A    between atoms: C6_6  and  C10_10 
REMARK    2  A    between atoms: C7_7  and  C11_11 
REMARK    3  A    between atoms: C9_9  and  C11_11 
REMARK    4  A    between atoms: C11_11  and  O12_12 
ROOT
HETATM    1  C1  UNL     1     -30.662  18.276   1.062  1.00 20.00     0.012 C 
HETATM    2  C2  UNL     1     -31.666  18.719   0.573  1.00 20.00    -0.115 C 
HETATM    3  C9  UNL     1     -32.897  19.263  -0.024  1.00 20.00     0.125 C 
ENDROOT
BRANCH   3   4
HETATM    4  C11 UNL     1     -33.021  18.883  -1.502  1.00 20.00     0.133 C 
BRANCH   4   5
HETATM    5  C7  UNL     1     -33.310  17.401  -1.668  1.00 20.00     0.015 C 
HETATM    6  C4  UNL     1     -34.767  17.033  -1.376  1.00 20.00     0.007 C 
HETATM    7  C3  UNL     1     -35.086  15.831  -2.271  1.00 20.00     0.005 C 
HETATM    8  C6  UNL     1     -33.818  15.560  -3.085  1.00 20.00    -0.014 C 
HETATM    9  C5  UNL     1     -33.093  16.904  -3.094  1.00 20.00     0.012 C 
BRANCH   8  10
HETATM   10  C10 UNL     1     -34.101  15.024  -4.478  1.00 20.00     0.000 C 
HETATM   11  C8  UNL     1     -35.376  14.241  -4.527  1.00 20.00     0.005 C 
ENDBRANCH   8  10
ENDBRANCH   4   5
BRANCH   4  12
HETATM   12  O12 UNL     1     -31.787  19.185  -2.155  1.00 20.00    -0.394 OA
HETATM   13  H30 UNL     1     -31.142  19.357  -1.453  1.00 20.00     0.210 HD
ENDBRANCH   4  12
ENDBRANCH   3   4
TORSDOF 4
ENDMDL
MODEL 6
REMARK VINA RESULT:      -4.6     14.435     15.794
REMARK  4 active torsions:
REMARK  status: ('A' for Active; 'I' for Inactive)
REMARK    1  A    between atoms: C6_6  and  C10_10 
REMARK    2  A    between atoms: C7_7  and  C11_11 
REMARK    3  A    between atoms: C9_9  and  C11_11 
REMARK    4  A    between atoms: C11_11  and  O12_12 
ROOT
HETATM    1  C1  UNL     1     -26.535  18.527   4.342  1.00 20.00     0.012 C 
HETATM    2  C2  UNL     1     -26.258  18.857   5.463  1.00 20.00    -0.115 C 
HETATM    3  C9  UNL     1     -25.920  19.263   6.837  1.00 20.00     0.125 C 
ENDROOT
BRANCH   3   4
HETATM    4  C11 UNL     1     -24.705  18.496   7.368  1.00 20.00     0.133 C 
BRANCH   4   5
HETATM    5  C7  UNL     1     -24.421  18.847   8.818  1.00 20.00     0.015 C 
HETATM    6  C4  UNL     1     -25.688  19.118   9.634  1.00 20.00     0.007 C 
HETATM    7  C3  UNL     1     -25.366  18.689  11.069  1.00 20.00     0.005 C 
HETATM    8  C6  UNL     1     -23.934  18.147  11.038  1.00 20.00    -0.014 C 
HETATM    9  C5  UNL     1     -23.734  17.721   9.585  1.00 20.00     0.012 C 
BRANCH   8  10
HETATM   10  C10 UNL     1     -23.698  17.020  12.028  1.00 20.00     0.000 C 
HETATM   11  C8  UNL     1     -24.627  15.869  11.799  1.00 20.00     0.005 C 
ENDBRANCH   8  10
ENDBRANCH   4   5
BRANCH   4  12
HETATM   12  O12 UNL     1     -23.566  18.847   6.580  1.00 20.00    -0.394 OA
HETATM   13  H30 UNL     1     -23.571  19.813   6.508  1.00 20.00     0.210 HD
ENDBRANCH   4  12
ENDBRANCH   3   4
TORSDOF 4
ENDMDL
MODEL 7
REMARK VINA RESULT:      -4.6     10.826     12.148
REMARK  4 active torsions:
REMARK  status: ('A' for Active; 'I' for Inactive)
REMARK    1  A    between atoms: C6_6  and  C10_10 
REMARK    2  A    between atoms: C7_7  and  C11_11 
REMARK    3  A    between atoms: C9_9  and  C11_11 
REMARK    4  A    between atoms: C11_11  and  O12_12 
ROOT
HETATM    1  C1  UNL     1     -35.232  13.991  -4.132  1.00 20.00     0.012 C 
HETATM    2  C2  UNL     1     -34.627  14.843  -3.540  1.00 20.00    -0.115 C 
HETATM    3  C9  UNL     1     -33.884  15.886  -2.814  1.00 20.00     0.125 C 
ENDROOT
BRANCH   3   4
HETATM    4  C11 UNL     1     -34.798  17.039  -2.393  1.00 20.00     0.133 C 
BRANCH   4   5
HETATM    5  C7  UNL     1     -34.056  18.047  -1.532  1.00 20.00     0.015 C 
HETATM    6  C4  UNL     1     -34.436  17.974  -0.051  1.00 20.00     0.007 C 
HETATM    7  C3  UNL     1     -33.186  18.394   0.727  1.00 20.00     0.005 C 
HETATM    8  C6  UNL     1     -32.103  18.662  -0.322  1.00 20.00    -0.014 C 
HETATM    9  C5  UNL     1     -32.545  17.833  -1.525  1.00 20.00     0.012 C 
BRANCH   8  10
HETATM   10  C10 UNL     1     -30.703  18.320   0.158  1.00 20.00     0.000 C 
HETATM   11  C8  UNL     1     -30.415  18.905   1.506  1.00 20.00     0.005 C 
ENDBRANCH   8  10
ENDBRANCH   4   5
BRANCH   4  12
HETATM   12  O12 UNL     1     -35.886  16.505  -1.637  1.00 20.00    -0.394 OA
HETATM   13  H30 UNL     1     -36.640  17.095  -1.790  1.00 20.00     0.210 HD
ENDBRANCH   4  12
ENDBRANCH   3   4
TORSDOF 4
ENDMDL
MODEL 8
REMARK VINA RESULT:      -4.5     10.744     11.989
REMARK  4 active torsions:
REMARK  status: ('A' for Active; 'I' for Inactive)
REMARK    1  A    between atoms: C6_6  and  C10_10 
REMARK    2  A    between atoms: C7_7  and  C11_11 
REMARK    3  A    between atoms: C9_9  and  C11_11 
REMARK    4  A    between atoms: C11_11  and  O12_12 
ROOT
HETATM    1  C1  UNL     1     -33.398  18.239   2.768  1.00 20.00     0.012 C 
HETATM    2  C2  UNL     1     -33.384  18.223   1.567  1.00 20.00    -0.115 C 
HETATM    3  C9  UNL     1     -33.365  18.204   0.096  1.00 20.00     0.125 C 
ENDROOT
BRANCH   3   4
HETATM    4  C11 UNL     1     -34.700  17.725  -0.479  1.00 20.00     0.133 C 
BRANCH   4   5
HETATM    5  C7  UNL     1     -34.552  17.278  -1.923  1.00 20.00     0.015 C 
HETATM    6  C4  UNL     1     -33.094  17.106  -2.356  1.00 20.00     0.007 C 
HETATM    7  C3  UNL     1     -33.095  15.997  -3.413  1.00 20.00     0.005 C 
HETATM    8  C6  UNL     1     -34.549  15.531  -3.536  1.00 20.00    -0.014 C 
HETATM    9  C5  UNL     1     -35.171  15.910  -2.194  1.00 20.00     0.012 C 
BRANCH   8  10
HETATM   10  C10 UNL     1     -34.680  14.052  -3.859  1.00 20.00     0.000 C 
HETATM   11  C8  UNL     1     -36.006  13.729  -4.474  1.00 20.00     0.005 C 
ENDBRANCH   8  10
ENDBRANCH   4   5
BRANCH   4  12
HETATM   12  O12 UNL     1     -35.632  18.807  -0.428  1.00 20.00    -0.394 OA
HETATM   13  H30 UNL     1     -36.044  18.853  -1.304  1.00 20.00     0.210 HD
ENDBRANCH   4  12
ENDBRANCH   3   4
TORSDOF 4
ENDMDL
MODEL 9
REMARK VINA RESULT:      -4.5     11.161     12.254
REMARK  4 active torsions:
REMARK  status: ('A' for Active; 'I' for Inactive)
REMARK    1  A    between atoms: C6_6  and  C10_10 
REMARK    2  A    between atoms: C7_7  and  C11_11 
REMARK    3  A    between atoms: C9_9  and  C11_11 
REMARK    4  A    between atoms: C11_11  and  O12_12 
ROOT
HETATM    1  C1  UNL     1     -38.540  18.031  -5.152  1.00 20.00     0.012 C 
HETATM    2  C2  UNL     1     -37.914  17.014  -5.276  1.00 20.00    -0.115 C 
HETATM    3  C9  UNL     1     -37.145  15.768  -5.430  1.00 20.00     0.125 C 
ENDROOT
BRANCH   3   4
HETATM    4  C11 UNL     1     -37.158  14.936  -4.145  1.00 20.00     0.133 C 
BRANCH   4   5
HETATM    5  C7  UNL     1     -35.774  14.857  -3.525  1.00 20.00     0.015 C 
HETATM    6  C4  UNL     1     -34.653  14.735  -4.560  1.00 20.00     0.007 C 
HETATM    7  C3  UNL     1     -33.430  15.420  -3.942  1.00 20.00     0.005 C 
HETATM    8  C6  UNL     1     -33.886  15.953  -2.581  1.00 20.00    -0.014 C 
HETATM    9  C5  UNL     1     -35.397  16.107  -2.735  1.00 20.00     0.012 C 
BRANCH   8  10
HETATM   10  C10 UNL     1     -33.192  17.243  -2.179  1.00 20.00     0.000 C 
HETATM   11  C8  UNL     1     -33.820  17.864  -0.970  1.00 20.00     0.005 C 
ENDBRANCH   8  10
ENDBRANCH   4   5
BRANCH   4  12
HETATM   12  O12 UNL     1     -37.593  13.614  -4.464  1.00 20.00    -0.394 OA
HETATM   13  H30 UNL     1     -38.536  13.576  -4.241  1.00 20.00     0.210 HD
ENDBRANCH   4  12
ENDBRANCH   3   4
TORSDOF 4
ENDMDL
