MODEL 1
REMARK VINA RESULT:      -5.0      0.000      0.000
REMARK  2 active torsions:
REMARK  status: ('A' for Active; 'I' for Inactive)
REMARK    1  A    between atoms: C6_6  and  C10_10 
REMARK    2  A    between atoms: C7_7  and  C11_11 
ROOT
HETATM    1  C1  UNL     1     -31.778  18.255  -1.100  1.00 20.00     0.069 C 
HETATM    2  C2  UNL     1     -35.451  17.159  -1.260  1.00 20.00     0.002 C 
HETATM    3  C3  UNL     1     -35.224  15.902  -2.092  1.00 20.00     0.005 C 
HETATM    4  C4  UNL     1     -34.141  17.707  -0.695  1.00 20.00     0.024 C 
HETATM    5  C5  UNL     1     -32.880  16.679  -2.636  1.00 20.00     0.029 C 
HETATM    6  C6  UNL     1     -34.199  16.132  -3.208  1.00 20.00    -0.013 C 
HETATM    7  C7  UNL     1     -33.063  17.951  -1.774  1.00 20.00     0.049 C 
HETATM    8  N12 UNL     1     -30.773  18.494  -0.573  1.00 20.00    -0.196 NA
ENDROOT
BRANCH   7   9
HETATM    9  C11 UNL     1     -33.433  19.159  -2.652  1.00 20.00     0.020 C 
HETATM   10  C9  UNL     1     -32.534  19.262  -3.835  1.00 20.00     0.007 C 
ENDBRANCH   7   9
BRANCH   6  11
HETATM   11  C10 UNL     1     -33.950  14.837  -3.982  1.00 20.00     0.000 C 
HETATM   12  C8  UNL     1     -35.200  14.032  -4.125  1.00 20.00     0.005 C 
ENDBRANCH   6  11
TORSDOF 2
ENDMDL
MODEL 2
REMARK VINA RESULT:      -5.0      2.898      4.725
REMARK  2 active torsions:
REMARK  status: ('A' for Active; 'I' for Inactive)
REMARK    1  A    between atoms: C6_6  and  C10_10 
REMARK    2  A    between atoms: C7_7  and  C11_11 
ROOT
HETATM    1  C1  UNL     1     -35.455  13.844  -4.291  1.00 20.00     0.069 C 
HETATM    2  C2  UNL     1     -32.939  16.509  -3.159  1.00 20.00     0.002 C 
HETATM    3  C3  UNL     1     -33.747  17.022  -1.972  1.00 20.00     0.005 C 
HETATM    4  C4  UNL     1     -33.482  15.180  -3.680  1.00 20.00     0.024 C 
HETATM    5  C5  UNL     1     -35.785  15.790  -2.821  1.00 20.00     0.029 C 
HETATM    6  C6  UNL     1     -35.240  17.131  -2.300  1.00 20.00    -0.013 C 
HETATM    7  C7  UNL     1     -34.988  15.225  -4.020  1.00 20.00     0.049 C 
HETATM    8  N12 UNL     1     -35.820  12.764  -4.503  1.00 20.00    -0.196 NA
ENDROOT
BRANCH   7   9
HETATM    9  C11 UNL     1     -35.237  16.063  -5.287  1.00 20.00     0.020 C 
HETATM   10  C9  UNL     1     -34.460  15.536  -6.443  1.00 20.00     0.007 C 
ENDBRANCH   7   9
BRANCH   6  11
HETATM   11  C10 UNL     1     -36.027  17.587  -1.072  1.00 20.00     0.000 C 
HETATM   12  C8  UNL     1     -35.348  17.185   0.196  1.00 20.00     0.005 C 
ENDBRANCH   6  11
TORSDOF 2
ENDMDL
MODEL 3
REMARK VINA RESULT:      -4.9      2.484      4.390
REMARK  2 active torsions:
REMARK  status: ('A' for Active; 'I' for Inactive)
REMARK    1  A    between atoms: C6_6  and  C10_10 
REMARK    2  A    between atoms: C7_7  and  C11_11 
ROOT
HETATM    1  C1  UNL     1     -34.689  14.386  -3.803  1.00 20.00     0.069 C 
HETATM    2  C2  UNL     1     -32.806  17.536  -2.686  1.00 20.00     0.002 C 
HETATM    3  C3  UNL     1     -33.415  17.621  -1.291  1.00 20.00     0.005 C 
HETATM    4  C4  UNL     1     -33.072  16.180  -3.338  1.00 20.00     0.024 C 
HETATM    5  C5  UNL     1     -35.179  15.935  -1.955  1.00 20.00     0.029 C 
HETATM    6  C6  UNL     1     -34.915  17.303  -1.302  1.00 20.00    -0.013 C 
HETATM    7  C7  UNL     1     -34.569  15.799  -3.369  1.00 20.00     0.049 C 
HETATM    8  N12 UNL     1     -34.783  13.281  -4.143  1.00 20.00    -0.196 NA
ENDROOT
BRANCH   7   9
HETATM    9  C11 UNL     1     -35.333  16.670  -4.382  1.00 20.00     0.020 C 
HETATM   10  C9  UNL     1     -34.734  16.567  -5.741  1.00 20.00     0.007 C 
ENDBRANCH   7   9
BRANCH   6  11
HETATM   11  C10 UNL     1     -35.480  17.335   0.118  1.00 20.00     0.000 C 
HETATM   12  C8  UNL     1     -34.509  17.936   1.082  1.00 20.00     0.005 C 
ENDBRANCH   6  11
TORSDOF 2
ENDMDL
MODEL 4
REMARK VINA RESULT:      -4.8      3.146      5.092
REMARK  2 active torsions:
REMARK  status: ('A' for Active; 'I' for Inactive)
REMARK    1  A    between atoms: C6_6  and  C10_10 
REMARK    2  A    between atoms: C7_7  and  C11_11 
ROOT
HETATM    1  C1  UNL     1     -37.059  14.520  -4.296  1.00 20.00     0.069 C 
HETATM    2  C2  UNL     1     -33.290  15.201  -4.061  1.00 20.00     0.002 C 
HETATM    3  C3  UNL     1     -33.343  16.048  -2.794  1.00 20.00     0.005 C 
HETATM    4  C4  UNL     1     -34.600  14.449  -4.292  1.00 20.00     0.024 C 
HETATM    5  C5  UNL     1     -35.852  16.250  -3.028  1.00 20.00     0.029 C 
HETATM    6  C6  UNL     1     -34.535  17.012  -2.800  1.00 20.00    -0.013 C 
HETATM    7  C7  UNL     1     -35.842  15.368  -4.298  1.00 20.00     0.049 C 
HETATM    8  N12 UNL     1     -38.011  13.858  -4.296  1.00 20.00    -0.196 NA
ENDROOT
BRANCH   7   9
HETATM    9  C11 UNL     1     -35.872  16.235  -5.569  1.00 20.00     0.020 C 
HETATM   10  C9  UNL     1     -35.887  15.392  -6.797  1.00 20.00     0.007 C 
ENDBRANCH   7   9
BRANCH   6  11
HETATM   11  C10 UNL     1     -34.593  17.800  -1.491  1.00 20.00     0.000 C 
HETATM   12  C8  UNL     1     -35.375  17.074  -0.446  1.00 20.00     0.005 C 
ENDBRANCH   6  11
TORSDOF 2
ENDMDL
MODEL 5
REMARK VINA RESULT:      -4.6      2.310      4.405
REMARK  2 active torsions:
REMARK  status: ('A' for Active; 'I' for Inactive)
REMARK    1  A    between atoms: C6_6  and  C10_10 
REMARK    2  A    between atoms: C7_7  and  C11_11 
ROOT
HETATM    1  C1  UNL     1     -34.544  16.712  -5.276  1.00 20.00     0.069 C 
HETATM    2  C2  UNL     1     -35.180  16.495  -1.498  1.00 20.00     0.002 C 
HETATM    3  C3  UNL     1     -34.193  17.583  -1.091  1.00 20.00     0.005 C 
HETATM    4  C4  UNL     1     -35.459  16.520  -3.000  1.00 20.00     0.024 C 
HETATM    5  C5  UNL     1     -33.173  17.530  -3.404  1.00 20.00     0.029 C 
HETATM    6  C6  UNL     1     -32.889  17.502  -1.892  1.00 20.00    -0.013 C 
HETATM    7  C7  UNL     1     -34.179  16.450  -3.862  1.00 20.00     0.049 C 
HETATM    8  N12 UNL     1     -34.830  16.915  -6.381  1.00 20.00    -0.196 NA
ENDROOT
BRANCH   7   9
HETATM    9  C11 UNL     1     -33.549  15.047  -3.790  1.00 20.00     0.020 C 
HETATM   10  C9  UNL     1     -34.573  13.985  -3.991  1.00 20.00     0.007 C 
ENDBRANCH   7   9
BRANCH   6  11
HETATM   11  C10 UNL     1     -31.948  18.642  -1.503  1.00 20.00     0.000 C 
HETATM   12  C8  UNL     1     -31.125  18.292  -0.306  1.00 20.00     0.005 C 
ENDBRANCH   6  11
TORSDOF 2
ENDMDL
MODEL 6
REMARK VINA RESULT:      -4.4      3.030      5.022
REMARK  2 active torsions:
REMARK  status: ('A' for Active; 'I' for Inactive)
REMARK    1  A    between atoms: C6_6  and  C10_10 
REMARK    2  A    between atoms: C7_7  and  C11_11 
ROOT
HETATM    1  C1  UNL     1     -35.813  13.938  -4.269  1.00 20.00     0.069 C 
HETATM    2  C2  UNL     1     -34.357  17.382  -5.128  1.00 20.00     0.002 C 
HETATM    3  C3  UNL     1     -33.621  17.596  -3.809  1.00 20.00     0.005 C 
HETATM    4  C4  UNL     1     -34.800  15.930  -5.297  1.00 20.00     0.024 C 
HETATM    5  C5  UNL     1     -34.894  15.669  -2.780  1.00 20.00     0.029 C 
HETATM    6  C6  UNL     1     -34.453  17.133  -2.608  1.00 20.00    -0.013 C 
HETATM    7  C7  UNL     1     -35.636  15.402  -4.111  1.00 20.00     0.049 C 
HETATM    8  N12 UNL     1     -35.952  12.793  -4.393  1.00 20.00    -0.196 NA
ENDROOT
BRANCH   7   9
HETATM    9  C11 UNL     1     -37.034  16.047  -4.098  1.00 20.00     0.020 C 
HETATM   10  C9  UNL     1     -37.715  15.883  -5.412  1.00 20.00     0.007 C 
ENDBRANCH   7   9
BRANCH   6  11
HETATM   11  C10 UNL     1     -33.663  17.304  -1.311  1.00 20.00     0.000 C 
HETATM   12  C8  UNL     1     -32.371  18.018  -1.544  1.00 20.00     0.005 C 
ENDBRANCH   6  11
TORSDOF 2
ENDMDL
MODEL 7
REMARK VINA RESULT:      -4.3      2.309      3.589
REMARK  2 active torsions:
REMARK  status: ('A' for Active; 'I' for Inactive)
REMARK    1  A    between atoms: C6_6  and  C10_10 
REMARK    2  A    between atoms: C7_7  and  C11_11 
ROOT
HETATM    1  C1  UNL     1     -36.681  18.503  -1.324  1.00 20.00     0.069 C 
HETATM    2  C2  UNL     1     -32.952  17.699  -1.729  1.00 20.00     0.002 C 
HETATM    3  C3  UNL     1     -33.115  16.657  -2.831  1.00 20.00     0.005 C 
HETATM    4  C4  UNL     1     -34.229  18.511  -1.527  1.00 20.00     0.024 C 
HETATM    5  C5  UNL     1     -35.600  16.559  -2.377  1.00 20.00     0.029 C 
HETATM    6  C6  UNL     1     -34.314  15.738  -2.576  1.00 20.00    -0.013 C 
HETATM    7  C7  UNL     1     -35.478  17.638  -1.275  1.00 20.00     0.049 C 
HETATM    8  N12 UNL     1     -37.621  19.181  -1.361  1.00 20.00    -0.196 NA
ENDROOT
BRANCH   7   9
HETATM    9  C11 UNL     1     -35.419  16.991   0.121  1.00 20.00     0.020 C 
HETATM   10  C9  UNL     1     -35.143  18.006   1.174  1.00 20.00     0.007 C 
ENDBRANCH   7   9
BRANCH   6  11
HETATM   11  C10 UNL     1     -34.485  14.748  -3.728  1.00 20.00     0.000 C 
HETATM   12  C8  UNL     1     -33.198  14.516  -4.449  1.00 20.00     0.005 C 
ENDBRANCH   6  11
TORSDOF 2
ENDMDL
MODEL 8
REMARK VINA RESULT:      -4.2      3.247      4.819
REMARK  2 active torsions:
REMARK  status: ('A' for Active; 'I' for Inactive)
REMARK    1  A    between atoms: C6_6  and  C10_10 
REMARK    2  A    between atoms: C7_7  and  C11_11 
ROOT
HETATM    1  C1  UNL     1     -36.273  14.438  -4.356  1.00 20.00     0.069 C 
HETATM    2  C2  UNL     1     -33.826  16.587  -2.329  1.00 20.00     0.002 C 
HETATM    3  C3  UNL     1     -34.278  17.936  -2.880  1.00 20.00     0.005 C 
HETATM    4  C4  UNL     1     -34.822  15.478  -2.664  1.00 20.00     0.024 C 
HETATM    5  C5  UNL     1     -35.551  16.762  -4.722  1.00 20.00     0.029 C 
HETATM    6  C6  UNL     1     -34.545  17.877  -4.388  1.00 20.00    -0.013 C 
HETATM    7  C7  UNL     1     -35.139  15.376  -4.173  1.00 20.00     0.049 C 
HETATM    8  N12 UNL     1     -37.159  13.704  -4.500  1.00 20.00    -0.196 NA
ENDROOT
BRANCH   7   9
HETATM    9  C11 UNL     1     -33.933  14.815  -4.947  1.00 20.00     0.020 C 
HETATM   10  C9  UNL     1     -34.112  14.981  -6.416  1.00 20.00     0.007 C 
ENDBRANCH   7   9
BRANCH   6  11
HETATM   11  C10 UNL     1     -35.054  19.226  -4.895  1.00 20.00     0.000 C 
HETATM   12  C8  UNL     1     -36.436  19.118  -5.452  1.00 20.00     0.005 C 
ENDBRANCH   6  11
TORSDOF 2
ENDMDL
MODEL 9
REMARK VINA RESULT:      -4.2      2.192      4.476
REMARK  2 active torsions:
REMARK  status: ('A' for Active; 'I' for Inactive)
REMARK    1  A    between atoms: C6_6  and  C10_10 
REMARK    2  A    between atoms: C7_7  and  C11_11 
ROOT
HETATM    1  C1  UNL     1     -33.529  14.840  -4.169  1.00 20.00     0.069 C 
HETATM    2  C2  UNL     1     -34.643  18.511  -4.188  1.00 20.00     0.002 C 
HETATM    3  C3  UNL     1     -33.519  19.041  -3.305  1.00 20.00     0.005 C 
HETATM    4  C4  UNL     1     -34.347  17.100  -4.693  1.00 20.00     0.024 C 
HETATM    5  C5  UNL     1     -32.910  16.676  -2.652  1.00 20.00     0.029 C 
HETATM    6  C6  UNL     1     -33.212  18.095  -2.139  1.00 20.00    -0.013 C 
HETATM    7  C7  UNL     1     -34.020  16.100  -3.561  1.00 20.00     0.049 C 
HETATM    8  N12 UNL     1     -33.145  13.854  -4.644  1.00 20.00    -0.196 NA
ENDROOT
BRANCH   7   9
HETATM    9  C11 UNL     1     -35.282  15.769  -2.744  1.00 20.00     0.020 C 
HETATM   10  C9  UNL     1     -36.357  15.216  -3.614  1.00 20.00     0.007 C 
ENDBRANCH   7   9
BRANCH   6  11
HETATM   11  C10 UNL     1     -32.041  18.626  -1.313  1.00 20.00     0.000 C 
HETATM   12  C8  UNL     1     -32.276  18.447   0.152  1.00 20.00     0.005 C 
ENDBRANCH   6  11
TORSDOF 2
ENDMDL
