MODEL 1
REMARK VINA RESULT:      -4.2      0.000      0.000
REMARK  3 active torsions:
REMARK  status: ('A' for Active; 'I' for Inactive)
REMARK    1  A    between atoms: C5_5  and  C7_7 
REMARK    2  A    between atoms: C6_6  and  C8_8 
REMARK    3  A    between atoms: C7_7  and  C8_8 
ROOT
HETATM    1  C1  UNL     1     -35.353  13.755  -4.294  1.00 20.00     0.069 C 
HETATM    2  C4  UNL     1     -33.007  14.476  -4.344  1.00 20.00     0.031 C 
HETATM    3  C8  UNL     1     -34.466  14.935  -4.144  1.00 20.00     0.045 C 
HETATM    4  N9  UNL     1     -36.046  12.832  -4.411  1.00 20.00    -0.196 NA
ENDROOT
BRANCH   3   5
HETATM    5  C6  UNL     1     -34.791  15.967  -5.262  1.00 20.00     0.020 C 
HETATM    6  C3  UNL     1     -34.502  15.511  -6.690  1.00 20.00     0.007 C 
ENDBRANCH   3   5
BRANCH   3   7
HETATM    7  C7  UNL     1     -34.664  15.572  -2.741  1.00 20.00     0.024 C 
BRANCH   7   8
HETATM    8  C5  UNL     1     -33.650  16.660  -2.360  1.00 20.00    -0.003 C 
HETATM    9  C2  UNL     1     -34.169  17.522  -1.218  1.00 20.00     0.005 C 
ENDBRANCH   7   8
ENDBRANCH   3   7
TORSDOF 3
ENDMDL
MODEL 2
REMARK VINA RESULT:      -4.1     17.822     18.738
REMARK  3 active torsions:
REMARK  status: ('A' for Active; 'I' for Inactive)
REMARK    1  A    between atoms: C5_5  and  C7_7 
REMARK    2  A    between atoms: C6_6  and  C8_8 
REMARK    3  A    between atoms: C7_7  and  C8_8 
ROOT
HETATM    1  C1  UNL     1     -23.011  18.428   9.775  1.00 20.00     0.069 C 
HETATM    2  C4  UNL     1     -24.127  16.374  10.523  1.00 20.00     0.031 C 
HETATM    3  C8  UNL     1     -23.961  17.886  10.778  1.00 20.00     0.045 C 
HETATM    4  N9  UNL     1     -22.269  18.852   8.990  1.00 20.00    -0.196 NA
ENDROOT
BRANCH   3   5
HETATM    5  C6  UNL     1     -23.358  18.058  12.202  1.00 20.00     0.020 C 
HETATM    6  C3  UNL     1     -21.867  17.759  12.331  1.00 20.00     0.007 C 
ENDBRANCH   3   5
BRANCH   3   7
HETATM    7  C7  UNL     1     -25.323  18.624  10.671  1.00 20.00     0.024 C 
BRANCH   7   8
HETATM    8  C5  UNL     1     -26.004  18.951  12.008  1.00 20.00    -0.003 C 
HETATM    9  C2  UNL     1     -27.383  18.312  12.096  1.00 20.00     0.005 C 
ENDBRANCH   7   8
ENDBRANCH   3   7
TORSDOF 3
ENDMDL
MODEL 3
REMARK VINA RESULT:      -4.1     16.234     17.805
REMARK  3 active torsions:
REMARK  status: ('A' for Active; 'I' for Inactive)
REMARK    1  A    between atoms: C5_5  and  C7_7 
REMARK    2  A    between atoms: C6_6  and  C8_8 
REMARK    3  A    between atoms: C7_7  and  C8_8 
ROOT
HETATM    1  C1  UNL     1     -21.983  17.301   7.937  1.00 20.00     0.069 C 
HETATM    2  C4  UNL     1     -21.523  18.008  10.241  1.00 20.00     0.031 C 
HETATM    3  C8  UNL     1     -22.628  17.715   9.207  1.00 20.00     0.045 C 
HETATM    4  N9  UNL     1     -21.478  16.977   6.944  1.00 20.00    -0.196 NA
ENDROOT
BRANCH   3   5
HETATM    5  C6  UNL     1     -23.417  19.036   8.976  1.00 20.00     0.020 C 
HETATM    6  C3  UNL     1     -24.380  19.036   7.792  1.00 20.00     0.007 C 
ENDBRANCH   3   5
BRANCH   3   7
HETATM    7  C7  UNL     1     -23.580  16.594   9.708  1.00 20.00     0.024 C 
BRANCH   7   8
HETATM    8  C5  UNL     1     -24.454  16.961  10.915  1.00 20.00    -0.003 C 
HETATM    9  C2  UNL     1     -24.634  15.771  11.849  1.00 20.00     0.005 C 
ENDBRANCH   7   8
ENDBRANCH   3   7
TORSDOF 3
ENDMDL
MODEL 4
REMARK VINA RESULT:      -4.1     15.709     17.851
REMARK  3 active torsions:
REMARK  status: ('A' for Active; 'I' for Inactive)
REMARK    1  A    between atoms: C5_5  and  C7_7 
REMARK    2  A    between atoms: C6_6  and  C8_8 
REMARK    3  A    between atoms: C7_7  and  C8_8 
ROOT
HETATM    1  C1  UNL     1     -22.171  17.217   8.299  1.00 20.00     0.069 C 
HETATM    2  C4  UNL     1     -23.922  16.702   9.940  1.00 20.00     0.031 C 
HETATM    3  C8  UNL     1     -22.923  17.771   9.453  1.00 20.00     0.045 C 
HETATM    4  N9  UNL     1     -21.584  16.784   7.397  1.00 20.00    -0.196 NA
ENDROOT
BRANCH   3   5
HETATM    5  C6  UNL     1     -21.935  18.056  10.621  1.00 20.00     0.020 C 
HETATM    6  C3  UNL     1     -22.419  17.655  12.012  1.00 20.00     0.007 C 
ENDBRANCH   3   5
BRANCH   3   7
HETATM    7  C7  UNL     1     -23.658  19.072   9.031  1.00 20.00     0.024 C 
BRANCH   7   8
HETATM    8  C5  UNL     1     -25.020  18.871   8.352  1.00 20.00    -0.003 C 
HETATM    9  C2  UNL     1     -24.968  19.262   6.881  1.00 20.00     0.005 C 
ENDBRANCH   7   8
ENDBRANCH   3   7
TORSDOF 3
ENDMDL
MODEL 5
REMARK VINA RESULT:      -4.1      1.400      1.596
REMARK  3 active torsions:
REMARK  status: ('A' for Active; 'I' for Inactive)
REMARK    1  A    between atoms: C5_5  and  C7_7 
REMARK    2  A    between atoms: C6_6  and  C8_8 
REMARK    3  A    between atoms: C7_7  and  C8_8 
ROOT
HETATM    1  C1  UNL     1     -37.134  14.424  -4.344  1.00 20.00     0.069 C 
HETATM    2  C4  UNL     1     -34.792  13.774  -4.000  1.00 20.00     0.031 C 
HETATM    3  C8  UNL     1     -35.743  14.941  -4.336  1.00 20.00     0.045 C 
HETATM    4  N9  UNL     1     -38.221  14.019  -4.350  1.00 20.00    -0.196 NA
ENDROOT
BRANCH   3   5
HETATM    5  C6  UNL     1     -35.376  15.450  -5.759  1.00 20.00     0.020 C 
HETATM    6  C3  UNL     1     -34.015  15.010  -6.291  1.00 20.00     0.007 C 
ENDBRANCH   3   5
BRANCH   3   7
HETATM    7  C7  UNL     1     -35.611  16.087  -3.296  1.00 20.00     0.024 C 
BRANCH   7   8
HETATM    8  C5  UNL     1     -34.439  15.955  -2.313  1.00 20.00    -0.003 C 
HETATM    9  C2  UNL     1     -33.263  16.825  -2.735  1.00 20.00     0.005 C 
ENDBRANCH   7   8
ENDBRANCH   3   7
TORSDOF 3
ENDMDL
MODEL 6
REMARK VINA RESULT:      -4.0      1.406      2.090
REMARK  3 active torsions:
REMARK  status: ('A' for Active; 'I' for Inactive)
REMARK    1  A    between atoms: C5_5  and  C7_7 
REMARK    2  A    between atoms: C6_6  and  C8_8 
REMARK    3  A    between atoms: C7_7  and  C8_8 
ROOT
HETATM    1  C1  UNL     1     -35.715  13.929  -4.348  1.00 20.00     0.069 C 
HETATM    2  C4  UNL     1     -34.838  16.008  -5.311  1.00 20.00     0.031 C 
HETATM    3  C8  UNL     1     -35.494  15.370  -4.070  1.00 20.00     0.045 C 
HETATM    4  N9  UNL     1     -35.888  12.802  -4.565  1.00 20.00    -0.196 NA
ENDROOT
BRANCH   3   5
HETATM    5  C6  UNL     1     -36.867  16.068  -3.854  1.00 20.00     0.020 C 
HETATM    6  C3  UNL     1     -36.826  17.396  -3.103  1.00 20.00     0.007 C 
ENDBRANCH   3   5
BRANCH   3   7
HETATM    7  C7  UNL     1     -34.595  15.535  -2.815  1.00 20.00     0.024 C 
BRANCH   7   8
HETATM    8  C5  UNL     1     -33.231  16.194  -3.061  1.00 20.00    -0.003 C 
HETATM    9  C2  UNL     1     -33.023  17.393  -2.146  1.00 20.00     0.005 C 
ENDBRANCH   7   8
ENDBRANCH   3   7
TORSDOF 3
ENDMDL
MODEL 7
REMARK VINA RESULT:      -3.9      1.118      3.577
REMARK  3 active torsions:
REMARK  status: ('A' for Active; 'I' for Inactive)
REMARK    1  A    between atoms: C5_5  and  C7_7 
REMARK    2  A    between atoms: C6_6  and  C8_8 
REMARK    3  A    between atoms: C7_7  and  C8_8 
ROOT
HETATM    1  C1  UNL     1     -35.661  13.912  -4.297  1.00 20.00     0.069 C 
HETATM    2  C4  UNL     1     -36.846  16.035  -3.960  1.00 20.00     0.031 C 
HETATM    3  C8  UNL     1     -35.461  15.361  -4.043  1.00 20.00     0.045 C 
HETATM    4  N9  UNL     1     -35.817  12.780  -4.496  1.00 20.00    -0.196 NA
ENDROOT
BRANCH   3   5
HETATM    5  C6  UNL     1     -34.765  15.549  -2.664  1.00 20.00     0.020 C 
HETATM    6  C3  UNL     1     -33.502  16.406  -2.671  1.00 20.00     0.007 C 
ENDBRANCH   3   5
BRANCH   3   7
HETATM    7  C7  UNL     1     -34.603  15.984  -5.177  1.00 20.00     0.024 C 
BRANCH   7   8
HETATM    8  C5  UNL     1     -35.052  15.648  -6.606  1.00 20.00    -0.003 C 
HETATM    9  C2  UNL     1     -33.876  15.203  -7.464  1.00 20.00     0.005 C 
ENDBRANCH   7   8
ENDBRANCH   3   7
TORSDOF 3
ENDMDL
MODEL 8
REMARK VINA RESULT:      -3.8     11.014     12.581
REMARK  3 active torsions:
REMARK  status: ('A' for Active; 'I' for Inactive)
REMARK    1  A    between atoms: C5_5  and  C7_7 
REMARK    2  A    between atoms: C6_6  and  C8_8 
REMARK    3  A    between atoms: C7_7  and  C8_8 
ROOT
HETATM    1  C1  UNL     1     -42.803   5.557   0.525  1.00 20.00     0.069 C 
HETATM    2  C4  UNL     1     -40.968   5.283  -1.082  1.00 20.00     0.031 C 
HETATM    3  C8  UNL     1     -42.407   5.802  -0.884  1.00 20.00     0.045 C 
HETATM    4  N9  UNL     1     -43.112   5.365   1.626  1.00 20.00    -0.196 NA
ENDROOT
BRANCH   3   5
HETATM    5  C6  UNL     1     -43.334   4.984  -1.829  1.00 20.00     0.020 C 
HETATM    6  C3  UNL     1     -42.710   3.742  -2.458  1.00 20.00     0.007 C 
ENDBRANCH   3   5
BRANCH   3   7
HETATM    7  C7  UNL     1     -42.503   7.319  -1.205  1.00 20.00     0.024 C 
BRANCH   7   8
HETATM    8  C5  UNL     1     -41.269   8.152  -0.834  1.00 20.00    -0.003 C 
HETATM    9  C2  UNL     1     -41.598   9.176   0.244  1.00 20.00     0.005 C 
ENDBRANCH   7   8
ENDBRANCH   3   7
TORSDOF 3
ENDMDL
MODEL 9
REMARK VINA RESULT:      -3.8     17.996     18.694
REMARK  3 active torsions:
REMARK  status: ('A' for Active; 'I' for Inactive)
REMARK    1  A    between atoms: C5_5  and  C7_7 
REMARK    2  A    between atoms: C6_6  and  C8_8 
REMARK    3  A    between atoms: C7_7  and  C8_8 
ROOT
HETATM    1  C1  UNL     1     -24.316  16.441  11.612  1.00 20.00     0.069 C 
HETATM    2  C4  UNL     1     -22.493  17.926  12.316  1.00 20.00     0.031 C 
HETATM    3  C8  UNL     1     -23.863  17.855  11.611  1.00 20.00     0.045 C 
HETATM    4  N9  UNL     1     -24.670  15.336  11.613  1.00 20.00    -0.196 NA
ENDROOT
BRANCH   3   5
HETATM    5  C6  UNL     1     -23.660  18.328  10.143  1.00 20.00     0.020 C 
HETATM    6  C3  UNL     1     -22.239  18.213   9.598  1.00 20.00     0.007 C 
ENDBRANCH   3   5
BRANCH   3   7
HETATM    7  C7  UNL     1     -24.910  18.747  12.331  1.00 20.00     0.024 C 
BRANCH   7   8
HETATM    8  C5  UNL     1     -26.197  19.024  11.541  1.00 20.00    -0.003 C 
HETATM    9  C2  UNL     1     -27.381  18.271  12.132  1.00 20.00     0.005 C 
ENDBRANCH   7   8
ENDBRANCH   3   7
TORSDOF 3
ENDMDL
