MODEL 1
REMARK VINA RESULT:      -5.2      0.000      0.000
REMARK  3 active torsions:
REMARK  status: ('A' for Active; 'I' for Inactive)
REMARK    1  A    between atoms: C5_5  and  C9_9 
REMARK    2  A    between atoms: C6_6  and  C10_10 
REMARK    3  A    between atoms: C10_10  and  O11_11 
ROOT
HETATM    1  C1  UNL     1     -32.871  15.994  -3.295  1.00 20.00     0.001 C 
HETATM    2  C2  UNL     1     -33.627  17.014  -2.449  1.00 20.00     0.005 C 
HETATM    3  C3  UNL     1     -33.792  15.291  -4.287  1.00 20.00     0.007 C 
HETATM    4  C4  UNL     1     -35.751  15.674  -2.737  1.00 20.00     0.011 C 
HETATM    5  C5  UNL     1     -34.826  16.377  -1.734  1.00 20.00    -0.014 C 
HETATM    6  C6  UNL     1     -34.991  14.643  -3.585  1.00 20.00     0.014 C 
ENDROOT
BRANCH   6   7
HETATM    7  C10 UNL     1     -35.923  13.988  -4.602  1.00 20.00     0.118 C 
HETATM    8  C8  UNL     1     -37.370  14.392  -4.378  1.00 20.00     0.040 C 
BRANCH   7   9
HETATM    9  O11 UNL     1     -35.804  12.576  -4.497  1.00 20.00    -0.396 OA
HETATM   10  H31 UNL     1     -35.008  12.324  -4.992  1.00 20.00     0.210 HD
ENDBRANCH   7   9
ENDBRANCH   6   7
BRANCH   5  11
HETATM   11  C9  UNL     1     -35.597  17.426  -0.934  1.00 20.00     0.000 C 
HETATM   12  C7  UNL     1     -35.367  17.280   0.534  1.00 20.00     0.005 C 
ENDBRANCH   5  11
TORSDOF 3
ENDMDL
MODEL 2
REMARK VINA RESULT:      -5.0      1.186      1.287
REMARK  3 active torsions:
REMARK  status: ('A' for Active; 'I' for Inactive)
REMARK    1  A    between atoms: C5_5  and  C9_9 
REMARK    2  A    between atoms: C6_6  and  C10_10 
REMARK    3  A    between atoms: C10_10  and  O11_11 
ROOT
HETATM    1  C1  UNL     1     -32.859  15.191  -3.977  1.00 20.00     0.001 C 
HETATM    2  C2  UNL     1     -33.264  16.269  -2.976  1.00 20.00     0.005 C 
HETATM    3  C3  UNL     1     -33.997  14.857  -4.938  1.00 20.00     0.007 C 
HETATM    4  C4  UNL     1     -35.679  15.548  -3.183  1.00 20.00     0.011 C 
HETATM    5  C5  UNL     1     -34.537  15.879  -2.212  1.00 20.00    -0.014 C 
HETATM    6  C6  UNL     1     -35.272  14.459  -4.187  1.00 20.00     0.014 C 
ENDROOT
BRANCH   6   7
HETATM    7  C10 UNL     1     -36.410  14.178  -5.167  1.00 20.00     0.118 C 
HETATM    8  C8  UNL     1     -36.821  15.429  -5.923  1.00 20.00     0.040 C 
BRANCH   7   9
HETATM    9  O11 UNL     1     -37.526  13.671  -4.447  1.00 20.00    -0.396 OA
HETATM   10  H31 UNL     1     -37.873  12.923  -4.959  1.00 20.00     0.210 HD
ENDBRANCH   7   9
ENDBRANCH   6   7
BRANCH   5  11
HETATM   11  C9  UNL     1     -34.952  16.994  -1.253  1.00 20.00     0.000 C 
HETATM   12  C7  UNL     1     -33.812  17.908  -0.944  1.00 20.00     0.005 C 
ENDBRANCH   5  11
TORSDOF 3
ENDMDL
MODEL 3
REMARK VINA RESULT:      -5.0      1.336      1.795
REMARK  3 active torsions:
REMARK  status: ('A' for Active; 'I' for Inactive)
REMARK    1  A    between atoms: C5_5  and  C9_9 
REMARK    2  A    between atoms: C6_6  and  C10_10 
REMARK    3  A    between atoms: C10_10  and  O11_11 
ROOT
HETATM    1  C1  UNL     1     -33.321  14.684  -4.322  1.00 20.00     0.001 C 
HETATM    2  C2  UNL     1     -33.124  15.906  -3.430  1.00 20.00     0.005 C 
HETATM    3  C3  UNL     1     -34.692  14.690  -4.991  1.00 20.00     0.007 C 
HETATM    4  C4  UNL     1     -35.622  16.041  -3.068  1.00 20.00     0.011 C 
HETATM    5  C5  UNL     1     -34.245  16.032  -2.390  1.00 20.00    -0.014 C 
HETATM    6  C6  UNL     1     -35.822  14.807  -3.963  1.00 20.00     0.014 C 
ENDROOT
BRANCH   6   7
HETATM    7  C10 UNL     1     -37.181  14.861  -4.658  1.00 20.00     0.118 C 
HETATM    8  C8  UNL     1     -37.985  16.075  -4.227  1.00 20.00     0.040 C 
BRANCH   7   9
HETATM    9  O11 UNL     1     -37.907  13.678  -4.347  1.00 20.00    -0.396 OA
HETATM   10  H31 UNL     1     -37.809  13.533  -3.392  1.00 20.00     0.210 HD
ENDBRANCH   7   9
ENDBRANCH   6   7
BRANCH   5  11
HETATM   11  C9  UNL     1     -34.055  17.289  -1.542  1.00 20.00     0.000 C 
HETATM   12  C7  UNL     1     -32.662  17.816  -1.643  1.00 20.00     0.005 C 
ENDBRANCH   5  11
TORSDOF 3
ENDMDL
MODEL 4
REMARK VINA RESULT:      -4.7      2.033      3.012
REMARK  3 active torsions:
REMARK  status: ('A' for Active; 'I' for Inactive)
REMARK    1  A    between atoms: C5_5  and  C9_9 
REMARK    2  A    between atoms: C6_6  and  C10_10 
REMARK    3  A    between atoms: C10_10  and  O11_11 
ROOT
HETATM    1  C1  UNL     1     -35.390  17.002  -1.261  1.00 20.00     0.001 C 
HETATM    2  C2  UNL     1     -34.094  17.507  -0.634  1.00 20.00     0.005 C 
HETATM    3  C3  UNL     1     -35.130  15.893  -2.276  1.00 20.00     0.007 C 
HETATM    4  C4  UNL     1     -32.829  16.839  -2.718  1.00 20.00     0.011 C 
HETATM    5  C5  UNL     1     -33.090  17.960  -1.702  1.00 20.00    -0.014 C 
HETATM    6  C6  UNL     1     -34.134  16.335  -3.354  1.00 20.00     0.014 C 
ENDROOT
BRANCH   6   7
HETATM    7  C10 UNL     1     -33.852  15.193  -4.329  1.00 20.00     0.118 C 
HETATM    8  C8  UNL     1     -34.641  13.945  -3.975  1.00 20.00     0.040 C 
BRANCH   7   9
HETATM    9  O11 UNL     1     -32.462  14.897  -4.305  1.00 20.00    -0.396 OA
HETATM   10  H31 UNL     1     -32.094  15.346  -3.527  1.00 20.00     0.210 HD
ENDBRANCH   7   9
ENDBRANCH   6   7
BRANCH   5  11
HETATM   11  C9  UNL     1     -31.782  18.413  -1.054  1.00 20.00     0.000 C 
HETATM   12  C7  UNL     1     -31.900  18.489   0.432  1.00 20.00     0.005 C 
ENDBRANCH   5  11
TORSDOF 3
ENDMDL
MODEL 5
REMARK VINA RESULT:      -4.6      1.295      1.609
REMARK  3 active torsions:
REMARK  status: ('A' for Active; 'I' for Inactive)
REMARK    1  A    between atoms: C5_5  and  C9_9 
REMARK    2  A    between atoms: C6_6  and  C10_10 
REMARK    3  A    between atoms: C10_10  and  O11_11 
ROOT
HETATM    1  C1  UNL     1     -32.637  17.429  -2.147  1.00 20.00     0.001 C 
HETATM    2  C2  UNL     1     -33.892  17.996  -1.489  1.00 20.00     0.005 C 
HETATM    3  C3  UNL     1     -32.973  16.612  -3.391  1.00 20.00     0.007 C 
HETATM    4  C4  UNL     1     -35.245  16.076  -2.423  1.00 20.00     0.011 C 
HETATM    5  C5  UNL     1     -34.908  16.892  -1.168  1.00 20.00    -0.014 C 
HETATM    6  C6  UNL     1     -33.982  15.500  -3.082  1.00 20.00     0.014 C 
ENDROOT
BRANCH   6   7
HETATM    7  C10 UNL     1     -34.340  14.729  -4.351  1.00 20.00     0.118 C 
HETATM    8  C8  UNL     1     -35.534  13.816  -4.135  1.00 20.00     0.040 C 
BRANCH   7   9
HETATM    9  O11 UNL     1     -33.218  13.953  -4.753  1.00 20.00    -0.396 OA
HETATM   10  H31 UNL     1     -33.036  13.330  -4.031  1.00 20.00     0.210 HD
ENDBRANCH   7   9
ENDBRANCH   6   7
BRANCH   5  11
HETATM   11  C9  UNL     1     -36.176  17.488  -0.557  1.00 20.00     0.000 C 
HETATM   12  C7  UNL     1     -36.074  17.596   0.928  1.00 20.00     0.005 C 
ENDBRANCH   5  11
TORSDOF 3
ENDMDL
MODEL 6
REMARK VINA RESULT:      -4.6      2.542      4.878
REMARK  3 active torsions:
REMARK  status: ('A' for Active; 'I' for Inactive)
REMARK    1  A    between atoms: C5_5  and  C9_9 
REMARK    2  A    between atoms: C6_6  and  C10_10 
REMARK    3  A    between atoms: C10_10  and  O11_11 
ROOT
HETATM    1  C1  UNL     1     -32.608  17.943  -2.157  1.00 20.00     0.001 C 
HETATM    2  C2  UNL     1     -33.138  16.643  -2.755  1.00 20.00     0.005 C 
HETATM    3  C3  UNL     1     -33.003  18.091  -0.690  1.00 20.00     0.007 C 
HETATM    4  C4  UNL     1     -35.048  16.664  -1.098  1.00 20.00     0.011 C 
HETATM    5  C5  UNL     1     -34.657  16.517  -2.575  1.00 20.00    -0.014 C 
HETATM    6  C6  UNL     1     -34.519  17.975  -0.498  1.00 20.00     0.014 C 
ENDROOT
BRANCH   6   7
HETATM    7  C10 UNL     1     -34.884  18.077   0.982  1.00 20.00     0.118 C 
HETATM    8  C8  UNL     1     -33.649  18.172   1.860  1.00 20.00     0.040 C 
BRANCH   7   9
HETATM    9  O11 UNL     1     -35.640  16.931   1.351  1.00 20.00    -0.396 OA
HETATM   10  H31 UNL     1     -35.009  16.201   1.455  1.00 20.00     0.210 HD
ENDBRANCH   7   9
ENDBRANCH   6   7
BRANCH   5  11
HETATM   11  C9  UNL     1     -35.158  15.187  -3.135  1.00 20.00     0.000 C 
HETATM   12  C7  UNL     1     -34.138  14.540  -4.014  1.00 20.00     0.005 C 
ENDBRANCH   5  11
TORSDOF 3
ENDMDL
MODEL 7
REMARK VINA RESULT:      -4.4      2.455      3.650
REMARK  3 active torsions:
REMARK  status: ('A' for Active; 'I' for Inactive)
REMARK    1  A    between atoms: C5_5  and  C9_9 
REMARK    2  A    between atoms: C6_6  and  C10_10 
REMARK    3  A    between atoms: C10_10  and  O11_11 
ROOT
HETATM    1  C1  UNL     1     -35.021  17.714  -0.207  1.00 20.00     0.001 C 
HETATM    2  C2  UNL     1     -33.602  17.974   0.291  1.00 20.00     0.005 C 
HETATM    3  C3  UNL     1     -35.036  16.750  -1.390  1.00 20.00     0.007 C 
HETATM    4  C4  UNL     1     -32.706  17.495  -2.024  1.00 20.00     0.011 C 
HETATM    5  C5  UNL     1     -32.690  18.470  -0.839  1.00 20.00    -0.014 C 
HETATM    6  C6  UNL     1     -34.134  17.238  -2.529  1.00 20.00     0.014 C 
ENDROOT
BRANCH   6   7
HETATM    7  C10 UNL     1     -34.126  16.233  -3.679  1.00 20.00     0.118 C 
HETATM    8  C8  UNL     1     -34.856  14.953  -3.311  1.00 20.00     0.040 C 
BRANCH   7   9
HETATM    9  O11 UNL     1     -32.780  15.929  -4.019  1.00 20.00    -0.396 OA
HETATM   10  H31 UNL     1     -32.792  15.573  -4.921  1.00 20.00     0.210 HD
ENDBRANCH   7   9
ENDBRANCH   6   7
BRANCH   5  11
HETATM   11  C9  UNL     1     -31.264  18.675  -0.329  1.00 20.00     0.000 C 
HETATM   12  C7  UNL     1     -31.113  18.219   1.085  1.00 20.00     0.005 C 
ENDBRANCH   5  11
TORSDOF 3
ENDMDL
MODEL 8
REMARK VINA RESULT:      -4.4      1.407      1.991
REMARK  3 active torsions:
REMARK  status: ('A' for Active; 'I' for Inactive)
REMARK    1  A    between atoms: C5_5  and  C9_9 
REMARK    2  A    between atoms: C6_6  and  C10_10 
REMARK    3  A    between atoms: C10_10  and  O11_11 
ROOT
HETATM    1  C1  UNL     1     -34.408  17.146  -5.893  1.00 20.00     0.001 C 
HETATM    2  C2  UNL     1     -34.007  17.544  -4.476  1.00 20.00     0.005 C 
HETATM    3  C3  UNL     1     -35.512  16.092  -5.891  1.00 20.00     0.007 C 
HETATM    4  C4  UNL     1     -34.720  15.268  -3.638  1.00 20.00     0.011 C 
HETATM    5  C5  UNL     1     -33.604  16.322  -3.639  1.00 20.00    -0.014 C 
HETATM    6  C6  UNL     1     -35.120  14.863  -5.065  1.00 20.00     0.014 C 
ENDROOT
BRANCH   6   7
HETATM    7  C10 UNL     1     -36.258  13.845  -5.037  1.00 20.00     0.118 C 
HETATM    8  C8  UNL     1     -37.455  14.363  -4.258  1.00 20.00     0.040 C 
BRANCH   7   9
HETATM    9  O11 UNL     1     -35.790  12.643  -4.441  1.00 20.00    -0.396 OA
HETATM   10  H31 UNL     1     -34.891  12.821  -4.121  1.00 20.00     0.210 HD
ENDBRANCH   7   9
ENDBRANCH   6   7
BRANCH   5  11
HETATM   11  C9  UNL     1     -33.256  16.739  -2.210  1.00 20.00     0.000 C 
HETATM   12  C7  UNL     1     -34.423  17.361  -1.517  1.00 20.00     0.005 C 
ENDBRANCH   5  11
TORSDOF 3
ENDMDL
MODEL 9
REMARK VINA RESULT:      -4.4      2.073      4.232
REMARK  3 active torsions:
REMARK  status: ('A' for Active; 'I' for Inactive)
REMARK    1  A    between atoms: C5_5  and  C9_9 
REMARK    2  A    between atoms: C6_6  and  C10_10 
REMARK    3  A    between atoms: C10_10  and  O11_11 
ROOT
HETATM    1  C1  UNL     1     -32.846  17.502  -2.847  1.00 20.00     0.001 C 
HETATM    2  C2  UNL     1     -33.035  16.039  -3.235  1.00 20.00     0.005 C 
HETATM    3  C3  UNL     1     -33.681  17.873  -1.624  1.00 20.00     0.007 C 
HETATM    4  C4  UNL     1     -35.350  16.072  -2.220  1.00 20.00     0.011 C 
HETATM    5  C5  UNL     1     -34.515  15.700  -3.454  1.00 20.00    -0.014 C 
HETATM    6  C6  UNL     1     -35.164  17.547  -1.832  1.00 20.00     0.014 C 
ENDROOT
BRANCH   6   7
HETATM    7  C10 UNL     1     -35.970  17.880  -0.579  1.00 20.00     0.118 C 
HETATM    8  C8  UNL     1     -35.466  17.117   0.633  1.00 20.00     0.040 C 
BRANCH   7   9
HETATM    9  O11 UNL     1     -37.336  17.557  -0.808  1.00 20.00    -0.396 OA
HETATM   10  H31 UNL     1     -37.373  16.600  -0.968  1.00 20.00     0.210 HD
ENDBRANCH   7   9
ENDBRANCH   6   7
BRANCH   5  11
HETATM   11  C9  UNL     1     -34.685  14.219  -3.792  1.00 20.00     0.000 C 
HETATM   12  C7  UNL     1     -36.034  13.935  -4.364  1.00 20.00     0.005 C 
ENDBRANCH   5  11
TORSDOF 3
ENDMDL
