MODEL 1
REMARK VINA RESULT:      -4.8      0.000      0.000
REMARK  3 active torsions:
REMARK  status: ('A' for Active; 'I' for Inactive)
REMARK    1  A    between atoms: C3_3  and  C7_7 
REMARK    2  A    between atoms: C3_3  and  C10_10 
REMARK    3  A    between atoms: C8_8  and  C11_11 
ROOT
HETATM    1  C1  UNL     1     -30.544  18.479   1.238  1.00 20.00     0.012 C 
HETATM    2  C2  UNL     1     -31.597  18.502   0.663  1.00 20.00    -0.110 C 
HETATM    3  C10 UNL     1     -32.889  18.529  -0.034  1.00 20.00     0.171 C 
ENDROOT
BRANCH   3   4
HETATM    4  C3  UNL     1     -32.737  18.674  -1.534  1.00 20.00     0.142 C 
HETATM    5  O12 UNL     1     -31.730  19.142  -2.067  1.00 20.00    -0.297 OA
BRANCH   4   6
HETATM    6  C7  UNL     1     -33.911  18.203  -2.372  1.00 20.00     0.057 C 
HETATM    7  C4  UNL     1     -34.820  17.321  -1.516  1.00 20.00     0.013 C 
HETATM    8  C5  UNL     1     -34.889  15.975  -2.235  1.00 20.00     0.005 C 
HETATM    9  C8  UNL     1     -33.564  15.891  -2.984  1.00 20.00    -0.014 C 
HETATM   10  C6  UNL     1     -33.384  17.320  -3.500  1.00 20.00     0.016 C 
BRANCH   9  11
HETATM   11  C11 UNL     1     -33.567  14.851  -4.091  1.00 20.00     0.000 C 
HETATM   12  C9  UNL     1     -34.786  13.985  -4.043  1.00 20.00     0.005 C 
ENDBRANCH   9  11
ENDBRANCH   4   6
ENDBRANCH   3   4
TORSDOF 3
ENDMDL
MODEL 2
REMARK VINA RESULT:      -4.8      3.023      5.849
REMARK  3 active torsions:
REMARK  status: ('A' for Active; 'I' for Inactive)
REMARK    1  A    between atoms: C3_3  and  C7_7 
REMARK    2  A    between atoms: C3_3  and  C10_10 
REMARK    3  A    between atoms: C8_8  and  C11_11 
ROOT
HETATM    1  C1  UNL     1     -33.785  15.110  -7.338  1.00 20.00     0.012 C 
HETATM    2  C2  UNL     1     -34.848  14.932  -6.810  1.00 20.00    -0.110 C 
HETATM    3  C10 UNL     1     -36.152  14.718  -6.172  1.00 20.00     0.171 C 
ENDROOT
BRANCH   3   4
HETATM    4  C3  UNL     1     -36.033  14.054  -4.815  1.00 20.00     0.142 C 
HETATM    5  O12 UNL     1     -35.895  12.839  -4.671  1.00 20.00    -0.297 OA
BRANCH   4   6
HETATM    6  C7  UNL     1     -36.091  14.977  -3.613  1.00 20.00     0.057 C 
HETATM    7  C4  UNL     1     -36.520  16.373  -4.068  1.00 20.00     0.013 C 
HETATM    8  C5  UNL     1     -35.395  17.312  -3.640  1.00 20.00     0.005 C 
HETATM    9  C8  UNL     1     -34.156  16.424  -3.638  1.00 20.00    -0.014 C 
HETATM   10  C6  UNL     1     -34.684  15.121  -3.038  1.00 20.00     0.016 C 
BRANCH   9  11
HETATM   11  C11 UNL     1     -32.996  17.017  -2.855  1.00 20.00     0.000 C 
HETATM   12  C9  UNL     1     -33.436  17.574  -1.538  1.00 20.00     0.005 C 
ENDBRANCH   9  11
ENDBRANCH   4   6
ENDBRANCH   3   4
TORSDOF 3
ENDMDL
MODEL 3
REMARK VINA RESULT:      -4.7      2.694      5.374
REMARK  3 active torsions:
REMARK  status: ('A' for Active; 'I' for Inactive)
REMARK    1  A    between atoms: C3_3  and  C7_7 
REMARK    2  A    between atoms: C3_3  and  C10_10 
REMARK    3  A    between atoms: C8_8  and  C11_11 
ROOT
HETATM    1  C1  UNL     1     -35.755  18.139  -6.359  1.00 20.00     0.012 C 
HETATM    2  C2  UNL     1     -35.818  16.971  -6.090  1.00 20.00    -0.110 C 
HETATM    3  C10 UNL     1     -35.904  15.543  -5.763  1.00 20.00     0.171 C 
ENDROOT
BRANCH   3   4
HETATM    4  C3  UNL     1     -34.545  14.919  -5.521  1.00 20.00     0.142 C 
HETATM    5  O12 UNL     1     -33.755  14.654  -6.427  1.00 20.00    -0.297 OA
BRANCH   4   6
HETATM    6  C7  UNL     1     -34.192  14.630  -4.073  1.00 20.00     0.057 C 
HETATM    7  C4  UNL     1     -35.389  14.968  -3.184  1.00 20.00     0.013 C 
HETATM    8  C5  UNL     1     -34.886  16.011  -2.189  1.00 20.00     0.005 C 
HETATM    9  C8  UNL     1     -33.761  16.718  -2.937  1.00 20.00    -0.014 C 
HETATM   10  C6  UNL     1     -33.060  15.563  -3.651  1.00 20.00     0.016 C 
BRANCH   9  11
HETATM   11  C11 UNL     1     -32.838  17.506  -2.023  1.00 20.00     0.000 C 
HETATM   12  C9  UNL     1     -33.554  18.024  -0.815  1.00 20.00     0.005 C 
ENDBRANCH   9  11
ENDBRANCH   4   6
ENDBRANCH   3   4
TORSDOF 3
ENDMDL
MODEL 4
REMARK VINA RESULT:      -4.5      2.658      5.930
REMARK  3 active torsions:
REMARK  status: ('A' for Active; 'I' for Inactive)
REMARK    1  A    between atoms: C3_3  and  C7_7 
REMARK    2  A    between atoms: C3_3  and  C10_10 
REMARK    3  A    between atoms: C8_8  and  C11_11 
ROOT
HETATM    1  C1  UNL     1     -35.524  15.392  -7.869  1.00 20.00     0.012 C 
HETATM    2  C2  UNL     1     -35.763  14.818  -6.842  1.00 20.00    -0.110 C 
HETATM    3  C10 UNL     1     -36.062  14.113  -5.590  1.00 20.00     0.171 C 
ENDROOT
BRANCH   3   4
HETATM    4  C3  UNL     1     -35.021  14.364  -4.519  1.00 20.00     0.142 C 
HETATM    5  O12 UNL     1     -34.449  13.459  -3.912  1.00 20.00    -0.297 OA
BRANCH   4   6
HETATM    6  C7  UNL     1     -34.707  15.818  -4.221  1.00 20.00     0.057 C 
HETATM    7  C4  UNL     1     -33.300  15.921  -3.633  1.00 20.00     0.013 C 
HETATM    8  C5  UNL     1     -33.467  16.583  -2.268  1.00 20.00     0.005 C 
HETATM    9  C8  UNL     1     -34.876  16.188  -1.839  1.00 20.00    -0.014 C 
HETATM   10  C6  UNL     1     -35.666  16.314  -3.142  1.00 20.00     0.016 C 
BRANCH   9  11
HETATM   11  C11 UNL     1     -35.426  17.054  -0.718  1.00 20.00     0.000 C 
HETATM   12  C9  UNL     1     -34.377  17.946  -0.134  1.00 20.00     0.005 C 
ENDBRANCH   9  11
ENDBRANCH   4   6
ENDBRANCH   3   4
TORSDOF 3
ENDMDL
MODEL 5
REMARK VINA RESULT:      -4.5      4.035      6.457
REMARK  3 active torsions:
REMARK  status: ('A' for Active; 'I' for Inactive)
REMARK    1  A    between atoms: C3_3  and  C7_7 
REMARK    2  A    between atoms: C3_3  and  C10_10 
REMARK    3  A    between atoms: C8_8  and  C11_11 
ROOT
HETATM    1  C1  UNL     1     -41.221  15.910  -3.083  1.00 20.00     0.012 C 
HETATM    2  C2  UNL     1     -40.136  16.099  -3.560  1.00 20.00    -0.110 C 
HETATM    3  C10 UNL     1     -38.811  16.339  -4.143  1.00 20.00     0.171 C 
ENDROOT
BRANCH   3   4
HETATM    4  C3  UNL     1     -38.078  15.054  -4.471  1.00 20.00     0.142 C 
HETATM    5  O12 UNL     1     -38.601  13.942  -4.389  1.00 20.00    -0.297 OA
BRANCH   4   6
HETATM    6  C7  UNL     1     -36.635  15.203  -4.915  1.00 20.00     0.057 C 
HETATM    7  C4  UNL     1     -35.886  13.898  -4.647  1.00 20.00     0.013 C 
HETATM    8  C5  UNL     1     -34.727  14.267  -3.724  1.00 20.00     0.005 C 
HETATM    9  C8  UNL     1     -35.237  15.488  -2.966  1.00 20.00    -0.014 C 
HETATM   10  C6  UNL     1     -35.967  16.273  -4.055  1.00 20.00     0.016 C 
BRANCH   9  11
HETATM   11  C11 UNL     1     -34.128  16.282  -2.296  1.00 20.00     0.000 C 
HETATM   12  C9  UNL     1     -33.009  16.588  -3.241  1.00 20.00     0.005 C 
ENDBRANCH   9  11
ENDBRANCH   4   6
ENDBRANCH   3   4
TORSDOF 3
ENDMDL
MODEL 6
REMARK VINA RESULT:      -4.5      3.211      6.124
REMARK  3 active torsions:
REMARK  status: ('A' for Active; 'I' for Inactive)
REMARK    1  A    between atoms: C3_3  and  C7_7 
REMARK    2  A    between atoms: C3_3  and  C10_10 
REMARK    3  A    between atoms: C8_8  and  C11_11 
ROOT
HETATM    1  C1  UNL     1     -38.779  16.332  -5.736  1.00 20.00     0.012 C 
HETATM    2  C2  UNL     1     -38.336  15.475  -5.022  1.00 20.00    -0.110 C 
HETATM    3  C10 UNL     1     -37.801  14.427  -4.144  1.00 20.00     0.171 C 
ENDROOT
BRANCH   3   4
HETATM    4  C3  UNL     1     -36.371  14.059  -4.483  1.00 20.00     0.142 C 
HETATM    5  O12 UNL     1     -35.978  12.896  -4.569  1.00 20.00    -0.297 OA
BRANCH   4   6
HETATM    6  C7  UNL     1     -35.422  15.219  -4.717  1.00 20.00     0.057 C 
HETATM    7  C4  UNL     1     -33.982  14.706  -4.694  1.00 20.00     0.013 C 
HETATM    8  C5  UNL     1     -33.280  15.490  -3.587  1.00 20.00     0.005 C 
HETATM    9  C8  UNL     1     -34.402  15.838  -2.615  1.00 20.00    -0.014 C 
HETATM   10  C6  UNL     1     -35.553  16.200  -3.555  1.00 20.00     0.016 C 
BRANCH   9  11
HETATM   11  C11 UNL     1     -34.037  16.957  -1.656  1.00 20.00     0.000 C 
HETATM   12  C9  UNL     1     -32.735  17.600  -2.014  1.00 20.00     0.005 C 
ENDBRANCH   9  11
ENDBRANCH   4   6
ENDBRANCH   3   4
TORSDOF 3
ENDMDL
MODEL 7
REMARK VINA RESULT:      -4.5      1.523      2.345
REMARK  3 active torsions:
REMARK  status: ('A' for Active; 'I' for Inactive)
REMARK    1  A    between atoms: C3_3  and  C7_7 
REMARK    2  A    between atoms: C3_3  and  C10_10 
REMARK    3  A    between atoms: C8_8  and  C11_11 
ROOT
HETATM    1  C1  UNL     1     -31.063  18.405   0.019  1.00 20.00     0.012 C 
HETATM    2  C2  UNL     1     -31.709  18.349  -0.991  1.00 20.00    -0.110 C 
HETATM    3  C10 UNL     1     -32.492  18.284  -2.231  1.00 20.00     0.171 C 
ENDROOT
BRANCH   3   4
HETATM    4  C3  UNL     1     -33.866  17.682  -2.020  1.00 20.00     0.142 C 
HETATM    5  O12 UNL     1     -34.840  18.341  -1.655  1.00 20.00    -0.297 OA
BRANCH   4   6
HETATM    6  C7  UNL     1     -33.991  16.194  -2.285  1.00 20.00     0.057 C 
HETATM    7  C4  UNL     1     -33.057  15.805  -3.431  1.00 20.00     0.013 C 
HETATM    8  C5  UNL     1     -33.950  15.187  -4.504  1.00 20.00     0.005 C 
HETATM    9  C8  UNL     1     -35.301  15.859  -4.288  1.00 20.00    -0.014 C 
HETATM   10  C6  UNL     1     -35.411  15.900  -2.763  1.00 20.00     0.016 C 
BRANCH   9  11
HETATM   11  C11 UNL     1     -36.451  15.120  -4.951  1.00 20.00     0.000 C 
HETATM   12  C9  UNL     1     -36.419  13.654  -4.655  1.00 20.00     0.005 C 
ENDBRANCH   9  11
ENDBRANCH   4   6
ENDBRANCH   3   4
TORSDOF 3
ENDMDL
MODEL 8
REMARK VINA RESULT:      -4.4      3.766      5.798
REMARK  3 active torsions:
REMARK  status: ('A' for Active; 'I' for Inactive)
REMARK    1  A    between atoms: C3_3  and  C7_7 
REMARK    2  A    between atoms: C3_3  and  C10_10 
REMARK    3  A    between atoms: C8_8  and  C11_11 
ROOT
HETATM    1  C1  UNL     1     -34.788  16.071  -2.280  1.00 20.00     0.012 C 
HETATM    2  C2  UNL     1     -34.809  15.150  -3.049  1.00 20.00    -0.110 C 
HETATM    3  C10 UNL     1     -34.828  14.021  -3.987  1.00 20.00     0.171 C 
ENDROOT
BRANCH   3   4
HETATM    4  C3  UNL     1     -36.057  14.021  -4.872  1.00 20.00     0.142 C 
HETATM    5  O12 UNL     1     -37.151  13.590  -4.506  1.00 20.00    -0.297 OA
BRANCH   4   6
HETATM    6  C7  UNL     1     -35.875  14.592  -6.266  1.00 20.00     0.057 C 
HETATM    7  C4  UNL     1     -34.407  14.964  -6.472  1.00 20.00     0.013 C 
HETATM    8  C5  UNL     1     -34.399  16.454  -6.805  1.00 20.00     0.005 C 
HETATM    9  C8  UNL     1     -35.644  16.992  -6.110  1.00 20.00    -0.014 C 
HETATM   10  C6  UNL     1     -36.671  15.890  -6.371  1.00 20.00     0.016 C 
BRANCH   9  11
HETATM   11  C11 UNL     1     -36.079  18.351  -6.629  1.00 20.00     0.000 C 
HETATM   12  C9  UNL     1     -36.962  18.235  -7.832  1.00 20.00     0.005 C 
ENDBRANCH   9  11
ENDBRANCH   4   6
ENDBRANCH   3   4
TORSDOF 3
ENDMDL
MODEL 9
REMARK VINA RESULT:      -4.4      3.294      4.753
REMARK  3 active torsions:
REMARK  status: ('A' for Active; 'I' for Inactive)
REMARK    1  A    between atoms: C3_3  and  C7_7 
REMARK    2  A    between atoms: C3_3  and  C10_10 
REMARK    3  A    between atoms: C8_8  and  C11_11 
ROOT
HETATM    1  C1  UNL     1     -34.977  16.225  -1.685  1.00 20.00     0.012 C 
HETATM    2  C2  UNL     1     -34.180  16.006  -2.555  1.00 20.00    -0.110 C 
HETATM    3  C10 UNL     1     -33.199  15.745  -3.615  1.00 20.00     0.171 C 
ENDROOT
BRANCH   3   4
HETATM    4  C3  UNL     1     -33.630  14.627  -4.542  1.00 20.00     0.142 C 
HETATM    5  O12 UNL     1     -33.362  13.443  -4.339  1.00 20.00    -0.297 OA
BRANCH   4   6
HETATM    6  C7  UNL     1     -34.427  15.044  -5.764  1.00 20.00     0.057 C 
HETATM    7  C4  UNL     1     -34.469  16.570  -5.843  1.00 20.00     0.013 C 
HETATM    8  C5  UNL     1     -35.949  16.946  -5.826  1.00 20.00     0.005 C 
HETATM    9  C8  UNL     1     -36.608  15.807  -5.057  1.00 20.00    -0.014 C 
HETATM   10  C6  UNL     1     -35.870  14.578  -5.588  1.00 20.00     0.016 C 
BRANCH   9  11
HETATM   11  C11 UNL     1     -38.112  15.738  -5.262  1.00 20.00     0.000 C 
HETATM   12  C9  UNL     1     -38.783  14.913  -4.209  1.00 20.00     0.005 C 
ENDBRANCH   9  11
ENDBRANCH   4   6
ENDBRANCH   3   4
TORSDOF 3
ENDMDL
