MODEL 1
REMARK VINA RESULT:      -4.8      0.000      0.000
REMARK  3 active torsions:
REMARK  status: ('A' for Active; 'I' for Inactive)
REMARK    1  A    between atoms: C6_6  and  C9_9 
REMARK    2  A    between atoms: C9_9  and  C11_11 
REMARK    3  A    between atoms: C10_10  and  C11_11 
ROOT
HETATM    1  C1  UNL     1     -36.535  14.429  -4.410  1.00 20.00     0.069 C 
HETATM    2  C2  UNL     1     -35.636  16.721  -6.313  1.00 20.00     0.006 C 
HETATM    3  C3  UNL     1     -35.799  16.755  -4.799  1.00 20.00     0.025 C 
HETATM    4  C4  UNL     1     -34.305  14.912  -5.380  1.00 20.00     0.029 C 
HETATM    5  C5  UNL     1     -34.318  15.975  -6.494  1.00 20.00    -0.017 C 
HETATM    6  C6  UNL     1     -35.374  15.347  -4.349  1.00 20.00     0.049 C 
HETATM    7  C7  UNL     1     -34.155  15.387  -7.885  1.00 20.00     0.010 C 
HETATM    8  N12 UNL     1     -37.443  13.709  -4.458  1.00 20.00    -0.196 NA
ENDROOT
BRANCH   6   9
HETATM    9  C9  UNL     1     -34.823  15.356  -2.923  1.00 20.00     0.024 C 
BRANCH   9  10
HETATM   10  C11 UNL     1     -33.561  16.207  -2.824  1.00 20.00     0.001 C 
BRANCH  10  11
HETATM   11  C10 UNL     1     -33.697  17.267  -1.733  1.00 20.00    -0.004 C 
HETATM   12  C8  UNL     1     -34.983  17.088  -0.941  1.00 20.00     0.005 C 
ENDBRANCH  10  11
ENDBRANCH   9  10
ENDBRANCH   6   9
TORSDOF 3
ENDMDL
MODEL 2
REMARK VINA RESULT:      -4.6      0.694      1.020
REMARK  3 active torsions:
REMARK  status: ('A' for Active; 'I' for Inactive)
REMARK    1  A    between atoms: C6_6  and  C9_9 
REMARK    2  A    between atoms: C9_9  and  C11_11 
REMARK    3  A    between atoms: C10_10  and  C11_11 
ROOT
HETATM    1  C1  UNL     1     -36.665  14.531  -4.382  1.00 20.00     0.069 C 
HETATM    2  C2  UNL     1     -35.788  16.706  -6.428  1.00 20.00     0.006 C 
HETATM    3  C3  UNL     1     -36.080  16.866  -4.941  1.00 20.00     0.025 C 
HETATM    4  C4  UNL     1     -34.405  15.110  -5.220  1.00 20.00     0.029 C 
HETATM    5  C5  UNL     1     -34.406  16.060  -6.431  1.00 20.00    -0.017 C 
HETATM    6  C6  UNL     1     -35.588  15.546  -4.323  1.00 20.00     0.049 C 
HETATM    7  C7  UNL     1     -34.080  15.362  -7.741  1.00 20.00     0.010 C 
HETATM    8  N12 UNL     1     -37.508  13.736  -4.428  1.00 20.00    -0.196 NA
ENDROOT
BRANCH   6   9
HETATM    9  C9  UNL     1     -35.162  15.734  -2.867  1.00 20.00     0.024 C 
BRANCH   9  10
HETATM   10  C11 UNL     1     -33.652  15.910  -2.751  1.00 20.00     0.001 C 
BRANCH  10  11
HETATM   11  C10 UNL     1     -33.299  17.310  -2.252  1.00 20.00    -0.004 C 
HETATM   12  C8  UNL     1     -33.020  18.259  -3.407  1.00 20.00     0.005 C 
ENDBRANCH  10  11
ENDBRANCH   9  10
ENDBRANCH   6   9
TORSDOF 3
ENDMDL
MODEL 3
REMARK VINA RESULT:      -4.6      2.342      3.455
REMARK  3 active torsions:
REMARK  status: ('A' for Active; 'I' for Inactive)
REMARK    1  A    between atoms: C6_6  and  C9_9 
REMARK    2  A    between atoms: C9_9  and  C11_11 
REMARK    3  A    between atoms: C10_10  and  C11_11 
ROOT
HETATM    1  C1  UNL     1     -34.566  17.666  -3.958  1.00 20.00     0.069 C 
HETATM    2  C2  UNL     1     -33.714  14.717  -4.465  1.00 20.00     0.006 C 
HETATM    3  C3  UNL     1     -33.061  15.749  -3.555  1.00 20.00     0.025 C 
HETATM    4  C4  UNL     1     -35.423  15.567  -2.957  1.00 20.00     0.029 C 
HETATM    5  C5  UNL     1     -34.939  14.288  -3.664  1.00 20.00    -0.017 C 
HETATM    6  C6  UNL     1     -34.246  16.570  -3.016  1.00 20.00     0.049 C 
HETATM    7  C7  UNL     1     -36.011  13.635  -4.521  1.00 20.00     0.010 C 
HETATM    8  N12 UNL     1     -34.817  18.526  -4.695  1.00 20.00    -0.196 NA
ENDROOT
BRANCH   6   9
HETATM    9  C9  UNL     1     -33.934  17.168  -1.644  1.00 20.00     0.024 C 
BRANCH   9  10
HETATM   10  C11 UNL     1     -32.555  17.818  -1.624  1.00 20.00     0.001 C 
BRANCH  10  11
HETATM   11  C10 UNL     1     -32.288  18.499  -0.283  1.00 20.00    -0.004 C 
HETATM   12  C8  UNL     1     -30.848  18.300   0.165  1.00 20.00     0.005 C 
ENDBRANCH  10  11
ENDBRANCH   9  10
ENDBRANCH   6   9
TORSDOF 3
ENDMDL
MODEL 4
REMARK VINA RESULT:      -4.5     15.606     18.479
REMARK  3 active torsions:
REMARK  status: ('A' for Active; 'I' for Inactive)
REMARK    1  A    between atoms: C6_6  and  C9_9 
REMARK    2  A    between atoms: C9_9  and  C11_11 
REMARK    3  A    between atoms: C10_10  and  C11_11 
ROOT
HETATM    1  C1  UNL     1     -22.430  17.082   8.786  1.00 20.00     0.069 C 
HETATM    2  C2  UNL     1     -22.815  17.023  11.873  1.00 20.00     0.006 C 
HETATM    3  C3  UNL     1     -22.440  18.204  10.987  1.00 20.00     0.025 C 
HETATM    4  C4  UNL     1     -24.505  17.216  10.135  1.00 20.00     0.029 C 
HETATM    5  C5  UNL     1     -24.313  16.877  11.624  1.00 20.00    -0.017 C 
HETATM    6  C6  UNL     1     -23.221  17.953   9.685  1.00 20.00     0.049 C 
HETATM    7  C7  UNL     1     -24.846  15.505  12.000  1.00 20.00     0.010 C 
HETATM    8  N12 UNL     1     -21.811  16.400   8.081  1.00 20.00    -0.196 NA
ENDROOT
BRANCH   6   9
HETATM    9  C9  UNL     1     -23.536  19.261   8.959  1.00 20.00     0.024 C 
BRANCH   9  10
HETATM   10  C11 UNL     1     -24.918  19.218   8.317  1.00 20.00     0.001 C 
BRANCH  10  11
HETATM   11  C10 UNL     1     -24.816  19.263   6.793  1.00 20.00    -0.004 C 
HETATM   12  C8  UNL     1     -26.170  19.036   6.138  1.00 20.00     0.005 C 
ENDBRANCH  10  11
ENDBRANCH   9  10
ENDBRANCH   6   9
TORSDOF 3
ENDMDL
MODEL 5
REMARK VINA RESULT:      -4.4      2.360      3.362
REMARK  3 active torsions:
REMARK  status: ('A' for Active; 'I' for Inactive)
REMARK    1  A    between atoms: C6_6  and  C9_9 
REMARK    2  A    between atoms: C9_9  and  C11_11 
REMARK    3  A    between atoms: C10_10  and  C11_11 
ROOT
HETATM    1  C1  UNL     1     -34.445  17.656  -4.027  1.00 20.00     0.069 C 
HETATM    2  C2  UNL     1     -33.676  14.662  -4.383  1.00 20.00     0.006 C 
HETATM    3  C3  UNL     1     -33.047  15.699  -3.462  1.00 20.00     0.025 C 
HETATM    4  C4  UNL     1     -35.449  15.624  -3.024  1.00 20.00     0.029 C 
HETATM    5  C5  UNL     1     -34.969  14.305  -3.656  1.00 20.00    -0.017 C 
HETATM    6  C6  UNL     1     -34.232  16.580  -3.032  1.00 20.00     0.049 C 
HETATM    7  C7  UNL     1     -36.004  13.665  -4.565  1.00 20.00     0.010 C 
HETATM    8  N12 UNL     1     -34.611  18.499  -4.806  1.00 20.00    -0.196 NA
ENDROOT
BRANCH   6   9
HETATM    9  C9  UNL     1     -33.992  17.212  -1.660  1.00 20.00     0.024 C 
BRANCH   9  10
HETATM   10  C11 UNL     1     -35.176  16.977  -0.728  1.00 20.00     0.001 C 
BRANCH  10  11
HETATM   11  C10 UNL     1     -34.956  17.659   0.621  1.00 20.00    -0.004 C 
HETATM   12  C8  UNL     1     -33.573  18.284   0.710  1.00 20.00     0.005 C 
ENDBRANCH  10  11
ENDBRANCH   9  10
ENDBRANCH   6   9
TORSDOF 3
ENDMDL
MODEL 6
REMARK VINA RESULT:      -4.4      2.076      4.324
REMARK  3 active torsions:
REMARK  status: ('A' for Active; 'I' for Inactive)
REMARK    1  A    between atoms: C6_6  and  C9_9 
REMARK    2  A    between atoms: C9_9  and  C11_11 
REMARK    3  A    between atoms: C10_10  and  C11_11 
ROOT
HETATM    1  C1  UNL     1     -35.123  17.195  -4.371  1.00 20.00     0.069 C 
HETATM    2  C2  UNL     1     -34.394  17.280  -1.347  1.00 20.00     0.006 C 
HETATM    3  C3  UNL     1     -34.898  16.100  -2.168  1.00 20.00     0.025 C 
HETATM    4  C4  UNL     1     -32.915  17.017  -3.260  1.00 20.00     0.029 C 
HETATM    5  C5  UNL     1     -32.930  17.379  -1.764  1.00 20.00    -0.017 C 
HETATM    6  C6  UNL     1     -34.261  16.313  -3.552  1.00 20.00     0.049 C 
HETATM    7  C7  UNL     1     -32.320  18.740  -1.470  1.00 20.00     0.010 C 
HETATM    8  N12 UNL     1     -35.798  17.886  -5.013  1.00 20.00    -0.196 NA
ENDROOT
BRANCH   6   9
HETATM    9  C9  UNL     1     -34.066  14.987  -4.288  1.00 20.00     0.024 C 
BRANCH   9  10
HETATM   10  C11 UNL     1     -35.053  13.932  -3.799  1.00 20.00     0.001 C 
BRANCH  10  11
HETATM   11  C10 UNL     1     -36.191  13.740  -4.801  1.00 20.00    -0.004 C 
HETATM   12  C8  UNL     1     -37.478  14.384  -4.312  1.00 20.00     0.005 C 
ENDBRANCH  10  11
ENDBRANCH   9  10
ENDBRANCH   6   9
TORSDOF 3
ENDMDL
MODEL 7
REMARK VINA RESULT:      -4.3      1.803      3.018
REMARK  3 active torsions:
REMARK  status: ('A' for Active; 'I' for Inactive)
REMARK    1  A    between atoms: C6_6  and  C9_9 
REMARK    2  A    between atoms: C9_9  and  C11_11 
REMARK    3  A    between atoms: C10_10  and  C11_11 
ROOT
HETATM    1  C1  UNL     1     -34.091  14.986  -5.872  1.00 20.00     0.069 C 
HETATM    2  C2  UNL     1     -36.691  13.971  -4.496  1.00 20.00     0.006 C 
HETATM    3  C3  UNL     1     -35.255  13.865  -4.002  1.00 20.00     0.025 C 
HETATM    4  C4  UNL     1     -35.741  16.209  -4.484  1.00 20.00     0.029 C 
HETATM    5  C5  UNL     1     -37.039  15.428  -4.211  1.00 20.00    -0.017 C 
HETATM    6  C6  UNL     1     -34.598  15.167  -4.492  1.00 20.00     0.049 C 
HETATM    7  C7  UNL     1     -38.221  15.927  -5.025  1.00 20.00     0.010 C 
HETATM    8  N12 UNL     1     -33.695  14.845  -6.952  1.00 20.00    -0.196 NA
ENDROOT
BRANCH   6   9
HETATM    9  C9  UNL     1     -33.437  15.583  -3.588  1.00 20.00     0.024 C 
BRANCH   9  10
HETATM   10  C11 UNL     1     -33.939  16.302  -2.340  1.00 20.00     0.001 C 
BRANCH  10  11
HETATM   11  C10 UNL     1     -33.060  17.507  -2.009  1.00 20.00    -0.004 C 
HETATM   12  C8  UNL     1     -32.817  18.371  -3.236  1.00 20.00     0.005 C 
ENDBRANCH  10  11
ENDBRANCH   9  10
ENDBRANCH   6   9
TORSDOF 3
ENDMDL
MODEL 8
REMARK VINA RESULT:      -4.2      1.930      4.559
REMARK  3 active torsions:
REMARK  status: ('A' for Active; 'I' for Inactive)
REMARK    1  A    between atoms: C6_6  and  C9_9 
REMARK    2  A    between atoms: C9_9  and  C11_11 
REMARK    3  A    between atoms: C10_10  and  C11_11 
ROOT
HETATM    1  C1  UNL     1     -35.430  17.541  -3.496  1.00 20.00     0.069 C 
HETATM    2  C2  UNL     1     -34.235  17.934  -0.650  1.00 20.00     0.006 C 
HETATM    3  C3  UNL     1     -35.018  16.746  -1.193  1.00 20.00     0.025 C 
HETATM    4  C4  UNL     1     -33.122  17.170  -2.673  1.00 20.00     0.029 C 
HETATM    5  C5  UNL     1     -32.854  17.738  -1.267  1.00 20.00    -0.017 C 
HETATM    6  C6  UNL     1     -34.582  16.656  -2.665  1.00 20.00     0.049 C 
HETATM    7  C7  UNL     1     -32.024  19.010  -1.283  1.00 20.00     0.010 C 
HETATM    8  N12 UNL     1     -36.095  18.233  -4.147  1.00 20.00    -0.196 NA
ENDROOT
BRANCH   6   9
HETATM    9  C9  UNL     1     -34.688  15.225  -3.194  1.00 20.00     0.024 C 
BRANCH   9  10
HETATM   10  C11 UNL     1     -33.532  14.897  -4.134  1.00 20.00     0.001 C 
BRANCH  10  11
HETATM   11  C10 UNL     1     -33.988  14.914  -5.592  1.00 20.00    -0.004 C 
HETATM   12  C8  UNL     1     -35.469  14.594  -5.716  1.00 20.00     0.005 C 
ENDBRANCH  10  11
ENDBRANCH   9  10
ENDBRANCH   6   9
TORSDOF 3
ENDMDL
MODEL 9
REMARK VINA RESULT:      -4.2     11.341     13.679
REMARK  3 active torsions:
REMARK  status: ('A' for Active; 'I' for Inactive)
REMARK    1  A    between atoms: C6_6  and  C9_9 
REMARK    2  A    between atoms: C9_9  and  C11_11 
REMARK    3  A    between atoms: C10_10  and  C11_11 
ROOT
HETATM    1  C1  UNL     1     -43.077   5.038   0.366  1.00 20.00     0.069 C 
HETATM    2  C2  UNL     1     -40.619   6.775  -0.423  1.00 20.00     0.006 C 
HETATM    3  C3  UNL     1     -41.151   5.522  -1.105  1.00 20.00     0.025 C 
HETATM    4  C4  UNL     1     -42.968   7.146  -0.934  1.00 20.00     0.029 C 
HETATM    5  C5  UNL     1     -41.600   7.850  -0.880  1.00 20.00    -0.017 C 
HETATM    6  C6  UNL     1     -42.676   5.626  -0.933  1.00 20.00     0.049 C 
HETATM    7  C7  UNL     1     -41.594   9.079   0.013  1.00 20.00     0.010 C 
HETATM    8  N12 UNL     1     -43.391   4.577   1.382  1.00 20.00    -0.196 NA
ENDROOT
BRANCH   6   9
HETATM    9  C9  UNL     1     -43.417   4.901  -2.057  1.00 20.00     0.024 C 
BRANCH   9  10
HETATM   10  C11 UNL     1     -42.828   3.516  -2.304  1.00 20.00     0.001 C 
BRANCH  10  11
HETATM   11  C10 UNL     1     -42.886   3.151  -3.786  1.00 20.00    -0.004 C 
HETATM   12  C8  UNL     1     -41.630   2.418  -4.229  1.00 20.00     0.005 C 
ENDBRANCH  10  11
ENDBRANCH   9  10
ENDBRANCH   6   9
TORSDOF 3
ENDMDL
