MODEL 1
REMARK VINA RESULT:      -4.6      0.000      0.000
REMARK  0 active torsions:
REMARK  status: ('A' for Active; 'I' for Inactive)
ROOT
HETATM    1  C1  UNL     1     -36.702  14.653  -4.195  1.00 20.00     0.071 C 
HETATM    2  C2  UNL     1     -33.138  14.677  -4.339  1.00 20.00     0.034 C 
HETATM    3  C3  UNL     1     -34.059  14.974  -5.522  1.00 20.00     0.036 C 
HETATM    4  C4  UNL     1     -34.872  15.511  -2.716  1.00 20.00     0.058 C 
HETATM    5  C5  UNL     1     -33.511  15.788  -3.361  1.00 20.00     0.123 C 
HETATM    6  C6  UNL     1     -34.868  16.170  -5.009  1.00 20.00     0.144 C 
HETATM    7  C7  UNL     1     -35.851  15.811  -3.873  1.00 20.00     0.074 C 
HETATM    8  C8  UNL     1     -36.743  17.012  -3.528  1.00 20.00     0.034 C 
HETATM    9  N9  UNL     1     -37.372  13.742  -4.448  1.00 20.00    -0.196 NA
HETATM   10  O10 UNL     1     -33.835  16.868  -4.265  1.00 20.00    -0.379 OA
ENDROOT
TORSDOF 0
ENDMDL
MODEL 2
REMARK VINA RESULT:      -4.3      1.214      2.101
REMARK  0 active torsions:
REMARK  status: ('A' for Active; 'I' for Inactive)
ROOT
HETATM    1  C1  UNL     1     -35.921  13.867  -4.641  1.00 20.00     0.071 C 
HETATM    2  C2  UNL     1     -34.841  16.204  -2.173  1.00 20.00     0.034 C 
HETATM    3  C3  UNL     1     -33.926  15.536  -3.199  1.00 20.00     0.036 C 
HETATM    4  C4  UNL     1     -36.804  16.029  -3.738  1.00 20.00     0.058 C 
HETATM    5  C5  UNL     1     -35.807  16.978  -3.067  1.00 20.00     0.123 C 
HETATM    6  C6  UNL     1     -34.553  15.974  -4.526  1.00 20.00     0.144 C 
HETATM    7  C7  UNL     1     -35.930  15.331  -4.802  1.00 20.00     0.074 C 
HETATM    8  C8  UNL     1     -36.417  15.679  -6.216  1.00 20.00     0.034 C 
HETATM    9  N9  UNL     1     -35.915  12.715  -4.514  1.00 20.00    -0.196 NA
HETATM   10  O10 UNL     1     -34.950  17.328  -4.178  1.00 20.00    -0.379 OA
ENDROOT
TORSDOF 0
ENDMDL
MODEL 3
REMARK VINA RESULT:      -4.2      1.055      1.522
REMARK  0 active torsions:
REMARK  status: ('A' for Active; 'I' for Inactive)
ROOT
HETATM    1  C1  UNL     1     -36.859  14.524  -4.118  1.00 20.00     0.071 C 
HETATM    2  C2  UNL     1     -34.295  14.941  -6.562  1.00 20.00     0.034 C 
HETATM    3  C3  UNL     1     -35.487  15.881  -6.382  1.00 20.00     0.036 C 
HETATM    4  C4  UNL     1     -34.364  14.307  -4.127  1.00 20.00     0.058 C 
HETATM    5  C5  UNL     1     -33.591  15.061  -5.213  1.00 20.00     0.123 C 
HETATM    6  C6  UNL     1     -35.320  16.340  -4.930  1.00 20.00     0.144 C 
HETATM    7  C7  UNL     1     -35.584  15.226  -3.894  1.00 20.00     0.074 C 
HETATM    8  C8  UNL     1     -35.567  15.796  -2.469  1.00 20.00     0.034 C 
HETATM    9  N9  UNL     1     -37.863  13.971  -4.294  1.00 20.00    -0.196 NA
HETATM   10  O10 UNL     1     -33.873  16.436  -4.865  1.00 20.00    -0.379 OA
ENDROOT
TORSDOF 0
ENDMDL
MODEL 4
REMARK VINA RESULT:      -4.2      1.258      1.793
REMARK  0 active torsions:
REMARK  status: ('A' for Active; 'I' for Inactive)
ROOT
HETATM    1  C1  UNL     1     -37.333  14.714  -4.671  1.00 20.00     0.071 C 
HETATM    2  C2  UNL     1     -34.425  15.632  -2.820  1.00 20.00     0.034 C 
HETATM    3  C3  UNL     1     -34.526  14.410  -3.734  1.00 20.00     0.036 C 
HETATM    4  C4  UNL     1     -36.138  16.863  -4.194  1.00 20.00     0.058 C 
HETATM    5  C5  UNL     1     -34.661  16.780  -3.799  1.00 20.00     0.123 C 
HETATM    6  C6  UNL     1     -34.875  15.045  -5.084  1.00 20.00     0.144 C 
HETATM    7  C7  UNL     1     -36.295  15.649  -5.136  1.00 20.00     0.074 C 
HETATM    8  C8  UNL     1     -36.635  16.110  -6.561  1.00 20.00     0.034 C 
HETATM    9  N9  UNL     1     -38.151  13.979  -4.304  1.00 20.00    -0.196 NA
HETATM   10  O10 UNL     1     -34.069  16.251  -5.007  1.00 20.00    -0.379 OA
ENDROOT
TORSDOF 0
ENDMDL
MODEL 5
REMARK VINA RESULT:      -4.2      1.138      2.805
REMARK  0 active torsions:
REMARK  status: ('A' for Active; 'I' for Inactive)
ROOT
HETATM    1  C1  UNL     1     -35.156  13.798  -4.254  1.00 20.00     0.071 C 
HETATM    2  C2  UNL     1     -35.899  17.191  -3.443  1.00 20.00     0.034 C 
HETATM    3  C3  UNL     1     -35.591  16.099  -2.419  1.00 20.00     0.036 C 
HETATM    4  C4  UNL     1     -34.493  16.029  -5.178  1.00 20.00     0.058 C 
HETATM    5  C5  UNL     1     -34.603  17.242  -4.250  1.00 20.00     0.123 C 
HETATM    6  C6  UNL     1     -34.191  15.643  -2.843  1.00 20.00     0.144 C 
HETATM    7  C7  UNL     1     -34.168  14.887  -4.190  1.00 20.00     0.074 C 
HETATM    8  C8  UNL     1     -32.769  14.316  -4.466  1.00 20.00     0.034 C 
HETATM    9  N9  UNL     1     -35.934  12.940  -4.305  1.00 20.00    -0.196 NA
HETATM   10  O10 UNL     1     -33.623  16.920  -3.238  1.00 20.00    -0.379 OA
ENDROOT
TORSDOF 0
ENDMDL
MODEL 6
REMARK VINA RESULT:      -4.2      2.135      3.365
REMARK  0 active torsions:
REMARK  status: ('A' for Active; 'I' for Inactive)
ROOT
HETATM    1  C1  UNL     1     -34.229  15.782  -2.893  1.00 20.00     0.071 C 
HETATM    2  C2  UNL     1     -37.185  14.799  -4.629  1.00 20.00     0.034 C 
HETATM    3  C3  UNL     1     -36.386  16.069  -4.921  1.00 20.00     0.036 C 
HETATM    4  C4  UNL     1     -35.115  13.626  -3.807  1.00 20.00     0.058 C 
HETATM    5  C5  UNL     1     -36.160  13.706  -4.924  1.00 20.00     0.123 C 
HETATM    6  C6  UNL     1     -35.004  15.508  -5.270  1.00 20.00     0.144 C 
HETATM    7  C7  UNL     1     -34.264  14.889  -4.063  1.00 20.00     0.074 C 
HETATM    8  C8  UNL     1     -32.828  14.505  -4.447  1.00 20.00     0.034 C 
HETATM    9  N9  UNL     1     -34.201  16.485  -1.972  1.00 20.00    -0.196 NA
HETATM   10  O10 UNL     1     -35.396  14.310  -5.992  1.00 20.00    -0.379 OA
ENDROOT
TORSDOF 0
ENDMDL
MODEL 7
REMARK VINA RESULT:      -4.1     17.588     18.801
REMARK  0 active torsions:
REMARK  status: ('A' for Active; 'I' for Inactive)
ROOT
HETATM    1  C1  UNL     1     -24.021  18.505   8.820  1.00 20.00     0.071 C 
HETATM    2  C2  UNL     1     -24.572  18.203  12.331  1.00 20.00     0.034 C 
HETATM    3  C3  UNL     1     -25.382  17.477  11.257  1.00 20.00     0.036 C 
HETATM    4  C4  UNL     1     -22.550  18.266  10.833  1.00 20.00     0.058 C 
HETATM    5  C5  UNL     1     -23.167  17.653  12.093  1.00 20.00     0.123 C 
HETATM    6  C6  UNL     1     -24.301  16.676  10.523  1.00 20.00     0.144 C 
HETATM    7  C7  UNL     1     -23.329  17.554   9.705  1.00 20.00     0.074 C 
HETATM    8  C8  UNL     1     -22.386  16.680   8.865  1.00 20.00     0.034 C 
HETATM    9  N9  UNL     1     -24.566  19.255   8.123  1.00 20.00    -0.196 NA
HETATM   10  O10 UNL     1     -23.457  16.309  11.647  1.00 20.00    -0.379 OA
ENDROOT
TORSDOF 0
ENDMDL
MODEL 8
REMARK VINA RESULT:      -4.1     11.170     12.321
REMARK  0 active torsions:
REMARK  status: ('A' for Active; 'I' for Inactive)
ROOT
HETATM    1  C1  UNL     1     -43.018   5.349   0.764  1.00 20.00     0.071 C 
HETATM    2  C2  UNL     1     -42.101   8.735   0.119  1.00 20.00     0.034 C 
HETATM    3  C3  UNL     1     -41.167   7.677   0.708  1.00 20.00     0.036 C 
HETATM    4  C4  UNL     1     -43.410   6.968  -1.105  1.00 20.00     0.058 C 
HETATM    5  C5  UNL     1     -42.433   8.138  -1.247  1.00 20.00     0.123 C 
HETATM    6  C6  UNL     1     -41.166   6.603  -0.385  1.00 20.00     0.144 C 
HETATM    7  C7  UNL     1     -42.511   5.857  -0.521  1.00 20.00     0.074 C 
HETATM    8  C8  UNL     1     -42.384   4.688  -1.510  1.00 20.00     0.034 C 
HETATM    9  N9  UNL     1     -43.417   4.949   1.776  1.00 20.00    -0.196 NA
HETATM   10  O10 UNL     1     -41.203   7.450  -1.565  1.00 20.00    -0.379 OA
ENDROOT
TORSDOF 0
ENDMDL
MODEL 9
REMARK VINA RESULT:      -4.1      2.202      2.943
REMARK  0 active torsions:
REMARK  status: ('A' for Active; 'I' for Inactive)
ROOT
HETATM    1  C1  UNL     1     -34.687  17.322  -4.543  1.00 20.00     0.071 C 
HETATM    2  C2  UNL     1     -36.066  14.150  -5.412  1.00 20.00     0.034 C 
HETATM    3  C3  UNL     1     -34.939  14.847  -6.174  1.00 20.00     0.036 C 
HETATM    4  C4  UNL     1     -35.386  15.282  -3.270  1.00 20.00     0.058 C 
HETATM    5  C5  UNL     1     -35.443  13.955  -4.032  1.00 20.00     0.123 C 
HETATM    6  C6  UNL     1     -33.868  15.008  -5.090  1.00 20.00     0.144 C 
HETATM    7  C7  UNL     1     -34.245  16.029  -3.994  1.00 20.00     0.074 C 
HETATM    8  C8  UNL     1     -33.063  16.264  -3.043  1.00 20.00     0.034 C 
HETATM    9  N9  UNL     1     -35.036  18.340  -4.975  1.00 20.00    -0.196 NA
HETATM   10  O10 UNL     1     -34.051  13.759  -4.372  1.00 20.00    -0.379 OA
ENDROOT
TORSDOF 0
ENDMDL
