MODEL 1
REMARK VINA RESULT:      -4.8      0.000      0.000
REMARK  5 active torsions:
REMARK  status: ('A' for Active; 'I' for Inactive)
REMARK    1  A    between atoms: C6_6  and  C8_8 
REMARK    2  A    between atoms: C7_7  and  C11_11 
REMARK    3  A    between atoms: C8_8  and  C10_10 
REMARK    4  A    between atoms: C9_9  and  C10_10 
REMARK    5  A    between atoms: C9_9  and  C11_11 
ROOT
HETATM    1  C1  UNL     1     -22.092  17.215   8.216  1.00 20.00     0.069 C 
HETATM    2  C5  UNL     1     -21.497  18.116  10.426  1.00 20.00     0.031 C 
HETATM    3  C11 UNL     1     -22.645  17.868   9.427  1.00 20.00     0.045 C 
HETATM    4  N12 UNL     1     -21.660  16.711   7.263  1.00 20.00    -0.196 NA
ENDROOT
BRANCH   3   5
HETATM    5  C7  UNL     1     -23.211  19.262   9.016  1.00 20.00     0.020 C 
HETATM    6  C3  UNL     1     -24.359  19.238   8.009  1.00 20.00     0.007 C 
ENDBRANCH   3   5
BRANCH   3   7
HETATM    7  C9  UNL     1     -23.774  17.001  10.058  1.00 20.00     0.028 C 
BRANCH   7   8
HETATM    8  C10 UNL     1     -23.830  16.839  11.602  1.00 20.00    -0.017 C 
HETATM    9  C4  UNL     1     -24.641  15.574  11.924  1.00 20.00     0.010 C 
BRANCH   8  10
HETATM   10  C8  UNL     1     -24.410  18.076  12.316  1.00 20.00     0.004 C 
BRANCH  10  11
HETATM   11  C6  UNL     1     -25.932  18.205  12.207  1.00 20.00    -0.004 C 
HETATM   12  C2  UNL     1     -26.326  19.262  11.184  1.00 20.00     0.005 C 
ENDBRANCH  10  11
ENDBRANCH   8  10
ENDBRANCH   7   8
ENDBRANCH   3   7
TORSDOF 5
ENDMDL
MODEL 2
REMARK VINA RESULT:      -4.6     16.426     18.221
REMARK  5 active torsions:
REMARK  status: ('A' for Active; 'I' for Inactive)
REMARK    1  A    between atoms: C6_6  and  C8_8 
REMARK    2  A    between atoms: C7_7  and  C11_11 
REMARK    3  A    between atoms: C8_8  and  C10_10 
REMARK    4  A    between atoms: C9_9  and  C10_10 
REMARK    5  A    between atoms: C9_9  and  C11_11 
ROOT
HETATM    1  C1  UNL     1     -37.097  14.300  -4.414  1.00 20.00     0.069 C 
HETATM    2  C5  UNL     1     -34.827  13.442  -4.014  1.00 20.00     0.031 C 
HETATM    3  C11 UNL     1     -35.656  14.619  -4.564  1.00 20.00     0.045 C 
HETATM    4  N12 UNL     1     -38.225  14.049  -4.305  1.00 20.00    -0.196 NA
ENDROOT
BRANCH   3   5
HETATM    5  C7  UNL     1     -35.338  14.739  -6.087  1.00 20.00     0.020 C 
HETATM    6  C3  UNL     1     -33.881  15.039  -6.434  1.00 20.00     0.007 C 
ENDBRANCH   3   5
BRANCH   3   7
HETATM    7  C9  UNL     1     -35.305  15.952  -3.840  1.00 20.00     0.028 C 
BRANCH   7   8
HETATM    8  C10 UNL     1     -34.386  15.914  -2.588  1.00 20.00    -0.017 C 
HETATM    9  C4  UNL     1     -35.164  16.504  -1.402  1.00 20.00     0.010 C 
BRANCH   8  10
HETATM   10  C8  UNL     1     -33.047  16.647  -2.803  1.00 20.00     0.004 C 
BRANCH  10  11
HETATM   11  C6  UNL     1     -33.011  18.067  -2.232  1.00 20.00    -0.004 C 
HETATM   12  C2  UNL     1     -31.908  18.220  -1.194  1.00 20.00     0.005 C 
ENDBRANCH  10  11
ENDBRANCH   8  10
ENDBRANCH   7   8
ENDBRANCH   3   7
TORSDOF 5
ENDMDL
MODEL 3
REMARK VINA RESULT:      -4.4     15.810     17.497
REMARK  5 active torsions:
REMARK  status: ('A' for Active; 'I' for Inactive)
REMARK    1  A    between atoms: C6_6  and  C8_8 
REMARK    2  A    between atoms: C7_7  and  C11_11 
REMARK    3  A    between atoms: C8_8  and  C10_10 
REMARK    4  A    between atoms: C9_9  and  C10_10 
REMARK    5  A    between atoms: C9_9  and  C11_11 
ROOT
HETATM    1  C1  UNL     1     -35.337  13.780  -4.280  1.00 20.00     0.069 C 
HETATM    2  C5  UNL     1     -32.965  14.427  -4.351  1.00 20.00     0.031 C 
HETATM    3  C11 UNL     1     -34.407  14.925  -4.127  1.00 20.00     0.045 C 
HETATM    4  N12 UNL     1     -36.068  12.887  -4.406  1.00 20.00    -0.196 NA
ENDROOT
BRANCH   3   5
HETATM    5  C7  UNL     1     -34.718  15.962  -5.250  1.00 20.00     0.020 C 
HETATM    6  C3  UNL     1     -34.426  15.499  -6.676  1.00 20.00     0.007 C 
ENDBRANCH   3   5
BRANCH   3   7
HETATM    7  C9  UNL     1     -34.570  15.590  -2.729  1.00 20.00     0.028 C 
BRANCH   7   8
HETATM    8  C10 UNL     1     -34.345  17.121  -2.588  1.00 20.00    -0.017 C 
HETATM    9  C4  UNL     1     -32.864  17.360  -2.254  1.00 20.00     0.010 C 
BRANCH   8  10
HETATM   10  C8  UNL     1     -35.271  17.771  -1.540  1.00 20.00     0.004 C 
BRANCH  10  11
HETATM   11  C6  UNL     1     -35.377  16.989  -0.227  1.00 20.00    -0.004 C 
HETATM   12  C2  UNL     1     -34.789  17.777   0.935  1.00 20.00     0.005 C 
ENDBRANCH  10  11
ENDBRANCH   8  10
ENDBRANCH   7   8
ENDBRANCH   3   7
TORSDOF 5
ENDMDL
MODEL 4
REMARK VINA RESULT:      -4.3     15.784     17.588
REMARK  5 active torsions:
REMARK  status: ('A' for Active; 'I' for Inactive)
REMARK    1  A    between atoms: C6_6  and  C8_8 
REMARK    2  A    between atoms: C7_7  and  C11_11 
REMARK    3  A    between atoms: C8_8  and  C10_10 
REMARK    4  A    between atoms: C9_9  and  C10_10 
REMARK    5  A    between atoms: C9_9  and  C11_11 
ROOT
HETATM    1  C1  UNL     1     -35.341  13.816  -4.279  1.00 20.00     0.069 C 
HETATM    2  C5  UNL     1     -33.216  14.979  -3.853  1.00 20.00     0.031 C 
HETATM    3  C11 UNL     1     -34.729  15.153  -4.089  1.00 20.00     0.045 C 
HETATM    4  N12 UNL     1     -35.821  12.771  -4.436  1.00 20.00    -0.196 NA
ENDROOT
BRANCH   3   5
HETATM    5  C7  UNL     1     -34.902  15.964  -5.411  1.00 20.00     0.020 C 
HETATM    6  C3  UNL     1     -34.268  15.342  -6.654  1.00 20.00     0.007 C 
ENDBRANCH   3   5
BRANCH   3   7
HETATM    7  C9  UNL     1     -35.407  15.910  -2.909  1.00 20.00     0.028 C 
BRANCH   7   8
HETATM    8  C10 UNL     1     -34.526  16.754  -1.945  1.00 20.00    -0.017 C 
HETATM    9  C4  UNL     1     -35.249  16.848  -0.592  1.00 20.00     0.010 C 
BRANCH   8  10
HETATM   10  C8  UNL     1     -34.192  18.151  -2.504  1.00 20.00     0.004 C 
BRANCH  10  11
HETATM   11  C6  UNL     1     -32.692  18.424  -2.652  1.00 20.00    -0.004 C 
HETATM   12  C2  UNL     1     -31.957  18.203  -1.337  1.00 20.00     0.005 C 
ENDBRANCH  10  11
ENDBRANCH   8  10
ENDBRANCH   7   8
ENDBRANCH   3   7
TORSDOF 5
ENDMDL
MODEL 5
REMARK VINA RESULT:      -4.1     16.580     18.422
REMARK  5 active torsions:
REMARK  status: ('A' for Active; 'I' for Inactive)
REMARK    1  A    between atoms: C6_6  and  C8_8 
REMARK    2  A    between atoms: C7_7  and  C11_11 
REMARK    3  A    between atoms: C8_8  and  C10_10 
REMARK    4  A    between atoms: C9_9  and  C10_10 
REMARK    5  A    between atoms: C9_9  and  C11_11 
ROOT
HETATM    1  C1  UNL     1     -37.540  14.819  -4.291  1.00 20.00     0.069 C 
HETATM    2  C5  UNL     1     -36.174  16.425  -5.557  1.00 20.00     0.031 C 
HETATM    3  C11 UNL     1     -36.521  15.888  -4.154  1.00 20.00     0.045 C 
HETATM    4  N12 UNL     1     -38.343  13.988  -4.394  1.00 20.00    -0.196 NA
ENDROOT
BRANCH   3   5
HETATM    5  C7  UNL     1     -37.153  17.067  -3.351  1.00 20.00     0.020 C 
HETATM    6  C3  UNL     1     -36.631  18.459  -3.701  1.00 20.00     0.007 C 
ENDBRANCH   3   5
BRANCH   3   7
HETATM    7  C9  UNL     1     -35.257  15.358  -3.416  1.00 20.00     0.028 C 
BRANCH   7   8
HETATM    8  C10 UNL     1     -33.851  15.779  -3.927  1.00 20.00    -0.017 C 
HETATM    9  C4  UNL     1     -33.088  14.509  -4.336  1.00 20.00     0.010 C 
BRANCH   8  10
HETATM   10  C8  UNL     1     -33.057  16.603  -2.894  1.00 20.00     0.004 C 
BRANCH  10  11
HETATM   11  C6  UNL     1     -33.885  17.058  -1.687  1.00 20.00    -0.004 C 
HETATM   12  C2  UNL     1     -33.144  18.110  -0.873  1.00 20.00     0.005 C 
ENDBRANCH  10  11
ENDBRANCH   8  10
ENDBRANCH   7   8
ENDBRANCH   3   7
TORSDOF 5
ENDMDL
MODEL 6
REMARK VINA RESULT:      -4.1     16.146     17.816
REMARK  5 active torsions:
REMARK  status: ('A' for Active; 'I' for Inactive)
REMARK    1  A    between atoms: C6_6  and  C8_8 
REMARK    2  A    between atoms: C7_7  and  C11_11 
REMARK    3  A    between atoms: C8_8  and  C10_10 
REMARK    4  A    between atoms: C9_9  and  C10_10 
REMARK    5  A    between atoms: C9_9  and  C11_11 
ROOT
HETATM    1  C1  UNL     1     -35.560  13.839  -4.326  1.00 20.00     0.069 C 
HETATM    2  C5  UNL     1     -33.355  14.819  -4.803  1.00 20.00     0.031 C 
HETATM    3  C11 UNL     1     -34.720  15.044  -4.123  1.00 20.00     0.045 C 
HETATM    4  N12 UNL     1     -36.222  12.900  -4.491  1.00 20.00    -0.196 NA
ENDROOT
BRANCH   3   5
HETATM    5  C7  UNL     1     -35.405  16.246  -4.844  1.00 20.00     0.020 C 
HETATM    6  C3  UNL     1     -34.549  16.966  -5.884  1.00 20.00     0.007 C 
ENDBRANCH   3   5
BRANCH   3   7
HETATM    7  C9  UNL     1     -34.556  15.356  -2.606  1.00 20.00     0.028 C 
BRANCH   7   8
HETATM    8  C10 UNL     1     -34.594  16.835  -2.130  1.00 20.00    -0.017 C 
HETATM    9  C4  UNL     1     -33.154  17.371  -2.114  1.00 20.00     0.010 C 
BRANCH   8  10
HETATM   10  C8  UNL     1     -35.274  17.008  -0.757  1.00 20.00     0.004 C 
BRANCH  10  11
HETATM   11  C6  UNL     1     -36.451  17.988  -0.760  1.00 20.00    -0.004 C 
HETATM   12  C2  UNL     1     -37.186  17.966  -2.093  1.00 20.00     0.005 C 
ENDBRANCH  10  11
ENDBRANCH   8  10
ENDBRANCH   7   8
ENDBRANCH   3   7
TORSDOF 5
ENDMDL
MODEL 7
REMARK VINA RESULT:      -4.1     16.686     18.513
REMARK  5 active torsions:
REMARK  status: ('A' for Active; 'I' for Inactive)
REMARK    1  A    between atoms: C6_6  and  C8_8 
REMARK    2  A    between atoms: C7_7  and  C11_11 
REMARK    3  A    between atoms: C8_8  and  C10_10 
REMARK    4  A    between atoms: C9_9  and  C10_10 
REMARK    5  A    between atoms: C9_9  and  C11_11 
ROOT
HETATM    1  C1  UNL     1     -35.769  13.956  -4.946  1.00 20.00     0.069 C 
HETATM    2  C5  UNL     1     -34.230  15.215  -6.394  1.00 20.00     0.031 C 
HETATM    3  C11 UNL     1     -35.453  15.310  -5.459  1.00 20.00     0.045 C 
HETATM    4  N12 UNL     1     -36.023  12.895  -4.548  1.00 20.00    -0.196 NA
ENDROOT
BRANCH   3   5
HETATM    5  C7  UNL     1     -36.657  15.801  -6.321  1.00 20.00     0.020 C 
HETATM    6  C3  UNL     1     -36.820  17.316  -6.427  1.00 20.00     0.007 C 
ENDBRANCH   3   5
BRANCH   3   7
HETATM    7  C9  UNL     1     -35.199  16.303  -4.287  1.00 20.00     0.028 C 
BRANCH   7   8
HETATM    8  C10 UNL     1     -34.378  15.827  -3.057  1.00 20.00    -0.017 C 
HETATM    9  C4  UNL     1     -35.162  16.189  -1.786  1.00 20.00     0.010 C 
BRANCH   8  10
HETATM   10  C8  UNL     1     -32.951  16.410  -3.023  1.00 20.00     0.004 C 
BRANCH  10  11
HETATM   11  C6  UNL     1     -32.897  17.914  -2.737  1.00 20.00    -0.004 C 
HETATM   12  C2  UNL     1     -32.093  18.209  -1.478  1.00 20.00     0.005 C 
ENDBRANCH  10  11
ENDBRANCH   8  10
ENDBRANCH   7   8
ENDBRANCH   3   7
TORSDOF 5
ENDMDL
MODEL 8
REMARK VINA RESULT:      -4.1     15.924     17.619
REMARK  5 active torsions:
REMARK  status: ('A' for Active; 'I' for Inactive)
REMARK    1  A    between atoms: C6_6  and  C8_8 
REMARK    2  A    between atoms: C7_7  and  C11_11 
REMARK    3  A    between atoms: C8_8  and  C10_10 
REMARK    4  A    between atoms: C9_9  and  C10_10 
REMARK    5  A    between atoms: C9_9  and  C11_11 
ROOT
HETATM    1  C1  UNL     1     -35.679  13.948  -4.329  1.00 20.00     0.069 C 
HETATM    2  C5  UNL     1     -34.573  15.955  -5.221  1.00 20.00     0.031 C 
HETATM    3  C11 UNL     1     -35.390  15.375  -4.050  1.00 20.00     0.045 C 
HETATM    4  N12 UNL     1     -35.913  12.832  -4.549  1.00 20.00    -0.196 NA
ENDROOT
BRANCH   3   5
HETATM    5  C7  UNL     1     -36.744  16.148  -4.001  1.00 20.00     0.020 C 
HETATM    6  C3  UNL     1     -37.520  16.204  -5.316  1.00 20.00     0.007 C 
ENDBRANCH   3   5
BRANCH   3   7
HETATM    7  C9  UNL     1     -34.638  15.534  -2.695  1.00 20.00     0.028 C 
BRANCH   7   8
HETATM    8  C10 UNL     1     -34.553  16.939  -2.038  1.00 20.00    -0.017 C 
HETATM    9  C4  UNL     1     -33.077  17.364  -1.999  1.00 20.00     0.010 C 
BRANCH   8  10
HETATM   10  C8  UNL     1     -35.189  16.985  -0.634  1.00 20.00     0.004 C 
BRANCH  10  11
HETATM   11  C6  UNL     1     -34.886  18.267   0.149  1.00 20.00    -0.004 C 
HETATM   12  C2  UNL     1     -34.333  17.954   1.532  1.00 20.00     0.005 C 
ENDBRANCH  10  11
ENDBRANCH   8  10
ENDBRANCH   7   8
ENDBRANCH   3   7
TORSDOF 5
ENDMDL
MODEL 9
REMARK VINA RESULT:      -3.9      1.869      4.093
REMARK  5 active torsions:
REMARK  status: ('A' for Active; 'I' for Inactive)
REMARK    1  A    between atoms: C6_6  and  C8_8 
REMARK    2  A    between atoms: C7_7  and  C11_11 
REMARK    3  A    between atoms: C8_8  and  C10_10 
REMARK    4  A    between atoms: C9_9  and  C10_10 
REMARK    5  A    between atoms: C9_9  and  C11_11 
ROOT
HETATM    1  C1  UNL     1     -24.241  16.569  10.879  1.00 20.00     0.069 C 
HETATM    2  C5  UNL     1     -25.178  18.764  11.474  1.00 20.00     0.031 C 
HETATM    3  C11 UNL     1     -23.896  17.994  11.100  1.00 20.00     0.045 C 
HETATM    4  N12 UNL     1     -24.508  15.452  10.712  1.00 20.00    -0.196 NA
ENDROOT
BRANCH   3   5
HETATM    5  C7  UNL     1     -22.931  18.079  12.324  1.00 20.00     0.020 C 
HETATM    6  C3  UNL     1     -21.458  17.810  12.022  1.00 20.00     0.007 C 
ENDBRANCH   3   5
BRANCH   3   7
HETATM    7  C9  UNL     1     -23.212  18.601   9.840  1.00 20.00     0.028 C 
BRANCH   7   8
HETATM    8  C10 UNL     1     -23.418  17.914   8.462  1.00 20.00    -0.017 C 
HETATM    9  C4  UNL     1     -22.055  17.403   7.970  1.00 20.00     0.010 C 
BRANCH   8  10
HETATM   10  C8  UNL     1     -24.081  18.840   7.422  1.00 20.00     0.004 C 
BRANCH  10  11
HETATM   11  C6  UNL     1     -25.572  19.089   7.666  1.00 20.00    -0.004 C 
HETATM   12  C2  UNL     1     -26.392  18.809   6.414  1.00 20.00     0.005 C 
ENDBRANCH  10  11
ENDBRANCH   8  10
ENDBRANCH   7   8
ENDBRANCH   3   7
TORSDOF 5
ENDMDL
