MODEL 1
REMARK VINA RESULT:      -5.5      0.000      0.000
REMARK  3 active torsions:
REMARK  status: ('A' for Active; 'I' for Inactive)
REMARK    1  A    between atoms: C3_3  and  C7_7 
REMARK    2  A    between atoms: C3_3  and  C9_9 
REMARK    3  A    between atoms: C8_8  and  C9_9 
ROOT
HETATM    1  C1  UNL     1     -33.405   9.534   0.416  1.00 20.00     0.012 C 
HETATM    2  C2  UNL     1     -32.817   8.555   0.783  1.00 20.00    -0.117 C 
HETATM    3  C8  UNL     1     -32.095   7.353   1.230  1.00 20.00     0.100 C 
ENDROOT
BRANCH   3   4
HETATM    4  C9  UNL     1     -32.310   7.080   2.717  1.00 20.00     0.091 C 
BRANCH   4   5
HETATM    5  C3  UNL     1     -33.236   5.905   2.999  1.00 20.00     0.134 C 
HETATM    6  O10 UNL     1     -33.100   4.805   2.467  1.00 20.00    -0.297 OA
BRANCH   5   7
HETATM    7  C7  UNL     1     -34.343   6.156   4.003  1.00 20.00     0.081 C 
HETATM    8  C4  UNL     1     -33.767   6.806   5.241  1.00 20.00     0.040 C 
HETATM    9  C5  UNL     1     -34.501   6.114   6.364  1.00 20.00     0.168 C 
HETATM   10  O11 UNL     1     -34.697   4.774   5.908  1.00 20.00    -0.390 OA
HETATM   11  C6  UNL     1     -34.907   4.832   4.490  1.00 20.00     0.179 C 
ENDBRANCH   5   7
ENDBRANCH   4   5
ENDBRANCH   3   4
TORSDOF 3
ENDMDL
MODEL 2
REMARK VINA RESULT:      -5.2      1.329      1.345
REMARK  3 active torsions:
REMARK  status: ('A' for Active; 'I' for Inactive)
REMARK    1  A    between atoms: C3_3  and  C7_7 
REMARK    2  A    between atoms: C3_3  and  C9_9 
REMARK    3  A    between atoms: C8_8  and  C9_9 
ROOT
HETATM    1  C1  UNL     1     -33.589   8.999  -0.346  1.00 20.00     0.012 C 
HETATM    2  C2  UNL     1     -32.887   8.489   0.483  1.00 20.00    -0.117 C 
HETATM    3  C8  UNL     1     -32.024   7.866   1.498  1.00 20.00     0.100 C 
ENDROOT
BRANCH   3   4
HETATM    4  C9  UNL     1     -32.737   6.734   2.236  1.00 20.00     0.091 C 
BRANCH   4   5
HETATM    5  C3  UNL     1     -32.945   7.004   3.719  1.00 20.00     0.134 C 
HETATM    6  O10 UNL     1     -32.125   7.602   4.412  1.00 20.00    -0.297 OA
BRANCH   5   7
HETATM    7  C7  UNL     1     -34.251   6.507   4.308  1.00 20.00     0.081 C 
HETATM    8  C4  UNL     1     -34.125   6.413   5.812  1.00 20.00     0.040 C 
HETATM    9  C5  UNL     1     -34.843   5.125   6.135  1.00 20.00     0.168 C 
HETATM   10  O11 UNL     1     -34.573   4.261   5.029  1.00 20.00    -0.390 OA
HETATM   11  C6  UNL     1     -34.513   5.082   3.853  1.00 20.00     0.179 C 
ENDBRANCH   5   7
ENDBRANCH   4   5
ENDBRANCH   3   4
TORSDOF 3
ENDMDL
MODEL 3
REMARK VINA RESULT:      -4.8     11.169     12.107
REMARK  3 active torsions:
REMARK  status: ('A' for Active; 'I' for Inactive)
REMARK    1  A    between atoms: C3_3  and  C7_7 
REMARK    2  A    between atoms: C3_3  and  C9_9 
REMARK    3  A    between atoms: C8_8  and  C9_9 
ROOT
HETATM    1  C1  UNL     1     -35.082  16.347  -1.680  1.00 20.00     0.012 C 
HETATM    2  C2  UNL     1     -34.276  16.081  -2.528  1.00 20.00    -0.117 C 
HETATM    3  C8  UNL     1     -33.286  15.759  -3.568  1.00 20.00     0.100 C 
ENDROOT
BRANCH   3   4
HETATM    4  C9  UNL     1     -33.661  14.495  -4.338  1.00 20.00     0.091 C 
BRANCH   4   5
HETATM    5  C3  UNL     1     -34.312  14.768  -5.687  1.00 20.00     0.134 C 
HETATM    6  O10 UNL     1     -33.676  15.129  -6.675  1.00 20.00    -0.297 OA
BRANCH   5   7
HETATM    7  C7  UNL     1     -35.810  14.547  -5.759  1.00 20.00     0.081 C 
HETATM    8  C4  UNL     1     -36.528  15.843  -5.454  1.00 20.00     0.040 C 
HETATM    9  C5  UNL     1     -37.684  15.397  -4.591  1.00 20.00     0.168 C 
HETATM   10  O11 UNL     1     -37.176  14.303  -3.825  1.00 20.00    -0.390 OA
HETATM   11  C6  UNL     1     -36.245  13.596  -4.658  1.00 20.00     0.179 C 
ENDBRANCH   5   7
ENDBRANCH   4   5
ENDBRANCH   3   4
TORSDOF 3
ENDMDL
MODEL 4
REMARK VINA RESULT:      -4.7     10.949     12.843
REMARK  3 active torsions:
REMARK  status: ('A' for Active; 'I' for Inactive)
REMARK    1  A    between atoms: C3_3  and  C7_7 
REMARK    2  A    between atoms: C3_3  and  C9_9 
REMARK    3  A    between atoms: C8_8  and  C9_9 
ROOT
HETATM    1  C1  UNL     1     -32.996  16.939  -2.748  1.00 20.00     0.012 C 
HETATM    2  C2  UNL     1     -33.945  16.206  -2.782  1.00 20.00    -0.117 C 
HETATM    3  C8  UNL     1     -35.110  15.308  -2.820  1.00 20.00     0.100 C 
ENDROOT
BRANCH   3   4
HETATM    4  C9  UNL     1     -34.925  14.178  -3.830  1.00 20.00     0.091 C 
BRANCH   4   5
HETATM    5  C3  UNL     1     -36.072  14.047  -4.823  1.00 20.00     0.134 C 
HETATM    6  O10 UNL     1     -37.125  13.471  -4.556  1.00 20.00    -0.297 OA
BRANCH   5   7
HETATM    7  C7  UNL     1     -35.857  14.693  -6.177  1.00 20.00     0.081 C 
HETATM    8  C4  UNL     1     -34.386  14.985  -6.371  1.00 20.00     0.040 C 
HETATM    9  C5  UNL     1     -34.391  16.344  -7.029  1.00 20.00     0.168 C 
HETATM   10  O11 UNL     1     -35.504  17.031  -6.453  1.00 20.00    -0.390 OA
HETATM   11  C6  UNL     1     -36.528  16.055  -6.211  1.00 20.00     0.179 C 
ENDBRANCH   5   7
ENDBRANCH   4   5
ENDBRANCH   3   4
TORSDOF 3
ENDMDL
MODEL 5
REMARK VINA RESULT:      -4.6     11.187     11.833
REMARK  3 active torsions:
REMARK  status: ('A' for Active; 'I' for Inactive)
REMARK    1  A    between atoms: C3_3  and  C7_7 
REMARK    2  A    between atoms: C3_3  and  C9_9 
REMARK    3  A    between atoms: C8_8  and  C9_9 
ROOT
HETATM    1  C1  UNL     1     -32.304  18.145  -0.953  1.00 20.00     0.012 C 
HETATM    2  C2  UNL     1     -32.679  17.570  -1.937  1.00 20.00    -0.117 C 
HETATM    3  C8  UNL     1     -33.138  16.867  -3.146  1.00 20.00     0.100 C 
ENDROOT
BRANCH   3   4
HETATM    4  C9  UNL     1     -34.135  15.759  -2.816  1.00 20.00     0.091 C 
BRANCH   4   5
HETATM    5  C3  UNL     1     -34.359  14.775  -3.956  1.00 20.00     0.134 C 
HETATM    6  O10 UNL     1     -33.581  13.858  -4.210  1.00 20.00    -0.297 OA
BRANCH   5   7
HETATM    7  C7  UNL     1     -35.625  14.972  -4.766  1.00 20.00     0.081 C 
HETATM    8  C4  UNL     1     -36.611  15.799  -3.972  1.00 20.00     0.040 C 
HETATM    9  C5  UNL     1     -37.931  15.122  -4.257  1.00 20.00     0.168 C 
HETATM   10  O11 UNL     1     -37.618  13.732  -4.372  1.00 20.00    -0.390 OA
HETATM   11  C6  UNL     1     -36.318  13.636  -4.972  1.00 20.00     0.179 C 
ENDBRANCH   5   7
ENDBRANCH   4   5
ENDBRANCH   3   4
TORSDOF 3
ENDMDL
MODEL 6
REMARK VINA RESULT:      -4.5     10.859     12.918
REMARK  3 active torsions:
REMARK  status: ('A' for Active; 'I' for Inactive)
REMARK    1  A    between atoms: C3_3  and  C7_7 
REMARK    2  A    between atoms: C3_3  and  C9_9 
REMARK    3  A    between atoms: C8_8  and  C9_9 
ROOT
HETATM    1  C1  UNL     1     -35.160  16.556  -1.407  1.00 20.00     0.012 C 
HETATM    2  C2  UNL     1     -34.715  15.934  -2.331  1.00 20.00    -0.117 C 
HETATM    3  C8  UNL     1     -34.166  15.173  -3.465  1.00 20.00     0.100 C 
ENDROOT
BRANCH   3   4
HETATM    4  C9  UNL     1     -35.019  13.951  -3.797  1.00 20.00     0.091 C 
BRANCH   4   5
HETATM    5  C3  UNL     1     -36.232  14.264  -4.662  1.00 20.00     0.134 C 
HETATM    6  O10 UNL     1     -37.284  13.633  -4.593  1.00 20.00    -0.297 OA
BRANCH   5   7
HETATM    7  C7  UNL     1     -36.083  15.431  -5.617  1.00 20.00     0.081 C 
HETATM    8  C4  UNL     1     -37.385  16.197  -5.690  1.00 20.00     0.040 C 
HETATM    9  C5  UNL     1     -37.508  16.524  -7.159  1.00 20.00     0.168 C 
HETATM   10  O11 UNL     1     -36.941  15.402  -7.838  1.00 20.00    -0.390 OA
HETATM   11  C6  UNL     1     -35.859  14.917  -7.029  1.00 20.00     0.179 C 
ENDBRANCH   5   7
ENDBRANCH   4   5
ENDBRANCH   3   4
TORSDOF 3
ENDMDL
MODEL 7
REMARK VINA RESULT:      -4.5     10.845     11.791
REMARK  3 active torsions:
REMARK  status: ('A' for Active; 'I' for Inactive)
REMARK    1  A    between atoms: C3_3  and  C7_7 
REMARK    2  A    between atoms: C3_3  and  C9_9 
REMARK    3  A    between atoms: C8_8  and  C9_9 
ROOT
HETATM    1  C1  UNL     1     -30.885  18.334  -0.141  1.00 20.00     0.012 C 
HETATM    2  C2  UNL     1     -31.863  18.243  -0.830  1.00 20.00    -0.117 C 
HETATM    3  C8  UNL     1     -33.063  18.134  -1.673  1.00 20.00     0.100 C 
ENDROOT
BRANCH   3   4
HETATM    4  C9  UNL     1     -33.070  16.844  -2.490  1.00 20.00     0.091 C 
BRANCH   4   5
HETATM    5  C3  UNL     1     -34.424  16.149  -2.531  1.00 20.00     0.134 C 
HETATM    6  O10 UNL     1     -35.192  16.126  -1.572  1.00 20.00    -0.297 OA
BRANCH   5   7
HETATM    7  C7  UNL     1     -34.795  15.493  -3.846  1.00 20.00     0.081 C 
HETATM    8  C4  UNL     1     -36.213  14.973  -3.770  1.00 20.00     0.040 C 
HETATM    9  C5  UNL     1     -36.127  13.639  -4.472  1.00 20.00     0.168 C 
HETATM   10  O11 UNL     1     -34.832  13.131  -4.146  1.00 20.00    -0.390 OA
HETATM   11  C6  UNL     1     -33.942  14.254  -4.063  1.00 20.00     0.179 C 
ENDBRANCH   5   7
ENDBRANCH   4   5
ENDBRANCH   3   4
TORSDOF 3
ENDMDL
MODEL 8
REMARK VINA RESULT:      -4.4     10.939     12.295
REMARK  3 active torsions:
REMARK  status: ('A' for Active; 'I' for Inactive)
REMARK    1  A    between atoms: C3_3  and  C7_7 
REMARK    2  A    between atoms: C3_3  and  C9_9 
REMARK    3  A    between atoms: C8_8  and  C9_9 
ROOT
HETATM    1  C1  UNL     1     -34.816  18.012  -6.027  1.00 20.00     0.012 C 
HETATM    2  C2  UNL     1     -35.512  17.063  -6.263  1.00 20.00    -0.117 C 
HETATM    3  C8  UNL     1     -36.368  15.901  -6.553  1.00 20.00     0.100 C 
ENDROOT
BRANCH   3   4
HETATM    4  C9  UNL     1     -35.693  14.587  -6.168  1.00 20.00     0.091 C 
BRANCH   4   5
HETATM    5  C3  UNL     1     -36.074  14.083  -4.783  1.00 20.00     0.134 C 
HETATM    6  O10 UNL     1     -37.161  13.567  -4.535  1.00 20.00    -0.297 OA
BRANCH   5   7
HETATM    7  C7  UNL     1     -35.016  14.232  -3.708  1.00 20.00     0.081 C 
HETATM    8  C4  UNL     1     -35.271  15.496  -2.918  1.00 20.00     0.040 C 
HETATM    9  C5  UNL     1     -33.884  16.058  -2.716  1.00 20.00     0.168 C 
HETATM   10  O11 UNL     1     -33.169  15.721  -3.906  1.00 20.00    -0.390 OA
HETATM   11  C6  UNL     1     -33.655  14.444  -4.348  1.00 20.00     0.179 C 
ENDBRANCH   5   7
ENDBRANCH   4   5
ENDBRANCH   3   4
TORSDOF 3
ENDMDL
MODEL 9
REMARK VINA RESULT:      -4.4     10.788     12.117
REMARK  3 active torsions:
REMARK  status: ('A' for Active; 'I' for Inactive)
REMARK    1  A    between atoms: C3_3  and  C7_7 
REMARK    2  A    between atoms: C3_3  and  C9_9 
REMARK    3  A    between atoms: C8_8  and  C9_9 
ROOT
HETATM    1  C1  UNL     1     -33.758  15.248  -7.757  1.00 20.00     0.012 C 
HETATM    2  C2  UNL     1     -34.876  15.230  -7.319  1.00 20.00    -0.117 C 
HETATM    3  C8  UNL     1     -36.246  15.209  -6.785  1.00 20.00     0.100 C 
ENDROOT
BRANCH   3   4
HETATM    4  C9  UNL     1     -36.267  15.328  -5.263  1.00 20.00     0.091 C 
BRANCH   4   5
HETATM    5  C3  UNL     1     -35.695  14.113  -4.545  1.00 20.00     0.134 C 
HETATM    6  O10 UNL     1     -36.045  12.962  -4.796  1.00 20.00    -0.297 OA
BRANCH   5   7
HETATM    7  C7  UNL     1     -34.635  14.397  -3.499  1.00 20.00     0.081 C 
HETATM    8  C4  UNL     1     -35.033  15.610  -2.689  1.00 20.00     0.040 C 
HETATM    9  C5  UNL     1     -33.729  16.352  -2.522  1.00 20.00     0.168 C 
HETATM   10  O11 UNL     1     -33.013  16.123  -3.737  1.00 20.00    -0.390 OA
HETATM   11  C6  UNL     1     -33.335  14.796  -4.177  1.00 20.00     0.179 C 
ENDBRANCH   5   7
ENDBRANCH   4   5
ENDBRANCH   3   4
TORSDOF 3
ENDMDL
