MODEL 1
REMARK VINA RESULT:      -5.1      0.000      0.000
REMARK  4 active torsions:
REMARK  status: ('A' for Active; 'I' for Inactive)
REMARK    1  A    between atoms: C2_2  and  C8_8 
REMARK    2  A    between atoms: C6_6  and  C9_9 
REMARK    3  A    between atoms: C8_8  and  C9_9 
REMARK    4  A    between atoms: C9_9  and  O11_11 
ROOT
HETATM    1  C1  UNL     1     -32.736   8.369   0.934  1.00 20.00    -0.111 C 
HETATM    2  C2  UNL     1     -32.570   7.463   1.703  1.00 20.00    -0.104 C 
HETATM    3  C7  UNL     1     -32.937   9.474  -0.002  1.00 20.00     0.112 C 
ENDROOT
BRANCH   2   4
HETATM    4  C8  UNL     1     -32.369   6.349   2.646  1.00 20.00     0.128 C 
BRANCH   4   5
HETATM    5  C9  UNL     1     -33.594   5.433   2.693  1.00 20.00     0.158 C 
BRANCH   5   6
HETATM    6  C6  UNL     1     -34.465   5.747   3.894  1.00 20.00     0.151 C 
HETATM    7  C4  UNL     1     -33.786   6.636   4.920  1.00 20.00     0.036 C 
HETATM    8  C3  UNL     1     -34.521   6.257   6.181  1.00 20.00     0.029 C 
HETATM    9  C5  UNL     1     -34.715   4.767   5.994  1.00 20.00     0.168 C 
HETATM   10  O10 UNL     1     -34.807   4.531   4.581  1.00 20.00    -0.383 OA
ENDBRANCH   5   6
BRANCH   5  11
HETATM   11  O11 UNL     1     -33.151   4.081   2.795  1.00 20.00    -0.392 OA
HETATM   12  H25 UNL     1     -33.879   3.583   3.200  1.00 20.00     0.210 HD
ENDBRANCH   5  11
ENDBRANCH   4   5
ENDBRANCH   2   4
TORSDOF 4
ENDMDL
MODEL 2
REMARK VINA RESULT:      -4.6     11.623     12.495
REMARK  4 active torsions:
REMARK  status: ('A' for Active; 'I' for Inactive)
REMARK    1  A    between atoms: C2_2  and  C8_8 
REMARK    2  A    between atoms: C6_6  and  C9_9 
REMARK    3  A    between atoms: C8_8  and  C9_9 
REMARK    4  A    between atoms: C9_9  and  O11_11 
ROOT
HETATM    1  C1  UNL     1     -33.209  16.587  -2.644  1.00 20.00    -0.111 C 
HETATM    2  C2  UNL     1     -33.257  15.717  -3.470  1.00 20.00    -0.104 C 
HETATM    3  C7  UNL     1     -33.153  17.646  -1.638  1.00 20.00     0.112 C 
ENDROOT
BRANCH   2   4
HETATM    4  C8  UNL     1     -33.312  14.649  -4.482  1.00 20.00     0.128 C 
BRANCH   4   5
HETATM    5  C9  UNL     1     -33.864  15.170  -5.812  1.00 20.00     0.158 C 
BRANCH   5   6
HETATM    6  C6  UNL     1     -35.355  14.915  -5.922  1.00 20.00     0.151 C 
HETATM    7  C4  UNL     1     -36.206  16.073  -5.434  1.00 20.00     0.036 C 
HETATM    8  C3  UNL     1     -37.480  15.367  -5.043  1.00 20.00     0.029 C 
HETATM    9  C5  UNL     1     -36.951  14.079  -4.445  1.00 20.00     0.168 C 
HETATM   10  O10 UNL     1     -35.717  13.782  -5.114  1.00 20.00    -0.383 OA
ENDBRANCH   5   6
BRANCH   5  11
HETATM   11  O11 UNL     1     -33.206  14.490  -6.879  1.00 20.00    -0.392 OA
HETATM   12  H25 UNL     1     -33.449  14.957  -7.693  1.00 20.00     0.210 HD
ENDBRANCH   5  11
ENDBRANCH   4   5
ENDBRANCH   2   4
TORSDOF 4
ENDMDL
MODEL 3
REMARK VINA RESULT:      -4.4      9.615     10.371
REMARK  4 active torsions:
REMARK  status: ('A' for Active; 'I' for Inactive)
REMARK    1  A    between atoms: C2_2  and  C8_8 
REMARK    2  A    between atoms: C6_6  and  C9_9 
REMARK    3  A    between atoms: C8_8  and  C9_9 
REMARK    4  A    between atoms: C9_9  and  O11_11 
ROOT
HETATM    1  C1  UNL     1     -42.232   2.844  -3.258  1.00 20.00    -0.111 C 
HETATM    2  C2  UNL     1     -42.509   3.725  -2.491  1.00 20.00    -0.104 C 
HETATM    3  C7  UNL     1     -41.894   1.771  -4.192  1.00 20.00     0.112 C 
ENDROOT
BRANCH   2   4
HETATM    4  C8  UNL     1     -42.851   4.805  -1.550  1.00 20.00     0.128 C 
BRANCH   4   5
HETATM    5  C9  UNL     1     -41.615   5.292  -0.789  1.00 20.00     0.158 C 
BRANCH   5   6
HETATM    6  C6  UNL     1     -41.476   6.799  -0.882  1.00 20.00     0.151 C 
HETATM    7  C4  UNL     1     -41.283   7.474   0.464  1.00 20.00     0.036 C 
HETATM    8  C3  UNL     1     -41.817   8.858   0.187  1.00 20.00     0.029 C 
HETATM    9  C5  UNL     1     -42.992   8.562  -0.722  1.00 20.00     0.168 C 
HETATM   10  O10 UNL     1     -42.671   7.365  -1.447  1.00 20.00    -0.383 OA
ENDBRANCH   5   6
BRANCH   5  11
HETATM   11  O11 UNL     1     -40.456   4.692  -1.365  1.00 20.00    -0.392 OA
HETATM   12  H25 UNL     1     -40.767   4.148  -2.105  1.00 20.00     0.210 HD
ENDBRANCH   5  11
ENDBRANCH   4   5
ENDBRANCH   2   4
TORSDOF 4
ENDMDL
MODEL 4
REMARK VINA RESULT:      -4.4     11.163     12.891
REMARK  4 active torsions:
REMARK  status: ('A' for Active; 'I' for Inactive)
REMARK    1  A    between atoms: C2_2  and  C8_8 
REMARK    2  A    between atoms: C6_6  and  C9_9 
REMARK    3  A    between atoms: C8_8  and  C9_9 
REMARK    4  A    between atoms: C9_9  and  O11_11 
ROOT
HETATM    1  C1  UNL     1     -34.984  16.293  -1.762  1.00 20.00    -0.111 C 
HETATM    2  C2  UNL     1     -34.878  15.486  -2.645  1.00 20.00    -0.104 C 
HETATM    3  C7  UNL     1     -35.113  17.277  -0.688  1.00 20.00     0.112 C 
ENDROOT
BRANCH   2   4
HETATM    4  C8  UNL     1     -34.746  14.494  -3.724  1.00 20.00     0.128 C 
BRANCH   4   5
HETATM    5  C9  UNL     1     -33.545  14.804  -4.622  1.00 20.00     0.158 C 
BRANCH   5   6
HETATM    6  C6  UNL     1     -33.988  15.118  -6.038  1.00 20.00     0.151 C 
HETATM    7  C4  UNL     1     -34.393  16.568  -6.238  1.00 20.00     0.036 C 
HETATM    8  C3  UNL     1     -35.344  16.456  -7.404  1.00 20.00     0.029 C 
HETATM    9  C5  UNL     1     -36.064  15.159  -7.096  1.00 20.00     0.168 C 
HETATM   10  O10 UNL     1     -35.142  14.329  -6.374  1.00 20.00    -0.383 OA
ENDBRANCH   5   6
BRANCH   5  11
HETATM   11  O11 UNL     1     -32.691  13.662  -4.656  1.00 20.00    -0.392 OA
HETATM   12  H25 UNL     1     -32.357  13.596  -5.564  1.00 20.00     0.210 HD
ENDBRANCH   5  11
ENDBRANCH   4   5
ENDBRANCH   2   4
TORSDOF 4
ENDMDL
MODEL 5
REMARK VINA RESULT:      -4.4     11.385     12.844
REMARK  4 active torsions:
REMARK  status: ('A' for Active; 'I' for Inactive)
REMARK    1  A    between atoms: C2_2  and  C8_8 
REMARK    2  A    between atoms: C6_6  and  C9_9 
REMARK    3  A    between atoms: C8_8  and  C9_9 
REMARK    4  A    between atoms: C9_9  and  O11_11 
ROOT
HETATM    1  C1  UNL     1     -32.950  17.252  -2.196  1.00 20.00    -0.111 C 
HETATM    2  C2  UNL     1     -33.451  16.332  -2.782  1.00 20.00    -0.104 C 
HETATM    3  C7  UNL     1     -32.339  18.372  -1.483  1.00 20.00     0.112 C 
ENDROOT
BRANCH   2   4
HETATM    4  C8  UNL     1     -34.068  15.205  -3.502  1.00 20.00     0.128 C 
BRANCH   4   5
HETATM    5  C9  UNL     1     -33.216  14.775  -4.698  1.00 20.00     0.158 C 
BRANCH   5   6
HETATM    6  C6  UNL     1     -33.991  14.903  -5.995  1.00 20.00     0.151 C 
HETATM    7  C4  UNL     1     -34.415  16.327  -6.310  1.00 20.00     0.036 C 
HETATM    8  C3  UNL     1     -35.626  16.095  -7.179  1.00 20.00     0.029 C 
HETATM    9  C5  UNL     1     -36.263  14.894  -6.512  1.00 20.00     0.168 C 
HETATM   10  O10 UNL     1     -35.202  14.132  -5.918  1.00 20.00    -0.383 OA
ENDBRANCH   5   6
BRANCH   5  11
HETATM   11  O11 UNL     1     -32.841  13.410  -4.527  1.00 20.00    -0.392 OA
HETATM   12  H25 UNL     1     -31.880  13.371  -4.653  1.00 20.00     0.210 HD
ENDBRANCH   5  11
ENDBRANCH   4   5
ENDBRANCH   2   4
TORSDOF 4
ENDMDL
MODEL 6
REMARK VINA RESULT:      -4.3     11.037     12.745
REMARK  4 active torsions:
REMARK  status: ('A' for Active; 'I' for Inactive)
REMARK    1  A    between atoms: C2_2  and  C8_8 
REMARK    2  A    between atoms: C6_6  and  C9_9 
REMARK    3  A    between atoms: C8_8  and  C9_9 
REMARK    4  A    between atoms: C9_9  and  O11_11 
ROOT
HETATM    1  C1  UNL     1     -34.051  16.476  -2.451  1.00 20.00    -0.111 C 
HETATM    2  C2  UNL     1     -34.882  15.728  -2.887  1.00 20.00    -0.104 C 
HETATM    3  C7  UNL     1     -33.037  17.387  -1.922  1.00 20.00     0.112 C 
ENDROOT
BRANCH   2   4
HETATM    4  C8  UNL     1     -35.905  14.811  -3.418  1.00 20.00     0.128 C 
BRANCH   4   5
HETATM    5  C9  UNL     1     -35.301  13.828  -4.424  1.00 20.00     0.158 C 
BRANCH   5   6
HETATM    6  C6  UNL     1     -35.542  14.287  -5.849  1.00 20.00     0.151 C 
HETATM    7  C4  UNL     1     -34.418  15.138  -6.411  1.00 20.00     0.036 C 
HETATM    8  C3  UNL     1     -35.146  15.947  -7.456  1.00 20.00     0.029 C 
HETATM    9  C5  UNL     1     -36.474  16.211  -6.776  1.00 20.00     0.168 C 
HETATM   10  O10 UNL     1     -36.727  15.099  -5.905  1.00 20.00    -0.383 OA
ENDBRANCH   5   6
BRANCH   5  11
HETATM   11  O11 UNL     1     -35.918  12.554  -4.246  1.00 20.00    -0.392 OA
HETATM   12  H25 UNL     1     -35.207  11.933  -4.023  1.00 20.00     0.210 HD
ENDBRANCH   5  11
ENDBRANCH   4   5
ENDBRANCH   2   4
TORSDOF 4
ENDMDL
MODEL 7
REMARK VINA RESULT:      -4.2     10.944     12.462
REMARK  4 active torsions:
REMARK  status: ('A' for Active; 'I' for Inactive)
REMARK    1  A    between atoms: C2_2  and  C8_8 
REMARK    2  A    between atoms: C6_6  and  C9_9 
REMARK    3  A    between atoms: C8_8  and  C9_9 
REMARK    4  A    between atoms: C9_9  and  O11_11 
ROOT
HETATM    1  C1  UNL     1     -37.057  16.630  -6.602  1.00 20.00    -0.111 C 
HETATM    2  C2  UNL     1     -36.372  15.690  -6.304  1.00 20.00    -0.104 C 
HETATM    3  C7  UNL     1     -37.891  17.775  -6.965  1.00 20.00     0.112 C 
ENDROOT
BRANCH   2   4
HETATM    4  C8  UNL     1     -35.530  14.539  -5.940  1.00 20.00     0.128 C 
BRANCH   4   5
HETATM    5  C9  UNL     1     -35.855  14.036  -4.531  1.00 20.00     0.158 C 
BRANCH   5   6
HETATM    6  C6  UNL     1     -34.824  14.516  -3.528  1.00 20.00     0.151 C 
HETATM    7  C4  UNL     1     -35.285  15.707  -2.707  1.00 20.00     0.036 C 
HETATM    8  C3  UNL     1     -33.970  16.344  -2.335  1.00 20.00     0.029 C 
HETATM    9  C5  UNL     1     -33.158  16.144  -3.598  1.00 20.00     0.168 C 
HETATM   10  O10 UNL     1     -33.635  14.940  -4.217  1.00 20.00    -0.383 OA
ENDBRANCH   5   6
BRANCH   5  11
HETATM   11  O11 UNL     1     -35.848  12.609  -4.541  1.00 20.00    -0.392 OA
HETATM   12  H25 UNL     1     -35.216  12.333  -3.860  1.00 20.00     0.210 HD
ENDBRANCH   5  11
ENDBRANCH   4   5
ENDBRANCH   2   4
TORSDOF 4
ENDMDL
MODEL 8
REMARK VINA RESULT:      -4.1     11.799     12.634
REMARK  4 active torsions:
REMARK  status: ('A' for Active; 'I' for Inactive)
REMARK    1  A    between atoms: C2_2  and  C8_8 
REMARK    2  A    between atoms: C6_6  and  C9_9 
REMARK    3  A    between atoms: C8_8  and  C9_9 
REMARK    4  A    between atoms: C9_9  and  O11_11 
ROOT
HETATM    1  C1  UNL     1     -33.359  15.689  -3.414  1.00 20.00    -0.111 C 
HETATM    2  C2  UNL     1     -33.404  16.557  -2.585  1.00 20.00    -0.104 C 
HETATM    3  C7  UNL     1     -33.304  14.633  -4.423  1.00 20.00     0.112 C 
ENDROOT
BRANCH   2   4
HETATM    4  C8  UNL     1     -33.462  17.619  -1.568  1.00 20.00     0.128 C 
BRANCH   4   5
HETATM    5  C9  UNL     1     -32.076  18.215  -1.305  1.00 20.00     0.158 C 
BRANCH   5   6
HETATM    6  C6  UNL     1     -32.015  18.874   0.059  1.00 20.00     0.151 C 
HETATM    7  C4  UNL     1     -30.760  18.531   0.842  1.00 20.00     0.036 C 
HETATM    8  C3  UNL     1     -31.229  18.723   2.262  1.00 20.00     0.029 C 
HETATM    9  C5  UNL     1     -32.647  18.195   2.197  1.00 20.00     0.168 C 
HETATM   10  O10 UNL     1     -33.122  18.434   0.864  1.00 20.00    -0.383 OA
ENDBRANCH   5   6
BRANCH   5  11
HETATM   11  O11 UNL     1     -31.806  19.202  -2.299  1.00 20.00    -0.392 OA
HETATM   12  H25 UNL     1     -30.846  19.335  -2.300  1.00 20.00     0.210 HD
ENDBRANCH   5  11
ENDBRANCH   4   5
ENDBRANCH   2   4
TORSDOF 4
ENDMDL
MODEL 9
REMARK VINA RESULT:      -4.1     11.132     12.414
REMARK  4 active torsions:
REMARK  status: ('A' for Active; 'I' for Inactive)
REMARK    1  A    between atoms: C2_2  and  C8_8 
REMARK    2  A    between atoms: C6_6  and  C9_9 
REMARK    3  A    between atoms: C8_8  and  C9_9 
REMARK    4  A    between atoms: C9_9  and  O11_11 
ROOT
HETATM    1  C1  UNL     1     -34.890  16.114  -1.973  1.00 20.00    -0.111 C 
HETATM    2  C2  UNL     1     -34.669  15.376  -2.894  1.00 20.00    -0.104 C 
HETATM    3  C7  UNL     1     -35.161  17.012  -0.852  1.00 20.00     0.112 C 
ENDROOT
BRANCH   2   4
HETATM    4  C8  UNL     1     -34.396  14.469  -4.022  1.00 20.00     0.128 C 
BRANCH   4   5
HETATM    5  C9  UNL     1     -35.661  14.207  -4.843  1.00 20.00     0.158 C 
BRANCH   5   6
HETATM    6  C6  UNL     1     -36.768  15.171  -4.464  1.00 20.00     0.151 C 
HETATM    7  C4  UNL     1     -38.116  14.500  -4.270  1.00 20.00     0.036 C 
HETATM    8  C3  UNL     1     -39.064  15.637  -4.560  1.00 20.00     0.029 C 
HETATM    9  C5  UNL     1     -38.358  16.349  -5.696  1.00 20.00     0.168 C 
HETATM   10  O10 UNL     1     -36.950  16.140  -5.511  1.00 20.00    -0.383 OA
ENDBRANCH   5   6
BRANCH   5  11
HETATM   11  O11 UNL     1     -36.108  12.877  -4.584  1.00 20.00    -0.392 OA
HETATM   12  H25 UNL     1     -36.114  12.773  -3.620  1.00 20.00     0.210 HD
ENDBRANCH   5  11
ENDBRANCH   4   5
ENDBRANCH   2   4
TORSDOF 4
ENDMDL
