MODEL 1
REMARK VINA RESULT:      -4.4      0.000      0.000
REMARK  3 active torsions:
REMARK  status: ('A' for Active; 'I' for Inactive)
REMARK    1  A    between atoms: C3_3  and  C7_7 
REMARK    2  A    between atoms: C3_3  and  C10_10 
REMARK    3  A    between atoms: C8_8  and  C11_11 
ROOT
HETATM    1  C1  UNL     1     -37.340  16.755  -6.823  1.00 20.00     0.012 C 
HETATM    2  C2  UNL     1     -36.639  15.823  -6.543  1.00 20.00    -0.110 C 
HETATM    3  C10 UNL     1     -35.779  14.682  -6.209  1.00 20.00     0.171 C 
ENDROOT
BRANCH   3   4
HETATM    4  C3  UNL     1     -36.066  14.121  -4.830  1.00 20.00     0.142 C 
HETATM    5  O12 UNL     1     -37.154  13.639  -4.513  1.00 20.00    -0.297 OA
BRANCH   4   6
HETATM    6  C7  UNL     1     -34.924  14.182  -3.835  1.00 20.00     0.057 C 
HETATM    7  C4  UNL     1     -33.655  14.648  -4.542  1.00 20.00     0.013 C 
HETATM    8  C5  UNL     1     -33.046  15.690  -3.613  1.00 20.00     0.005 C 
HETATM    9  C8  UNL     1     -34.249  16.373  -2.968  1.00 20.00    -0.014 C 
HETATM   10  C6  UNL     1     -35.230  15.215  -2.751  1.00 20.00     0.016 C 
BRANCH   9  11
HETATM   11  C11 UNL     1     -34.836  17.472  -3.853  1.00 20.00     0.000 C 
HETATM   12  C9  UNL     1     -36.213  17.865  -3.417  1.00 20.00     0.005 C 
ENDBRANCH   9  11
ENDBRANCH   4   6
ENDBRANCH   3   4
TORSDOF 3
ENDMDL
MODEL 2
REMARK VINA RESULT:      -4.4      1.209      2.284
REMARK  3 active torsions:
REMARK  status: ('A' for Active; 'I' for Inactive)
REMARK    1  A    between atoms: C3_3  and  C7_7 
REMARK    2  A    between atoms: C3_3  and  C10_10 
REMARK    3  A    between atoms: C8_8  and  C11_11 
ROOT
HETATM    1  C1  UNL     1     -38.157  17.594  -3.083  1.00 20.00     0.012 C 
HETATM    2  C2  UNL     1     -37.845  16.908  -4.016  1.00 20.00    -0.110 C 
HETATM    3  C10 UNL     1     -37.465  16.074  -5.162  1.00 20.00     0.171 C 
ENDROOT
BRANCH   3   4
HETATM    4  C3  UNL     1     -37.310  14.612  -4.793  1.00 20.00     0.142 C 
HETATM    5  O12 UNL     1     -38.193  13.963  -4.234  1.00 20.00    -0.297 OA
BRANCH   4   6
HETATM    6  C7  UNL     1     -35.985  13.971  -5.154  1.00 20.00     0.057 C 
HETATM    7  C4  UNL     1     -35.218  14.884  -6.106  1.00 20.00     0.013 C 
HETATM    8  C5  UNL     1     -33.792  14.904  -5.570  1.00 20.00     0.005 C 
HETATM    9  C8  UNL     1     -33.954  14.795  -4.056  1.00 20.00    -0.014 C 
HETATM   10  C6  UNL     1     -35.121  13.814  -3.902  1.00 20.00     0.016 C 
BRANCH   9  11
HETATM   11  C11 UNL     1     -34.242  16.146  -3.404  1.00 20.00     0.000 C 
HETATM   12  C9  UNL     1     -34.902  15.994  -2.070  1.00 20.00     0.005 C 
ENDBRANCH   9  11
ENDBRANCH   4   6
ENDBRANCH   3   4
TORSDOF 3
ENDMDL
MODEL 3
REMARK VINA RESULT:      -4.4     10.999     12.522
REMARK  3 active torsions:
REMARK  status: ('A' for Active; 'I' for Inactive)
REMARK    1  A    between atoms: C3_3  and  C7_7 
REMARK    2  A    between atoms: C3_3  and  C10_10 
REMARK    3  A    between atoms: C8_8  and  C11_11 
ROOT
HETATM    1  C1  UNL     1     -33.408   8.779  -0.009  1.00 20.00     0.012 C 
HETATM    2  C2  UNL     1     -32.700   8.238   0.794  1.00 20.00    -0.110 C 
HETATM    3  C10 UNL     1     -31.828   7.576   1.771  1.00 20.00     0.171 C 
ENDROOT
BRANCH   3   4
HETATM    4  C3  UNL     1     -32.595   7.024   2.956  1.00 20.00     0.142 C 
HETATM    5  O12 UNL     1     -32.395   7.386   4.115  1.00 20.00    -0.297 OA
BRANCH   4   6
HETATM    6  C7  UNL     1     -33.649   5.981   2.639  1.00 20.00     0.057 C 
HETATM    7  C4  UNL     1     -33.085   4.588   2.904  1.00 20.00     0.013 C 
HETATM    8  C5  UNL     1     -34.183   3.855   3.663  1.00 20.00     0.005 C 
HETATM    9  C8  UNL     1     -34.852   4.939   4.503  1.00 20.00    -0.014 C 
HETATM   10  C6  UNL     1     -34.851   6.153   3.569  1.00 20.00     0.016 C 
BRANCH   9  11
HETATM   11  C11 UNL     1     -34.102   5.209   5.807  1.00 20.00     0.000 C 
HETATM   12  C9  UNL     1     -34.325   6.603   6.301  1.00 20.00     0.005 C 
ENDBRANCH   9  11
ENDBRANCH   4   6
ENDBRANCH   3   4
TORSDOF 3
ENDMDL
MODEL 4
REMARK VINA RESULT:      -4.3      1.587      2.136
REMARK  3 active torsions:
REMARK  status: ('A' for Active; 'I' for Inactive)
REMARK    1  A    between atoms: C3_3  and  C7_7 
REMARK    2  A    between atoms: C3_3  and  C10_10 
REMARK    3  A    between atoms: C8_8  and  C11_11 
ROOT
HETATM    1  C1  UNL     1     -38.825  15.262  -4.128  1.00 20.00     0.012 C 
HETATM    2  C2  UNL     1     -37.917  15.577  -4.847  1.00 20.00    -0.110 C 
HETATM    3  C10 UNL     1     -36.811  15.968  -5.728  1.00 20.00     0.171 C 
ENDROOT
BRANCH   3   4
HETATM    4  C3  UNL     1     -35.709  14.929  -5.774  1.00 20.00     0.142 C 
HETATM    5  O12 UNL     1     -35.903  13.755  -6.089  1.00 20.00    -0.297 OA
BRANCH   4   6
HETATM    6  C7  UNL     1     -34.320  15.415  -5.407  1.00 20.00     0.057 C 
HETATM    7  C4  UNL     1     -34.366  16.909  -5.101  1.00 20.00     0.013 C 
HETATM    8  C5  UNL     1     -33.549  17.076  -3.826  1.00 20.00     0.005 C 
HETATM    9  C8  UNL     1     -33.807  15.793  -3.040  1.00 20.00    -0.014 C 
HETATM   10  C6  UNL     1     -33.843  14.718  -4.132  1.00 20.00     0.016 C 
BRANCH   9  11
HETATM   11  C11 UNL     1     -35.108  15.853  -2.241  1.00 20.00     0.000 C 
HETATM   12  C9  UNL     1     -35.053  16.886  -1.160  1.00 20.00     0.005 C 
ENDBRANCH   9  11
ENDBRANCH   4   6
ENDBRANCH   3   4
TORSDOF 3
ENDMDL
MODEL 5
REMARK VINA RESULT:      -4.2      1.489      3.748
REMARK  3 active torsions:
REMARK  status: ('A' for Active; 'I' for Inactive)
REMARK    1  A    between atoms: C3_3  and  C7_7 
REMARK    2  A    between atoms: C3_3  and  C10_10 
REMARK    3  A    between atoms: C8_8  and  C11_11 
ROOT
HETATM    1  C1  UNL     1     -32.924  16.739  -3.002  1.00 20.00     0.012 C 
HETATM    2  C2  UNL     1     -33.875  16.010  -2.945  1.00 20.00    -0.110 C 
HETATM    3  C10 UNL     1     -35.039  15.120  -2.868  1.00 20.00     0.171 C 
ENDROOT
BRANCH   3   4
HETATM    4  C3  UNL     1     -35.039  14.066  -3.956  1.00 20.00     0.142 C 
HETATM    5  O12 UNL     1     -34.122  13.259  -4.112  1.00 20.00    -0.297 OA
BRANCH   4   6
HETATM    6  C7  UNL     1     -36.251  14.048  -4.867  1.00 20.00     0.057 C 
HETATM    7  C4  UNL     1     -37.357  14.907  -4.262  1.00 20.00     0.013 C 
HETATM    8  C5  UNL     1     -37.887  15.741  -5.420  1.00 20.00     0.005 C 
HETATM    9  C8  UNL     1     -36.663  15.996  -6.295  1.00 20.00    -0.014 C 
HETATM   10  C6  UNL     1     -35.899  14.670  -6.218  1.00 20.00     0.016 C 
BRANCH   9  11
HETATM   11  C11 UNL     1     -35.830  17.176  -5.798  1.00 20.00     0.000 C 
HETATM   12  C9  UNL     1     -34.483  17.223  -6.449  1.00 20.00     0.005 C 
ENDBRANCH   9  11
ENDBRANCH   4   6
ENDBRANCH   3   4
TORSDOF 3
ENDMDL
MODEL 6
REMARK VINA RESULT:      -4.1      2.353      4.745
REMARK  3 active torsions:
REMARK  status: ('A' for Active; 'I' for Inactive)
REMARK    1  A    between atoms: C3_3  and  C7_7 
REMARK    2  A    between atoms: C3_3  and  C10_10 
REMARK    3  A    between atoms: C8_8  and  C11_11 
ROOT
HETATM    1  C1  UNL     1     -31.484  18.270  -0.533  1.00 20.00     0.012 C 
HETATM    2  C2  UNL     1     -32.054  18.405  -1.580  1.00 20.00    -0.110 C 
HETATM    3  C10 UNL     1     -32.748  18.576  -2.862  1.00 20.00     0.171 C 
ENDROOT
BRANCH   3   4
HETATM    4  C3  UNL     1     -34.022  17.759  -2.947  1.00 20.00     0.142 C 
HETATM    5  O12 UNL     1     -35.114  18.245  -3.241  1.00 20.00    -0.297 OA
BRANCH   4   6
HETATM    6  C7  UNL     1     -33.885  16.279  -2.648  1.00 20.00     0.057 C 
HETATM    7  C4  UNL     1     -35.246  15.602  -2.786  1.00 20.00     0.013 C 
HETATM    8  C5  UNL     1     -34.975  14.330  -3.579  1.00 20.00     0.005 C 
HETATM    9  C8  UNL     1     -33.844  14.709  -4.530  1.00 20.00    -0.014 C 
HETATM   10  C6  UNL     1     -32.960  15.622  -3.672  1.00 20.00     0.016 C 
BRANCH   9  11
HETATM   11  C11 UNL     1     -34.353  15.411  -5.788  1.00 20.00     0.000 C 
HETATM   12  C9  UNL     1     -35.514  14.690  -6.399  1.00 20.00     0.005 C 
ENDBRANCH   9  11
ENDBRANCH   4   6
ENDBRANCH   3   4
TORSDOF 3
ENDMDL
MODEL 7
REMARK VINA RESULT:      -4.1     16.401     18.122
REMARK  3 active torsions:
REMARK  status: ('A' for Active; 'I' for Inactive)
REMARK    1  A    between atoms: C3_3  and  C7_7 
REMARK    2  A    between atoms: C3_3  and  C10_10 
REMARK    3  A    between atoms: C8_8  and  C11_11 
ROOT
HETATM    1  C1  UNL     1     -26.710  18.886   5.782  1.00 20.00     0.012 C 
HETATM    2  C2  UNL     1     -25.705  19.044   6.420  1.00 20.00    -0.110 C 
HETATM    3  C10 UNL     1     -24.473  19.239   7.193  1.00 20.00     0.171 C 
ENDROOT
BRANCH   3   4
HETATM    4  C3  UNL     1     -24.577  18.689   8.601  1.00 20.00     0.142 C 
HETATM    5  O12 UNL     1     -25.491  18.979   9.372  1.00 20.00    -0.297 OA
BRANCH   4   6
HETATM    6  C7  UNL     1     -23.475  17.739   9.027  1.00 20.00     0.057 C 
HETATM    7  C4  UNL     1     -22.345  18.528   9.682  1.00 20.00     0.013 C 
HETATM    8  C5  UNL     1     -21.984  17.736  10.932  1.00 20.00     0.005 C 
HETATM    9  C8  UNL     1     -23.308  17.137  11.397  1.00 20.00    -0.014 C 
HETATM   10  C6  UNL     1     -24.002  16.766  10.082  1.00 20.00     0.016 C 
BRANCH   9  11
HETATM   11  C11 UNL     1     -24.129  18.119  12.230  1.00 20.00     0.000 C 
HETATM   12  C9  UNL     1     -25.563  17.703  12.332  1.00 20.00     0.005 C 
ENDBRANCH   9  11
ENDBRANCH   4   6
ENDBRANCH   3   4
TORSDOF 3
ENDMDL
MODEL 8
REMARK VINA RESULT:      -4.0      1.324      2.289
REMARK  3 active torsions:
REMARK  status: ('A' for Active; 'I' for Inactive)
REMARK    1  A    between atoms: C3_3  and  C7_7 
REMARK    2  A    between atoms: C3_3  and  C10_10 
REMARK    3  A    between atoms: C8_8  and  C11_11 
ROOT
HETATM    1  C1  UNL     1     -34.047  15.182  -7.412  1.00 20.00     0.012 C 
HETATM    2  C2  UNL     1     -33.745  14.952  -6.274  1.00 20.00    -0.110 C 
HETATM    3  C10 UNL     1     -33.369  14.671  -4.883  1.00 20.00     0.171 C 
ENDROOT
BRANCH   3   4
HETATM    4  C3  UNL     1     -34.568  14.374  -4.005  1.00 20.00     0.142 C 
HETATM    5  O12 UNL     1     -35.332  13.430  -4.205  1.00 20.00    -0.297 OA
BRANCH   4   6
HETATM    6  C7  UNL     1     -34.789  15.318  -2.839  1.00 20.00     0.057 C 
HETATM    7  C4  UNL     1     -33.597  16.262  -2.713  1.00 20.00     0.013 C 
HETATM    8  C5  UNL     1     -34.206  17.642  -2.502  1.00 20.00     0.005 C 
HETATM    9  C8  UNL     1     -35.496  17.616  -3.318  1.00 20.00    -0.014 C 
HETATM   10  C6  UNL     1     -36.017  16.191  -3.098  1.00 20.00     0.016 C 
BRANCH   9  11
HETATM   11  C11 UNL     1     -35.255  17.924  -4.795  1.00 20.00     0.000 C 
HETATM   12  C9  UNL     1     -36.411  17.508  -5.649  1.00 20.00     0.005 C 
ENDBRANCH   9  11
ENDBRANCH   4   6
ENDBRANCH   3   4
TORSDOF 3
ENDMDL
MODEL 9
REMARK VINA RESULT:      -4.0      1.458      3.519
REMARK  3 active torsions:
REMARK  status: ('A' for Active; 'I' for Inactive)
REMARK    1  A    between atoms: C3_3  and  C7_7 
REMARK    2  A    between atoms: C3_3  and  C10_10 
REMARK    3  A    between atoms: C8_8  and  C11_11 
ROOT
HETATM    1  C1  UNL     1     -35.110  16.419  -1.519  1.00 20.00     0.012 C 
HETATM    2  C2  UNL     1     -34.390  16.055  -2.407  1.00 20.00    -0.110 C 
HETATM    3  C10 UNL     1     -33.503  15.614  -3.490  1.00 20.00     0.171 C 
ENDROOT
BRANCH   3   4
HETATM    4  C3  UNL     1     -34.169  14.618  -4.418  1.00 20.00     0.142 C 
HETATM    5  O12 UNL     1     -34.541  13.503  -4.053  1.00 20.00    -0.297 OA
BRANCH   4   6
HETATM    6  C7  UNL     1     -34.363  15.069  -5.852  1.00 20.00     0.057 C 
HETATM    7  C4  UNL     1     -35.701  14.552  -6.374  1.00 20.00     0.013 C 
HETATM    8  C5  UNL     1     -36.332  15.741  -7.088  1.00 20.00     0.005 C 
HETATM    9  C8  UNL     1     -35.869  16.954  -6.286  1.00 20.00    -0.014 C 
HETATM   10  C6  UNL     1     -34.426  16.596  -5.916  1.00 20.00     0.016 C 
BRANCH   9  11
HETATM   11  C11 UNL     1     -36.740  17.203  -5.056  1.00 20.00     0.000 C 
HETATM   12  C9  UNL     1     -36.408  18.501  -4.389  1.00 20.00     0.005 C 
ENDBRANCH   9  11
ENDBRANCH   4   6
ENDBRANCH   3   4
TORSDOF 3
ENDMDL
