MODEL 1
REMARK VINA RESULT:      -4.7      0.000      0.000
REMARK  1 active torsions:
REMARK  status: ('A' for Active; 'I' for Inactive)
REMARK    1  A    between atoms: C1_1  and  N10_10 
ROOT
HETATM    1  C2  UNL     1     -34.145  16.584  -1.920  1.00 20.00     0.002 C 
HETATM    2  C3  UNL     1     -34.637  14.835  -6.386  1.00 20.00     0.020 C 
HETATM    3  C4  UNL     1     -33.181  16.255  -3.069  1.00 20.00     0.007 C 
HETATM    4  C5  UNL     1     -33.523  15.113  -5.372  1.00 20.00     0.008 C 
HETATM    5  C6  UNL     1     -35.540  16.126  -2.379  1.00 20.00     0.026 C 
HETATM    6  C7  UNL     1     -35.880  14.214  -5.741  1.00 20.00     0.125 C 
HETATM    7  C8  UNL     1     -34.102  15.936  -4.237  1.00 20.00     0.009 C 
HETATM    8  C9  UNL     1     -35.249  15.193  -3.552  1.00 20.00     0.090 C 
HETATM    9  N10 UNL     1     -36.306  14.883  -4.507  1.00 20.00    -0.354 N 
ENDROOT
BRANCH   9  10
HETATM   10  C1  UNL     1     -37.648  14.867  -4.153  1.00 20.00     0.351 C 
HETATM   11  O11 UNL     1     -38.461  13.972  -4.360  1.00 20.00    -0.284 OA
ENDBRANCH   9  10
TORSDOF 1
ENDMDL
MODEL 2
REMARK VINA RESULT:      -4.6      1.605      1.702
REMARK  1 active torsions:
REMARK  status: ('A' for Active; 'I' for Inactive)
REMARK    1  A    between atoms: C1_1  and  N10_10 
ROOT
HETATM    1  C2  UNL     1     -33.608  16.708  -2.490  1.00 20.00     0.002 C 
HETATM    2  C3  UNL     1     -35.568  16.472  -6.888  1.00 20.00     0.020 C 
HETATM    3  C4  UNL     1     -33.485  17.534  -3.779  1.00 20.00     0.007 C 
HETATM    4  C5  UNL     1     -34.427  17.200  -6.171  1.00 20.00     0.008 C 
HETATM    5  C6  UNL     1     -34.515  15.512  -2.825  1.00 20.00     0.026 C 
HETATM    6  C7  UNL     1     -35.662  14.993  -6.499  1.00 20.00     0.125 C 
HETATM    7  C8  UNL     1     -34.571  16.966  -4.679  1.00 20.00     0.009 C 
HETATM    8  C9  UNL     1     -34.518  15.473  -4.352  1.00 20.00     0.090 C 
HETATM    9  N10 UNL     1     -35.572  14.753  -5.054  1.00 20.00    -0.354 N 
ENDROOT
BRANCH   9  10
HETATM   10  C1  UNL     1     -36.210  13.648  -4.507  1.00 20.00     0.351 C 
HETATM   11  O11 UNL     1     -35.801  12.492  -4.480  1.00 20.00    -0.284 OA
ENDBRANCH   9  10
TORSDOF 1
ENDMDL
MODEL 3
REMARK VINA RESULT:      -4.5      0.923      1.127
REMARK  1 active torsions:
REMARK  status: ('A' for Active; 'I' for Inactive)
REMARK    1  A    between atoms: C1_1  and  N10_10 
ROOT
HETATM    1  C2  UNL     1     -34.763  17.484  -1.309  1.00 20.00     0.002 C 
HETATM    2  C3  UNL     1     -33.655  14.738  -5.113  1.00 20.00     0.020 C 
HETATM    3  C4  UNL     1     -33.457  17.032  -1.977  1.00 20.00     0.007 C 
HETATM    4  C5  UNL     1     -32.958  15.372  -3.906  1.00 20.00     0.008 C 
HETATM    5  C6  UNL     1     -35.902  16.764  -2.050  1.00 20.00     0.026 C 
HETATM    6  C7  UNL     1     -35.013  14.124  -4.755  1.00 20.00     0.125 C 
HETATM    7  C8  UNL     1     -33.920  16.348  -3.254  1.00 20.00     0.009 C 
HETATM    8  C9  UNL     1     -35.195  15.637  -2.799  1.00 20.00     0.090 C 
HETATM    9  N10 UNL     1     -35.856  14.992  -3.926  1.00 20.00    -0.354 N 
ENDROOT
BRANCH   9  10
HETATM   10  C1  UNL     1     -37.237  14.887  -4.017  1.00 20.00     0.351 C 
HETATM   11  O11 UNL     1     -37.888  13.893  -4.322  1.00 20.00    -0.284 OA
ENDBRANCH   9  10
TORSDOF 1
ENDMDL
MODEL 4
REMARK VINA RESULT:      -4.3      1.225      2.792
REMARK  1 active torsions:
REMARK  status: ('A' for Active; 'I' for Inactive)
REMARK    1  A    between atoms: C1_1  and  N10_10 
ROOT
HETATM    1  C2  UNL     1     -33.161  14.767  -4.226  1.00 20.00     0.002 C 
HETATM    2  C3  UNL     1     -36.482  17.474  -2.018  1.00 20.00     0.020 C 
HETATM    3  C4  UNL     1     -33.121  15.955  -3.254  1.00 20.00     0.007 C 
HETATM    4  C5  UNL     1     -34.974  17.487  -2.281  1.00 20.00     0.008 C 
HETATM    5  C6  UNL     1     -34.642  14.538  -4.572  1.00 20.00     0.026 C 
HETATM    6  C7  UNL     1     -37.293  17.045  -3.245  1.00 20.00     0.125 C 
HETATM    7  C8  UNL     1     -34.574  16.134  -2.839  1.00 20.00     0.009 C 
HETATM    8  C9  UNL     1     -35.322  15.834  -4.138  1.00 20.00     0.090 C 
HETATM    9  N10 UNL     1     -36.763  15.855  -3.919  1.00 20.00    -0.354 N 
ENDROOT
BRANCH   9  10
HETATM   10  C1  UNL     1     -37.632  15.019  -4.607  1.00 20.00     0.351 C 
HETATM   11  O11 UNL     1     -38.022  13.908  -4.262  1.00 20.00    -0.284 OA
ENDBRANCH   9  10
TORSDOF 1
ENDMDL
MODEL 5
REMARK VINA RESULT:      -4.3      4.229      5.651
REMARK  1 active torsions:
REMARK  status: ('A' for Active; 'I' for Inactive)
REMARK    1  A    between atoms: C1_1  and  N10_10 
ROOT
HETATM    1  C2  UNL     1     -35.218  18.267   1.607  1.00 20.00     0.002 C 
HETATM    2  C3  UNL     1     -33.902  16.242  -2.564  1.00 20.00     0.020 C 
HETATM    3  C4  UNL     1     -35.916  17.388   0.560  1.00 20.00     0.007 C 
HETATM    4  C5  UNL     1     -35.182  16.518  -1.769  1.00 20.00     0.008 C 
HETATM    5  C6  UNL     1     -33.821  18.583   1.048  1.00 20.00     0.026 C 
HETATM    6  C7  UNL     1     -32.931  17.427  -2.551  1.00 20.00     0.125 C 
HETATM    7  C8  UNL     1     -34.791  16.976  -0.376  1.00 20.00     0.009 C 
HETATM    8  C9  UNL     1     -33.937  18.242  -0.436  1.00 20.00     0.090 C 
HETATM    9  N10 UNL     1     -32.731  18.015  -1.222  1.00 20.00    -0.354 N 
ENDROOT
BRANCH   9  10
HETATM   10  C1  UNL     1     -31.523  18.630  -0.925  1.00 20.00     0.351 C 
HETATM   11  O11 UNL     1     -30.522  18.109  -0.444  1.00 20.00    -0.284 OA
ENDBRANCH   9  10
TORSDOF 1
ENDMDL
MODEL 6
REMARK VINA RESULT:      -4.3      3.967      5.926
REMARK  1 active torsions:
REMARK  status: ('A' for Active; 'I' for Inactive)
REMARK    1  A    between atoms: C1_1  and  N10_10 
ROOT
HETATM    1  C2  UNL     1     -33.989  15.823  -3.461  1.00 20.00     0.002 C 
HETATM    2  C3  UNL     1     -35.096  18.352   0.491  1.00 20.00     0.020 C 
HETATM    3  C4  UNL     1     -35.158  15.824  -2.465  1.00 20.00     0.007 C 
HETATM    4  C5  UNL     1     -35.562  17.088  -0.237  1.00 20.00     0.008 C 
HETATM    5  C6  UNL     1     -32.960  16.832  -2.924  1.00 20.00     0.026 C 
HETATM    6  C7  UNL     1     -33.570  18.478   0.540  1.00 20.00     0.125 C 
HETATM    7  C8  UNL     1     -34.898  17.049  -1.601  1.00 20.00     0.009 C 
HETATM    8  C9  UNL     1     -33.375  17.037  -1.469  1.00 20.00     0.090 C 
HETATM    9  N10 UNL     1     -32.912  18.214  -0.744  1.00 20.00    -0.354 N 
ENDROOT
BRANCH   9  10
HETATM   10  C1  UNL     1     -31.705  18.836  -1.030  1.00 20.00     0.351 C 
HETATM   11  O11 UNL     1     -30.590  18.513  -0.633  1.00 20.00    -0.284 OA
ENDBRANCH   9  10
TORSDOF 1
ENDMDL
MODEL 7
REMARK VINA RESULT:      -4.3      2.062      3.027
REMARK  1 active torsions:
REMARK  status: ('A' for Active; 'I' for Inactive)
REMARK    1  A    between atoms: C1_1  and  N10_10 
ROOT
HETATM    1  C2  UNL     1     -33.478  16.610  -2.378  1.00 20.00     0.002 C 
HETATM    2  C3  UNL     1     -36.721  13.990  -4.799  1.00 20.00     0.020 C 
HETATM    3  C4  UNL     1     -34.914  16.139  -2.105  1.00 20.00     0.007 C 
HETATM    4  C5  UNL     1     -36.661  14.902  -3.570  1.00 20.00     0.008 C 
HETATM    5  C6  UNL     1     -33.139  16.166  -3.811  1.00 20.00     0.026 C 
HETATM    6  C7  UNL     1     -35.918  14.540  -5.982  1.00 20.00     0.125 C 
HETATM    7  C8  UNL     1     -35.203  15.178  -3.248  1.00 20.00     0.009 C 
HETATM    8  C9  UNL     1     -34.501  15.852  -4.427  1.00 20.00     0.090 C 
HETATM    9  N10 UNL     1     -34.579  15.018  -5.620  1.00 20.00    -0.354 N 
ENDROOT
BRANCH   9  10
HETATM   10  C1  UNL     1     -33.561  14.971  -6.562  1.00 20.00     0.351 C 
HETATM   11  O11 UNL     1     -33.651  15.198  -7.764  1.00 20.00    -0.284 OA
ENDBRANCH   9  10
TORSDOF 1
ENDMDL
MODEL 8
REMARK VINA RESULT:      -4.3     12.170     12.688
REMARK  1 active torsions:
REMARK  status: ('A' for Active; 'I' for Inactive)
REMARK    1  A    between atoms: C1_1  and  N10_10 
ROOT
HETATM    1  C2  UNL     1     -34.310   6.694   6.438  1.00 20.00     0.002 C 
HETATM    2  C3  UNL     1     -33.437   3.959   2.566  1.00 20.00     0.020 C 
HETATM    3  C4  UNL     1     -34.725   5.286   5.988  1.00 20.00     0.007 C 
HETATM    4  C5  UNL     1     -34.373   3.977   3.778  1.00 20.00     0.008 C 
HETATM    5  C6  UNL     1     -33.516   7.307   5.272  1.00 20.00     0.026 C 
HETATM    6  C7  UNL     1     -33.265   5.343   1.931  1.00 20.00     0.125 C 
HETATM    7  C8  UNL     1     -33.885   5.040   4.745  1.00 20.00     0.009 C 
HETATM    8  C9  UNL     1     -33.871   6.417   4.082  1.00 20.00     0.090 C 
HETATM    9  N10 UNL     1     -33.016   6.414   2.902  1.00 20.00    -0.354 N 
ENDROOT
BRANCH   9  10
HETATM   10  C1  UNL     1     -32.275   7.523   2.516  1.00 20.00     0.351 C 
HETATM   11  O11 UNL     1     -32.442   8.216   1.519  1.00 20.00    -0.284 OA
ENDBRANCH   9  10
TORSDOF 1
ENDMDL
MODEL 9
REMARK VINA RESULT:      -4.1      1.423      2.693
REMARK  1 active torsions:
REMARK  status: ('A' for Active; 'I' for Inactive)
REMARK    1  A    between atoms: C1_1  and  N10_10 
ROOT
HETATM    1  C2  UNL     1     -33.454  16.408  -2.590  1.00 20.00     0.002 C 
HETATM    2  C3  UNL     1     -38.164  16.634  -3.590  1.00 20.00     0.020 C 
HETATM    3  C4  UNL     1     -34.564  17.444  -2.359  1.00 20.00     0.007 C 
HETATM    4  C5  UNL     1     -37.038  17.563  -3.127  1.00 20.00     0.008 C 
HETATM    5  C6  UNL     1     -34.084  15.272  -3.413  1.00 20.00     0.026 C 
HETATM    6  C7  UNL     1     -37.723  15.680  -4.705  1.00 20.00     0.125 C 
HETATM    7  C8  UNL     1     -35.834  16.713  -2.767  1.00 20.00     0.009 C 
HETATM    8  C9  UNL     1     -35.365  15.891  -3.968  1.00 20.00     0.090 C 
HETATM    9  N10 UNL     1     -36.434  15.027  -4.451  1.00 20.00    -0.354 N 
ENDROOT
BRANCH   9  10
HETATM   10  C1  UNL     1     -36.190  13.771  -4.990  1.00 20.00     0.351 C 
HETATM   11  O11 UNL     1     -36.122  12.705  -4.388  1.00 20.00    -0.284 OA
ENDBRANCH   9  10
TORSDOF 1
ENDMDL
