MODEL 1
REMARK VINA RESULT:      -4.7      0.000      0.000
REMARK  3 active torsions:
REMARK  status: ('A' for Active; 'I' for Inactive)
REMARK    1  A    between atoms: C5_5  and  C9_9 
REMARK    2  A    between atoms: C6_6  and  C10_10 
REMARK    3  A    between atoms: C10_10  and  C11_11 
ROOT
HETATM    1  C1  UNL     1     -37.271  14.482  -4.577  1.00 20.00     0.069 C 
HETATM    2  C2  UNL     1     -36.033  17.190  -3.594  1.00 20.00     0.006 C 
HETATM    3  C3  UNL     1     -36.195  16.670  -5.027  1.00 20.00     0.025 C 
HETATM    4  C4  UNL     1     -34.963  15.014  -3.829  1.00 20.00     0.029 C 
HETATM    5  C5  UNL     1     -35.398  16.050  -2.786  1.00 20.00    -0.013 C 
HETATM    6  C6  UNL     1     -36.004  15.149  -4.947  1.00 20.00     0.049 C 
HETATM    7  N12 UNL     1     -38.264  13.958  -4.286  1.00 20.00    -0.196 NA
ENDROOT
BRANCH   6   8
HETATM    8  C10 UNL     1     -35.499  14.568  -6.267  1.00 20.00     0.024 C 
BRANCH   8   9
HETATM    9  C11 UNL     1     -34.075  15.027  -6.564  1.00 20.00    -0.003 C 
HETATM   10  C8  UNL     1     -33.993  15.727  -7.911  1.00 20.00     0.005 C 
ENDBRANCH   8   9
ENDBRANCH   6   8
BRANCH   5  11
HETATM   11  C9  UNL     1     -34.251  16.513  -1.900  1.00 20.00     0.000 C 
HETATM   12  C7  UNL     1     -33.030  16.845  -2.698  1.00 20.00     0.005 C 
ENDBRANCH   5  11
TORSDOF 3
ENDMDL
MODEL 2
REMARK VINA RESULT:      -4.4      1.387      3.776
REMARK  3 active torsions:
REMARK  status: ('A' for Active; 'I' for Inactive)
REMARK    1  A    between atoms: C5_5  and  C9_9 
REMARK    2  A    between atoms: C6_6  and  C10_10 
REMARK    3  A    between atoms: C10_10  and  C11_11 
ROOT
HETATM    1  C1  UNL     1     -36.299  14.324  -4.364  1.00 20.00     0.069 C 
HETATM    2  C2  UNL     1     -34.034  15.060  -6.404  1.00 20.00     0.006 C 
HETATM    3  C3  UNL     1     -33.908  14.663  -4.929  1.00 20.00     0.025 C 
HETATM    4  C4  UNL     1     -35.381  16.539  -5.015  1.00 20.00     0.029 C 
HETATM    5  C5  UNL     1     -35.114  16.148  -6.473  1.00 20.00    -0.013 C 
HETATM    6  C6  UNL     1     -35.146  15.242  -4.231  1.00 20.00     0.049 C 
HETATM    7  N12 UNL     1     -37.203  13.606  -4.469  1.00 20.00    -0.196 NA
ENDROOT
BRANCH   6   8
HETATM    8  C10 UNL     1     -34.890  15.512  -2.748  1.00 20.00     0.024 C 
BRANCH   8   9
HETATM    9  C11 UNL     1     -33.637  16.358  -2.549  1.00 20.00    -0.003 C 
HETATM   10  C8  UNL     1     -33.873  17.460  -1.529  1.00 20.00     0.005 C 
ENDBRANCH   8   9
ENDBRANCH   6   8
BRANCH   5  11
HETATM   11  C9  UNL     1     -34.714  17.334  -7.338  1.00 20.00     0.000 C 
HETATM   12  C7  UNL     1     -34.106  18.434  -6.527  1.00 20.00     0.005 C 
ENDBRANCH   5  11
TORSDOF 3
ENDMDL
MODEL 3
REMARK VINA RESULT:      -4.4      1.531      1.929
REMARK  3 active torsions:
REMARK  status: ('A' for Active; 'I' for Inactive)
REMARK    1  A    between atoms: C5_5  and  C9_9 
REMARK    2  A    between atoms: C6_6  and  C10_10 
REMARK    3  A    between atoms: C10_10  and  C11_11 
ROOT
HETATM    1  C1  UNL     1     -34.988  13.994  -4.129  1.00 20.00     0.069 C 
HETATM    2  C2  UNL     1     -35.172  16.313  -2.026  1.00 20.00     0.006 C 
HETATM    3  C3  UNL     1     -36.066  16.043  -3.242  1.00 20.00     0.025 C 
HETATM    4  C4  UNL     1     -33.826  16.188  -4.052  1.00 20.00     0.029 C 
HETATM    5  C5  UNL     1     -33.722  16.229  -2.523  1.00 20.00    -0.013 C 
HETATM    6  C6  UNL     1     -35.145  15.453  -4.319  1.00 20.00     0.049 C 
HETATM    7  N12 UNL     1     -34.864  12.851  -3.981  1.00 20.00    -0.196 NA
ENDROOT
BRANCH   6   8
HETATM    8  C10 UNL     1     -35.671  15.721  -5.729  1.00 20.00     0.024 C 
BRANCH   8   9
HETATM    9  C11 UNL     1     -34.589  16.330  -6.614  1.00 20.00    -0.003 C 
HETATM   10  C8  UNL     1     -34.017  15.298  -7.572  1.00 20.00     0.005 C 
ENDBRANCH   8   9
ENDBRANCH   6   8
BRANCH   5  11
HETATM   11  C9  UNL     1     -32.852  17.371  -2.021  1.00 20.00     0.000 C 
HETATM   12  C7  UNL     1     -33.469  18.071  -0.853  1.00 20.00     0.005 C 
ENDBRANCH   5  11
TORSDOF 3
ENDMDL
MODEL 4
REMARK VINA RESULT:      -4.4      2.234      3.329
REMARK  3 active torsions:
REMARK  status: ('A' for Active; 'I' for Inactive)
REMARK    1  A    between atoms: C5_5  and  C9_9 
REMARK    2  A    between atoms: C6_6  and  C10_10 
REMARK    3  A    between atoms: C10_10  and  C11_11 
ROOT
HETATM    1  C1  UNL     1     -34.704  17.053  -4.493  1.00 20.00     0.069 C 
HETATM    2  C2  UNL     1     -33.416  17.531  -1.674  1.00 20.00     0.006 C 
HETATM    3  C3  UNL     1     -32.937  16.618  -2.808  1.00 20.00     0.025 C 
HETATM    4  C4  UNL     1     -35.180  15.974  -2.307  1.00 20.00     0.029 C 
HETATM    5  C5  UNL     1     -34.909  17.234  -1.476  1.00 20.00    -0.013 C 
HETATM    6  C6  UNL     1     -34.207  16.088  -3.487  1.00 20.00     0.049 C 
HETATM    7  N12 UNL     1     -35.094  17.809  -5.281  1.00 20.00    -0.196 NA
ENDROOT
BRANCH   6   8
HETATM    8  C10 UNL     1     -33.972  14.737  -4.162  1.00 20.00     0.024 C 
BRANCH   8   9
HETATM    9  C11 UNL     1     -35.117  13.771  -3.878  1.00 20.00    -0.003 C 
HETATM   10  C8  UNL     1     -36.162  13.816  -4.981  1.00 20.00     0.005 C 
ENDBRANCH   8   9
ENDBRANCH   6   8
BRANCH   5  11
HETATM   11  C9  UNL     1     -35.298  17.072  -0.014  1.00 20.00     0.000 C 
HETATM   12  C7  UNL     1     -34.517  17.987   0.875  1.00 20.00     0.005 C 
ENDBRANCH   5  11
TORSDOF 3
ENDMDL
MODEL 5
REMARK VINA RESULT:      -4.3      3.606      6.316
REMARK  3 active torsions:
REMARK  status: ('A' for Active; 'I' for Inactive)
REMARK    1  A    between atoms: C5_5  and  C9_9 
REMARK    2  A    between atoms: C6_6  and  C10_10 
REMARK    3  A    between atoms: C10_10  and  C11_11 
ROOT
HETATM    1  C1  UNL     1     -31.684  18.369  -0.793  1.00 20.00     0.069 C 
HETATM    2  C2  UNL     1     -32.975  18.160  -3.643  1.00 20.00     0.006 C 
HETATM    3  C3  UNL     1     -33.239  19.191  -2.541  1.00 20.00     0.025 C 
HETATM    4  C4  UNL     1     -33.630  17.042  -1.581  1.00 20.00     0.029 C 
HETATM    5  C5  UNL     1     -33.055  16.779  -2.977  1.00 20.00    -0.013 C 
HETATM    6  C6  UNL     1     -33.101  18.434  -1.213  1.00 20.00     0.049 C 
HETATM    7  N12 UNL     1     -30.574  18.317  -0.462  1.00 20.00    -0.196 NA
ENDROOT
BRANCH   6   8
HETATM    8  C10 UNL     1     -33.926  19.080  -0.100  1.00 20.00     0.024 C 
BRANCH   8   9
HETATM    9  C11 UNL     1     -34.496  18.028   0.846  1.00 20.00    -0.003 C 
HETATM   10  C8  UNL     1     -33.809  18.076   2.201  1.00 20.00     0.005 C 
ENDBRANCH   8   9
ENDBRANCH   6   8
BRANCH   5  11
HETATM   11  C9  UNL     1     -33.876  15.778  -3.775  1.00 20.00     0.000 C 
HETATM   12  C7  UNL     1     -35.083  15.320  -3.020  1.00 20.00     0.005 C 
ENDBRANCH   5  11
TORSDOF 3
ENDMDL
MODEL 6
REMARK VINA RESULT:      -4.3      2.708      4.329
REMARK  3 active torsions:
REMARK  status: ('A' for Active; 'I' for Inactive)
REMARK    1  A    between atoms: C5_5  and  C9_9 
REMARK    2  A    between atoms: C6_6  and  C10_10 
REMARK    3  A    between atoms: C10_10  and  C11_11 
ROOT
HETATM    1  C1  UNL     1     -35.059  18.275  -2.771  1.00 20.00     0.069 C 
HETATM    2  C2  UNL     1     -32.151  18.155  -1.604  1.00 20.00     0.006 C 
HETATM    3  C3  UNL     1     -32.880  17.129  -2.479  1.00 20.00     0.025 C 
HETATM    4  C4  UNL     1     -34.249  17.491  -0.558  1.00 20.00     0.029 C 
HETATM    5  C5  UNL     1     -33.112  18.516  -0.462  1.00 20.00    -0.013 C 
HETATM    6  C6  UNL     1     -34.354  17.187  -2.058  1.00 20.00     0.049 C 
HETATM    7  N12 UNL     1     -35.613  19.127  -3.329  1.00 20.00    -0.196 NA
ENDROOT
BRANCH   6   8
HETATM    8  C10 UNL     1     -35.075  15.865  -2.321  1.00 20.00     0.024 C 
BRANCH   8   9
HETATM    9  C11 UNL     1     -34.362  15.052  -3.395  1.00 20.00    -0.003 C 
HETATM   10  C8  UNL     1     -35.318  14.090  -4.082  1.00 20.00     0.005 C 
ENDBRANCH   8   9
ENDBRANCH   6   8
BRANCH   5  11
HETATM   11  C9  UNL     1     -32.442  18.527   0.903  1.00 20.00     0.000 C 
HETATM   12  C7  UNL     1     -30.955  18.397   0.795  1.00 20.00     0.005 C 
ENDBRANCH   5  11
TORSDOF 3
ENDMDL
MODEL 7
REMARK VINA RESULT:      -4.2     10.931     13.199
REMARK  3 active torsions:
REMARK  status: ('A' for Active; 'I' for Inactive)
REMARK    1  A    between atoms: C5_5  and  C9_9 
REMARK    2  A    between atoms: C6_6  and  C10_10 
REMARK    3  A    between atoms: C10_10  and  C11_11 
ROOT
HETATM    1  C1  UNL     1     -42.938   5.666   0.638  1.00 20.00     0.069 C 
HETATM    2  C2  UNL     1     -41.252   4.321  -1.638  1.00 20.00     0.006 C 
HETATM    3  C3  UNL     1     -41.159   5.748  -1.087  1.00 20.00     0.025 C 
HETATM    4  C4  UNL     1     -43.417   5.427  -1.787  1.00 20.00     0.029 C 
HETATM    5  C5  UNL     1     -42.738   4.059  -1.922  1.00 20.00    -0.013 C 
HETATM    6  C6  UNL     1     -42.592   6.151  -0.716  1.00 20.00     0.049 C 
HETATM    7  N12 UNL     1     -43.210   5.285   1.700  1.00 20.00    -0.196 NA
ENDROOT
BRANCH   6   8
HETATM    8  C10 UNL     1     -42.792   7.665  -0.772  1.00 20.00     0.024 C 
BRANCH   8   9
HETATM    9  C11 UNL     1     -41.455   8.399  -0.773  1.00 20.00    -0.003 C 
HETATM   10  C8  UNL     1     -41.361   9.373   0.390  1.00 20.00     0.005 C 
ENDBRANCH   8   9
ENDBRANCH   6   8
BRANCH   5  11
HETATM   11  C9  UNL     1     -42.983   3.410  -3.276  1.00 20.00     0.000 C 
HETATM   12  C7  UNL     1     -41.763   2.710  -3.787  1.00 20.00     0.005 C 
ENDBRANCH   5  11
TORSDOF 3
ENDMDL
MODEL 8
REMARK VINA RESULT:      -4.1      1.677      3.773
REMARK  3 active torsions:
REMARK  status: ('A' for Active; 'I' for Inactive)
REMARK    1  A    between atoms: C5_5  and  C9_9 
REMARK    2  A    between atoms: C6_6  and  C10_10 
REMARK    3  A    between atoms: C10_10  and  C11_11 
ROOT
HETATM    1  C1  UNL     1     -35.661  13.877  -4.294  1.00 20.00     0.069 C 
HETATM    2  C2  UNL     1     -35.983  16.331  -6.221  1.00 20.00     0.006 C 
HETATM    3  C3  UNL     1     -34.834  16.006  -5.259  1.00 20.00     0.025 C 
HETATM    4  C4  UNL     1     -36.833  16.041  -3.956  1.00 20.00     0.029 C 
HETATM    5  C5  UNL     1     -37.281  16.178  -5.416  1.00 20.00    -0.013 C 
HETATM    6  C6  UNL     1     -35.480  15.324  -4.046  1.00 20.00     0.049 C 
HETATM    7  N12 UNL     1     -35.804  12.743  -4.489  1.00 20.00    -0.196 NA
ENDROOT
BRANCH   6   8
HETATM    8  C10 UNL     1     -34.651  15.514  -2.776  1.00 20.00     0.024 C 
BRANCH   8   9
HETATM    9  C11 UNL     1     -33.300  16.147  -3.088  1.00 20.00    -0.003 C 
HETATM   10  C8  UNL     1     -33.026  17.335  -2.180  1.00 20.00     0.005 C 
ENDBRANCH   8   9
ENDBRANCH   6   8
BRANCH   5  11
HETATM   11  C9  UNL     1     -38.255  17.327  -5.629  1.00 20.00     0.000 C 
HETATM   12  C7  UNL     1     -39.021  17.646  -4.384  1.00 20.00     0.005 C 
ENDBRANCH   5  11
TORSDOF 3
ENDMDL
MODEL 9
REMARK VINA RESULT:      -4.1      2.801      5.226
REMARK  3 active torsions:
REMARK  status: ('A' for Active; 'I' for Inactive)
REMARK    1  A    between atoms: C5_5  and  C9_9 
REMARK    2  A    between atoms: C6_6  and  C10_10 
REMARK    3  A    between atoms: C10_10  and  C11_11 
ROOT
HETATM    1  C1  UNL     1     -33.494  18.415  -3.687  1.00 20.00     0.069 C 
HETATM    2  C2  UNL     1     -35.452  16.166  -2.716  1.00 20.00     0.006 C 
HETATM    3  C3  UNL     1     -34.623  17.147  -1.880  1.00 20.00     0.025 C 
HETATM    4  C4  UNL     1     -33.095  15.993  -3.305  1.00 20.00     0.029 C 
HETATM    5  C5  UNL     1     -34.496  15.556  -3.750  1.00 20.00    -0.013 C 
HETATM    6  C6  UNL     1     -33.318  17.366  -2.659  1.00 20.00     0.049 C 
HETATM    7  N12 UNL     1     -33.631  19.236  -4.494  1.00 20.00    -0.196 NA
ENDROOT
BRANCH   6   8
HETATM    8  C10 UNL     1     -32.162  17.755  -1.738  1.00 20.00     0.024 C 
BRANCH   8   9
HETATM    9  C11 UNL     1     -32.588  18.826  -0.740  1.00 20.00    -0.003 C 
HETATM   10  C8  UNL     1     -32.102  18.496   0.662  1.00 20.00     0.005 C 
ENDBRANCH   8   9
ENDBRANCH   6   8
BRANCH   5  11
HETATM   11  C9  UNL     1     -34.632  14.046  -3.873  1.00 20.00     0.000 C 
HETATM   12  C7  UNL     1     -35.967  13.650  -4.420  1.00 20.00     0.005 C 
ENDBRANCH   5  11
TORSDOF 3
ENDMDL
