MODEL 1
REMARK VINA RESULT:      -4.8      0.000      0.000
REMARK  3 active torsions:
REMARK  status: ('A' for Active; 'I' for Inactive)
REMARK    1  A    between atoms: C6_6  and  C10_10 
REMARK    2  A    between atoms: C7_7  and  C11_11 
REMARK    3  A    between atoms: C11_11  and  C12_12 
ROOT
HETATM    1  C1  UNL     1     -36.672  14.574  -4.280  1.00 20.00     0.069 C 
HETATM    2  C2  UNL     1     -33.799  16.350  -2.456  1.00 20.00     0.006 C 
HETATM    3  C3  UNL     1     -35.699  17.982  -2.802  1.00 20.00     0.006 C 
HETATM    4  C4  UNL     1     -34.665  15.218  -3.011  1.00 20.00     0.025 C 
HETATM    5  C5  UNL     1     -36.570  16.853  -3.359  1.00 20.00     0.025 C 
HETATM    6  C6  UNL     1     -34.618  17.487  -1.832  1.00 20.00    -0.015 C 
HETATM    7  C7  UNL     1     -35.755  15.703  -3.992  1.00 20.00     0.049 C 
HETATM    8  N13 UNL     1     -37.389  13.691  -4.506  1.00 20.00    -0.196 NA
ENDROOT
BRANCH   7   9
HETATM    9  C11 UNL     1     -35.127  16.153  -5.324  1.00 20.00     0.024 C 
BRANCH   9  10
HETATM   10  C12 UNL     1     -34.218  15.070  -5.886  1.00 20.00    -0.003 C 
HETATM   11  C9  UNL     1     -33.989  15.276  -7.375  1.00 20.00     0.005 C 
ENDBRANCH   9  10
ENDBRANCH   7   9
BRANCH   6  12
HETATM   12  C10 UNL     1     -35.217  17.076  -0.482  1.00 20.00     0.000 C 
HETATM   13  C8  UNL     1     -34.622  17.854   0.644  1.00 20.00     0.005 C 
ENDBRANCH   6  12
TORSDOF 3
ENDMDL
MODEL 2
REMARK VINA RESULT:      -4.6      0.977      1.057
REMARK  3 active torsions:
REMARK  status: ('A' for Active; 'I' for Inactive)
REMARK    1  A    between atoms: C6_6  and  C10_10 
REMARK    2  A    between atoms: C7_7  and  C11_11 
REMARK    3  A    between atoms: C11_11  and  C12_12 
ROOT
HETATM    1  C1  UNL     1     -35.605  13.882  -4.355  1.00 20.00     0.069 C 
HETATM    2  C2  UNL     1     -33.674  16.736  -2.662  1.00 20.00     0.006 C 
HETATM    3  C3  UNL     1     -36.065  17.463  -3.049  1.00 20.00     0.006 C 
HETATM    4  C4  UNL     1     -34.019  15.329  -3.151  1.00 20.00     0.025 C 
HETATM    5  C5  UNL     1     -36.416  16.057  -3.539  1.00 20.00     0.025 C 
HETATM    6  C6  UNL     1     -34.879  17.484  -2.076  1.00 20.00    -0.015 C 
HETATM    7  C7  UNL     1     -35.211  15.294  -4.133  1.00 20.00     0.049 C 
HETATM    8  N13 UNL     1     -35.912  12.777  -4.528  1.00 20.00    -0.196 NA
ENDROOT
BRANCH   7   9
HETATM    9  C11 UNL     1     -34.810  15.891  -5.495  1.00 20.00     0.024 C 
BRANCH   9  10
HETATM   10  C12 UNL     1     -35.995  15.908  -6.448  1.00 20.00    -0.003 C 
HETATM   11  C9  UNL     1     -35.660  15.182  -7.742  1.00 20.00     0.005 C 
ENDBRANCH   9  10
ENDBRANCH   7   9
BRANCH   6  12
HETATM   12  C10 UNL     1     -35.268  16.936  -0.700  1.00 20.00     0.000 C 
HETATM   13  C8  UNL     1     -34.711  17.771   0.405  1.00 20.00     0.005 C 
ENDBRANCH   6  12
TORSDOF 3
ENDMDL
MODEL 3
REMARK VINA RESULT:      -4.4      2.366      5.204
REMARK  3 active torsions:
REMARK  status: ('A' for Active; 'I' for Inactive)
REMARK    1  A    between atoms: C6_6  and  C10_10 
REMARK    2  A    between atoms: C7_7  and  C11_11 
REMARK    3  A    between atoms: C11_11  and  C12_12 
ROOT
HETATM    1  C1  UNL     1     -32.952  17.764  -2.833  1.00 20.00     0.069 C 
HETATM    2  C2  UNL     1     -33.833  14.353  -4.358  1.00 20.00     0.006 C 
HETATM    3  C3  UNL     1     -35.655  16.013  -4.923  1.00 20.00     0.006 C 
HETATM    4  C4  UNL     1     -33.003  15.473  -3.730  1.00 20.00     0.025 C 
HETATM    5  C5  UNL     1     -34.829  17.138  -4.295  1.00 20.00     0.025 C 
HETATM    6  C6  UNL     1     -34.797  14.852  -5.443  1.00 20.00    -0.015 C 
HETATM    7  C7  UNL     1     -33.856  16.647  -3.200  1.00 20.00     0.049 C 
HETATM    8  N13 UNL     1     -32.245  18.638  -2.545  1.00 20.00    -0.196 NA
ENDROOT
BRANCH   7   9
HETATM    9  C11 UNL     1     -34.628  16.231  -1.935  1.00 20.00     0.024 C 
BRANCH   9  10
HETATM   10  C12 UNL     1     -35.422  17.402  -1.375  1.00 20.00    -0.003 C 
HETATM   11  C9  UNL     1     -35.535  17.305   0.138  1.00 20.00     0.005 C 
ENDBRANCH   9  10
ENDBRANCH   7   9
BRANCH   6  12
HETATM   12  C10 UNL     1     -34.053  15.231  -6.728  1.00 20.00     0.000 C 
HETATM   13  C8  UNL     1     -34.998  15.590  -7.826  1.00 20.00     0.005 C 
ENDBRANCH   6  12
TORSDOF 3
ENDMDL
MODEL 4
REMARK VINA RESULT:      -4.4      1.743      2.894
REMARK  3 active torsions:
REMARK  status: ('A' for Active; 'I' for Inactive)
REMARK    1  A    between atoms: C6_6  and  C10_10 
REMARK    2  A    between atoms: C7_7  and  C11_11 
REMARK    3  A    between atoms: C11_11  and  C12_12 
ROOT
HETATM    1  C1  UNL     1     -34.280  15.322  -5.676  1.00 20.00     0.069 C 
HETATM    2  C2  UNL     1     -34.678  18.286  -3.269  1.00 20.00     0.006 C 
HETATM    3  C3  UNL     1     -34.825  16.127  -1.962  1.00 20.00     0.006 C 
HETATM    4  C4  UNL     1     -34.325  17.501  -4.533  1.00 20.00     0.025 C 
HETATM    5  C5  UNL     1     -34.473  15.336  -3.223  1.00 20.00     0.025 C 
HETATM    6  C6  UNL     1     -34.279  17.561  -1.977  1.00 20.00    -0.015 C 
HETATM    7  C7  UNL     1     -34.871  16.056  -4.531  1.00 20.00     0.049 C 
HETATM    8  N13 UNL     1     -33.818  14.749  -6.573  1.00 20.00    -0.196 NA
ENDROOT
BRANCH   7   9
HETATM    9  C11 UNL     1     -36.401  16.053  -4.708  1.00 20.00     0.024 C 
BRANCH   9  10
HETATM   10  C12 UNL     1     -36.966  14.655  -4.502  1.00 20.00    -0.003 C 
HETATM   11  C9  UNL     1     -38.462  14.710  -4.239  1.00 20.00     0.005 C 
ENDBRANCH   9  10
ENDBRANCH   7   9
BRANCH   6  12
HETATM   12  C10 UNL     1     -32.763  17.590  -1.758  1.00 20.00     0.000 C 
HETATM   13  C8  UNL     1     -32.387  18.484  -0.623  1.00 20.00     0.005 C 
ENDBRANCH   6  12
TORSDOF 3
ENDMDL
MODEL 5
REMARK VINA RESULT:      -4.3      0.935      1.129
REMARK  3 active torsions:
REMARK  status: ('A' for Active; 'I' for Inactive)
REMARK    1  A    between atoms: C6_6  and  C10_10 
REMARK    2  A    between atoms: C7_7  and  C11_11 
REMARK    3  A    between atoms: C11_11  and  C12_12 
ROOT
HETATM    1  C1  UNL     1     -36.757  14.734  -4.127  1.00 20.00     0.069 C 
HETATM    2  C2  UNL     1     -34.413  16.705  -1.812  1.00 20.00     0.006 C 
HETATM    3  C3  UNL     1     -35.997  18.311  -2.955  1.00 20.00     0.006 C 
HETATM    4  C4  UNL     1     -35.164  15.522  -2.425  1.00 20.00     0.025 C 
HETATM    5  C5  UNL     1     -36.753  17.131  -3.571  1.00 20.00     0.025 C 
HETATM    6  C6  UNL     1     -35.288  17.953  -1.641  1.00 20.00    -0.015 C 
HETATM    7  C7  UNL     1     -35.880  15.868  -3.749  1.00 20.00     0.049 C 
HETATM    8  N13 UNL     1     -37.443  13.846  -4.422  1.00 20.00    -0.196 NA
ENDROOT
BRANCH   7   9
HETATM    9  C11 UNL     1     -34.857  16.071  -4.883  1.00 20.00     0.024 C 
BRANCH   9  10
HETATM   10  C12 UNL     1     -34.176  14.758  -5.237  1.00 20.00    -0.003 C 
HETATM   11  C9  UNL     1     -32.858  14.614  -4.492  1.00 20.00     0.005 C 
ENDBRANCH   9  10
ENDBRANCH   7   9
BRANCH   6  12
HETATM   12  C10 UNL     1     -36.285  17.791  -0.489  1.00 20.00     0.000 C 
HETATM   13  C8  UNL     1     -35.607  17.362   0.770  1.00 20.00     0.005 C 
ENDBRANCH   6  12
TORSDOF 3
ENDMDL
MODEL 6
REMARK VINA RESULT:      -4.2      2.185      4.783
REMARK  3 active torsions:
REMARK  status: ('A' for Active; 'I' for Inactive)
REMARK    1  A    between atoms: C6_6  and  C10_10 
REMARK    2  A    between atoms: C7_7  and  C11_11 
REMARK    3  A    between atoms: C11_11  and  C12_12 
ROOT
HETATM    1  C1  UNL     1     -35.033  16.820  -1.327  1.00 20.00     0.069 C 
HETATM    2  C2  UNL     1     -34.607  17.286  -5.114  1.00 20.00     0.006 C 
HETATM    3  C3  UNL     1     -34.229  14.855  -4.526  1.00 20.00     0.006 C 
HETATM    4  C4  UNL     1     -35.017  17.575  -3.669  1.00 20.00     0.025 C 
HETATM    5  C5  UNL     1     -34.639  15.139  -3.079  1.00 20.00     0.025 C 
HETATM    6  C6  UNL     1     -34.855  15.831  -5.532  1.00 20.00    -0.015 C 
HETATM    7  C7  UNL     1     -34.392  16.601  -2.646  1.00 20.00     0.049 C 
HETATM    8  N13 UNL     1     -35.534  16.992  -0.295  1.00 20.00    -0.196 NA
ENDROOT
BRANCH   7   9
HETATM    9  C11 UNL     1     -32.884  16.873  -2.488  1.00 20.00     0.024 C 
BRANCH   9  10
HETATM   10  C12 UNL     1     -32.637  18.300  -2.024  1.00 20.00    -0.003 C 
HETATM   11  C9  UNL     1     -31.649  18.330  -0.868  1.00 20.00     0.005 C 
ENDBRANCH   9  10
ENDBRANCH   7   9
BRANCH   6  12
HETATM   12  C10 UNL     1     -36.347  15.549  -5.738  1.00 20.00     0.000 C 
HETATM   13  C8  UNL     1     -36.953  16.486  -6.729  1.00 20.00     0.005 C 
ENDBRANCH   6  12
TORSDOF 3
ENDMDL
MODEL 7
REMARK VINA RESULT:      -4.2      2.032      4.266
REMARK  3 active torsions:
REMARK  status: ('A' for Active; 'I' for Inactive)
REMARK    1  A    between atoms: C6_6  and  C10_10 
REMARK    2  A    between atoms: C7_7  and  C11_11 
REMARK    3  A    between atoms: C11_11  and  C12_12 
ROOT
HETATM    1  C1  UNL     1     -35.985  13.844  -4.376  1.00 20.00     0.069 C 
HETATM    2  C2  UNL     1     -38.034  17.085  -4.192  1.00 20.00     0.006 C 
HETATM    3  C3  UNL     1     -35.923  17.509  -5.518  1.00 20.00     0.006 C 
HETATM    4  C4  UNL     1     -37.694  15.596  -4.120  1.00 20.00     0.025 C 
HETATM    5  C5  UNL     1     -35.578  16.020  -5.450  1.00 20.00     0.025 C 
HETATM    6  C6  UNL     1     -37.430  17.784  -5.417  1.00 20.00    -0.015 C 
HETATM    7  C7  UNL     1     -36.180  15.306  -4.219  1.00 20.00     0.049 C 
HETATM    8  N13 UNL     1     -35.832  12.700  -4.498  1.00 20.00    -0.196 NA
ENDROOT
BRANCH   7   9
HETATM    9  C11 UNL     1     -35.458  15.742  -2.931  1.00 20.00     0.024 C 
BRANCH   9  10
HETATM   10  C12 UNL     1     -33.952  15.577  -3.073  1.00 20.00    -0.003 C 
HETATM   11  C9  UNL     1     -33.224  16.824  -2.597  1.00 20.00     0.005 C 
ENDBRANCH   9  10
ENDBRANCH   7   9
BRANCH   6  12
HETATM   12  C10 UNL     1     -38.162  17.398  -6.706  1.00 20.00     0.000 C 
HETATM   13  C8  UNL     1     -39.631  17.641  -6.599  1.00 20.00     0.005 C 
ENDBRANCH   6  12
TORSDOF 3
ENDMDL
MODEL 8
REMARK VINA RESULT:      -4.2      1.862      4.587
REMARK  3 active torsions:
REMARK  status: ('A' for Active; 'I' for Inactive)
REMARK    1  A    between atoms: C6_6  and  C10_10 
REMARK    2  A    between atoms: C7_7  and  C11_11 
REMARK    3  A    between atoms: C11_11  and  C12_12 
ROOT
HETATM    1  C1  UNL     1     -35.683  13.807  -4.711  1.00 20.00     0.069 C 
HETATM    2  C2  UNL     1     -35.797  17.565  -5.489  1.00 20.00     0.006 C 
HETATM    3  C3  UNL     1     -34.307  16.411  -7.176  1.00 20.00     0.006 C 
HETATM    4  C4  UNL     1     -36.186  16.209  -4.900  1.00 20.00     0.025 C 
HETATM    5  C5  UNL     1     -34.694  15.051  -6.590  1.00 20.00     0.025 C 
HETATM    6  C6  UNL     1     -35.382  17.486  -6.964  1.00 20.00    -0.015 C 
HETATM    7  C7  UNL     1     -35.112  15.118  -5.104  1.00 20.00     0.049 C 
HETATM    8  N13 UNL     1     -36.130  12.782  -4.403  1.00 20.00    -0.196 NA
ENDROOT
BRANCH   7   9
HETATM    9  C11 UNL     1     -33.888  15.386  -4.208  1.00 20.00     0.024 C 
BRANCH   9  10
HETATM   10  C12 UNL     1     -34.318  15.674  -2.777  1.00 20.00    -0.003 C 
HETATM   11  C9  UNL     1     -33.598  16.897  -2.231  1.00 20.00     0.005 C 
ENDBRANCH   9  10
ENDBRANCH   7   9
BRANCH   6  12
HETATM   12  C10 UNL     1     -36.591  17.263  -7.879  1.00 20.00     0.000 C 
HETATM   13  C8  UNL     1     -37.619  18.330  -7.704  1.00 20.00     0.005 C 
ENDBRANCH   6  12
TORSDOF 3
ENDMDL
MODEL 9
REMARK VINA RESULT:      -4.1      2.048      3.596
REMARK  3 active torsions:
REMARK  status: ('A' for Active; 'I' for Inactive)
REMARK    1  A    between atoms: C6_6  and  C10_10 
REMARK    2  A    between atoms: C7_7  and  C11_11 
REMARK    3  A    between atoms: C11_11  and  C12_12 
ROOT
HETATM    1  C1  UNL     1     -36.846  16.163  -6.254  1.00 20.00     0.069 C 
HETATM    2  C2  UNL     1     -35.599  16.351  -2.627  1.00 20.00     0.006 C 
HETATM    3  C3  UNL     1     -34.633  14.292  -3.734  1.00 20.00     0.006 C 
HETATM    4  C4  UNL     1     -36.203  16.789  -3.963  1.00 20.00     0.025 C 
HETATM    5  C5  UNL     1     -35.235  14.726  -5.072  1.00 20.00     0.025 C 
HETATM    6  C6  UNL     1     -34.354  15.468  -2.788  1.00 20.00    -0.015 C 
HETATM    7  C7  UNL     1     -36.491  15.614  -4.922  1.00 20.00     0.049 C 
HETATM    8  N13 UNL     1     -37.124  16.592  -7.295  1.00 20.00    -0.196 NA
ENDROOT
BRANCH   7   9
HETATM    9  C11 UNL     1     -37.686  14.783  -4.421  1.00 20.00     0.024 C 
BRANCH   9  10
HETATM   10  C12 UNL     1     -38.889  15.674  -4.149  1.00 20.00    -0.003 C 
HETATM   11  C9  UNL     1     -40.174  15.001  -4.602  1.00 20.00     0.005 C 
ENDBRANCH   9  10
ENDBRANCH   7   9
BRANCH   6  12
HETATM   12  C10 UNL     1     -33.140  16.284  -3.245  1.00 20.00     0.000 C 
HETATM   13  C8  UNL     1     -32.842  17.402  -2.303  1.00 20.00     0.005 C 
ENDBRANCH   6  12
TORSDOF 3
ENDMDL
