MODEL 1
REMARK VINA RESULT:      -4.8      0.000      0.000
REMARK  2 active torsions:
REMARK  status: ('A' for Active; 'I' for Inactive)
REMARK    1  A    between atoms: C5_5  and  C8_8 
REMARK    2  A    between atoms: C8_8  and  C9_9 
ROOT
HETATM    1  C1  UNL     1     -37.137  14.503  -4.527  1.00 20.00     0.068 C 
HETATM    2  C6  UNL     1     -36.026  16.661  -4.941  1.00 20.00     0.031 C 
HETATM    3  C7  UNL     1     -35.361  14.616  -6.210  1.00 20.00     0.031 C 
HETATM    4  C9  UNL     1     -35.835  15.139  -4.839  1.00 20.00     0.046 C 
HETATM    5  N10 UNL     1     -38.158  14.007  -4.287  1.00 20.00    -0.196 NA
ENDROOT
BRANCH   4   6
HETATM    6  C8  UNL     1     -34.765  14.757  -3.779  1.00 20.00     0.062 C 
BRANCH   6   7
HETATM    7  C5  UNL     1     -34.312  15.862  -2.851  1.00 20.00    -0.050 A 
HETATM    8  C2  UNL     1     -35.070  16.324  -1.736  1.00 20.00     0.014 A 
HETATM    9  C3  UNL     1     -34.430  17.339  -1.059  1.00 20.00     0.050 A 
HETATM   10  S11 UNL     1     -32.921  17.730  -1.767  1.00 20.00    -0.113 SA
HETATM   11  C4  UNL     1     -33.122  16.542  -2.983  1.00 20.00     0.056 A 
ENDBRANCH   6   7
ENDBRANCH   4   6
TORSDOF 2
ENDMDL
MODEL 2
REMARK VINA RESULT:      -4.7      0.742      1.249
REMARK  2 active torsions:
REMARK  status: ('A' for Active; 'I' for Inactive)
REMARK    1  A    between atoms: C5_5  and  C8_8 
REMARK    2  A    between atoms: C8_8  and  C9_9 
ROOT
HETATM    1  C1  UNL     1     -37.054  14.502  -4.476  1.00 20.00     0.068 C 
HETATM    2  C6  UNL     1     -36.014  16.720  -4.723  1.00 20.00     0.031 C 
HETATM    3  C7  UNL     1     -35.116  14.741  -5.953  1.00 20.00     0.031 C 
HETATM    4  C9  UNL     1     -35.759  15.206  -4.632  1.00 20.00     0.046 C 
HETATM    5  N10 UNL     1     -38.069  13.953  -4.358  1.00 20.00    -0.196 NA
ENDROOT
BRANCH   4   6
HETATM    6  C8  UNL     1     -34.792  14.849  -3.470  1.00 20.00     0.062 C 
BRANCH   6   7
HETATM    7  C5  UNL     1     -34.336  15.996  -2.596  1.00 20.00    -0.050 A 
HETATM    8  C2  UNL     1     -33.111  16.700  -2.783  1.00 20.00     0.014 A 
HETATM    9  C3  UNL     1     -32.939  17.698  -1.849  1.00 20.00     0.050 A 
HETATM   10  S11 UNL     1     -34.251  17.784  -0.752  1.00 20.00    -0.113 SA
HETATM   11  C4  UNL     1     -35.053  16.483  -1.525  1.00 20.00     0.056 A 
ENDBRANCH   6   7
ENDBRANCH   4   6
TORSDOF 2
ENDMDL
MODEL 3
REMARK VINA RESULT:      -4.4      1.192      1.777
REMARK  2 active torsions:
REMARK  status: ('A' for Active; 'I' for Inactive)
REMARK    1  A    between atoms: C5_5  and  C8_8 
REMARK    2  A    between atoms: C8_8  and  C9_9 
ROOT
HETATM    1  C1  UNL     1     -36.374  14.391  -4.243  1.00 20.00     0.068 C 
HETATM    2  C6  UNL     1     -35.170  16.439  -4.889  1.00 20.00     0.031 C 
HETATM    3  C7  UNL     1     -33.925  14.361  -4.285  1.00 20.00     0.031 C 
HETATM    4  C9  UNL     1     -35.170  15.211  -3.964  1.00 20.00     0.046 C 
HETATM    5  N10 UNL     1     -37.313  13.749  -4.465  1.00 20.00    -0.196 NA
ENDROOT
BRANCH   4   6
HETATM    6  C8  UNL     1     -35.109  15.612  -2.465  1.00 20.00     0.062 C 
BRANCH   6   7
HETATM    7  C5  UNL     1     -34.348  16.877  -2.137  1.00 20.00    -0.050 A 
HETATM    8  C2  UNL     1     -32.944  17.033  -2.325  1.00 20.00     0.014 A 
HETATM    9  C3  UNL     1     -32.505  18.282  -1.945  1.00 20.00     0.050 A 
HETATM   10  S11 UNL     1     -33.784  19.262  -1.364  1.00 20.00    -0.113 SA
HETATM   11  C4  UNL     1     -34.928  18.014  -1.618  1.00 20.00     0.056 A 
ENDBRANCH   6   7
ENDBRANCH   4   6
TORSDOF 2
ENDMDL
MODEL 4
REMARK VINA RESULT:      -4.2      1.631      2.128
REMARK  2 active torsions:
REMARK  status: ('A' for Active; 'I' for Inactive)
REMARK    1  A    between atoms: C5_5  and  C8_8 
REMARK    2  A    between atoms: C8_8  and  C9_9 
ROOT
HETATM    1  C1  UNL     1     -34.461  14.904  -5.862  1.00 20.00     0.068 C 
HETATM    2  C6  UNL     1     -36.528  13.967  -4.909  1.00 20.00     0.031 C 
HETATM    3  C7  UNL     1     -35.998  16.395  -4.673  1.00 20.00     0.031 C 
HETATM    4  C9  UNL     1     -35.388  14.979  -4.708  1.00 20.00     0.046 C 
HETATM    5  N10 UNL     1     -33.738  14.846  -6.767  1.00 20.00    -0.196 NA
ENDROOT
BRANCH   4   6
HETATM    6  C8  UNL     1     -34.631  14.745  -3.373  1.00 20.00     0.062 C 
BRANCH   6   7
HETATM    7  C5  UNL     1     -34.189  15.982  -2.623  1.00 20.00    -0.050 A 
HETATM    8  C2  UNL     1     -34.918  16.562  -1.545  1.00 20.00     0.014 A 
HETATM    9  C3  UNL     1     -34.296  17.683  -1.041  1.00 20.00     0.050 A 
HETATM   10  S11 UNL     1     -32.837  18.032  -1.866  1.00 20.00    -0.113 SA
HETATM   11  C4  UNL     1     -33.036  16.683  -2.902  1.00 20.00     0.056 A 
ENDBRANCH   6   7
ENDBRANCH   4   6
TORSDOF 2
ENDMDL
MODEL 5
REMARK VINA RESULT:      -4.2      3.331      4.735
REMARK  2 active torsions:
REMARK  status: ('A' for Active; 'I' for Inactive)
REMARK    1  A    between atoms: C5_5  and  C8_8 
REMARK    2  A    between atoms: C8_8  and  C9_9 
ROOT
HETATM    1  C1  UNL     1     -32.645  17.983  -1.978  1.00 20.00     0.068 C 
HETATM    2  C6  UNL     1     -34.612  18.153  -3.448  1.00 20.00     0.031 C 
HETATM    3  C7  UNL     1     -34.718  16.861  -1.314  1.00 20.00     0.031 C 
HETATM    4  C9  UNL     1     -33.814  17.239  -2.504  1.00 20.00     0.046 C 
HETATM    5  N10 UNL     1     -31.733  18.567  -1.564  1.00 20.00    -0.196 NA
ENDROOT
BRANCH   4   6
HETATM    6  C8  UNL     1     -33.365  15.928  -3.207  1.00 20.00     0.062 C 
BRANCH   6   7
HETATM    7  C5  UNL     1     -34.346  15.318  -4.184  1.00 20.00    -0.050 A 
HETATM    8  C2  UNL     1     -35.408  14.448  -3.806  1.00 20.00     0.014 A 
HETATM    9  C3  UNL     1     -36.151  14.034  -4.890  1.00 20.00     0.050 A 
HETATM   10  S11 UNL     1     -35.567  14.695  -6.357  1.00 20.00    -0.113 SA
HETATM   11  C4  UNL     1     -34.316  15.536  -5.544  1.00 20.00     0.056 A 
ENDBRANCH   6   7
ENDBRANCH   4   6
TORSDOF 2
ENDMDL
MODEL 6
REMARK VINA RESULT:      -4.1      2.780      4.345
REMARK  2 active torsions:
REMARK  status: ('A' for Active; 'I' for Inactive)
REMARK    1  A    between atoms: C5_5  and  C8_8 
REMARK    2  A    between atoms: C8_8  and  C9_9 
ROOT
HETATM    1  C1  UNL     1     -34.750  18.065  -3.181  1.00 20.00     0.068 C 
HETATM    2  C6  UNL     1     -35.096  16.601  -1.232  1.00 20.00     0.031 C 
HETATM    3  C7  UNL     1     -32.912  17.756  -1.592  1.00 20.00     0.031 C 
HETATM    4  C9  UNL     1     -34.094  17.068  -2.301  1.00 20.00     0.046 C 
HETATM    5  N10 UNL     1     -35.263  18.848  -3.865  1.00 20.00    -0.196 NA
ENDROOT
BRANCH   4   6
HETATM    6  C8  UNL     1     -33.536  15.880  -3.132  1.00 20.00     0.062 C 
BRANCH   6   7
HETATM    7  C5  UNL     1     -34.463  15.291  -4.172  1.00 20.00    -0.050 A 
HETATM    8  C2  UNL     1     -35.507  14.368  -3.875  1.00 20.00     0.014 A 
HETATM    9  C3  UNL     1     -36.199  13.987  -5.004  1.00 20.00     0.050 A 
HETATM   10  S11 UNL     1     -35.590  14.742  -6.415  1.00 20.00    -0.113 SA
HETATM   11  C4  UNL     1     -34.397  15.579  -5.517  1.00 20.00     0.056 A 
ENDBRANCH   6   7
ENDBRANCH   4   6
TORSDOF 2
ENDMDL
MODEL 7
REMARK VINA RESULT:      -4.1      1.259      1.603
REMARK  2 active torsions:
REMARK  status: ('A' for Active; 'I' for Inactive)
REMARK    1  A    between atoms: C5_5  and  C8_8 
REMARK    2  A    between atoms: C8_8  and  C9_9 
ROOT
HETATM    1  C1  UNL     1     -36.050  16.311  -4.788  1.00 20.00     0.068 C 
HETATM    2  C6  UNL     1     -34.254  15.051  -5.904  1.00 20.00     0.031 C 
HETATM    3  C7  UNL     1     -36.305  13.892  -5.078  1.00 20.00     0.031 C 
HETATM    4  C9  UNL     1     -35.306  15.029  -4.783  1.00 20.00     0.046 C 
HETATM    5  N10 UNL     1     -36.634  17.312  -4.795  1.00 20.00    -0.196 NA
ENDROOT
BRANCH   4   6
HETATM    6  C8  UNL     1     -34.668  14.764  -3.392  1.00 20.00     0.062 C 
BRANCH   6   7
HETATM    7  C5  UNL     1     -34.201  15.980  -2.623  1.00 20.00    -0.050 A 
HETATM    8  C2  UNL     1     -34.922  16.561  -1.539  1.00 20.00     0.014 A 
HETATM    9  C3  UNL     1     -34.275  17.660  -1.017  1.00 20.00     0.050 A 
HETATM   10  S11 UNL     1     -32.806  17.988  -1.832  1.00 20.00    -0.113 SA
HETATM   11  C4  UNL     1     -33.032  16.659  -2.888  1.00 20.00     0.056 A 
ENDBRANCH   6   7
ENDBRANCH   4   6
TORSDOF 2
ENDMDL
MODEL 8
REMARK VINA RESULT:      -3.9      2.778      4.531
REMARK  2 active torsions:
REMARK  status: ('A' for Active; 'I' for Inactive)
REMARK    1  A    between atoms: C5_5  and  C8_8 
REMARK    2  A    between atoms: C8_8  and  C9_9 
ROOT
HETATM    1  C1  UNL     1     -34.391  18.219  -3.321  1.00 20.00     0.068 C 
HETATM    2  C6  UNL     1     -34.770  16.923  -1.262  1.00 20.00     0.031 C 
HETATM    3  C7  UNL     1     -32.539  17.935  -1.743  1.00 20.00     0.031 C 
HETATM    4  C9  UNL     1     -33.768  17.257  -2.380  1.00 20.00     0.046 C 
HETATM    5  N10 UNL     1     -34.878  18.974  -4.054  1.00 20.00    -0.196 NA
ENDROOT
BRANCH   4   6
HETATM    6  C8  UNL     1     -33.286  15.984  -3.128  1.00 20.00     0.062 C 
BRANCH   6   7
HETATM    7  C5  UNL     1     -34.288  15.324  -4.049  1.00 20.00    -0.050 A 
HETATM    8  C2  UNL     1     -34.251  15.429  -5.470  1.00 20.00     0.014 A 
HETATM    9  C3  UNL     1     -35.279  14.735  -6.069  1.00 20.00     0.050 A 
HETATM   10  S11 UNL     1     -36.284  13.960  -4.919  1.00 20.00    -0.113 SA
HETATM   11  C4  UNL     1     -35.345  14.555  -3.617  1.00 20.00     0.056 A 
ENDBRANCH   6   7
ENDBRANCH   4   6
TORSDOF 2
ENDMDL
MODEL 9
REMARK VINA RESULT:      -3.9      1.949      2.617
REMARK  2 active torsions:
REMARK  status: ('A' for Active; 'I' for Inactive)
REMARK    1  A    between atoms: C5_5  and  C8_8 
REMARK    2  A    between atoms: C8_8  and  C9_9 
ROOT
HETATM    1  C1  UNL     1     -34.737  16.269  -5.051  1.00 20.00     0.068 C 
HETATM    2  C6  UNL     1     -33.304  14.387  -4.367  1.00 20.00     0.031 C 
HETATM    3  C7  UNL     1     -35.781  14.115  -4.528  1.00 20.00     0.031 C 
HETATM    4  C9  UNL     1     -34.652  15.095  -4.150  1.00 20.00     0.046 C 
HETATM    5  N10 UNL     1     -34.804  17.184  -5.759  1.00 20.00    -0.196 NA
ENDROOT
BRANCH   4   6
HETATM    6  C8  UNL     1     -34.854  15.518  -2.669  1.00 20.00     0.062 C 
BRANCH   6   7
HETATM    7  C5  UNL     1     -34.255  16.845  -2.260  1.00 20.00    -0.050 A 
HETATM    8  C2  UNL     1     -32.860  17.132  -2.296  1.00 20.00     0.014 A 
HETATM    9  C3  UNL     1     -32.582  18.413  -1.870  1.00 20.00     0.050 A 
HETATM   10  S11 UNL     1     -34.002  19.263  -1.429  1.00 20.00    -0.113 SA
HETATM   11  C4  UNL     1     -34.991  17.917  -1.806  1.00 20.00     0.056 A 
ENDBRANCH   6   7
ENDBRANCH   4   6
TORSDOF 2
ENDMDL
