MODEL 1
REMARK VINA RESULT:      -4.5      0.000      0.000
REMARK  4 active torsions:
REMARK  status: ('A' for Active; 'I' for Inactive)
REMARK    1  A    between atoms: C5_5  and  C9_9 
REMARK    2  A    between atoms: C6_6  and  C10_10 
REMARK    3  A    between atoms: C10_10  and  C12_12 
REMARK    4  A    between atoms: C11_11  and  C12_12 
ROOT
HETATM    1  C1  UNL     1     -36.831  14.482  -4.105  1.00 20.00     0.069 C 
HETATM    2  C2  UNL     1     -33.365  14.807  -4.892  1.00 20.00     0.006 C 
HETATM    3  C3  UNL     1     -34.380  14.133  -3.972  1.00 20.00     0.025 C 
HETATM    4  C4  UNL     1     -35.260  16.256  -4.850  1.00 20.00     0.029 C 
HETATM    5  C5  UNL     1     -34.201  15.696  -5.806  1.00 20.00    -0.013 C 
HETATM    6  C6  UNL     1     -35.540  15.140  -3.816  1.00 20.00     0.049 C 
HETATM    7  N13 UNL     1     -37.844  13.964  -4.332  1.00 20.00    -0.196 NA
ENDROOT
BRANCH   6   8
HETATM    8  C10 UNL     1     -35.587  15.717  -2.396  1.00 20.00     0.024 C 
BRANCH   8   9
HETATM    9  C12 UNL     1     -35.207  17.194  -2.387  1.00 20.00     0.001 C 
BRANCH   9  10
HETATM   10  C11 UNL     1     -33.994  17.442  -1.490  1.00 20.00    -0.004 C 
HETATM   11  C8  UNL     1     -32.702  17.460  -2.292  1.00 20.00     0.005 C 
ENDBRANCH   9  10
ENDBRANCH   8   9
ENDBRANCH   6   8
BRANCH   5  12
HETATM   12  C9  UNL     1     -34.810  14.927  -6.976  1.00 20.00     0.000 C 
HETATM   13  C7  UNL     1     -36.022  15.611  -7.525  1.00 20.00     0.005 C 
ENDBRANCH   5  12
TORSDOF 4
ENDMDL
MODEL 2
REMARK VINA RESULT:      -4.3      1.582      2.621
REMARK  4 active torsions:
REMARK  status: ('A' for Active; 'I' for Inactive)
REMARK    1  A    between atoms: C5_5  and  C9_9 
REMARK    2  A    between atoms: C6_6  and  C10_10 
REMARK    3  A    between atoms: C10_10  and  C12_12 
REMARK    4  A    between atoms: C11_11  and  C12_12 
ROOT
HETATM    1  C1  UNL     1     -35.584  13.840  -4.353  1.00 20.00     0.069 C 
HETATM    2  C2  UNL     1     -36.068  17.201  -5.451  1.00 20.00     0.006 C 
HETATM    3  C3  UNL     1     -35.166  15.974  -5.544  1.00 20.00     0.025 C 
HETATM    4  C4  UNL     1     -36.416  15.990  -3.426  1.00 20.00     0.029 C 
HETATM    5  C5  UNL     1     -37.176  16.795  -4.485  1.00 20.00    -0.013 C 
HETATM    6  C6  UNL     1     -35.267  15.272  -4.172  1.00 20.00     0.049 C 
HETATM    7  N13 UNL     1     -35.834  12.716  -4.495  1.00 20.00    -0.196 NA
ENDROOT
BRANCH   6   8
HETATM    8  C10 UNL     1     -33.954  15.391  -3.390  1.00 20.00     0.024 C 
BRANCH   8   9
HETATM    9  C12 UNL     1     -34.094  16.363  -2.223  1.00 20.00     0.001 C 
BRANCH   9  10
HETATM   10  C11 UNL     1     -32.961  17.390  -2.225  1.00 20.00    -0.004 C 
HETATM   11  C8  UNL     1     -32.961  18.217  -3.500  1.00 20.00     0.005 C 
ENDBRANCH   9  10
ENDBRANCH   8   9
ENDBRANCH   6   8
BRANCH   5  12
HETATM   12  C9  UNL     1     -38.280  15.987  -5.162  1.00 20.00     0.000 C 
HETATM   13  C7  UNL     1     -39.037  15.144  -4.185  1.00 20.00     0.005 C 
ENDBRANCH   5  12
TORSDOF 4
ENDMDL
MODEL 3
REMARK VINA RESULT:      -4.2      1.147      1.603
REMARK  4 active torsions:
REMARK  status: ('A' for Active; 'I' for Inactive)
REMARK    1  A    between atoms: C5_5  and  C9_9 
REMARK    2  A    between atoms: C6_6  and  C10_10 
REMARK    3  A    between atoms: C10_10  and  C12_12 
REMARK    4  A    between atoms: C11_11  and  C12_12 
ROOT
HETATM    1  C1  UNL     1     -36.669  14.412  -4.464  1.00 20.00     0.069 C 
HETATM    2  C2  UNL     1     -34.390  16.176  -6.569  1.00 20.00     0.006 C 
HETATM    3  C3  UNL     1     -34.630  14.884  -5.793  1.00 20.00     0.025 C 
HETATM    4  C4  UNL     1     -35.901  16.748  -4.814  1.00 20.00     0.029 C 
HETATM    5  C5  UNL     1     -35.625  17.027  -6.295  1.00 20.00    -0.013 C 
HETATM    6  C6  UNL     1     -35.479  15.281  -4.566  1.00 20.00     0.049 C 
HETATM    7  N13 UNL     1     -37.604  13.729  -4.385  1.00 20.00    -0.196 NA
ENDROOT
BRANCH   6   8
HETATM    8  C10 UNL     1     -34.668  15.162  -3.269  1.00 20.00     0.024 C 
BRANCH   8   9
HETATM    9  C12 UNL     1     -35.233  16.069  -2.181  1.00 20.00     0.001 C 
BRANCH   9  10
HETATM   10  C11 UNL     1     -34.140  16.959  -1.587  1.00 20.00    -0.004 C 
HETATM   11  C8  UNL     1     -32.951  17.082  -2.527  1.00 20.00     0.005 C 
ENDBRANCH   9  10
ENDBRANCH   8   9
ENDBRANCH   6   8
BRANCH   5  12
HETATM   12  C9  UNL     1     -36.803  16.660  -7.194  1.00 20.00     0.000 C 
HETATM   13  C7  UNL     1     -38.110  17.089  -6.607  1.00 20.00     0.005 C 
ENDBRANCH   5  12
TORSDOF 4
ENDMDL
MODEL 4
REMARK VINA RESULT:      -4.2      2.075      4.595
REMARK  4 active torsions:
REMARK  status: ('A' for Active; 'I' for Inactive)
REMARK    1  A    between atoms: C5_5  and  C9_9 
REMARK    2  A    between atoms: C6_6  and  C10_10 
REMARK    3  A    between atoms: C10_10  and  C12_12 
REMARK    4  A    between atoms: C11_11  and  C12_12 
ROOT
HETATM    1  C1  UNL     1     -35.156  16.825  -1.066  1.00 20.00     0.069 C 
HETATM    2  C2  UNL     1     -34.009  18.211  -4.149  1.00 20.00     0.006 C 
HETATM    3  C3  UNL     1     -35.240  17.812  -3.339  1.00 20.00     0.025 C 
HETATM    4  C4  UNL     1     -33.273  16.503  -2.654  1.00 20.00     0.029 C 
HETATM    5  C5  UNL     1     -32.825  17.836  -3.264  1.00 20.00    -0.013 C 
HETATM    6  C6  UNL     1     -34.807  16.601  -2.484  1.00 20.00     0.049 C 
HETATM    7  N13 UNL     1     -35.430  17.002   0.047  1.00 20.00    -0.196 NA
ENDROOT
BRANCH   6   8
HETATM    8  C10 UNL     1     -35.488  15.313  -2.963  1.00 20.00     0.024 C 
BRANCH   8   9
HETATM    9  C12 UNL     1     -34.592  14.539  -3.924  1.00 20.00     0.001 C 
BRANCH   9  10
HETATM   10  C11 UNL     1     -35.113  14.637  -5.358  1.00 20.00    -0.004 C 
HETATM   11  C8  UNL     1     -34.016  15.065  -6.321  1.00 20.00     0.005 C 
ENDBRANCH   9  10
ENDBRANCH   8   9
ENDBRANCH   6   8
BRANCH   5  12
HETATM   12  C9  UNL     1     -32.522  18.896  -2.208  1.00 20.00     0.000 C 
HETATM   13  C7  UNL     1     -31.767  18.330  -1.047  1.00 20.00     0.005 C 
ENDBRANCH   5  12
TORSDOF 4
ENDMDL
MODEL 5
REMARK VINA RESULT:      -4.2      2.454      3.608
REMARK  4 active torsions:
REMARK  status: ('A' for Active; 'I' for Inactive)
REMARK    1  A    between atoms: C5_5  and  C9_9 
REMARK    2  A    between atoms: C6_6  and  C10_10 
REMARK    3  A    between atoms: C10_10  and  C12_12 
REMARK    4  A    between atoms: C11_11  and  C12_12 
ROOT
HETATM    1  C1  UNL     1     -33.450  18.270  -4.035  1.00 20.00     0.069 C 
HETATM    2  C2  UNL     1     -35.176  15.665  -2.312  1.00 20.00     0.006 C 
HETATM    3  C3  UNL     1     -34.907  17.166  -2.360  1.00 20.00     0.025 C 
HETATM    4  C4  UNL     1     -33.057  15.906  -3.380  1.00 20.00     0.029 C 
HETATM    5  C5  UNL     1     -34.349  15.086  -3.455  1.00 20.00    -0.013 C 
HETATM    6  C6  UNL     1     -33.470  17.319  -2.905  1.00 20.00     0.049 C 
HETATM    7  N13 UNL     1     -33.435  19.017  -4.923  1.00 20.00    -0.196 NA
ENDROOT
BRANCH   6   8
HETATM    8  C10 UNL     1     -32.515  17.826  -1.817  1.00 20.00     0.024 C 
BRANCH   8   9
HETATM    9  C12 UNL     1     -33.278  18.236  -0.561  1.00 20.00     0.001 C 
BRANCH   9  10
HETATM   10  C11 UNL     1     -32.317  18.661   0.549  1.00 20.00    -0.004 C 
HETATM   11  C8  UNL     1     -30.883  18.277   0.223  1.00 20.00     0.005 C 
ENDBRANCH   9  10
ENDBRANCH   8   9
ENDBRANCH   6   8
BRANCH   5  12
HETATM   12  C9  UNL     1     -35.048  15.208  -4.806  1.00 20.00     0.000 C 
HETATM   13  C7  UNL     1     -34.086  15.098  -5.946  1.00 20.00     0.005 C 
ENDBRANCH   5  12
TORSDOF 4
ENDMDL
MODEL 6
REMARK VINA RESULT:      -4.1     11.031     13.369
REMARK  4 active torsions:
REMARK  status: ('A' for Active; 'I' for Inactive)
REMARK    1  A    between atoms: C5_5  and  C9_9 
REMARK    2  A    between atoms: C6_6  and  C10_10 
REMARK    3  A    between atoms: C10_10  and  C12_12 
REMARK    4  A    between atoms: C11_11  and  C12_12 
ROOT
HETATM    1  C1  UNL     1     -43.021   5.199   0.759  1.00 20.00     0.069 C 
HETATM    2  C2  UNL     1     -42.332   7.682  -1.711  1.00 20.00     0.006 C 
HETATM    3  C3  UNL     1     -43.417   6.813  -1.081  1.00 20.00     0.025 C 
HETATM    4  C4  UNL     1     -41.202   5.773  -0.833  1.00 20.00     0.029 C 
HETATM    5  C5  UNL     1     -41.051   7.290  -0.982  1.00 20.00    -0.013 C 
HETATM    6  C6  UNL     1     -42.715   5.506  -0.654  1.00 20.00     0.049 C 
HETATM    7  N13 UNL     1     -43.261   4.959   1.869  1.00 20.00    -0.196 NA
ENDROOT
BRANCH   6   8
HETATM    8  C10 UNL     1     -43.164   4.325  -1.523  1.00 20.00     0.024 C 
BRANCH   8   9
HETATM    9  C12 UNL     1     -42.055   3.887  -2.474  1.00 20.00     0.001 C 
BRANCH   9  10
HETATM   10  C11 UNL     1     -42.458   2.629  -3.244  1.00 20.00    -0.004 C 
HETATM   11  C8  UNL     1     -41.543   2.387  -4.433  1.00 20.00     0.005 C 
ENDBRANCH   9  10
ENDBRANCH   8   9
ENDBRANCH   6   8
BRANCH   5  12
HETATM   12  C9  UNL     1     -40.897   8.003   0.359  1.00 20.00     0.000 C 
HETATM   13  C7  UNL     1     -41.477   9.382   0.331  1.00 20.00     0.005 C 
ENDBRANCH   5  12
TORSDOF 4
ENDMDL
MODEL 7
REMARK VINA RESULT:      -3.9      1.083      4.467
REMARK  4 active torsions:
REMARK  status: ('A' for Active; 'I' for Inactive)
REMARK    1  A    between atoms: C5_5  and  C9_9 
REMARK    2  A    between atoms: C6_6  and  C10_10 
REMARK    3  A    between atoms: C10_10  and  C12_12 
REMARK    4  A    between atoms: C11_11  and  C12_12 
ROOT
HETATM    1  C1  UNL     1     -36.177  14.511  -4.446  1.00 20.00     0.069 C 
HETATM    2  C2  UNL     1     -34.223  17.393  -3.663  1.00 20.00     0.006 C 
HETATM    3  C3  UNL     1     -35.183  16.770  -4.674  1.00 20.00     0.025 C 
HETATM    4  C4  UNL     1     -33.976  15.033  -3.418  1.00 20.00     0.029 C 
HETATM    5  C5  UNL     1     -34.040  16.322  -2.593  1.00 20.00    -0.013 C 
HETATM    6  C6  UNL     1     -34.912  15.250  -4.631  1.00 20.00     0.049 C 
HETATM    7  N13 UNL     1     -37.171  13.930  -4.300  1.00 20.00    -0.196 NA
ENDROOT
BRANCH   6   8
HETATM    8  C10 UNL     1     -34.244  14.769  -5.925  1.00 20.00     0.024 C 
BRANCH   8   9
HETATM    9  C12 UNL     1     -34.550  15.710  -7.086  1.00 20.00     0.001 C 
BRANCH   9  10
HETATM   10  C11 UNL     1     -35.722  15.190  -7.918  1.00 20.00    -0.004 C 
HETATM   11  C8  UNL     1     -36.883  16.171  -7.918  1.00 20.00     0.005 C 
ENDBRANCH   9  10
ENDBRANCH   8   9
ENDBRANCH   6   8
BRANCH   5  12
HETATM   12  C9  UNL     1     -35.172  16.314  -1.570  1.00 20.00     0.000 C 
HETATM   13  C7  UNL     1     -34.994  17.373  -0.529  1.00 20.00     0.005 C 
ENDBRANCH   5  12
TORSDOF 4
ENDMDL
MODEL 8
REMARK VINA RESULT:      -3.8      1.922      4.484
REMARK  4 active torsions:
REMARK  status: ('A' for Active; 'I' for Inactive)
REMARK    1  A    between atoms: C5_5  and  C9_9 
REMARK    2  A    between atoms: C6_6  and  C10_10 
REMARK    3  A    between atoms: C10_10  and  C12_12 
REMARK    4  A    between atoms: C11_11  and  C12_12 
ROOT
HETATM    1  C1  UNL     1     -33.623  14.716  -4.335  1.00 20.00     0.069 C 
HETATM    2  C2  UNL     1     -35.154  16.907  -1.969  1.00 20.00     0.006 C 
HETATM    3  C3  UNL     1     -35.135  15.486  -2.527  1.00 20.00     0.025 C 
HETATM    4  C4  UNL     1     -34.316  17.098  -4.194  1.00 20.00     0.029 C 
HETATM    5  C5  UNL     1     -34.105  17.656  -2.784  1.00 20.00    -0.013 C 
HETATM    6  C6  UNL     1     -34.745  15.622  -4.015  1.00 20.00     0.049 C 
HETATM    7  N13 UNL     1     -32.742  14.004  -4.586  1.00 20.00    -0.196 NA
ENDROOT
BRANCH   6   8
HETATM    8  C10 UNL     1     -35.928  15.287  -4.931  1.00 20.00     0.024 C 
BRANCH   8   9
HETATM    9  C12 UNL     1     -36.849  14.255  -4.287  1.00 20.00     0.001 C 
BRANCH   9  10
HETATM   10  C11 UNL     1     -38.298  14.743  -4.281  1.00 20.00    -0.004 C 
HETATM   11  C8  UNL     1     -38.376  16.259  -4.358  1.00 20.00     0.005 C 
ENDBRANCH   9  10
ENDBRANCH   8   9
ENDBRANCH   6   8
BRANCH   5  12
HETATM   12  C9  UNL     1     -32.687  17.430  -2.265  1.00 20.00     0.000 C 
HETATM   13  C7  UNL     1     -32.434  18.171  -0.989  1.00 20.00     0.005 C 
ENDBRANCH   5  12
TORSDOF 4
ENDMDL
MODEL 9
REMARK VINA RESULT:      -3.8      1.912      4.615
REMARK  4 active torsions:
REMARK  status: ('A' for Active; 'I' for Inactive)
REMARK    1  A    between atoms: C5_5  and  C9_9 
REMARK    2  A    between atoms: C6_6  and  C10_10 
REMARK    3  A    between atoms: C10_10  and  C12_12 
REMARK    4  A    between atoms: C11_11  and  C12_12 
ROOT
HETATM    1  C1  UNL     1     -35.401  17.392  -4.307  1.00 20.00     0.069 C 
HETATM    2  C2  UNL     1     -32.780  17.460  -1.885  1.00 20.00     0.006 C 
HETATM    3  C3  UNL     1     -33.106  17.503  -3.375  1.00 20.00     0.025 C 
HETATM    4  C4  UNL     1     -34.872  16.338  -2.120  1.00 20.00     0.029 C 
HETATM    5  C5  UNL     1     -34.133  17.312  -1.197  1.00 20.00    -0.013 C 
HETATM    6  C6  UNL     1     -34.375  16.641  -3.554  1.00 20.00     0.049 C 
HETATM    7  N13 UNL     1     -36.206  17.983  -4.898  1.00 20.00    -0.196 NA
ENDROOT
BRANCH   6   8
HETATM    8  C10 UNL     1     -34.063  15.342  -4.306  1.00 20.00     0.024 C 
BRANCH   8   9
HETATM    9  C12 UNL     1     -34.871  14.175  -3.750  1.00 20.00     0.001 C 
BRANCH   9  10
HETATM   10  C11 UNL     1     -35.981  13.765  -4.718  1.00 20.00    -0.004 C 
HETATM   11  C8  UNL     1     -37.324  14.346  -4.303  1.00 20.00     0.005 C 
ENDBRANCH   9  10
ENDBRANCH   8   9
ENDBRANCH   6   8
BRANCH   5  12
HETATM   12  C9  UNL     1     -34.862  18.644  -1.040  1.00 20.00     0.000 C 
HETATM   13  C7  UNL     1     -36.332  18.457  -0.833  1.00 20.00     0.005 C 
ENDBRANCH   5  12
TORSDOF 4
ENDMDL
