MODEL 1
REMARK VINA RESULT:      -4.7      0.000      0.000
REMARK  3 active torsions:
REMARK  status: ('A' for Active; 'I' for Inactive)
REMARK    1  A    between atoms: C1_1  and  C7_7 
REMARK    2  A    between atoms: C1_1  and  C8_8 
REMARK    3  A    between atoms: C9_9  and  C11_11 
ROOT
HETATM    1  C4  UNL     1     -33.311  14.665  -4.290  1.00 20.00     0.013 C 
HETATM    2  C5  UNL     1     -32.994  15.859  -3.393  1.00 20.00     0.005 C 
HETATM    3  C6  UNL     1     -35.220  15.208  -2.855  1.00 20.00     0.016 C 
HETATM    4  C8  UNL     1     -34.712  14.204  -3.887  1.00 20.00     0.056 C 
HETATM    5  C9  UNL     1     -34.361  16.454  -3.076  1.00 20.00    -0.014 C 
ENDROOT
BRANCH   4   6
HETATM    6  C1  UNL     1     -35.621  14.249  -5.100  1.00 20.00     0.135 C 
HETATM    7  O12 UNL     1     -36.741  13.740  -5.087  1.00 20.00    -0.297 OA
BRANCH   6   8
HETATM    8  C7  UNL     1     -35.087  14.950  -6.320  1.00 20.00     0.056 A 
HETATM    9  C2  UNL     1     -36.000  15.133  -7.478  1.00 20.00     0.013 A 
HETATM   10  C3  UNL     1     -35.609  16.306  -6.632  1.00 20.00     0.013 A 
ENDBRANCH   6   8
ENDBRANCH   4   6
BRANCH   5  11
HETATM   11  C11 UNL     1     -34.345  17.389  -1.880  1.00 20.00     0.000 C 
HETATM   12  C10 UNL     1     -35.258  16.921  -0.789  1.00 20.00     0.005 C 
ENDBRANCH   5  11
TORSDOF 3
ENDMDL
MODEL 2
REMARK VINA RESULT:      -4.5      1.472      1.807
REMARK  3 active torsions:
REMARK  status: ('A' for Active; 'I' for Inactive)
REMARK    1  A    between atoms: C1_1  and  C7_7 
REMARK    2  A    between atoms: C1_1  and  C8_8 
REMARK    3  A    between atoms: C9_9  and  C11_11 
ROOT
HETATM    1  C4  UNL     1     -33.597  14.434  -4.508  1.00 20.00     0.013 C 
HETATM    2  C5  UNL     1     -32.875  15.555  -3.765  1.00 20.00     0.005 C 
HETATM    3  C6  UNL     1     -34.966  15.277  -2.660  1.00 20.00     0.016 C 
HETATM    4  C8  UNL     1     -34.905  14.208  -3.748  1.00 20.00     0.056 C 
HETATM    5  C9  UNL     1     -34.004  16.366  -3.137  1.00 20.00    -0.014 C 
ENDROOT
BRANCH   4   6
HETATM    6  C1  UNL     1     -36.073  14.408  -4.695  1.00 20.00     0.135 C 
HETATM    7  O12 UNL     1     -36.110  13.866  -5.799  1.00 20.00    -0.297 OA
BRANCH   6   8
HETATM    8  C7  UNL     1     -37.187  15.299  -4.216  1.00 20.00     0.056 A 
HETATM    9  C2  UNL     1     -38.123  15.856  -5.228  1.00 20.00     0.013 A 
HETATM   10  C3  UNL     1     -38.578  14.781  -4.288  1.00 20.00     0.013 A 
ENDBRANCH   6   8
ENDBRANCH   4   6
BRANCH   5  11
HETATM   11  C11 UNL     1     -33.534  17.280  -2.019  1.00 20.00     0.000 C 
HETATM   12  C10 UNL     1     -34.574  17.444  -0.954  1.00 20.00     0.005 C 
ENDBRANCH   5  11
TORSDOF 3
ENDMDL
MODEL 3
REMARK VINA RESULT:      -4.4      1.567      2.016
REMARK  3 active torsions:
REMARK  status: ('A' for Active; 'I' for Inactive)
REMARK    1  A    between atoms: C1_1  and  C7_7 
REMARK    2  A    between atoms: C1_1  and  C8_8 
REMARK    3  A    between atoms: C9_9  and  C11_11 
ROOT
HETATM    1  C4  UNL     1     -35.288  15.399  -3.189  1.00 20.00     0.013 C 
HETATM    2  C5  UNL     1     -34.708  16.169  -2.005  1.00 20.00     0.005 C 
HETATM    3  C6  UNL     1     -33.620  17.027  -3.942  1.00 20.00     0.016 C 
HETATM    4  C8  UNL     1     -34.643  16.006  -4.435  1.00 20.00     0.056 C 
HETATM    5  C9  UNL     1     -33.336  16.618  -2.496  1.00 20.00    -0.014 C 
ENDROOT
BRANCH   4   6
HETATM    6  C1  UNL     1     -33.915  14.917  -5.201  1.00 20.00     0.135 C 
HETATM    7  O12 UNL     1     -33.327  14.004  -4.624  1.00 20.00    -0.297 OA
BRANCH   6   8
HETATM    8  C7  UNL     1     -33.950  15.007  -6.703  1.00 20.00     0.056 A 
HETATM    9  C2  UNL     1     -35.277  15.066  -7.370  1.00 20.00     0.013 A 
HETATM   10  C3  UNL     1     -34.404  16.283  -7.316  1.00 20.00     0.013 A 
ENDBRANCH   6   8
ENDBRANCH   4   6
BRANCH   5  11
HETATM   11  C11 UNL     1     -32.740  17.740  -1.664  1.00 20.00     0.000 C 
HETATM   12  C10 UNL     1     -33.611  18.099  -0.501  1.00 20.00     0.005 C 
ENDBRANCH   5  11
TORSDOF 3
ENDMDL
MODEL 4
REMARK VINA RESULT:      -4.3     10.676     11.762
REMARK  3 active torsions:
REMARK  status: ('A' for Active; 'I' for Inactive)
REMARK    1  A    between atoms: C1_1  and  C7_7 
REMARK    2  A    between atoms: C1_1  and  C8_8 
REMARK    3  A    between atoms: C9_9  and  C11_11 
ROOT
HETATM    1  C4  UNL     1     -33.182   4.988   2.055  1.00 20.00     0.013 C 
HETATM    2  C5  UNL     1     -33.758   4.264   3.270  1.00 20.00     0.005 C 
HETATM    3  C6  UNL     1     -34.367   6.553   3.520  1.00 20.00     0.016 C 
HETATM    4  C8  UNL     1     -33.641   6.441   2.182  1.00 20.00     0.056 C 
HETATM    5  C9  UNL     1     -33.867   5.355   4.329  1.00 20.00    -0.014 C 
ENDROOT
BRANCH   4   6
HETATM    6  C1  UNL     1     -32.425   7.348   2.209  1.00 20.00     0.135 C 
HETATM    7  O12 UNL     1     -31.695   7.419   3.197  1.00 20.00    -0.297 OA
BRANCH   6   8
HETATM    8  C7  UNL     1     -32.153   8.154   0.968  1.00 20.00     0.056 A 
HETATM    9  C2  UNL     1     -33.217   8.226  -0.067  1.00 20.00     0.013 A 
HETATM   10  C3  UNL     1     -32.905   9.422   0.780  1.00 20.00     0.013 A 
ENDBRANCH   6   8
ENDBRANCH   4   6
BRANCH   5  11
HETATM   11  C11 UNL     1     -34.788   4.984   5.478  1.00 20.00     0.000 C 
HETATM   12  C10 UNL     1     -34.799   6.031   6.549  1.00 20.00     0.005 C 
ENDBRANCH   5  11
TORSDOF 3
ENDMDL
MODEL 5
REMARK VINA RESULT:      -4.3      1.693      2.420
REMARK  3 active torsions:
REMARK  status: ('A' for Active; 'I' for Inactive)
REMARK    1  A    between atoms: C1_1  and  C7_7 
REMARK    2  A    between atoms: C1_1  and  C8_8 
REMARK    3  A    between atoms: C9_9  and  C11_11 
ROOT
HETATM    1  C4  UNL     1     -33.561  16.028  -3.396  1.00 20.00     0.013 C 
HETATM    2  C5  UNL     1     -32.925  16.955  -2.363  1.00 20.00     0.005 C 
HETATM    3  C6  UNL     1     -35.062  16.370  -1.491  1.00 20.00     0.016 C 
HETATM    4  C8  UNL     1     -34.899  15.595  -2.796  1.00 20.00     0.056 C 
HETATM    5  C9  UNL     1     -34.116  17.564  -1.633  1.00 20.00    -0.014 C 
ENDROOT
BRANCH   4   6
HETATM    6  C1  UNL     1     -36.020  15.989  -3.740  1.00 20.00     0.135 C 
HETATM    7  O12 UNL     1     -36.382  17.158  -3.859  1.00 20.00    -0.297 OA
BRANCH   6   8
HETATM    8  C7  UNL     1     -36.666  14.879  -4.524  1.00 20.00     0.056 A 
HETATM    9  C2  UNL     1     -35.943  14.346  -5.708  1.00 20.00     0.013 A 
HETATM   10  C3  UNL     1     -36.052  13.527  -4.458  1.00 20.00     0.013 A 
ENDBRANCH   6   8
ENDBRANCH   4   6
BRANCH   5  11
HETATM   11  C11 UNL     1     -33.744  18.193  -0.302  1.00 20.00     0.000 C 
HETATM   12  C10 UNL     1     -32.268  18.412  -0.177  1.00 20.00     0.005 C 
ENDBRANCH   5  11
TORSDOF 3
ENDMDL
MODEL 6
REMARK VINA RESULT:      -4.3      1.919      2.955
REMARK  3 active torsions:
REMARK  status: ('A' for Active; 'I' for Inactive)
REMARK    1  A    between atoms: C1_1  and  C7_7 
REMARK    2  A    between atoms: C1_1  and  C8_8 
REMARK    3  A    between atoms: C9_9  and  C11_11 
ROOT
HETATM    1  C4  UNL     1     -35.075  16.235  -1.879  1.00 20.00     0.013 C 
HETATM    2  C5  UNL     1     -34.187  17.236  -1.144  1.00 20.00     0.005 C 
HETATM    3  C6  UNL     1     -33.537  17.339  -3.432  1.00 20.00     0.016 C 
HETATM    4  C8  UNL     1     -34.707  16.361  -3.357  1.00 20.00     0.056 C 
HETATM    5  C9  UNL     1     -32.945  17.338  -2.022  1.00 20.00    -0.014 C 
ENDROOT
BRANCH   4   6
HETATM    6  C1  UNL     1     -34.248  15.010  -3.874  1.00 20.00     0.135 C 
HETATM    7  O12 UNL     1     -33.058  14.767  -4.074  1.00 20.00    -0.297 OA
BRANCH   6   8
HETATM    8  C7  UNL     1     -35.317  13.983  -4.128  1.00 20.00     0.056 A 
HETATM    9  C2  UNL     1     -36.727  14.445  -4.212  1.00 20.00     0.013 A 
HETATM   10  C3  UNL     1     -36.004  13.999  -5.446  1.00 20.00     0.013 A 
ENDBRANCH   6   8
ENDBRANCH   4   6
BRANCH   5  11
HETATM   11  C11 UNL     1     -32.104  18.567  -1.727  1.00 20.00     0.000 C 
HETATM   12  C10 UNL     1     -31.287  18.402  -0.482  1.00 20.00     0.005 C 
ENDBRANCH   5  11
TORSDOF 3
ENDMDL
MODEL 7
REMARK VINA RESULT:      -4.2      3.075      5.797
REMARK  3 active torsions:
REMARK  status: ('A' for Active; 'I' for Inactive)
REMARK    1  A    between atoms: C1_1  and  C7_7 
REMARK    2  A    between atoms: C1_1  and  C8_8 
REMARK    3  A    between atoms: C9_9  and  C11_11 
ROOT
HETATM    1  C4  UNL     1     -33.706  18.789  -2.765  1.00 20.00     0.013 C 
HETATM    2  C5  UNL     1     -33.394  17.730  -3.819  1.00 20.00     0.005 C 
HETATM    3  C6  UNL     1     -34.308  16.556  -1.960  1.00 20.00     0.016 C 
HETATM    4  C8  UNL     1     -34.362  18.040  -1.606  1.00 20.00     0.056 C 
HETATM    5  C9  UNL     1     -33.200  16.452  -3.010  1.00 20.00    -0.014 C 
ENDROOT
BRANCH   4   6
HETATM    6  C1  UNL     1     -33.555  18.269  -0.342  1.00 20.00     0.135 C 
HETATM    7  O12 UNL     1     -33.954  17.887   0.757  1.00 20.00    -0.297 OA
BRANCH   6   8
HETATM    8  C7  UNL     1     -32.240  18.985  -0.499  1.00 20.00     0.056 A 
HETATM    9  C2  UNL     1     -31.423  19.223   0.719  1.00 20.00     0.013 A 
HETATM   10  C3  UNL     1     -30.991  18.206  -0.294  1.00 20.00     0.013 A 
ENDBRANCH   6   8
ENDBRANCH   4   6
BRANCH   5  11
HETATM   11  C11 UNL     1     -33.290  15.191  -3.851  1.00 20.00     0.000 C 
HETATM   12  C10 UNL     1     -34.634  14.540  -3.744  1.00 20.00     0.005 C 
ENDBRANCH   5  11
TORSDOF 3
ENDMDL
MODEL 8
REMARK VINA RESULT:      -4.2      2.541      4.864
REMARK  3 active torsions:
REMARK  status: ('A' for Active; 'I' for Inactive)
REMARK    1  A    between atoms: C1_1  and  C7_7 
REMARK    2  A    between atoms: C1_1  and  C8_8 
REMARK    3  A    between atoms: C9_9  and  C11_11 
ROOT
HETATM    1  C4  UNL     1     -32.964  16.335  -3.430  1.00 20.00     0.013 C 
HETATM    2  C5  UNL     1     -33.438  15.046  -4.097  1.00 20.00     0.005 C 
HETATM    3  C6  UNL     1     -35.403  16.143  -3.319  1.00 20.00     0.016 C 
HETATM    4  C8  UNL     1     -34.233  17.071  -3.001  1.00 20.00     0.056 C 
HETATM    5  C9  UNL     1     -34.773  14.753  -3.422  1.00 20.00    -0.014 C 
ENDROOT
BRANCH   4   6
HETATM    6  C1  UNL     1     -34.192  17.307  -1.503  1.00 20.00     0.135 C 
HETATM    7  O12 UNL     1     -33.206  17.798  -0.954  1.00 20.00    -0.297 OA
BRANCH   6   8
HETATM    8  C7  UNL     1     -35.416  16.914  -0.722  1.00 20.00     0.056 A 
HETATM    9  C2  UNL     1     -35.457  17.240   0.728  1.00 20.00     0.013 A 
HETATM   10  C3  UNL     1     -36.315  17.995  -0.240  1.00 20.00     0.013 A 
ENDBRANCH   6   8
ENDBRANCH   4   6
BRANCH   5  11
HETATM   11  C11 UNL     1     -35.629  13.764  -4.193  1.00 20.00     0.000 C 
HETATM   12  C10 UNL     1     -37.011  14.288  -4.436  1.00 20.00     0.005 C 
ENDBRANCH   5  11
TORSDOF 3
ENDMDL
MODEL 9
REMARK VINA RESULT:      -4.2      1.906      2.468
REMARK  3 active torsions:
REMARK  status: ('A' for Active; 'I' for Inactive)
REMARK    1  A    between atoms: C1_1  and  C7_7 
REMARK    2  A    between atoms: C1_1  and  C8_8 
REMARK    3  A    between atoms: C9_9  and  C11_11 
ROOT
HETATM    1  C4  UNL     1     -35.293  14.592  -6.049  1.00 20.00     0.013 C 
HETATM    2  C5  UNL     1     -34.021  15.266  -5.540  1.00 20.00     0.005 C 
HETATM    3  C6  UNL     1     -35.141  14.434  -3.610  1.00 20.00     0.016 C 
HETATM    4  C8  UNL     1     -35.969  13.994  -4.816  1.00 20.00     0.056 C 
HETATM    5  C9  UNL     1     -34.361  15.653  -4.105  1.00 20.00    -0.014 C 
ENDROOT
BRANCH   4   6
HETATM    6  C1  UNL     1     -37.366  14.569  -4.684  1.00 20.00     0.135 C 
HETATM    7  O12 UNL     1     -38.300  13.901  -4.240  1.00 20.00    -0.297 OA
BRANCH   6   8
HETATM    8  C7  UNL     1     -37.555  15.996  -5.120  1.00 20.00     0.056 A 
HETATM    9  C2  UNL     1     -38.926  16.569  -5.069  1.00 20.00     0.013 A 
HETATM   10  C3  UNL     1     -37.887  17.007  -4.082  1.00 20.00     0.013 A 
ENDBRANCH   6   8
ENDBRANCH   4   6
BRANCH   5  11
HETATM   11  C11 UNL     1     -33.136  15.960  -3.262  1.00 20.00     0.000 C 
HETATM   12  C10 UNL     1     -33.406  17.028  -2.247  1.00 20.00     0.005 C 
ENDBRANCH   5  11
TORSDOF 3
ENDMDL
