MODEL 1
REMARK VINA RESULT:      -4.8      0.000      0.000
REMARK  3 active torsions:
REMARK  status: ('A' for Active; 'I' for Inactive)
REMARK    1  A    between atoms: C6_6  and  C11_11 
REMARK    2  A    between atoms: C7_7  and  C12_12 
REMARK    3  A    between atoms: C12_12  and  C13_13 
ROOT
HETATM    1  C1  UNL     1     -35.682  14.094  -4.270  1.00 20.00     0.069 C 
HETATM    2  C2  UNL     1     -37.514  16.463  -5.167  1.00 20.00     0.002 C 
HETATM    3  C3  UNL     1     -36.587  17.239  -6.095  1.00 20.00     0.005 C 
HETATM    4  C4  UNL     1     -36.865  16.219  -3.804  1.00 20.00     0.024 C 
HETATM    5  C5  UNL     1     -34.578  16.230  -4.915  1.00 20.00     0.029 C 
HETATM    6  C6  UNL     1     -35.220  16.568  -6.275  1.00 20.00    -0.013 C 
HETATM    7  C7  UNL     1     -35.497  15.514  -3.897  1.00 20.00     0.050 C 
HETATM    8  N14 UNL     1     -35.827  12.981  -4.563  1.00 20.00    -0.196 NA
ENDROOT
BRANCH   7   9
HETATM    9  C12 UNL     1     -34.824  15.541  -2.510  1.00 20.00     0.028 C 
BRANCH   9  10
HETATM   10  C13 UNL     1     -34.721  16.951  -1.922  1.00 20.00    -0.021 C 
HETATM   11  C9  UNL     1     -35.305  17.046  -0.511  1.00 20.00     0.009 C 
HETATM   12  C10 UNL     1     -33.254  17.385  -1.905  1.00 20.00     0.009 C 
ENDBRANCH   9  10
ENDBRANCH   7   9
BRANCH   6  13
HETATM   13  C11 UNL     1     -35.300  15.363  -7.216  1.00 20.00     0.000 C 
HETATM   14  C8  UNL     1     -34.004  15.127  -7.918  1.00 20.00     0.005 C 
ENDBRANCH   6  13
TORSDOF 3
ENDMDL
MODEL 2
REMARK VINA RESULT:      -4.8      1.398      1.740
REMARK  3 active torsions:
REMARK  status: ('A' for Active; 'I' for Inactive)
REMARK    1  A    between atoms: C6_6  and  C11_11 
REMARK    2  A    between atoms: C7_7  and  C12_12 
REMARK    3  A    between atoms: C12_12  and  C13_13 
ROOT
HETATM    1  C1  UNL     1     -33.375  14.505  -4.170  1.00 20.00     0.069 C 
HETATM    2  C2  UNL     1     -36.463  14.905  -3.890  1.00 20.00     0.002 C 
HETATM    3  C3  UNL     1     -36.757  15.864  -5.038  1.00 20.00     0.005 C 
HETATM    4  C4  UNL     1     -35.345  15.435  -2.992  1.00 20.00     0.024 C 
HETATM    5  C5  UNL     1     -34.343  16.648  -4.989  1.00 20.00     0.029 C 
HETATM    6  C6  UNL     1     -35.517  16.193  -5.877  1.00 20.00    -0.013 C 
HETATM    7  C7  UNL     1     -34.047  15.758  -3.758  1.00 20.00     0.050 C 
HETATM    8  N14 UNL     1     -32.849  13.523  -4.493  1.00 20.00    -0.196 NA
ENDROOT
BRANCH   7   9
HETATM    9  C12 UNL     1     -33.083  16.509  -2.818  1.00 20.00     0.028 C 
BRANCH   9  10
HETATM   10  C13 UNL     1     -33.628  17.865  -2.362  1.00 20.00    -0.021 C 
HETATM   11  C9  UNL     1     -33.905  17.914  -0.858  1.00 20.00     0.009 C 
HETATM   12  C10 UNL     1     -32.630  18.963  -2.740  1.00 20.00     0.009 C 
ENDBRANCH   9  10
ENDBRANCH   7   9
BRANCH   6  13
HETATM   13  C11 UNL     1     -35.148  15.042  -6.817  1.00 20.00     0.000 C 
HETATM   14  C8  UNL     1     -33.984  15.390  -7.682  1.00 20.00     0.005 C 
ENDBRANCH   6  13
TORSDOF 3
ENDMDL
MODEL 3
REMARK VINA RESULT:      -4.6      1.457      4.690
REMARK  3 active torsions:
REMARK  status: ('A' for Active; 'I' for Inactive)
REMARK    1  A    between atoms: C6_6  and  C11_11 
REMARK    2  A    between atoms: C7_7  and  C12_12 
REMARK    3  A    between atoms: C12_12  and  C13_13 
ROOT
HETATM    1  C1  UNL     1     -36.320  14.477  -4.925  1.00 20.00     0.069 C 
HETATM    2  C2  UNL     1     -33.237  14.554  -4.407  1.00 20.00     0.002 C 
HETATM    3  C3  UNL     1     -33.084  15.864  -3.641  1.00 20.00     0.005 C 
HETATM    4  C4  UNL     1     -33.991  14.760  -5.721  1.00 20.00     0.024 C 
HETATM    5  C5  UNL     1     -35.245  16.708  -4.672  1.00 20.00     0.029 C 
HETATM    6  C6  UNL     1     -34.423  16.563  -3.377  1.00 20.00    -0.013 C 
HETATM    7  C7  UNL     1     -35.367  15.431  -5.537  1.00 20.00     0.050 C 
HETATM    8  N14 UNL     1     -37.065  13.729  -4.446  1.00 20.00    -0.196 NA
ENDROOT
BRANCH   7   9
HETATM    9  C12 UNL     1     -35.928  15.815  -6.921  1.00 20.00     0.028 C 
BRANCH   9  10
HETATM   10  C13 UNL     1     -36.704  17.135  -6.906  1.00 20.00    -0.021 C 
HETATM   11  C9  UNL     1     -36.165  18.148  -7.918  1.00 20.00     0.009 C 
HETATM   12  C10 UNL     1     -38.181  16.855  -7.191  1.00 20.00     0.009 C 
ENDBRANCH   9  10
ENDBRANCH   7   9
BRANCH   6  13
HETATM   13  C11 UNL     1     -35.201  15.889  -2.244  1.00 20.00     0.000 C 
HETATM   14  C8  UNL     1     -35.242  16.743  -1.021  1.00 20.00     0.005 C 
ENDBRANCH   6  13
TORSDOF 3
ENDMDL
MODEL 4
REMARK VINA RESULT:      -4.5      2.189      3.471
REMARK  3 active torsions:
REMARK  status: ('A' for Active; 'I' for Inactive)
REMARK    1  A    between atoms: C6_6  and  C11_11 
REMARK    2  A    between atoms: C7_7  and  C12_12 
REMARK    3  A    between atoms: C12_12  and  C13_13 
ROOT
HETATM    1  C1  UNL     1     -34.382  17.591  -4.911  1.00 20.00     0.069 C 
HETATM    2  C2  UNL     1     -33.440  14.678  -4.280  1.00 20.00     0.002 C 
HETATM    3  C3  UNL     1     -34.732  14.033  -3.791  1.00 20.00     0.005 C 
HETATM    4  C4  UNL     1     -33.135  15.967  -3.517  1.00 20.00     0.024 C 
HETATM    5  C5  UNL     1     -35.628  16.325  -3.168  1.00 20.00     0.029 C 
HETATM    6  C6  UNL     1     -35.936  14.980  -3.855  1.00 20.00    -0.013 C 
HETATM    7  C7  UNL     1     -34.288  16.990  -3.562  1.00 20.00     0.050 C 
HETATM    8  N14 UNL     1     -34.455  18.062  -5.969  1.00 20.00    -0.196 NA
ENDROOT
BRANCH   7   9
HETATM    9  C12 UNL     1     -33.985  18.132  -2.571  1.00 20.00     0.028 C 
BRANCH   9  10
HETATM   10  C13 UNL     1     -33.301  17.645  -1.290  1.00 20.00    -0.021 C 
HETATM   11  C9  UNL     1     -31.932  18.292  -1.070  1.00 20.00     0.009 C 
HETATM   12  C10 UNL     1     -34.208  17.935  -0.092  1.00 20.00     0.009 C 
ENDBRANCH   9  10
ENDBRANCH   7   9
BRANCH   6  13
HETATM   13  C11 UNL     1     -36.454  15.142  -5.286  1.00 20.00     0.000 C 
HETATM   14  C8  UNL     1     -37.695  15.969  -5.331  1.00 20.00     0.005 C 
ENDBRANCH   6  13
TORSDOF 3
ENDMDL
MODEL 5
REMARK VINA RESULT:      -4.4      2.831      4.303
REMARK  3 active torsions:
REMARK  status: ('A' for Active; 'I' for Inactive)
REMARK    1  A    between atoms: C6_6  and  C11_11 
REMARK    2  A    between atoms: C7_7  and  C12_12 
REMARK    3  A    between atoms: C12_12  and  C13_13 
ROOT
HETATM    1  C1  UNL     1     -34.822  17.661  -0.548  1.00 20.00     0.069 C 
HETATM    2  C2  UNL     1     -35.195  18.505  -3.535  1.00 20.00     0.002 C 
HETATM    3  C3  UNL     1     -34.248  17.546  -4.249  1.00 20.00     0.005 C 
HETATM    4  C4  UNL     1     -34.484  19.258  -2.410  1.00 20.00     0.024 C 
HETATM    5  C5  UNL     1     -32.917  17.280  -2.103  1.00 20.00     0.029 C 
HETATM    6  C6  UNL     1     -33.569  16.555  -3.297  1.00 20.00    -0.013 C 
HETATM    7  C7  UNL     1     -33.802  18.327  -1.388  1.00 20.00     0.050 C 
HETATM    8  N14 UNL     1     -35.622  17.139   0.110  1.00 20.00    -0.196 NA
ENDROOT
BRANCH   7   9
HETATM    9  C12 UNL     1     -32.917  19.174  -0.450  1.00 20.00     0.028 C 
BRANCH   9  10
HETATM   10  C13 UNL     1     -32.229  18.341   0.635  1.00 20.00    -0.021 C 
HETATM   11  C9  UNL     1     -30.703  18.387   0.534  1.00 20.00     0.009 C 
HETATM   12  C10 UNL     1     -32.671  18.842   2.012  1.00 20.00     0.009 C 
ENDBRANCH   9  10
ENDBRANCH   7   9
BRANCH   6  13
HETATM   13  C11 UNL     1     -34.522  15.435  -2.870  1.00 20.00     0.000 C 
HETATM   14  C8  UNL     1     -34.588  14.350  -3.891  1.00 20.00     0.005 C 
ENDBRANCH   6  13
TORSDOF 3
ENDMDL
MODEL 6
REMARK VINA RESULT:      -4.4      2.279      3.463
REMARK  3 active torsions:
REMARK  status: ('A' for Active; 'I' for Inactive)
REMARK    1  A    between atoms: C6_6  and  C11_11 
REMARK    2  A    between atoms: C7_7  and  C12_12 
REMARK    3  A    between atoms: C12_12  and  C13_13 
ROOT
HETATM    1  C1  UNL     1     -35.866  17.733  -2.897  1.00 20.00     0.069 C 
HETATM    2  C2  UNL     1     -34.450  16.695  -5.484  1.00 20.00     0.002 C 
HETATM    3  C3  UNL     1     -33.949  15.327  -5.036  1.00 20.00     0.005 C 
HETATM    4  C4  UNL     1     -34.000  17.797  -4.525  1.00 20.00     0.024 C 
HETATM    5  C5  UNL     1     -33.998  16.112  -2.622  1.00 20.00     0.029 C 
HETATM    6  C6  UNL     1     -34.361  14.978  -3.601  1.00 20.00    -0.013 C 
HETATM    7  C7  UNL     1     -34.408  17.537  -3.061  1.00 20.00     0.050 C 
HETATM    8  N14 UNL     1     -37.008  17.887  -2.770  1.00 20.00    -0.196 NA
ENDROOT
BRANCH   7   9
HETATM    9  C12 UNL     1     -33.701  18.563  -2.153  1.00 20.00     0.028 C 
BRANCH   9  10
HETATM   10  C13 UNL     1     -33.009  17.919  -0.949  1.00 20.00    -0.021 C 
HETATM   11  C9  UNL     1     -31.559  18.379  -0.786  1.00 20.00     0.009 C 
HETATM   12  C10 UNL     1     -33.800  18.242   0.321  1.00 20.00     0.009 C 
ENDBRANCH   9  10
ENDBRANCH   7   9
BRANCH   6  13
HETATM   13  C11 UNL     1     -35.833  14.564  -3.519  1.00 20.00     0.000 C 
HETATM   14  C8  UNL     1     -36.213  13.659  -4.643  1.00 20.00     0.005 C 
ENDBRANCH   6  13
TORSDOF 3
ENDMDL
MODEL 7
REMARK VINA RESULT:      -4.3      2.665      4.116
REMARK  3 active torsions:
REMARK  status: ('A' for Active; 'I' for Inactive)
REMARK    1  A    between atoms: C6_6  and  C11_11 
REMARK    2  A    between atoms: C7_7  and  C12_12 
REMARK    3  A    between atoms: C12_12  and  C13_13 
ROOT
HETATM    1  C1  UNL     1     -36.007  18.465  -2.654  1.00 20.00     0.069 C 
HETATM    2  C2  UNL     1     -33.294  17.308  -3.693  1.00 20.00     0.002 C 
HETATM    3  C3  UNL     1     -33.407  15.843  -3.288  1.00 20.00     0.005 C 
HETATM    4  C4  UNL     1     -33.545  18.237  -2.505  1.00 20.00     0.024 C 
HETATM    5  C5  UNL     1     -35.069  16.481  -1.479  1.00 20.00     0.029 C 
HETATM    6  C6  UNL     1     -34.748  15.504  -2.627  1.00 20.00    -0.013 C 
HETATM    7  C7  UNL     1     -34.894  17.983  -1.804  1.00 20.00     0.050 C 
HETATM    8  N14 UNL     1     -36.878  18.843  -3.320  1.00 20.00    -0.196 NA
ENDROOT
BRANCH   7   9
HETATM    9  C12 UNL     1     -34.937  18.789  -0.491  1.00 20.00     0.028 C 
BRANCH   9  10
HETATM   10  C13 UNL     1     -34.421  17.996   0.714  1.00 20.00    -0.021 C 
HETATM   11  C9  UNL     1     -33.021  18.430   1.150  1.00 20.00     0.009 C 
HETATM   12  C10 UNL     1     -35.400  18.156   1.880  1.00 20.00     0.009 C 
ENDBRANCH   9  10
ENDBRANCH   7   9
BRANCH   6  13
HETATM   13  C11 UNL     1     -35.876  15.397  -3.657  1.00 20.00     0.000 C 
HETATM   14  C8  UNL     1     -35.926  14.042  -4.279  1.00 20.00     0.005 C 
ENDBRANCH   6  13
TORSDOF 3
ENDMDL
MODEL 8
REMARK VINA RESULT:      -4.3      2.719      5.285
REMARK  3 active torsions:
REMARK  status: ('A' for Active; 'I' for Inactive)
REMARK    1  A    between atoms: C6_6  and  C11_11 
REMARK    2  A    between atoms: C7_7  and  C12_12 
REMARK    3  A    between atoms: C12_12  and  C13_13 
ROOT
HETATM    1  C1  UNL     1     -32.802  17.782  -2.112  1.00 20.00     0.069 C 
HETATM    2  C2  UNL     1     -35.507  19.053  -3.031  1.00 20.00     0.002 C 
HETATM    3  C3  UNL     1     -36.466  18.550  -1.958  1.00 20.00     0.005 C 
HETATM    4  C4  UNL     1     -34.726  17.902  -3.667  1.00 20.00     0.024 C 
HETATM    5  C5  UNL     1     -34.904  16.604  -1.489  1.00 20.00     0.029 C 
HETATM    6  C6  UNL     1     -35.770  17.721  -0.873  1.00 20.00    -0.013 C 
HETATM    7  C7  UNL     1     -33.968  17.038  -2.640  1.00 20.00     0.050 C 
HETATM    8  N14 UNL     1     -31.889  18.365  -1.698  1.00 20.00    -0.196 NA
ENDROOT
BRANCH   7   9
HETATM    9  C12 UNL     1     -33.426  15.778  -3.347  1.00 20.00     0.028 C 
BRANCH   9  10
HETATM   10  C13 UNL     1     -34.404  15.204  -4.376  1.00 20.00    -0.021 C 
HETATM   11  C9  UNL     1     -33.761  14.995  -5.748  1.00 20.00     0.009 C 
HETATM   12  C10 UNL     1     -34.960  13.876  -3.858  1.00 20.00     0.009 C 
ENDBRANCH   9  10
ENDBRANCH   7   9
BRANCH   6  13
HETATM   13  C11 UNL     1     -34.998  18.606   0.109  1.00 20.00     0.000 C 
HETATM   14  C8  UNL     1     -34.493  17.824   1.274  1.00 20.00     0.005 C 
ENDBRANCH   6  13
TORSDOF 3
ENDMDL
MODEL 9
REMARK VINA RESULT:      -4.3      1.748      4.103
REMARK  3 active torsions:
REMARK  status: ('A' for Active; 'I' for Inactive)
REMARK    1  A    between atoms: C6_6  and  C11_11 
REMARK    2  A    between atoms: C7_7  and  C12_12 
REMARK    3  A    between atoms: C12_12  and  C13_13 
ROOT
HETATM    1  C1  UNL     1     -36.399  13.784  -4.508  1.00 20.00     0.069 C 
HETATM    2  C2  UNL     1     -35.526  16.418  -5.947  1.00 20.00     0.002 C 
HETATM    3  C3  UNL     1     -35.225  17.333  -4.765  1.00 20.00     0.005 C 
HETATM    4  C4  UNL     1     -36.923  15.806  -5.838  1.00 20.00     0.024 C 
HETATM    5  C5  UNL     1     -36.759  15.933  -3.305  1.00 20.00     0.029 C 
HETATM    6  C6  UNL     1     -35.390  16.635  -3.410  1.00 20.00    -0.013 C 
HETATM    7  C7  UNL     1     -37.159  15.054  -4.513  1.00 20.00     0.050 C 
HETATM    8  N14 UNL     1     -35.804  12.789  -4.504  1.00 20.00    -0.196 NA
ENDROOT
BRANCH   7   9
HETATM    9  C12 UNL     1     -38.654  14.696  -4.399  1.00 20.00     0.028 C 
BRANCH   9  10
HETATM   10  C13 UNL     1     -39.564  15.927  -4.384  1.00 20.00    -0.021 C 
HETATM   11  C9  UNL     1     -40.459  16.014  -5.622  1.00 20.00     0.009 C 
HETATM   12  C10 UNL     1     -40.429  15.901  -3.122  1.00 20.00     0.009 C 
ENDBRANCH   9  10
ENDBRANCH   7   9
BRANCH   6  13
HETATM   13  C11 UNL     1     -34.214  15.704  -3.104  1.00 20.00     0.000 C 
HETATM   14  C8  UNL     1     -32.926  16.453  -3.028  1.00 20.00     0.005 C 
ENDBRANCH   6  13
TORSDOF 3
ENDMDL
