MODEL 1
REMARK VINA RESULT:      -5.0      0.000      0.000
REMARK  1 active torsions:
REMARK  status: ('A' for Active; 'I' for Inactive)
REMARK    1  A    between atoms: C5_5  and  C9_9 
ROOT
HETATM    1  C1  UNL     1     -22.925  16.933   9.667  1.00 20.00     0.069 C 
HETATM    2  C2  UNL     1     -25.504  16.639  12.330  1.00 20.00     0.006 C 
HETATM    3  C3  UNL     1     -24.414  16.040  11.439  1.00 20.00     0.024 C 
HETATM    4  C4  UNL     1     -24.608  18.334  10.826  1.00 20.00     0.029 C 
HETATM    5  C5  UNL     1     -25.530  18.145  12.034  1.00 20.00    -0.013 C 
HETATM    6  C6  UNL     1     -23.559  17.222  10.964  1.00 20.00     0.046 C 
HETATM    7  C7  UNL     1     -22.477  17.580  11.991  1.00 20.00     0.031 C 
HETATM    8  N10 UNL     1     -22.425  16.705   8.644  1.00 20.00    -0.196 NA
ENDROOT
BRANCH   5   9
HETATM    9  C9  UNL     1     -26.932  18.680  11.792  1.00 20.00     0.000 C 
HETATM   10  C8  UNL     1     -27.984  17.762  12.331  1.00 20.00     0.005 C 
ENDBRANCH   5   9
TORSDOF 1
ENDMDL
MODEL 2
REMARK VINA RESULT:      -4.9     17.118     17.844
REMARK  1 active torsions:
REMARK  status: ('A' for Active; 'I' for Inactive)
REMARK    1  A    between atoms: C5_5  and  C9_9 
ROOT
HETATM    1  C1  UNL     1     -35.440  13.835  -4.307  1.00 20.00     0.069 C 
HETATM    2  C2  UNL     1     -33.164  16.462  -2.985  1.00 20.00     0.006 C 
HETATM    3  C3  UNL     1     -33.433  15.213  -3.827  1.00 20.00     0.024 C 
HETATM    4  C4  UNL     1     -35.501  15.799  -2.798  1.00 20.00     0.029 C 
HETATM    5  C5  UNL     1     -34.522  16.920  -2.436  1.00 20.00    -0.013 C 
HETATM    6  C6  UNL     1     -34.943  15.206  -4.099  1.00 20.00     0.046 C 
HETATM    7  C7  UNL     1     -35.298  16.066  -5.319  1.00 20.00     0.031 C 
HETATM    8  N10 UNL     1     -35.830  12.754  -4.471  1.00 20.00    -0.196 NA
ENDROOT
BRANCH   5   9
HETATM    9  C9  UNL     1     -34.493  17.216  -0.945  1.00 20.00     0.000 C 
HETATM   10  C8  UNL     1     -33.389  18.157  -0.582  1.00 20.00     0.005 C 
ENDBRANCH   5   9
TORSDOF 1
ENDMDL
MODEL 3
REMARK VINA RESULT:      -4.6     17.550     18.298
REMARK  1 active torsions:
REMARK  status: ('A' for Active; 'I' for Inactive)
REMARK    1  A    between atoms: C5_5  and  C9_9 
ROOT
HETATM    1  C1  UNL     1     -36.591  14.444  -4.340  1.00 20.00     0.069 C 
HETATM    2  C2  UNL     1     -33.328  15.821  -3.207  1.00 20.00     0.006 C 
HETATM    3  C3  UNL     1     -34.167  14.756  -3.917  1.00 20.00     0.024 C 
HETATM    4  C4  UNL     1     -35.698  16.372  -3.065  1.00 20.00     0.029 C 
HETATM    5  C5  UNL     1     -34.300  16.931  -2.783  1.00 20.00    -0.013 C 
HETATM    6  C6  UNL     1     -35.501  15.431  -4.262  1.00 20.00     0.046 C 
HETATM    7  C7  UNL     1     -35.415  16.199  -5.587  1.00 20.00     0.031 C 
HETATM    8  N10 UNL     1     -37.451  13.665  -4.402  1.00 20.00    -0.196 NA
ENDROOT
BRANCH   5   9
HETATM    9  C9  UNL     1     -34.121  17.358  -1.335  1.00 20.00     0.000 C 
HETATM   10  C8  UNL     1     -35.307  17.002  -0.495  1.00 20.00     0.005 C 
ENDBRANCH   5   9
TORSDOF 1
ENDMDL
MODEL 4
REMARK VINA RESULT:      -4.5      1.469      1.833
REMARK  1 active torsions:
REMARK  status: ('A' for Active; 'I' for Inactive)
REMARK    1  A    between atoms: C5_5  and  C9_9 
ROOT
HETATM    1  C1  UNL     1     -23.563  18.317   8.078  1.00 20.00     0.069 C 
HETATM    2  C2  UNL     1     -24.341  16.342  11.132  1.00 20.00     0.006 C 
HETATM    3  C3  UNL     1     -23.858  16.449   9.684  1.00 20.00     0.024 C 
HETATM    4  C4  UNL     1     -24.443  18.655  10.369  1.00 20.00     0.029 C 
HETATM    5  C5  UNL     1     -24.584  17.778  11.618  1.00 20.00    -0.013 C 
HETATM    6  C6  UNL     1     -23.432  17.910   9.488  1.00 20.00     0.046 C 
HETATM    7  C7  UNL     1     -21.988  18.140   9.951  1.00 20.00     0.031 C 
HETATM    8  N10 UNL     1     -23.666  18.637   6.967  1.00 20.00    -0.196 NA
ENDROOT
BRANCH   5   9
HETATM    9  C9  UNL     1     -25.925  17.954  12.311  1.00 20.00     0.000 C 
HETATM   10  C8  UNL     1     -26.763  19.004  11.652  1.00 20.00     0.005 C 
ENDBRANCH   5   9
TORSDOF 1
ENDMDL
MODEL 5
REMARK VINA RESULT:      -4.4     17.831     18.526
REMARK  1 active torsions:
REMARK  status: ('A' for Active; 'I' for Inactive)
REMARK    1  A    between atoms: C5_5  and  C9_9 
ROOT
HETATM    1  C1  UNL     1     -35.713  14.606  -5.895  1.00 20.00     0.069 C 
HETATM    2  C2  UNL     1     -35.229  15.901  -2.443  1.00 20.00     0.006 C 
HETATM    3  C3  UNL     1     -36.122  15.404  -3.581  1.00 20.00     0.024 C 
HETATM    4  C4  UNL     1     -33.886  15.367  -4.404  1.00 20.00     0.029 C 
HETATM    5  C5  UNL     1     -33.780  15.744  -2.924  1.00 20.00    -0.013 C 
HETATM    6  C6  UNL     1     -35.208  14.595  -4.511  1.00 20.00     0.046 C 
HETATM    7  C7  UNL     1     -35.065  13.144  -4.034  1.00 20.00     0.031 C 
HETATM    8  N10 UNL     1     -36.112  14.614  -6.985  1.00 20.00    -0.196 NA
ENDROOT
BRANCH   5   9
HETATM    9  C9  UNL     1     -32.937  16.988  -2.694  1.00 20.00     0.000 C 
HETATM   10  C8  UNL     1     -33.337  17.713  -1.448  1.00 20.00     0.005 C 
ENDBRANCH   5   9
TORSDOF 1
ENDMDL
MODEL 6
REMARK VINA RESULT:      -4.3     17.610     18.353
REMARK  1 active torsions:
REMARK  status: ('A' for Active; 'I' for Inactive)
REMARK    1  A    between atoms: C5_5  and  C9_9 
ROOT
HETATM    1  C1  UNL     1     -34.243  14.901  -5.807  1.00 20.00     0.069 C 
HETATM    2  C2  UNL     1     -36.118  16.607  -3.085  1.00 20.00     0.006 C 
HETATM    3  C3  UNL     1     -35.960  16.172  -4.543  1.00 20.00     0.024 C 
HETATM    4  C4  UNL     1     -34.023  15.401  -3.390  1.00 20.00     0.029 C 
HETATM    5  C5  UNL     1     -34.942  15.990  -2.315  1.00 20.00    -0.013 C 
HETATM    6  C6  UNL     1     -34.970  15.000  -4.529  1.00 20.00     0.046 C 
HETATM    7  C7  UNL     1     -35.679  13.670  -4.244  1.00 20.00     0.031 C 
HETATM    8  N10 UNL     1     -33.671  14.824  -6.814  1.00 20.00    -0.196 NA
ENDROOT
BRANCH   5   9
HETATM    9  C9  UNL     1     -34.230  16.987  -1.416  1.00 20.00     0.000 C 
HETATM   10  C8  UNL     1     -32.968  17.499  -2.036  1.00 20.00     0.005 C 
ENDBRANCH   5   9
TORSDOF 1
ENDMDL
MODEL 7
REMARK VINA RESULT:      -4.2      1.946      2.426
REMARK  1 active torsions:
REMARK  status: ('A' for Active; 'I' for Inactive)
REMARK    1  A    between atoms: C5_5  and  C9_9 
ROOT
HETATM    1  C1  UNL     1     -21.923  17.313   7.970  1.00 20.00     0.069 C 
HETATM    2  C2  UNL     1     -24.589  17.203  10.560  1.00 20.00     0.006 C 
HETATM    3  C3  UNL     1     -23.492  16.536   9.728  1.00 20.00     0.024 C 
HETATM    4  C4  UNL     1     -23.596  18.809   9.020  1.00 20.00     0.029 C 
HETATM    5  C5  UNL     1     -24.560  18.696  10.205  1.00 20.00    -0.013 C 
HETATM    6  C6  UNL     1     -22.587  17.673   9.235  1.00 20.00     0.046 C 
HETATM    7  C7  UNL     1     -21.525  18.038  10.280  1.00 20.00     0.031 C 
HETATM    8  N10 UNL     1     -21.399  17.029   6.974  1.00 20.00    -0.196 NA
ENDROOT
BRANCH   5   9
HETATM    9  C9  UNL     1     -25.936  19.263   9.898  1.00 20.00     0.000 C 
HETATM   10  C8  UNL     1     -26.241  19.233   8.434  1.00 20.00     0.005 C 
ENDBRANCH   5   9
TORSDOF 1
ENDMDL
MODEL 8
REMARK VINA RESULT:      -4.2     15.534     16.303
REMARK  1 active torsions:
REMARK  status: ('A' for Active; 'I' for Inactive)
REMARK    1  A    between atoms: C5_5  and  C9_9 
ROOT
HETATM    1  C1  UNL     1     -31.788  18.168  -1.088  1.00 20.00     0.069 C 
HETATM    2  C2  UNL     1     -35.141  16.645  -1.605  1.00 20.00     0.006 C 
HETATM    3  C3  UNL     1     -34.142  17.451  -0.772  1.00 20.00     0.024 C 
HETATM    4  C4  UNL     1     -32.999  16.795  -2.758  1.00 20.00     0.029 C 
HETATM    5  C5  UNL     1     -34.450  16.343  -2.943  1.00 20.00    -0.013 C 
HETATM    6  C6  UNL     1     -33.082  17.958  -1.759  1.00 20.00     0.046 C 
HETATM    7  C7  UNL     1     -33.523  19.263  -2.434  1.00 20.00     0.031 C 
HETATM    8  N10 UNL     1     -30.768  18.334  -0.558  1.00 20.00    -0.196 NA
ENDROOT
BRANCH   5   9
HETATM    9  C9  UNL     1     -34.563  14.884  -3.356  1.00 20.00     0.000 C 
HETATM   10  C8  UNL     1     -33.524  14.506  -4.363  1.00 20.00     0.005 C 
ENDBRANCH   5   9
TORSDOF 1
ENDMDL
MODEL 9
REMARK VINA RESULT:      -4.2     17.984     18.616
REMARK  1 active torsions:
REMARK  status: ('A' for Active; 'I' for Inactive)
REMARK    1  A    between atoms: C5_5  and  C9_9 
ROOT
HETATM    1  C1  UNL     1     -35.282  13.811  -4.317  1.00 20.00     0.069 C 
HETATM    2  C2  UNL     1     -34.260  17.026  -2.750  1.00 20.00     0.006 C 
HETATM    3  C3  UNL     1     -34.615  15.540  -2.667  1.00 20.00     0.024 C 
HETATM    4  C4  UNL     1     -34.841  16.165  -4.955  1.00 20.00     0.029 C 
HETATM    5  C5  UNL     1     -34.269  17.393  -4.241  1.00 20.00    -0.013 C 
HETATM    6  C6  UNL     1     -34.414  14.978  -4.080  1.00 20.00     0.046 C 
HETATM    7  C7  UNL     1     -32.952  14.582  -4.324  1.00 20.00     0.031 C 
HETATM    8  N10 UNL     1     -35.966  12.892  -4.503  1.00 20.00    -0.196 NA
ENDROOT
BRANCH   5   9
HETATM    9  C9  UNL     1     -35.052  18.662  -4.537  1.00 20.00     0.000 C 
HETATM   10  C8  UNL     1     -36.518  18.397  -4.673  1.00 20.00     0.005 C 
ENDBRANCH   5   9
TORSDOF 1
ENDMDL
