MODEL 1
REMARK VINA RESULT:      -5.6      0.000      0.000
REMARK  2 active torsions:
REMARK  status: ('A' for Active; 'I' for Inactive)
REMARK    1  A    between atoms: C2_2  and  C3_3 
REMARK    2  A    between atoms: C3_3  and  C4_4 
ROOT
HETATM    1  C3  UNL     1     -33.848   6.283   3.887  1.00 20.00     0.402 C 
HETATM    2  F7  UNL     1     -34.594   7.375   3.566  1.00 20.00    -0.189 F 
HETATM    3  F8  UNL     1     -32.912   6.706   4.776  1.00 20.00    -0.189 F 
ENDROOT
BRANCH   1   4
HETATM    4  C2  UNL     1     -34.758   5.273   4.561  1.00 20.00     0.313 C 
HETATM    5  C1  UNL     1     -34.769   5.313   6.075  1.00 20.00     0.097 C 
HETATM    6  F5  UNL     1     -36.029   5.488   4.123  1.00 20.00    -0.200 F 
HETATM    7  F6  UNL     1     -34.423   4.020   4.157  1.00 20.00    -0.200 F 
ENDBRANCH   1   4
BRANCH   1   8
HETATM    8  C4  UNL     1     -33.151   5.808   2.636  1.00 20.00     0.460 C 
HETATM    9  F9  UNL     1     -32.319   4.776   2.884  1.00 20.00    -0.165 F 
HETATM   10  F10 UNL     1     -32.410   6.805   2.102  1.00 20.00    -0.165 F 
HETATM   11  F11 UNL     1     -34.037   5.411   1.699  1.00 20.00    -0.165 F 
ENDBRANCH   1   8
TORSDOF 2
ENDMDL
MODEL 2
REMARK VINA RESULT:      -5.5      1.334      3.556
REMARK  2 active torsions:
REMARK  status: ('A' for Active; 'I' for Inactive)
REMARK    1  A    between atoms: C2_2  and  C3_3 
REMARK    2  A    between atoms: C3_3  and  C4_4 
ROOT
HETATM    1  C3  UNL     1     -34.607   5.413   4.523  1.00 20.00     0.402 C 
HETATM    2  F7  UNL     1     -35.891   5.605   4.113  1.00 20.00    -0.189 F 
HETATM    3  F8  UNL     1     -34.285   4.137   4.189  1.00 20.00    -0.189 F 
ENDROOT
BRANCH   1   4
HETATM    4  C2  UNL     1     -33.720   6.373   3.751  1.00 20.00     0.313 C 
HETATM    5  C1  UNL     1     -33.032   5.790   2.535  1.00 20.00     0.097 C 
HETATM    6  F5  UNL     1     -34.482   7.424   3.343  1.00 20.00    -0.200 F 
HETATM    7  F6  UNL     1     -32.777   6.886   4.584  1.00 20.00    -0.200 F 
ENDBRANCH   1   4
BRANCH   1   8
HETATM    8  C4  UNL     1     -34.571   5.547   6.025  1.00 20.00     0.460 C 
HETATM    9  F9  UNL     1     -33.518   4.898   6.563  1.00 20.00    -0.165 F 
HETATM   10  F10 UNL     1     -35.691   5.022   6.572  1.00 20.00    -0.165 F 
HETATM   11  F11 UNL     1     -34.500   6.840   6.402  1.00 20.00    -0.165 F 
ENDBRANCH   1   8
TORSDOF 2
ENDMDL
MODEL 3
REMARK VINA RESULT:      -5.4      0.856      3.237
REMARK  2 active torsions:
REMARK  status: ('A' for Active; 'I' for Inactive)
REMARK    1  A    between atoms: C2_2  and  C3_3 
REMARK    2  A    between atoms: C3_3  and  C4_4 
ROOT
HETATM    1  C3  UNL     1     -33.948   6.382   4.117  1.00 20.00     0.402 C 
HETATM    2  F7  UNL     1     -33.025   6.685   5.070  1.00 20.00    -0.189 F 
HETATM    3  F8  UNL     1     -34.694   7.503   3.936  1.00 20.00    -0.189 F 
ENDROOT
BRANCH   1   4
HETATM    4  C2  UNL     1     -33.208   6.059   2.832  1.00 20.00     0.313 C 
HETATM    5  C1  UNL     1     -32.464   7.217   2.200  1.00 20.00     0.097 C 
HETATM    6  F5  UNL     1     -32.309   5.072   3.094  1.00 20.00    -0.200 F 
HETATM    7  F6  UNL     1     -34.080   5.549   1.923  1.00 20.00    -0.200 F 
ENDBRANCH   1   4
BRANCH   1   8
HETATM    8  C4  UNL     1     -34.836   5.288   4.657  1.00 20.00     0.460 C 
HETATM    9  F9  UNL     1     -34.366   4.062   4.353  1.00 20.00    -0.165 F 
HETATM   10  F10 UNL     1     -36.078   5.387   4.132  1.00 20.00    -0.165 F 
HETATM   11  F11 UNL     1     -34.953   5.368   5.999  1.00 20.00    -0.165 F 
ENDBRANCH   1   8
TORSDOF 2
ENDMDL
MODEL 4
REMARK VINA RESULT:      -5.0      1.432      3.242
REMARK  2 active torsions:
REMARK  status: ('A' for Active; 'I' for Inactive)
REMARK    1  A    between atoms: C2_2  and  C3_3 
REMARK    2  A    between atoms: C3_3  and  C4_4 
ROOT
HETATM    1  C3  UNL     1     -34.012   6.422   4.485  1.00 20.00     0.402 C 
HETATM    2  F7  UNL     1     -32.726   6.706   4.139  1.00 20.00    -0.189 F 
HETATM    3  F8  UNL     1     -34.781   7.392   3.926  1.00 20.00    -0.189 F 
ENDROOT
BRANCH   1   4
HETATM    4  C2  UNL     1     -34.376   5.081   3.877  1.00 20.00     0.313 C 
HETATM    5  C1  UNL     1     -33.669   4.738   2.582  1.00 20.00     0.097 C 
HETATM    6  F5  UNL     1     -34.090   4.109   4.785  1.00 20.00    -0.200 F 
HETATM    7  F6  UNL     1     -35.718   5.027   3.671  1.00 20.00    -0.200 F 
ENDBRANCH   1   4
BRANCH   1   8
HETATM    8  C4  UNL     1     -34.124   6.517   5.986  1.00 20.00     0.460 C 
HETATM    9  F9  UNL     1     -35.174   5.814   6.458  1.00 20.00    -0.165 F 
HETATM   10  F10 UNL     1     -34.297   7.803   6.366  1.00 20.00    -0.165 F 
HETATM   11  F11 UNL     1     -33.010   6.058   6.593  1.00 20.00    -0.165 F 
ENDBRANCH   1   8
TORSDOF 2
ENDMDL
MODEL 5
REMARK VINA RESULT:      -5.0      1.086      3.277
REMARK  2 active torsions:
REMARK  status: ('A' for Active; 'I' for Inactive)
REMARK    1  A    between atoms: C2_2  and  C3_3 
REMARK    2  A    between atoms: C3_3  and  C4_4 
ROOT
HETATM    1  C3  UNL     1     -33.481   5.471   2.897  1.00 20.00     0.402 C 
HETATM    2  F7  UNL     1     -34.177   5.298   1.740  1.00 20.00    -0.189 F 
HETATM    3  F8  UNL     1     -32.414   4.633   2.831  1.00 20.00    -0.189 F 
ENDROOT
BRANCH   1   4
HETATM    4  C2  UNL     1     -32.990   6.906   2.939  1.00 20.00     0.313 C 
HETATM    5  C1  UNL     1     -32.553   7.485   1.610  1.00 20.00     0.097 C 
HETATM    6  F5  UNL     1     -33.992   7.685   3.431  1.00 20.00    -0.200 F 
HETATM    7  F6  UNL     1     -31.961   7.007   3.821  1.00 20.00    -0.200 F 
ENDBRANCH   1   4
BRANCH   1   8
HETATM    8  C4  UNL     1     -34.365   5.044   4.043  1.00 20.00     0.460 C 
HETATM    9  F9  UNL     1     -34.037   5.670   5.192  1.00 20.00    -0.165 F 
HETATM   10  F10 UNL     1     -34.247   3.715   4.259  1.00 20.00    -0.165 F 
HETATM   11  F11 UNL     1     -35.664   5.302   3.785  1.00 20.00    -0.165 F 
ENDBRANCH   1   8
TORSDOF 2
ENDMDL
MODEL 6
REMARK VINA RESULT:      -4.9      1.261      2.388
REMARK  2 active torsions:
REMARK  status: ('A' for Active; 'I' for Inactive)
REMARK    1  A    between atoms: C2_2  and  C3_3 
REMARK    2  A    between atoms: C3_3  and  C4_4 
ROOT
HETATM    1  C3  UNL     1     -34.695   5.163   4.290  1.00 20.00     0.402 C 
HETATM    2  F7  UNL     1     -34.595   3.809   4.189  1.00 20.00    -0.189 F 
HETATM    3  F8  UNL     1     -35.982   5.475   3.986  1.00 20.00    -0.189 F 
ENDROOT
BRANCH   1   4
HETATM    4  C2  UNL     1     -34.412   5.548   5.730  1.00 20.00     0.313 C 
HETATM    5  C1  UNL     1     -33.770   6.906   5.928  1.00 20.00     0.097 C 
HETATM    6  F5  UNL     1     -35.589   5.534   6.414  1.00 20.00    -0.200 F 
HETATM    7  F6  UNL     1     -33.625   4.603   6.306  1.00 20.00    -0.200 F 
ENDBRANCH   1   4
BRANCH   1   8
HETATM    8  C4  UNL     1     -33.787   5.778   3.254  1.00 20.00     0.460 C 
HETATM    9  F9  UNL     1     -33.935   7.117   3.186  1.00 20.00    -0.165 F 
HETATM   10  F10 UNL     1     -34.064   5.278   2.028  1.00 20.00    -0.165 F 
HETATM   11  F11 UNL     1     -32.490   5.515   3.518  1.00 20.00    -0.165 F 
ENDBRANCH   1   8
TORSDOF 2
ENDMDL
MODEL 7
REMARK VINA RESULT:      -4.9      8.121      9.190
REMARK  2 active torsions:
REMARK  status: ('A' for Active; 'I' for Inactive)
REMARK    1  A    between atoms: C2_2  and  C3_3 
REMARK    2  A    between atoms: C3_3  and  C4_4 
ROOT
HETATM    1  C3  UNL     1     -41.799   7.069  -0.917  1.00 20.00     0.402 C 
HETATM    2  F7  UNL     1     -42.993   7.392  -1.487  1.00 20.00    -0.189 F 
HETATM    3  F8  UNL     1     -40.837   7.508  -1.770  1.00 20.00    -0.189 F 
ENDROOT
BRANCH   1   4
HETATM    4  C2  UNL     1     -41.686   7.822   0.396  1.00 20.00     0.313 C 
HETATM    5  C1  UNL     1     -41.475   9.317   0.274  1.00 20.00     0.097 C 
HETATM    6  F5  UNL     1     -42.828   7.614   1.106  1.00 20.00    -0.200 F 
HETATM    7  F6  UNL     1     -40.676   7.295   1.135  1.00 20.00    -0.200 F 
ENDBRANCH   1   4
BRANCH   1   8
HETATM    8  C4  UNL     1     -41.717   5.566  -0.823  1.00 20.00     0.460 C 
HETATM    9  F9  UNL     1     -40.461   5.117  -1.024  1.00 20.00    -0.165 F 
HETATM   10  F10 UNL     1     -42.506   4.991  -1.757  1.00 20.00    -0.165 F 
HETATM   11  F11 UNL     1     -42.127   5.126   0.385  1.00 20.00    -0.165 F 
ENDBRANCH   1   8
TORSDOF 2
ENDMDL
MODEL 8
REMARK VINA RESULT:      -4.8      1.157      3.329
REMARK  2 active torsions:
REMARK  status: ('A' for Active; 'I' for Inactive)
REMARK    1  A    between atoms: C2_2  and  C3_3 
REMARK    2  A    between atoms: C3_3  and  C4_4 
ROOT
HETATM    1  C3  UNL     1     -34.493   5.186   4.239  1.00 20.00     0.402 C 
HETATM    2  F7  UNL     1     -35.772   5.327   3.794  1.00 20.00    -0.189 F 
HETATM    3  F8  UNL     1     -34.348   3.879   4.579  1.00 20.00    -0.189 F 
ENDROOT
BRANCH   1   4
HETATM    4  C2  UNL     1     -33.558   5.513   3.090  1.00 20.00     0.313 C 
HETATM    5  C1  UNL     1     -32.842   6.844   3.190  1.00 20.00     0.097 C 
HETATM    6  F5  UNL     1     -32.618   4.532   3.014  1.00 20.00    -0.200 F 
HETATM    7  F6  UNL     1     -34.247   5.472   1.920  1.00 20.00    -0.200 F 
ENDBRANCH   1   4
BRANCH   1   8
HETATM    8  C4  UNL     1     -34.334   6.031   5.479  1.00 20.00     0.460 C 
HETATM    9  F9  UNL     1     -33.108   5.897   6.025  1.00 20.00    -0.165 F 
HETATM   10  F10 UNL     1     -35.237   5.667   6.417  1.00 20.00    -0.165 F 
HETATM   11  F11 UNL     1     -34.529   7.339   5.210  1.00 20.00    -0.165 F 
ENDBRANCH   1   8
TORSDOF 2
ENDMDL
MODEL 9
REMARK VINA RESULT:      -4.8      0.871      2.211
REMARK  2 active torsions:
REMARK  status: ('A' for Active; 'I' for Inactive)
REMARK    1  A    between atoms: C2_2  and  C3_3 
REMARK    2  A    between atoms: C3_3  and  C4_4 
ROOT
HETATM    1  C3  UNL     1     -33.491   5.463   2.911  1.00 20.00     0.402 C 
HETATM    2  F7  UNL     1     -32.444   4.597   2.990  1.00 20.00    -0.189 F 
HETATM    3  F8  UNL     1     -34.161   5.152   1.770  1.00 20.00    -0.189 F 
ENDROOT
BRANCH   1   4
HETATM    4  C2  UNL     1     -34.395   5.218   4.105  1.00 20.00     0.313 C 
HETATM    5  C1  UNL     1     -34.110   6.071   5.324  1.00 20.00     0.097 C 
HETATM    6  F5  UNL     1     -35.680   5.445   3.721  1.00 20.00    -0.200 F 
HETATM    7  F6  UNL     1     -34.328   3.909   4.461  1.00 20.00    -0.200 F 
ENDBRANCH   1   4
BRANCH   1   8
HETATM    8  C4  UNL     1     -32.935   6.860   2.782  1.00 20.00     0.460 C 
HETATM    9  F9  UNL     1     -33.844   7.797   3.119  1.00 20.00    -0.165 F 
HETATM   10  F10 UNL     1     -32.559   7.102   1.506  1.00 20.00    -0.165 F 
HETATM   11  F11 UNL     1     -31.850   7.031   3.566  1.00 20.00    -0.165 F 
ENDBRANCH   1   8
TORSDOF 2
ENDMDL
