MODEL 1
REMARK VINA RESULT:      -5.0      0.000      0.000
REMARK  2 active torsions:
REMARK  status: ('A' for Active; 'I' for Inactive)
REMARK    1  A    between atoms: C3_3  and  C8_8 
REMARK    2  A    between atoms: C3_3  and  C9_9 
ROOT
HETATM    1  C1  UNL     1     -32.898   8.709   0.638  1.00 20.00     0.012 C 
HETATM    2  C2  UNL     1     -32.556   7.967   1.518  1.00 20.00    -0.110 C 
HETATM    3  C9  UNL     1     -32.130   7.066   2.594  1.00 20.00     0.171 C 
ENDROOT
BRANCH   3   4
HETATM    4  C3  UNL     1     -33.164   6.001   2.903  1.00 20.00     0.142 C 
HETATM    5  O10 UNL     1     -33.020   4.817   2.601  1.00 20.00    -0.297 OA
BRANCH   4   6
HETATM    6  C8  UNL     1     -34.416   6.475   3.621  1.00 20.00     0.060 C 
HETATM    7  C4  UNL     1     -35.244   5.268   4.044  1.00 20.00     0.038 C 
HETATM    8  C6  UNL     1     -34.684   4.579   5.285  1.00 20.00     0.168 C 
HETATM    9  O11 UNL     1     -34.488   5.517   6.341  1.00 20.00    -0.391 OA
HETATM   10  C7  UNL     1     -33.530   6.515   5.997  1.00 20.00     0.168 C 
HETATM   11  C5  UNL     1     -34.011   7.341   4.808  1.00 20.00     0.038 C 
ENDBRANCH   4   6
ENDBRANCH   3   4
TORSDOF 2
ENDMDL
MODEL 2
REMARK VINA RESULT:      -4.6     11.273     12.650
REMARK  2 active torsions:
REMARK  status: ('A' for Active; 'I' for Inactive)
REMARK    1  A    between atoms: C3_3  and  C8_8 
REMARK    2  A    between atoms: C3_3  and  C9_9 
ROOT
HETATM    1  C1  UNL     1     -32.410  18.083  -1.477  1.00 20.00     0.012 C 
HETATM    2  C2  UNL     1     -33.199  17.312  -1.949  1.00 20.00    -0.110 C 
HETATM    3  C9  UNL     1     -34.167  16.367  -2.517  1.00 20.00     0.171 C 
ENDROOT
BRANCH   3   4
HETATM    4  C3  UNL     1     -34.076  16.279  -4.028  1.00 20.00     0.142 C 
HETATM    5  O10 UNL     1     -34.256  17.245  -4.769  1.00 20.00    -0.297 OA
BRANCH   4   6
HETATM    6  C8  UNL     1     -33.744  14.911  -4.597  1.00 20.00     0.060 C 
HETATM    7  C4  UNL     1     -34.620  13.858  -3.927  1.00 20.00     0.038 C 
HETATM    8  C6  UNL     1     -36.042  13.843  -4.477  1.00 20.00     0.168 C 
HETATM    9  O11 UNL     1     -36.035  13.736  -5.900  1.00 20.00    -0.391 OA
HETATM   10  C7  UNL     1     -35.403  14.856  -6.514  1.00 20.00     0.168 C 
HETATM   11  C5  UNL     1     -33.935  14.941  -6.109  1.00 20.00     0.038 C 
ENDBRANCH   4   6
ENDBRANCH   3   4
TORSDOF 2
ENDMDL
MODEL 3
REMARK VINA RESULT:      -4.5     15.760     16.629
REMARK  2 active torsions:
REMARK  status: ('A' for Active; 'I' for Inactive)
REMARK    1  A    between atoms: C3_3  and  C8_8 
REMARK    2  A    between atoms: C3_3  and  C9_9 
ROOT
HETATM    1  C1  UNL     1     -26.406  18.891   6.452  1.00 20.00     0.012 C 
HETATM    2  C2  UNL     1     -25.495  19.019   7.222  1.00 20.00    -0.110 C 
HETATM    3  C9  UNL     1     -24.375  19.181   8.157  1.00 20.00     0.171 C 
ENDROOT
BRANCH   3   4
HETATM    4  C3  UNL     1     -24.626  18.496   9.487  1.00 20.00     0.142 C 
HETATM    5  O10 UNL     1     -25.386  18.948  10.343  1.00 20.00    -0.297 OA
BRANCH   4   6
HETATM    6  C8  UNL     1     -23.876  17.196   9.719  1.00 20.00     0.060 C 
HETATM    7  C4  UNL     1     -22.502  17.280   9.064  1.00 20.00     0.038 C 
HETATM    8  C6  UNL     1     -21.513  18.103   9.884  1.00 20.00     0.168 C 
HETATM    9  O11 UNL     1     -21.460  17.637  11.231  1.00 20.00    -0.391 OA
HETATM   10  C7  UNL     1     -22.713  17.781  11.895  1.00 20.00     0.168 C 
HETATM   11  C5  UNL     1     -23.786  16.933  11.218  1.00 20.00     0.038 C 
ENDBRANCH   4   6
ENDBRANCH   3   4
TORSDOF 2
ENDMDL
MODEL 4
REMARK VINA RESULT:      -4.4     11.216     12.354
REMARK  2 active torsions:
REMARK  status: ('A' for Active; 'I' for Inactive)
REMARK    1  A    between atoms: C3_3  and  C8_8 
REMARK    2  A    between atoms: C3_3  and  C9_9 
ROOT
HETATM    1  C1  UNL     1     -33.246  18.179  -0.906  1.00 20.00     0.012 C 
HETATM    2  C2  UNL     1     -33.239  17.412  -1.829  1.00 20.00    -0.110 C 
HETATM    3  C9  UNL     1     -33.222  16.478  -2.960  1.00 20.00     0.171 C 
ENDROOT
BRANCH   3   4
HETATM    4  C3  UNL     1     -34.463  15.609  -3.015  1.00 20.00     0.142 C 
HETATM    5  O10 UNL     1     -35.540  15.943  -2.523  1.00 20.00    -0.297 OA
BRANCH   4   6
HETATM    6  C8  UNL     1     -34.311  14.273  -3.723  1.00 20.00     0.060 C 
HETATM    7  C4  UNL     1     -35.681  13.784  -4.178  1.00 20.00     0.038 C 
HETATM    8  C6  UNL     1     -36.171  14.497  -5.434  1.00 20.00     0.168 C 
HETATM    9  O11 UNL     1     -35.188  14.439  -6.466  1.00 20.00    -0.391 OA
HETATM   10  C7  UNL     1     -33.985  15.107  -6.095  1.00 20.00     0.168 C 
HETATM   11  C5  UNL     1     -33.341  14.434  -4.887  1.00 20.00     0.038 C 
ENDBRANCH   4   6
ENDBRANCH   3   4
TORSDOF 2
ENDMDL
MODEL 5
REMARK VINA RESULT:      -4.3     11.420     12.629
REMARK  2 active torsions:
REMARK  status: ('A' for Active; 'I' for Inactive)
REMARK    1  A    between atoms: C3_3  and  C8_8 
REMARK    2  A    between atoms: C3_3  and  C9_9 
ROOT
HETATM    1  C1  UNL     1     -32.775  17.665  -1.943  1.00 20.00     0.012 C 
HETATM    2  C2  UNL     1     -33.756  16.975  -1.967  1.00 20.00    -0.110 C 
HETATM    3  C9  UNL     1     -34.954  16.128  -1.988  1.00 20.00     0.171 C 
ENDROOT
BRANCH   3   4
HETATM    4  C3  UNL     1     -35.673  16.170  -3.322  1.00 20.00     0.142 C 
HETATM    5  O10 UNL     1     -36.138  17.203  -3.803  1.00 20.00    -0.297 OA
BRANCH   4   6
HETATM    6  C8  UNL     1     -35.794  14.845  -4.056  1.00 20.00     0.060 C 
HETATM    7  C4  UNL     1     -36.061  15.109  -5.534  1.00 20.00     0.038 C 
HETATM    8  C6  UNL     1     -34.802  15.517  -6.292  1.00 20.00     0.168 C 
HETATM    9  O11 UNL     1     -33.751  14.577  -6.075  1.00 20.00    -0.391 OA
HETATM   10  C7  UNL     1     -33.365  14.517  -4.704  1.00 20.00     0.168 C 
HETATM   11  C5  UNL     1     -34.522  14.035  -3.835  1.00 20.00     0.038 C 
ENDBRANCH   4   6
ENDBRANCH   3   4
TORSDOF 2
ENDMDL
MODEL 6
REMARK VINA RESULT:      -4.3      8.944     10.066
REMARK  2 active torsions:
REMARK  status: ('A' for Active; 'I' for Inactive)
REMARK    1  A    between atoms: C3_3  and  C8_8 
REMARK    2  A    between atoms: C3_3  and  C9_9 
ROOT
HETATM    1  C1  UNL     1     -42.068   3.142  -3.042  1.00 20.00     0.012 C 
HETATM    2  C2  UNL     1     -42.412   3.978  -2.253  1.00 20.00    -0.110 C 
HETATM    3  C9  UNL     1     -42.841   4.998  -1.289  1.00 20.00     0.171 C 
ENDROOT
BRANCH   3   4
HETATM    4  C3  UNL     1     -41.674   5.746  -0.676  1.00 20.00     0.142 C 
HETATM    5  O10 UNL     1     -40.543   5.742  -1.161  1.00 20.00    -0.297 OA
BRANCH   4   6
HETATM    6  C8  UNL     1     -41.973   6.520   0.597  1.00 20.00     0.060 C 
HETATM    7  C4  UNL     1     -40.904   7.588   0.802  1.00 20.00     0.038 C 
HETATM    8  C6  UNL     1     -41.113   8.804  -0.095  1.00 20.00     0.168 C 
HETATM    9  O11 UNL     1     -42.440   9.311   0.038  1.00 20.00    -0.391 OA
HETATM   10  C7  UNL     1     -43.417   8.361  -0.378  1.00 20.00     0.168 C 
HETATM   11  C5  UNL     1     -43.372   7.115   0.501  1.00 20.00     0.038 C 
ENDBRANCH   4   6
ENDBRANCH   3   4
TORSDOF 2
ENDMDL
MODEL 7
REMARK VINA RESULT:      -4.1     11.815     12.841
REMARK  2 active torsions:
REMARK  status: ('A' for Active; 'I' for Inactive)
REMARK    1  A    between atoms: C3_3  and  C8_8 
REMARK    2  A    between atoms: C3_3  and  C9_9 
ROOT
HETATM    1  C1  UNL     1     -31.009  18.315   0.040  1.00 20.00     0.012 C 
HETATM    2  C2  UNL     1     -32.021  18.340  -0.605  1.00 20.00    -0.110 C 
HETATM    3  C9  UNL     1     -33.262  18.376  -1.387  1.00 20.00     0.171 C 
ENDROOT
BRANCH   3   4
HETATM    4  C3  UNL     1     -33.153  17.603  -2.687  1.00 20.00     0.142 C 
HETATM    5  O10 UNL     1     -32.722  18.097  -3.728  1.00 20.00    -0.297 OA
BRANCH   4   6
HETATM    6  C8  UNL     1     -33.610  16.155  -2.642  1.00 20.00     0.060 C 
HETATM    7  C4  UNL     1     -35.015  16.087  -2.055  1.00 20.00     0.038 C 
HETATM    8  C6  UNL     1     -36.089  16.490  -3.060  1.00 20.00     0.168 C 
HETATM    9  O11 UNL     1     -35.955  15.748  -4.271  1.00 20.00    -0.391 OA
HETATM   10  C7  UNL     1     -34.713  16.007  -4.920  1.00 20.00     0.168 C 
HETATM   11  C5  UNL     1     -33.542  15.568  -4.046  1.00 20.00     0.038 C 
ENDBRANCH   4   6
ENDBRANCH   3   4
TORSDOF 2
ENDMDL
MODEL 8
REMARK VINA RESULT:      -4.0     11.297     12.694
REMARK  2 active torsions:
REMARK  status: ('A' for Active; 'I' for Inactive)
REMARK    1  A    between atoms: C3_3  and  C8_8 
REMARK    2  A    between atoms: C3_3  and  C9_9 
ROOT
HETATM    1  C1  UNL     1     -37.224  17.689  -2.734  1.00 20.00     0.012 C 
HETATM    2  C2  UNL     1     -36.233  17.019  -2.633  1.00 20.00    -0.110 C 
HETATM    3  C9  UNL     1     -35.025  16.198  -2.499  1.00 20.00     0.171 C 
ENDROOT
BRANCH   3   4
HETATM    4  C3  UNL     1     -34.228  16.122  -3.788  1.00 20.00     0.142 C 
HETATM    5  O10 UNL     1     -33.832  17.118  -4.392  1.00 20.00    -0.297 OA
BRANCH   4   6
HETATM    6  C8  UNL     1     -33.936  14.726  -4.310  1.00 20.00     0.060 C 
HETATM    7  C4  UNL     1     -35.053  13.782  -3.882  1.00 20.00     0.038 C 
HETATM    8  C6  UNL     1     -36.309  13.937  -4.735  1.00 20.00     0.168 C 
HETATM    9  O11 UNL     1     -35.995  13.834  -6.122  1.00 20.00    -0.391 OA
HETATM   10  C7  UNL     1     -35.118  14.874  -6.548  1.00 20.00     0.168 C 
HETATM   11  C5  UNL     1     -33.778  14.783  -5.824  1.00 20.00     0.038 C 
ENDBRANCH   4   6
ENDBRANCH   3   4
TORSDOF 2
ENDMDL
MODEL 9
REMARK VINA RESULT:      -4.0     11.488     12.659
REMARK  2 active torsions:
REMARK  status: ('A' for Active; 'I' for Inactive)
REMARK    1  A    between atoms: C3_3  and  C8_8 
REMARK    2  A    between atoms: C3_3  and  C9_9 
ROOT
HETATM    1  C1  UNL     1     -34.043  15.165  -6.866  1.00 20.00     0.012 C 
HETATM    2  C2  UNL     1     -33.914  14.860  -5.712  1.00 20.00    -0.110 C 
HETATM    3  C9  UNL     1     -33.748  14.483  -4.304  1.00 20.00     0.171 C 
ENDROOT
BRANCH   3   4
HETATM    4  C3  UNL     1     -34.793  15.116  -3.406  1.00 20.00     0.142 C 
HETATM    5  O10 UNL     1     -36.002  14.947  -3.558  1.00 20.00    -0.297 OA
BRANCH   4   6
HETATM    6  C8  UNL     1     -34.264  15.990  -2.282  1.00 20.00     0.060 C 
HETATM    7  C4  UNL     1     -33.095  16.822  -2.796  1.00 20.00     0.038 C 
HETATM    8  C6  UNL     1     -33.548  18.015  -3.632  1.00 20.00     0.168 C 
HETATM    9  O11 UNL     1     -34.516  18.790  -2.927  1.00 20.00    -0.391 OA
HETATM   10  C7  UNL     1     -35.700  18.045  -2.656  1.00 20.00     0.168 C 
HETATM   11  C5  UNL     1     -35.398  16.857  -1.749  1.00 20.00     0.038 C 
ENDBRANCH   4   6
ENDBRANCH   3   4
TORSDOF 2
ENDMDL
