MODEL 1
REMARK VINA RESULT:      -4.2      0.000      0.000
REMARK  5 active torsions:
REMARK  status: ('A' for Active; 'I' for Inactive)
REMARK    1  A    between atoms: C1_1  and  C5_5 
REMARK    2  A    between atoms: C1_1  and  C9_9 
REMARK    3  A    between atoms: C6_6  and  C10_10 
REMARK    4  A    between atoms: C9_9  and  C12_12 
REMARK    5  A    between atoms: C11_11  and  C12_12 
ROOT
HETATM    1  C2  UNL     1     -36.934  14.870  -4.147  1.00 20.00     0.012 C 
HETATM    2  C3  UNL     1     -36.387  16.048  -3.350  1.00 20.00     0.005 C 
HETATM    3  C4  UNL     1     -34.516  14.622  -3.811  1.00 20.00     0.016 C 
HETATM    4  C5  UNL     1     -35.693  14.143  -4.671  1.00 20.00     0.056 C 
HETATM    5  C6  UNL     1     -35.140  15.464  -2.696  1.00 20.00    -0.014 C 
ENDROOT
BRANCH   4   6
HETATM    6  C1  UNL     1     -35.453  14.477  -6.111  1.00 20.00     0.131 C 
HETATM    7  O13 UNL     1     -36.294  14.258  -6.989  1.00 20.00    -0.298 OA
BRANCH   6   8
HETATM    8  C9  UNL     1     -34.109  15.108  -6.443  1.00 20.00     0.079 C 
BRANCH   8   9
HETATM    9  C12 UNL     1     -34.244  16.440  -7.177  1.00 20.00     0.007 C 
BRANCH   9  10
HETATM   10  C11 UNL     1     -34.597  17.573  -6.214  1.00 20.00    -0.004 C 
HETATM   11  C8  UNL     1     -36.016  18.072  -6.437  1.00 20.00     0.005 C 
ENDBRANCH   9  10
ENDBRANCH   8   9
ENDBRANCH   6   8
ENDBRANCH   4   6
BRANCH   5  12
HETATM   12  C10 UNL     1     -34.201  16.524  -2.148  1.00 20.00     0.000 C 
HETATM   13  C7  UNL     1     -32.969  16.668  -2.985  1.00 20.00     0.005 C 
ENDBRANCH   5  12
TORSDOF 5
ENDMDL
MODEL 2
REMARK VINA RESULT:      -4.1      1.292      3.420
REMARK  5 active torsions:
REMARK  status: ('A' for Active; 'I' for Inactive)
REMARK    1  A    between atoms: C1_1  and  C5_5 
REMARK    2  A    between atoms: C1_1  and  C9_9 
REMARK    3  A    between atoms: C6_6  and  C10_10 
REMARK    4  A    between atoms: C9_9  and  C12_12 
REMARK    5  A    between atoms: C11_11  and  C12_12 
ROOT
HETATM    1  C2  UNL     1     -35.655  14.843  -6.807  1.00 20.00     0.012 C 
HETATM    2  C3  UNL     1     -34.997  16.216  -6.752  1.00 20.00     0.005 C 
HETATM    3  C4  UNL     1     -36.657  16.196  -5.023  1.00 20.00     0.016 C 
HETATM    4  C5  UNL     1     -36.487  14.757  -5.526  1.00 20.00     0.056 C 
HETATM    5  C6  UNL     1     -36.082  17.086  -6.127  1.00 20.00    -0.014 C 
ENDROOT
BRANCH   4   6
HETATM    6  C1  UNL     1     -35.787  13.926  -4.495  1.00 20.00     0.131 C 
HETATM    7  O13 UNL     1     -35.806  12.691  -4.517  1.00 20.00    -0.298 OA
BRANCH   6   8
HETATM    8  C9  UNL     1     -35.041  14.687  -3.408  1.00 20.00     0.079 C 
BRANCH   8   9
HETATM    9  C12 UNL     1     -33.588  14.977  -3.778  1.00 20.00     0.007 C 
BRANCH   9  10
HETATM   10  C11 UNL     1     -33.102  16.279  -3.144  1.00 20.00    -0.004 C 
HETATM   11  C8  UNL     1     -34.089  16.798  -2.110  1.00 20.00     0.005 C 
ENDBRANCH   9  10
ENDBRANCH   8   9
ENDBRANCH   6   8
ENDBRANCH   4   6
BRANCH   5  12
HETATM   12  C10 UNL     1     -35.559  18.417  -5.614  1.00 20.00     0.000 C 
HETATM   13  C7  UNL     1     -34.091  18.576  -5.861  1.00 20.00     0.005 C 
ENDBRANCH   5  12
TORSDOF 5
ENDMDL
MODEL 3
REMARK VINA RESULT:      -4.1      0.871      1.113
REMARK  5 active torsions:
REMARK  status: ('A' for Active; 'I' for Inactive)
REMARK    1  A    between atoms: C1_1  and  C5_5 
REMARK    2  A    between atoms: C1_1  and  C9_9 
REMARK    3  A    between atoms: C6_6  and  C10_10 
REMARK    4  A    between atoms: C9_9  and  C12_12 
REMARK    5  A    between atoms: C11_11  and  C12_12 
ROOT
HETATM    1  C2  UNL     1     -36.092  15.023  -3.561  1.00 20.00     0.012 C 
HETATM    2  C3  UNL     1     -35.452  16.317  -3.075  1.00 20.00     0.005 C 
HETATM    3  C4  UNL     1     -33.655  14.920  -3.828  1.00 20.00     0.016 C 
HETATM    4  C5  UNL     1     -34.971  14.284  -4.295  1.00 20.00     0.056 C 
HETATM    5  C6  UNL     1     -34.042  15.877  -2.698  1.00 20.00    -0.014 C 
ENDROOT
BRANCH   4   6
HETATM    6  C1  UNL     1     -35.122  14.433  -5.778  1.00 20.00     0.131 C 
HETATM    7  O13 UNL     1     -36.092  13.977  -6.393  1.00 20.00    -0.298 OA
BRANCH   6   8
HETATM    8  C9  UNL     1     -34.010  15.184  -6.497  1.00 20.00     0.079 C 
BRANCH   8   9
HETATM    9  C12 UNL     1     -34.534  16.312  -7.384  1.00 20.00     0.007 C 
BRANCH   9  10
HETATM   10  C11 UNL     1     -35.208  17.404  -6.555  1.00 20.00    -0.004 C 
HETATM   11  C8  UNL     1     -34.184  18.311  -5.891  1.00 20.00     0.005 C 
ENDBRANCH   9  10
ENDBRANCH   8   9
ENDBRANCH   6   8
ENDBRANCH   4   6
BRANCH   5  12
HETATM   12  C10 UNL     1     -33.076  17.038  -2.538  1.00 20.00     0.000 C 
HETATM   13  C7  UNL     1     -33.360  17.838  -1.306  1.00 20.00     0.005 C 
ENDBRANCH   5  12
TORSDOF 5
ENDMDL
MODEL 4
REMARK VINA RESULT:      -4.0      2.450      5.047
REMARK  5 active torsions:
REMARK  status: ('A' for Active; 'I' for Inactive)
REMARK    1  A    between atoms: C1_1  and  C5_5 
REMARK    2  A    between atoms: C1_1  and  C9_9 
REMARK    3  A    between atoms: C6_6  and  C10_10 
REMARK    4  A    between atoms: C9_9  and  C12_12 
REMARK    5  A    between atoms: C11_11  and  C12_12 
ROOT
HETATM    1  C2  UNL     1     -32.881  15.422  -3.822  1.00 20.00     0.012 C 
HETATM    2  C3  UNL     1     -33.835  14.733  -4.790  1.00 20.00     0.005 C 
HETATM    3  C4  UNL     1     -35.141  15.334  -2.872  1.00 20.00     0.016 C 
HETATM    4  C5  UNL     1     -33.787  16.045  -2.758  1.00 20.00     0.056 C 
HETATM    5  C6  UNL     1     -34.921  14.193  -3.867  1.00 20.00    -0.014 C 
ENDROOT
BRANCH   4   6
HETATM    6  C1  UNL     1     -33.950  17.515  -2.999  1.00 20.00     0.131 C 
HETATM    7  O13 UNL     1     -34.904  17.979  -3.633  1.00 20.00    -0.298 OA
BRANCH   6   8
HETATM    8  C9  UNL     1     -32.873  18.419  -2.415  1.00 20.00     0.079 C 
BRANCH   8   9
HETATM    9  C12 UNL     1     -32.622  18.160  -0.932  1.00 20.00     0.007 C 
BRANCH   9  10
HETATM   10  C11 UNL     1     -31.160  18.407  -0.564  1.00 20.00    -0.004 C 
HETATM   11  C8  UNL     1     -30.912  18.178   0.919  1.00 20.00     0.005 C 
ENDBRANCH   9  10
ENDBRANCH   8   9
ENDBRANCH   6   8
ENDBRANCH   4   6
BRANCH   5  12
HETATM   12  C10 UNL     1     -36.186  13.789  -4.606  1.00 20.00     0.000 C 
HETATM   13  C7  UNL     1     -37.336  14.691  -4.283  1.00 20.00     0.005 C 
ENDBRANCH   5  12
TORSDOF 5
ENDMDL
MODEL 5
REMARK VINA RESULT:      -3.9      1.189      1.568
REMARK  5 active torsions:
REMARK  status: ('A' for Active; 'I' for Inactive)
REMARK    1  A    between atoms: C1_1  and  C5_5 
REMARK    2  A    between atoms: C1_1  and  C9_9 
REMARK    3  A    between atoms: C6_6  and  C10_10 
REMARK    4  A    between atoms: C9_9  and  C12_12 
REMARK    5  A    between atoms: C11_11  and  C12_12 
ROOT
HETATM    1  C2  UNL     1     -35.431  14.858  -3.080  1.00 20.00     0.012 C 
HETATM    2  C3  UNL     1     -35.113  16.251  -2.549  1.00 20.00     0.005 C 
HETATM    3  C4  UNL     1     -33.210  15.572  -3.839  1.00 20.00     0.016 C 
HETATM    4  C5  UNL     1     -34.346  14.580  -4.122  1.00 20.00     0.056 C 
HETATM    5  C6  UNL     1     -33.589  16.264  -2.528  1.00 20.00    -0.014 C 
ENDROOT
BRANCH   4   6
HETATM    6  C1  UNL     1     -34.878  14.782  -5.508  1.00 20.00     0.131 C 
HETATM    7  O13 UNL     1     -35.656  13.982  -6.040  1.00 20.00    -0.298 OA
BRANCH   6   8
HETATM    8  C9  UNL     1     -34.411  16.035  -6.234  1.00 20.00     0.079 C 
BRANCH   8   9
HETATM    9  C12 UNL     1     -35.569  16.883  -6.757  1.00 20.00     0.007 C 
BRANCH   9  10
HETATM   10  C11 UNL     1     -36.100  17.825  -5.678  1.00 20.00    -0.004 C 
HETATM   11  C8  UNL     1     -37.479  17.401  -5.197  1.00 20.00     0.005 C 
ENDBRANCH   9  10
ENDBRANCH   8   9
ENDBRANCH   6   8
ENDBRANCH   4   6
BRANCH   5  12
HETATM   12  C10 UNL     1     -33.005  17.661  -2.398  1.00 20.00     0.000 C 
HETATM   13  C7  UNL     1     -32.976  18.381  -3.709  1.00 20.00     0.005 C 
ENDBRANCH   5  12
TORSDOF 5
ENDMDL
MODEL 6
REMARK VINA RESULT:      -3.9      3.519      5.558
REMARK  5 active torsions:
REMARK  status: ('A' for Active; 'I' for Inactive)
REMARK    1  A    between atoms: C1_1  and  C5_5 
REMARK    2  A    between atoms: C1_1  and  C9_9 
REMARK    3  A    between atoms: C6_6  and  C10_10 
REMARK    4  A    between atoms: C9_9  and  C12_12 
REMARK    5  A    between atoms: C11_11  and  C12_12 
ROOT
HETATM    1  C2  UNL     1     -32.300  18.371  -1.705  1.00 20.00     0.012 C 
HETATM    2  C3  UNL     1     -31.350  18.118  -0.540  1.00 20.00     0.005 C 
HETATM    3  C4  UNL     1     -33.474  18.658   0.430  1.00 20.00     0.016 C 
HETATM    4  C5  UNL     1     -33.692  18.421  -1.070  1.00 20.00     0.056 C 
HETATM    5  C6  UNL     1     -31.976  18.928   0.589  1.00 20.00    -0.014 C 
ENDROOT
BRANCH   4   6
HETATM    6  C1  UNL     1     -34.420  17.131  -1.291  1.00 20.00     0.131 C 
HETATM    7  O13 UNL     1     -35.352  16.766  -0.566  1.00 20.00    -0.298 OA
BRANCH   6   8
HETATM    8  C9  UNL     1     -33.954  16.285  -2.467  1.00 20.00     0.079 C 
BRANCH   8   9
HETATM    9  C12 UNL     1     -35.037  15.342  -2.986  1.00 20.00     0.007 C 
BRANCH   9  10
HETATM   10  C11 UNL     1     -34.458  14.304  -3.946  1.00 20.00    -0.004 C 
HETATM   11  C8  UNL     1     -33.034  14.654  -4.352  1.00 20.00     0.005 C 
ENDBRANCH   9  10
ENDBRANCH   8   9
ENDBRANCH   6   8
ENDBRANCH   4   6
BRANCH   5  12
HETATM   12  C10 UNL     1     -31.442  18.552   1.961  1.00 20.00     0.000 C 
HETATM   13  C7  UNL     1     -32.476  17.865   2.796  1.00 20.00     0.005 C 
ENDBRANCH   5  12
TORSDOF 5
ENDMDL
MODEL 7
REMARK VINA RESULT:      -3.9      1.743      3.594
REMARK  5 active torsions:
REMARK  status: ('A' for Active; 'I' for Inactive)
REMARK    1  A    between atoms: C1_1  and  C5_5 
REMARK    2  A    between atoms: C1_1  and  C9_9 
REMARK    3  A    between atoms: C6_6  and  C10_10 
REMARK    4  A    between atoms: C9_9  and  C12_12 
REMARK    5  A    between atoms: C11_11  and  C12_12 
ROOT
HETATM    1  C2  UNL     1     -35.901  14.404  -6.180  1.00 20.00     0.012 C 
HETATM    2  C3  UNL     1     -36.227  15.886  -6.319  1.00 20.00     0.005 C 
HETATM    3  C4  UNL     1     -37.132  15.193  -4.211  1.00 20.00     0.016 C 
HETATM    4  C5  UNL     1     -36.224  14.068  -4.723  1.00 20.00     0.056 C 
HETATM    5  C6  UNL     1     -37.461  16.045  -5.439  1.00 20.00    -0.014 C 
ENDROOT
BRANCH   4   6
HETATM    6  C1  UNL     1     -34.971  14.000  -3.906  1.00 20.00     0.131 C 
HETATM    7  O13 UNL     1     -34.214  13.023  -3.937  1.00 20.00    -0.298 OA
BRANCH   6   8
HETATM    8  C9  UNL     1     -34.671  15.206  -3.027  1.00 20.00     0.079 C 
BRANCH   8   9
HETATM    9  C12 UNL     1     -33.409  15.951  -3.454  1.00 20.00     0.007 C 
BRANCH   9  10
HETATM   10  C11 UNL     1     -33.007  17.002  -2.420  1.00 20.00    -0.004 C 
HETATM   11  C8  UNL     1     -34.170  17.361  -1.509  1.00 20.00     0.005 C 
ENDBRANCH   9  10
ENDBRANCH   8   9
ENDBRANCH   6   8
ENDBRANCH   4   6
BRANCH   5  12
HETATM   12  C10 UNL     1     -37.771  17.493  -5.099  1.00 20.00     0.000 C 
HETATM   13  C7  UNL     1     -36.693  18.117  -4.270  1.00 20.00     0.005 C 
ENDBRANCH   5  12
TORSDOF 5
ENDMDL
MODEL 8
REMARK VINA RESULT:      -3.8      2.089      3.716
REMARK  5 active torsions:
REMARK  status: ('A' for Active; 'I' for Inactive)
REMARK    1  A    between atoms: C1_1  and  C5_5 
REMARK    2  A    between atoms: C1_1  and  C9_9 
REMARK    3  A    between atoms: C6_6  and  C10_10 
REMARK    4  A    between atoms: C9_9  and  C12_12 
REMARK    5  A    between atoms: C11_11  and  C12_12 
ROOT
HETATM    1  C2  UNL     1     -32.838  15.426  -3.776  1.00 20.00     0.012 C 
HETATM    2  C3  UNL     1     -33.741  14.601  -4.685  1.00 20.00     0.005 C 
HETATM    3  C4  UNL     1     -35.153  15.493  -2.965  1.00 20.00     0.016 C 
HETATM    4  C5  UNL     1     -33.798  16.208  -2.877  1.00 20.00     0.056 C 
HETATM    5  C6  UNL     1     -34.888  14.212  -3.760  1.00 20.00    -0.014 C 
ENDROOT
BRANCH   4   6
HETATM    6  C1  UNL     1     -33.928  17.624  -3.348  1.00 20.00     0.131 C 
HETATM    7  O13 UNL     1     -32.948  18.363  -3.497  1.00 20.00    -0.298 OA
BRANCH   6   8
HETATM    8  C9  UNL     1     -35.339  18.113  -3.638  1.00 20.00     0.079 C 
BRANCH   8   9
HETATM    9  C12 UNL     1     -35.507  18.626  -5.067  1.00 20.00     0.007 C 
BRANCH   9  10
HETATM   10  C11 UNL     1     -35.664  17.472  -6.056  1.00 20.00    -0.004 C 
HETATM   11  C8  UNL     1     -34.471  17.376  -6.994  1.00 20.00     0.005 C 
ENDBRANCH   9  10
ENDBRANCH   8   9
ENDBRANCH   6   8
ENDBRANCH   4   6
BRANCH   5  12
HETATM   12  C10 UNL     1     -36.111  13.705  -4.505  1.00 20.00     0.000 C 
HETATM   13  C7  UNL     1     -37.306  14.577  -4.279  1.00 20.00     0.005 C 
ENDBRANCH   5  12
TORSDOF 5
ENDMDL
MODEL 9
REMARK VINA RESULT:      -3.8      2.343      4.741
REMARK  5 active torsions:
REMARK  status: ('A' for Active; 'I' for Inactive)
REMARK    1  A    between atoms: C1_1  and  C5_5 
REMARK    2  A    between atoms: C1_1  and  C9_9 
REMARK    3  A    between atoms: C6_6  and  C10_10 
REMARK    4  A    between atoms: C9_9  and  C12_12 
REMARK    5  A    between atoms: C11_11  and  C12_12 
ROOT
HETATM    1  C2  UNL     1     -32.864  15.412  -3.858  1.00 20.00     0.012 C 
HETATM    2  C3  UNL     1     -33.860  14.670  -4.740  1.00 20.00     0.005 C 
HETATM    3  C4  UNL     1     -35.102  15.479  -2.856  1.00 20.00     0.016 C 
HETATM    4  C5  UNL     1     -33.725  16.155  -2.835  1.00 20.00     0.056 C 
HETATM    5  C6  UNL     1     -34.939  14.247  -3.749  1.00 20.00    -0.014 C 
ENDROOT
BRANCH   4   6
HETATM    6  C1  UNL     1     -33.853  17.602  -3.202  1.00 20.00     0.131 C 
HETATM    7  O13 UNL     1     -34.738  18.017  -3.958  1.00 20.00    -0.298 OA
BRANCH   6   8
HETATM    8  C9  UNL     1     -32.828  18.547  -2.590  1.00 20.00     0.079 C 
BRANCH   8   9
HETATM    9  C12 UNL     1     -32.210  17.999  -1.306  1.00 20.00     0.007 C 
BRANCH   9  10
HETATM   10  C11 UNL     1     -32.731  18.742  -0.077  1.00 20.00    -0.004 C 
HETATM   11  C8  UNL     1     -34.045  18.156   0.413  1.00 20.00     0.005 C 
ENDBRANCH   9  10
ENDBRANCH   8   9
ENDBRANCH   6   8
ENDBRANCH   4   6
BRANCH   5  12
HETATM   12  C10 UNL     1     -36.232  13.818  -4.421  1.00 20.00     0.000 C 
HETATM   13  C7  UNL     1     -37.207  14.948  -4.532  1.00 20.00     0.005 C 
ENDBRANCH   5  12
TORSDOF 5
ENDMDL
