MODEL 1
REMARK VINA RESULT:      -4.9      0.000      0.000
REMARK  3 active torsions:
REMARK  status: ('A' for Active; 'I' for Inactive)
REMARK    1  A    between atoms: C1_1  and  C5_5 
REMARK    2  A    between atoms: C1_1  and  C9_9 
REMARK    3  A    between atoms: C6_6  and  C10_10 
ROOT
HETATM    1  C2  UNL     1     -22.428  18.323   8.993  1.00 20.00     0.012 C 
HETATM    2  C3  UNL     1     -22.545  17.223  10.046  1.00 20.00     0.005 C 
HETATM    3  C4  UNL     1     -24.665  18.308   9.993  1.00 20.00     0.016 C 
HETATM    4  C5  UNL     1     -23.766  19.063   9.016  1.00 20.00     0.056 C 
HETATM    5  C6  UNL     1     -24.037  16.917  10.092  1.00 20.00    -0.014 C 
ENDROOT
BRANCH   4   6
HETATM    6  C1  UNL     1     -24.393  19.006   7.635  1.00 20.00     0.130 C 
HETATM    7  O11 UNL     1     -23.704  18.805   6.636  1.00 20.00    -0.298 OA
BRANCH   6   8
HETATM    8  C9  UNL     1     -25.895  19.210   7.574  1.00 20.00     0.074 C 
HETATM    9  C7  UNL     1     -26.501  18.707   6.275  1.00 20.00     0.013 C 
ENDBRANCH   6   8
ENDBRANCH   4   6
BRANCH   5  10
HETATM   10  C10 UNL     1     -24.455  16.160  11.341  1.00 20.00     0.000 C 
HETATM   11  C8  UNL     1     -25.573  16.846  12.064  1.00 20.00     0.005 C 
ENDBRANCH   5  10
TORSDOF 3
ENDMDL
MODEL 2
REMARK VINA RESULT:      -4.6     14.206     16.778
REMARK  3 active torsions:
REMARK  status: ('A' for Active; 'I' for Inactive)
REMARK    1  A    between atoms: C1_1  and  C5_5 
REMARK    2  A    between atoms: C1_1  and  C9_9 
REMARK    3  A    between atoms: C6_6  and  C10_10 
ROOT
HETATM    1  C2  UNL     1     -35.394  14.870  -3.235  1.00 20.00     0.012 C 
HETATM    2  C3  UNL     1     -34.920  15.944  -2.259  1.00 20.00     0.005 C 
HETATM    3  C4  UNL     1     -33.067  15.488  -3.685  1.00 20.00     0.016 C 
HETATM    4  C5  UNL     1     -34.180  14.528  -4.099  1.00 20.00     0.056 C 
HETATM    5  C6  UNL     1     -33.796  16.650  -3.009  1.00 20.00    -0.014 C 
ENDROOT
BRANCH   4   6
HETATM    6  C1  UNL     1     -34.518  14.775  -5.557  1.00 20.00     0.130 C 
HETATM    7  O11 UNL     1     -33.655  14.691  -6.430  1.00 20.00    -0.298 OA
BRANCH   6   8
HETATM    8  C9  UNL     1     -35.963  15.126  -5.859  1.00 20.00     0.074 C 
HETATM    9  C7  UNL     1     -36.109  16.486  -6.520  1.00 20.00     0.013 C 
ENDBRANCH   6   8
ENDBRANCH   4   6
BRANCH   5  10
HETATM   10  C10 UNL     1     -32.898  17.474  -2.104  1.00 20.00     0.000 C 
HETATM   11  C8  UNL     1     -33.611  17.925  -0.867  1.00 20.00     0.005 C 
ENDBRANCH   5  10
TORSDOF 3
ENDMDL
MODEL 3
REMARK VINA RESULT:      -4.5     10.931     14.462
REMARK  3 active torsions:
REMARK  status: ('A' for Active; 'I' for Inactive)
REMARK    1  A    between atoms: C1_1  and  C5_5 
REMARK    2  A    between atoms: C1_1  and  C9_9 
REMARK    3  A    between atoms: C6_6  and  C10_10 
ROOT
HETATM    1  C2  UNL     1     -34.574  17.444  -0.986  1.00 20.00     0.012 C 
HETATM    2  C3  UNL     1     -34.789  16.264  -1.930  1.00 20.00     0.005 C 
HETATM    3  C4  UNL     1     -33.126  17.628  -2.952  1.00 20.00     0.016 C 
HETATM    4  C5  UNL     1     -33.561  18.353  -1.682  1.00 20.00     0.056 C 
HETATM    5  C6  UNL     1     -33.474  16.162  -2.694  1.00 20.00    -0.014 C 
ENDROOT
BRANCH   4   6
HETATM    6  C1  UNL     1     -32.351  18.533  -0.785  1.00 20.00     0.130 C 
HETATM    7  O11 UNL     1     -31.219  18.627  -1.259  1.00 20.00    -0.298 OA
BRANCH   6   8
HETATM    8  C9  UNL     1     -32.626  18.588   0.706  1.00 20.00     0.074 C 
HETATM    9  C7  UNL     1     -31.398  18.264   1.540  1.00 20.00     0.013 C 
ENDBRANCH   6   8
ENDBRANCH   4   6
BRANCH   5  10
HETATM   10  C10 UNL     1     -33.583  15.339  -3.966  1.00 20.00     0.000 C 
HETATM   11  C8  UNL     1     -34.689  14.333  -3.889  1.00 20.00     0.005 C 
ENDBRANCH   5  10
TORSDOF 3
ENDMDL
MODEL 4
REMARK VINA RESULT:      -4.4     14.650     17.359
REMARK  3 active torsions:
REMARK  status: ('A' for Active; 'I' for Inactive)
REMARK    1  A    between atoms: C1_1  and  C5_5 
REMARK    2  A    between atoms: C1_1  and  C9_9 
REMARK    3  A    between atoms: C6_6  and  C10_10 
ROOT
HETATM    1  C2  UNL     1     -36.420  16.465  -4.247  1.00 20.00     0.012 C 
HETATM    2  C3  UNL     1     -35.326  17.362  -3.671  1.00 20.00     0.005 C 
HETATM    3  C4  UNL     1     -34.834  15.158  -2.913  1.00 20.00     0.016 C 
HETATM    4  C5  UNL     1     -36.140  15.066  -3.696  1.00 20.00     0.056 C 
HETATM    5  C6  UNL     1     -34.152  16.415  -3.455  1.00 20.00    -0.014 C 
ENDROOT
BRANCH   4   6
HETATM    6  C1  UNL     1     -35.947  14.103  -4.853  1.00 20.00     0.130 C 
HETATM    7  O11 UNL     1     -35.897  12.888  -4.664  1.00 20.00    -0.298 OA
BRANCH   6   8
HETATM    8  C9  UNL     1     -35.824  14.727  -6.230  1.00 20.00     0.074 C 
HETATM    9  C7  UNL     1     -34.379  14.896  -6.668  1.00 20.00     0.013 C 
ENDBRANCH   6   8
ENDBRANCH   4   6
BRANCH   5  10
HETATM   10  C10 UNL     1     -33.097  16.975  -2.517  1.00 20.00     0.000 C 
HETATM   11  C8  UNL     1     -33.707  17.664  -1.335  1.00 20.00     0.005 C 
ENDBRANCH   5  10
TORSDOF 3
ENDMDL
MODEL 5
REMARK VINA RESULT:      -4.3     14.646     15.636
REMARK  3 active torsions:
REMARK  status: ('A' for Active; 'I' for Inactive)
REMARK    1  A    between atoms: C1_1  and  C5_5 
REMARK    2  A    between atoms: C1_1  and  C9_9 
REMARK    3  A    between atoms: C6_6  and  C10_10 
ROOT
HETATM    1  C2  UNL     1     -33.232   5.633   2.250  1.00 20.00     0.012 C 
HETATM    2  C3  UNL     1     -33.988   5.307   3.536  1.00 20.00     0.005 C 
HETATM    3  C4  UNL     1     -32.566   7.145   4.059  1.00 20.00     0.016 C 
HETATM    4  C5  UNL     1     -32.268   6.764   2.612  1.00 20.00     0.056 C 
HETATM    5  C6  UNL     1     -33.981   6.621   4.308  1.00 20.00    -0.014 C 
ENDROOT
BRANCH   4   6
HETATM    6  C1  UNL     1     -32.548   7.963   1.726  1.00 20.00     0.130 C 
HETATM    7  O11 UNL     1     -32.744   9.077   2.211  1.00 20.00    -0.298 OA
BRANCH   6   8
HETATM    8  C9  UNL     1     -32.570   7.700   0.232  1.00 20.00     0.074 C 
HETATM    9  C7  UNL     1     -33.415   8.708  -0.528  1.00 20.00     0.013 C 
ENDBRANCH   6   8
ENDBRANCH   4   6
BRANCH   5  10
HETATM   10  C10 UNL     1     -34.305   6.450   5.782  1.00 20.00     0.000 C 
HETATM   11  C8  UNL     1     -34.770   5.061   6.096  1.00 20.00     0.005 C 
ENDBRANCH   5  10
TORSDOF 3
ENDMDL
MODEL 6
REMARK VINA RESULT:      -4.3     14.637     17.278
REMARK  3 active torsions:
REMARK  status: ('A' for Active; 'I' for Inactive)
REMARK    1  A    between atoms: C1_1  and  C5_5 
REMARK    2  A    between atoms: C1_1  and  C9_9 
REMARK    3  A    between atoms: C6_6  and  C10_10 
ROOT
HETATM    1  C2  UNL     1     -33.988  14.653  -4.677  1.00 20.00     0.012 C 
HETATM    2  C3  UNL     1     -33.289  15.435  -3.567  1.00 20.00     0.005 C 
HETATM    3  C4  UNL     1     -35.542  16.209  -3.597  1.00 20.00     0.016 C 
HETATM    4  C5  UNL     1     -35.412  15.207  -4.741  1.00 20.00     0.056 C 
HETATM    5  C6  UNL     1     -34.422  15.828  -2.627  1.00 20.00    -0.014 C 
ENDROOT
BRANCH   4   6
HETATM    6  C1  UNL     1     -36.399  14.077  -4.512  1.00 20.00     0.130 C 
HETATM    7  O11 UNL     1     -36.043  12.901  -4.586  1.00 20.00    -0.298 OA
BRANCH   6   8
HETATM    8  C9  UNL     1     -37.824  14.488  -4.192  1.00 20.00     0.074 C 
HETATM    9  C7  UNL     1     -38.369  15.517  -5.167  1.00 20.00     0.013 C 
ENDBRANCH   6   8
ENDBRANCH   4   6
BRANCH   5  10
HETATM   10  C10 UNL     1     -34.048  16.951  -1.675  1.00 20.00     0.000 C 
HETATM   11  C8  UNL     1     -32.760  17.609  -2.065  1.00 20.00     0.005 C 
ENDBRANCH   5  10
TORSDOF 3
ENDMDL
MODEL 7
REMARK VINA RESULT:      -4.3     15.659     18.206
REMARK  3 active torsions:
REMARK  status: ('A' for Active; 'I' for Inactive)
REMARK    1  A    between atoms: C1_1  and  C5_5 
REMARK    2  A    between atoms: C1_1  and  C9_9 
REMARK    3  A    between atoms: C6_6  and  C10_10 
ROOT
HETATM    1  C2  UNL     1     -35.846  14.037  -4.767  1.00 20.00     0.012 C 
HETATM    2  C3  UNL     1     -34.712  14.380  -3.804  1.00 20.00     0.005 C 
HETATM    3  C4  UNL     1     -36.054  16.342  -3.963  1.00 20.00     0.016 C 
HETATM    4  C5  UNL     1     -36.660  15.322  -4.923  1.00 20.00     0.056 C 
HETATM    5  C6  UNL     1     -35.289  15.498  -2.943  1.00 20.00    -0.014 C 
ENDROOT
BRANCH   4   6
HETATM    6  C1  UNL     1     -38.096  15.058  -4.508  1.00 20.00     0.130 C 
HETATM    7  O11 UNL     1     -38.504  13.910  -4.336  1.00 20.00    -0.298 OA
BRANCH   6   8
HETATM    8  C9  UNL     1     -38.975  16.281  -4.323  1.00 20.00     0.074 C 
HETATM    9  C7  UNL     1     -39.369  16.922  -5.642  1.00 20.00     0.013 C 
ENDBRANCH   6   8
ENDBRANCH   4   6
BRANCH   5  10
HETATM   10  C10 UNL     1     -34.227  16.283  -2.193  1.00 20.00     0.000 C 
HETATM   11  C8  UNL     1     -33.033  16.570  -3.050  1.00 20.00     0.005 C 
ENDBRANCH   5  10
TORSDOF 3
ENDMDL
MODEL 8
REMARK VINA RESULT:      -4.3     12.868     15.870
REMARK  3 active torsions:
REMARK  status: ('A' for Active; 'I' for Inactive)
REMARK    1  A    between atoms: C1_1  and  C5_5 
REMARK    2  A    between atoms: C1_1  and  C9_9 
REMARK    3  A    between atoms: C6_6  and  C10_10 
ROOT
HETATM    1  C2  UNL     1     -35.083  16.189  -1.811  1.00 20.00     0.012 C 
HETATM    2  C3  UNL     1     -34.245  17.305  -1.191  1.00 20.00     0.005 C 
HETATM    3  C4  UNL     1     -32.992  16.499  -3.049  1.00 20.00     0.016 C 
HETATM    4  C5  UNL     1     -34.241  15.626  -2.956  1.00 20.00     0.056 C 
HETATM    5  C6  UNL     1     -33.382  17.800  -2.346  1.00 20.00    -0.014 C 
ENDROOT
BRANCH   4   6
HETATM    6  C1  UNL     1     -35.017  15.748  -4.254  1.00 20.00     0.130 C 
HETATM    7  O11 UNL     1     -34.552  16.358  -5.216  1.00 20.00    -0.298 OA
BRANCH   6   8
HETATM    8  C9  UNL     1     -36.379  15.079  -4.284  1.00 20.00     0.074 C 
HETATM    9  C7  UNL     1     -36.293  13.589  -4.569  1.00 20.00     0.013 C 
ENDBRANCH   6   8
ENDBRANCH   4   6
BRANCH   5  10
HETATM   10  C10 UNL     1     -32.185  18.616  -1.891  1.00 20.00     0.000 C 
HETATM   11  C8  UNL     1     -31.814  18.322  -0.470  1.00 20.00     0.005 C 
ENDBRANCH   5  10
TORSDOF 3
ENDMDL
MODEL 9
REMARK VINA RESULT:      -4.3     14.062     16.542
REMARK  3 active torsions:
REMARK  status: ('A' for Active; 'I' for Inactive)
REMARK    1  A    between atoms: C1_1  and  C5_5 
REMARK    2  A    between atoms: C1_1  and  C9_9 
REMARK    3  A    between atoms: C6_6  and  C10_10 
ROOT
HETATM    1  C2  UNL     1     -33.249  16.054  -3.614  1.00 20.00     0.012 C 
HETATM    2  C3  UNL     1     -33.447  16.672  -2.232  1.00 20.00     0.005 C 
HETATM    3  C4  UNL     1     -35.630  16.385  -3.141  1.00 20.00     0.016 C 
HETATM    4  C5  UNL     1     -34.648  15.941  -4.222  1.00 20.00     0.056 C 
HETATM    5  C6  UNL     1     -34.852  16.235  -1.833  1.00 20.00    -0.014 C 
ENDROOT
BRANCH   4   6
HETATM    6  C1  UNL     1     -34.927  14.491  -4.567  1.00 20.00     0.130 C 
HETATM    7  O11 UNL     1     -34.305  13.579  -4.023  1.00 20.00    -0.298 OA
BRANCH   6   8
HETATM    8  C9  UNL     1     -36.004  14.246  -5.608  1.00 20.00     0.074 C 
HETATM    9  C7  UNL     1     -35.667  14.863  -6.955  1.00 20.00     0.013 C 
ENDBRANCH   6   8
ENDBRANCH   4   6
BRANCH   5  10
HETATM   10  C10 UNL     1     -35.433  17.055  -0.694  1.00 20.00     0.000 C 
HETATM   11  C8  UNL     1     -34.397  17.914  -0.037  1.00 20.00     0.005 C 
ENDBRANCH   5  10
TORSDOF 3
ENDMDL
