MODEL 1
REMARK VINA RESULT:      -5.0      0.000      0.000
REMARK  2 active torsions:
REMARK  status: ('A' for Active; 'I' for Inactive)
REMARK    1  A    between atoms: C5_5  and  C9_9 
REMARK    2  A    between atoms: C6_6  and  C10_10 
ROOT
HETATM    1  C1  UNL     1     -35.476  13.782  -4.270  1.00 20.00     0.069 C 
HETATM    2  C2  UNL     1     -32.960  16.316  -3.228  1.00 20.00     0.006 C 
HETATM    3  C3  UNL     1     -33.357  15.038  -3.972  1.00 20.00     0.025 C 
HETATM    4  C4  UNL     1     -35.327  15.840  -2.896  1.00 20.00     0.029 C 
HETATM    5  C5  UNL     1     -34.255  16.906  -2.653  1.00 20.00    -0.013 C 
HETATM    6  C6  UNL     1     -34.875  15.124  -4.176  1.00 20.00     0.049 C 
HETATM    7  N11 UNL     1     -35.949  12.725  -4.343  1.00 20.00    -0.196 NA
ENDROOT
BRANCH   6   8
HETATM    8  C10 UNL     1     -35.227  15.927  -5.436  1.00 20.00     0.020 C 
HETATM    9  C8  UNL     1     -34.623  15.321  -6.660  1.00 20.00     0.007 C 
ENDBRANCH   6   8
BRANCH   5  10
HETATM   10  C9  UNL     1     -34.134  17.295  -1.187  1.00 20.00     0.000 C 
HETATM   11  C7  UNL     1     -35.386  16.995  -0.425  1.00 20.00     0.005 C 
ENDBRANCH   5  10
TORSDOF 2
ENDMDL
MODEL 2
REMARK VINA RESULT:      -4.7     16.281     17.980
REMARK  2 active torsions:
REMARK  status: ('A' for Active; 'I' for Inactive)
REMARK    1  A    between atoms: C5_5  and  C9_9 
REMARK    2  A    between atoms: C6_6  and  C10_10 
ROOT
HETATM    1  C1  UNL     1     -21.898  17.311   8.031  1.00 20.00     0.069 C 
HETATM    2  C2  UNL     1     -22.501  17.676  11.683  1.00 20.00     0.006 C 
HETATM    3  C3  UNL     1     -21.608  17.800  10.446  1.00 20.00     0.025 C 
HETATM    4  C4  UNL     1     -23.681  16.890   9.700  1.00 20.00     0.029 C 
HETATM    5  C5  UNL     1     -23.879  17.224  11.181  1.00 20.00    -0.013 C 
HETATM    6  C6  UNL     1     -22.557  17.830   9.241  1.00 20.00     0.049 C 
HETATM    7  N11 UNL     1     -21.378  16.902   7.077  1.00 20.00    -0.196 NA
ENDROOT
BRANCH   6   8
HETATM    8  C10 UNL     1     -23.073  19.250   8.970  1.00 20.00     0.020 C 
HETATM    9  C8  UNL     1     -24.208  19.246   8.000  1.00 20.00     0.007 C 
ENDBRANCH   6   8
BRANCH   5  10
HETATM   10  C9  UNL     1     -24.450  16.057  11.975  1.00 20.00     0.000 C 
HETATM   11  C7  UNL     1     -25.886  16.275  12.332  1.00 20.00     0.005 C 
ENDBRANCH   5  10
TORSDOF 2
ENDMDL
MODEL 3
REMARK VINA RESULT:      -4.7     17.420     18.378
REMARK  2 active torsions:
REMARK  status: ('A' for Active; 'I' for Inactive)
REMARK    1  A    between atoms: C5_5  and  C9_9 
REMARK    2  A    between atoms: C6_6  and  C10_10 
ROOT
HETATM    1  C1  UNL     1     -23.056  16.804   9.785  1.00 20.00     0.069 C 
HETATM    2  C2  UNL     1     -25.788  16.621  12.302  1.00 20.00     0.006 C 
HETATM    3  C3  UNL     1     -24.707  15.968  11.437  1.00 20.00     0.025 C 
HETATM    4  C4  UNL     1     -24.673  18.296  10.927  1.00 20.00     0.029 C 
HETATM    5  C5  UNL     1     -25.670  18.134  12.078  1.00 20.00    -0.013 C 
HETATM    6  C6  UNL     1     -23.731  17.091  11.062  1.00 20.00     0.049 C 
HETATM    7  N11 UNL     1     -22.524  16.578   8.779  1.00 20.00    -0.196 NA
ENDROOT
BRANCH   6   8
HETATM    8  C10 UNL     1     -22.678  17.307  12.157  1.00 20.00     0.020 C 
HETATM    9  C8  UNL     1     -21.496  18.059  11.641  1.00 20.00     0.007 C 
ENDBRANCH   6   8
BRANCH   5  10
HETATM   10  C9  UNL     1     -27.008  18.801  11.794  1.00 20.00     0.000 C 
HETATM   11  C7  UNL     1     -28.159  17.948  12.221  1.00 20.00     0.005 C 
ENDBRANCH   5  10
TORSDOF 2
ENDMDL
MODEL 4
REMARK VINA RESULT:      -4.6     16.095     17.475
REMARK  2 active torsions:
REMARK  status: ('A' for Active; 'I' for Inactive)
REMARK    1  A    between atoms: C5_5  and  C9_9 
REMARK    2  A    between atoms: C6_6  and  C10_10 
ROOT
HETATM    1  C1  UNL     1     -23.985  18.558   7.946  1.00 20.00     0.069 C 
HETATM    2  C2  UNL     1     -24.370  16.490  11.012  1.00 20.00     0.006 C 
HETATM    3  C3  UNL     1     -23.986  16.658   9.540  1.00 20.00     0.025 C 
HETATM    4  C4  UNL     1     -24.762  18.783  10.288  1.00 20.00     0.029 C 
HETATM    5  C5  UNL     1     -24.736  17.887  11.530  1.00 20.00    -0.013 C 
HETATM    6  C6  UNL     1     -23.730  18.157   9.340  1.00 20.00     0.049 C 
HETATM    7  N11 UNL     1     -24.186  18.874   6.847  1.00 20.00    -0.196 NA
ENDROOT
BRANCH   6   8
HETATM    8  C10 UNL     1     -22.294  18.537   9.724  1.00 20.00     0.020 C 
HETATM    9  C8  UNL     1     -21.294  17.658   9.049  1.00 20.00     0.007 C 
ENDBRANCH   6   8
BRANCH   5  10
HETATM   10  C9  UNL     1     -26.047  17.913  12.301  1.00 20.00     0.000 C 
HETATM   11  C7  UNL     1     -27.040  18.847  11.684  1.00 20.00     0.005 C 
ENDBRANCH   5  10
TORSDOF 2
ENDMDL
MODEL 5
REMARK VINA RESULT:      -4.6      3.016      4.734
REMARK  2 active torsions:
REMARK  status: ('A' for Active; 'I' for Inactive)
REMARK    1  A    between atoms: C5_5  and  C9_9 
REMARK    2  A    between atoms: C6_6  and  C10_10 
ROOT
HETATM    1  C1  UNL     1     -31.803  18.190  -1.175  1.00 20.00     0.069 C 
HETATM    2  C2  UNL     1     -35.110  16.598  -1.773  1.00 20.00     0.006 C 
HETATM    3  C3  UNL     1     -34.159  17.454  -0.932  1.00 20.00     0.025 C 
HETATM    4  C4  UNL     1     -32.921  16.730  -2.836  1.00 20.00     0.029 C 
HETATM    5  C5  UNL     1     -34.358  16.250  -3.063  1.00 20.00    -0.013 C 
HETATM    6  C6  UNL     1     -33.063  17.933  -1.893  1.00 20.00     0.049 C 
HETATM    7  N11 UNL     1     -30.810  18.393  -0.609  1.00 20.00    -0.196 NA
ENDROOT
BRANCH   6   8
HETATM    8  C10 UNL     1     -33.489  19.202  -2.643  1.00 20.00     0.020 C 
HETATM    9  C8  UNL     1     -32.884  19.263  -4.006  1.00 20.00     0.007 C 
ENDBRANCH   6   8
BRANCH   5  10
HETATM   10  C9  UNL     1     -34.434  14.772  -3.418  1.00 20.00     0.000 C 
HETATM   11  C7  UNL     1     -33.432  14.396  -4.463  1.00 20.00     0.005 C 
ENDBRANCH   5  10
TORSDOF 2
ENDMDL
MODEL 6
REMARK VINA RESULT:      -4.6      1.356      1.799
REMARK  2 active torsions:
REMARK  status: ('A' for Active; 'I' for Inactive)
REMARK    1  A    between atoms: C5_5  and  C9_9 
REMARK    2  A    between atoms: C6_6  and  C10_10 
ROOT
HETATM    1  C1  UNL     1     -37.091  14.336  -4.528  1.00 20.00     0.069 C 
HETATM    2  C2  UNL     1     -33.438  14.719  -3.943  1.00 20.00     0.006 C 
HETATM    3  C3  UNL     1     -34.691  13.858  -4.123  1.00 20.00     0.025 C 
HETATM    4  C4  UNL     1     -35.401  16.129  -4.257  1.00 20.00     0.029 C 
HETATM    5  C5  UNL     1     -33.872  16.173  -4.169  1.00 20.00    -0.013 C 
HETATM    6  C6  UNL     1     -35.712  14.745  -4.846  1.00 20.00     0.049 C 
HETATM    7  N11 UNL     1     -38.177  14.014  -4.277  1.00 20.00    -0.196 NA
ENDROOT
BRANCH   6   8
HETATM    8  C10 UNL     1     -35.509  14.710  -6.366  1.00 20.00     0.020 C 
HETATM    9  C8  UNL     1     -36.268  15.801  -7.047  1.00 20.00     0.007 C 
ENDBRANCH   6   8
BRANCH   5  10
HETATM   10  C9  UNL     1     -33.374  17.120  -3.087  1.00 20.00     0.000 C 
HETATM   11  C7  UNL     1     -34.097  16.920  -1.793  1.00 20.00     0.005 C 
ENDBRANCH   5  10
TORSDOF 2
ENDMDL
MODEL 7
REMARK VINA RESULT:      -4.5      1.657      2.400
REMARK  2 active torsions:
REMARK  status: ('A' for Active; 'I' for Inactive)
REMARK    1  A    between atoms: C5_5  and  C9_9 
REMARK    2  A    between atoms: C6_6  and  C10_10 
ROOT
HETATM    1  C1  UNL     1     -33.970  15.056  -5.804  1.00 20.00     0.069 C 
HETATM    2  C2  UNL     1     -35.118  17.086  -2.906  1.00 20.00     0.006 C 
HETATM    3  C3  UNL     1     -35.323  16.496  -4.304  1.00 20.00     0.025 C 
HETATM    4  C4  UNL     1     -33.162  15.799  -3.582  1.00 20.00     0.029 C 
HETATM    5  C5  UNL     1     -33.789  16.521  -2.386  1.00 20.00    -0.013 C 
HETATM    6  C6  UNL     1     -34.360  15.307  -4.406  1.00 20.00     0.049 C 
HETATM    7  N11 UNL     1     -33.663  14.859  -6.906  1.00 20.00    -0.196 NA
ENDROOT
BRANCH   6   8
HETATM    8  C10 UNL     1     -34.978  14.033  -3.814  1.00 20.00     0.020 C 
HETATM    9  C8  UNL     1     -36.215  13.632  -4.547  1.00 20.00     0.007 C 
ENDBRANCH   6   8
BRANCH   5  10
HETATM   10  C9  UNL     1     -32.877  17.588  -1.800  1.00 20.00     0.000 C 
HETATM   11  C7  UNL     1     -33.404  18.126  -0.508  1.00 20.00     0.005 C 
ENDBRANCH   5  10
TORSDOF 2
ENDMDL
MODEL 8
REMARK VINA RESULT:      -4.2      1.728      2.484
REMARK  2 active torsions:
REMARK  status: ('A' for Active; 'I' for Inactive)
REMARK    1  A    between atoms: C5_5  and  C9_9 
REMARK    2  A    between atoms: C6_6  and  C10_10 
ROOT
HETATM    1  C1  UNL     1     -36.607  15.845  -6.451  1.00 20.00     0.069 C 
HETATM    2  C2  UNL     1     -34.512  14.253  -3.822  1.00 20.00     0.006 C 
HETATM    3  C3  UNL     1     -35.619  14.200  -4.879  1.00 20.00     0.025 C 
HETATM    4  C4  UNL     1     -34.804  16.440  -4.857  1.00 20.00     0.029 C 
HETATM    5  C5  UNL     1     -33.894  15.655  -3.908  1.00 20.00    -0.013 C 
HETATM    6  C6  UNL     1     -35.358  15.382  -5.822  1.00 20.00     0.049 C 
HETATM    7  N11 UNL     1     -37.590  16.210  -6.947  1.00 20.00    -0.196 NA
ENDROOT
BRANCH   6   8
HETATM    8  C10 UNL     1     -34.344  15.015  -6.913  1.00 20.00     0.020 C 
HETATM    9  C8  UNL     1     -34.034  16.183  -7.790  1.00 20.00     0.007 C 
ENDBRANCH   6   8
BRANCH   5  10
HETATM   10  C9  UNL     1     -33.744  16.325  -2.550  1.00 20.00     0.000 C 
HETATM   11  C7  UNL     1     -35.020  16.297  -1.770  1.00 20.00     0.005 C 
ENDBRANCH   5  10
TORSDOF 2
ENDMDL
MODEL 9
REMARK VINA RESULT:      -4.0      2.383      4.526
REMARK  2 active torsions:
REMARK  status: ('A' for Active; 'I' for Inactive)
REMARK    1  A    between atoms: C5_5  and  C9_9 
REMARK    2  A    between atoms: C6_6  and  C10_10 
ROOT
HETATM    1  C1  UNL     1     -32.921  17.323  -2.372  1.00 20.00     0.069 C 
HETATM    2  C2  UNL     1     -33.728  14.850  -5.029  1.00 20.00     0.006 C 
HETATM    3  C3  UNL     1     -32.970  15.274  -3.768  1.00 20.00     0.025 C 
HETATM    4  C4  UNL     1     -34.327  17.128  -4.403  1.00 20.00     0.029 C 
HETATM    5  C5  UNL     1     -34.703  15.989  -5.355  1.00 20.00    -0.013 C 
HETATM    6  C6  UNL     1     -33.783  16.421  -3.154  1.00 20.00     0.049 C 
HETATM    7  N11 UNL     1     -32.241  18.034  -1.755  1.00 20.00    -0.196 NA
ENDROOT
BRANCH   6   8
HETATM    8  C10 UNL     1     -34.910  15.891  -2.258  1.00 20.00     0.020 C 
HETATM    9  C8  UNL     1     -35.539  16.987  -1.462  1.00 20.00     0.007 C 
ENDBRANCH   6   8
BRANCH   5  10
HETATM   10  C9  UNL     1     -34.664  16.408  -6.817  1.00 20.00     0.000 C 
HETATM   11  C7  UNL     1     -33.971  15.394  -7.671  1.00 20.00     0.005 C 
ENDBRANCH   5  10
TORSDOF 2
ENDMDL
