MODEL 1
REMARK VINA RESULT:      -5.6      0.000      0.000
REMARK  3 active torsions:
REMARK  status: ('A' for Active; 'I' for Inactive)
REMARK    1  A    between atoms: C1_1  and  C7_7 
REMARK    2  A    between atoms: C1_1  and  C9_9 
REMARK    3  A    between atoms: C8_8  and  C9_9 
ROOT
HETATM    1  C1  UNL     1     -33.114   6.115   2.776  1.00 20.00     0.155 C 
HETATM    2  O10 UNL     1     -32.930   4.936   2.477  1.00 20.00    -0.295 OA
ENDROOT
BRANCH   1   3
HETATM    3  C7  UNL     1     -34.093   6.497   3.835  1.00 20.00     0.190 C 
HETATM    4  C3  UNL     1     -33.425   6.927   5.128  1.00 20.00     0.042 C 
HETATM    5  C2  UNL     1     -34.345   6.349   6.174  1.00 20.00     0.029 C 
HETATM    6  C6  UNL     1     -34.778   5.054   5.527  1.00 20.00     0.168 C 
HETATM    7  O11 UNL     1     -34.856   5.317   4.119  1.00 20.00    -0.378 OA
ENDBRANCH   1   3
BRANCH   1   8
HETATM    8  C9  UNL     1     -32.375   7.259   2.106  1.00 20.00     0.085 C 
BRANCH   8   9
HETATM    9  C8  UNL     1     -33.288   8.129   1.260  1.00 20.00    -0.007 A 
HETATM   10  C4  UNL     1     -32.828   9.486   0.801  1.00 20.00     0.005 A 
HETATM   11  C5  UNL     1     -32.976   8.366  -0.191  1.00 20.00     0.005 A 
ENDBRANCH   8   9
ENDBRANCH   1   8
TORSDOF 3
ENDMDL
MODEL 2
REMARK VINA RESULT:      -4.8     10.580     11.592
REMARK  3 active torsions:
REMARK  status: ('A' for Active; 'I' for Inactive)
REMARK    1  A    between atoms: C1_1  and  C7_7 
REMARK    2  A    between atoms: C1_1  and  C9_9 
REMARK    3  A    between atoms: C8_8  and  C9_9 
ROOT
HETATM    1  C1  UNL     1     -35.065  14.027  -4.436  1.00 20.00     0.155 C 
HETATM    2  O10 UNL     1     -34.794  12.904  -4.011  1.00 20.00    -0.295 OA
ENDROOT
BRANCH   1   3
HETATM    3  C7  UNL     1     -36.319  14.277  -5.204  1.00 20.00     0.190 C 
HETATM    4  C3  UNL     1     -36.596  15.754  -5.414  1.00 20.00     0.042 C 
HETATM    5  C2  UNL     1     -38.095  15.824  -5.271  1.00 20.00     0.029 C 
HETATM    6  C6  UNL     1     -38.356  14.788  -4.202  1.00 20.00     0.168 C 
HETATM    7  O11 UNL     1     -37.388  13.750  -4.409  1.00 20.00    -0.378 OA
ENDBRANCH   1   3
BRANCH   1   8
HETATM    8  C9  UNL     1     -34.163  15.228  -4.219  1.00 20.00     0.085 C 
BRANCH   8   9
HETATM    9  C8  UNL     1     -34.026  15.598  -2.753  1.00 20.00    -0.007 A 
HETATM   10  C4  UNL     1     -33.997  17.044  -2.338  1.00 20.00     0.005 A 
HETATM   11  C5  UNL     1     -35.191  16.191  -2.011  1.00 20.00     0.005 A 
ENDBRANCH   8   9
ENDBRANCH   1   8
TORSDOF 3
ENDMDL
MODEL 3
REMARK VINA RESULT:      -4.6     10.606     12.535
REMARK  3 active torsions:
REMARK  status: ('A' for Active; 'I' for Inactive)
REMARK    1  A    between atoms: C1_1  and  C7_7 
REMARK    2  A    between atoms: C1_1  and  C9_9 
REMARK    3  A    between atoms: C8_8  and  C9_9 
ROOT
HETATM    1  C1  UNL     1     -35.939  13.990  -4.881  1.00 20.00     0.155 C 
HETATM    2  O10 UNL     1     -35.991  12.801  -4.569  1.00 20.00    -0.295 OA
ENDROOT
BRANCH   1   3
HETATM    3  C7  UNL     1     -35.731  14.406  -6.299  1.00 20.00     0.190 C 
HETATM    4  C3  UNL     1     -34.373  15.040  -6.533  1.00 20.00     0.042 C 
HETATM    5  C2  UNL     1     -34.694  16.133  -7.521  1.00 20.00     0.029 C 
HETATM    6  C6  UNL     1     -36.063  16.579  -7.059  1.00 20.00     0.168 C 
HETATM    7  O11 UNL     1     -36.723  15.403  -6.574  1.00 20.00    -0.378 OA
ENDBRANCH   1   3
BRANCH   1   8
HETATM    8  C9  UNL     1     -36.079  15.112  -3.869  1.00 20.00     0.085 C 
BRANCH   8   9
HETATM    9  C8  UNL     1     -34.896  15.194  -2.920  1.00 20.00    -0.007 A 
HETATM   10  C4  UNL     1     -33.900  16.314  -3.048  1.00 20.00     0.005 A 
HETATM   11  C5  UNL     1     -34.839  16.273  -1.875  1.00 20.00     0.005 A 
ENDBRANCH   8   9
ENDBRANCH   1   8
TORSDOF 3
ENDMDL
MODEL 4
REMARK VINA RESULT:      -4.5     10.385     11.685
REMARK  3 active torsions:
REMARK  status: ('A' for Active; 'I' for Inactive)
REMARK    1  A    between atoms: C1_1  and  C7_7 
REMARK    2  A    between atoms: C1_1  and  C9_9 
REMARK    3  A    between atoms: C8_8  and  C9_9 
ROOT
HETATM    1  C1  UNL     1     -35.727  13.974  -4.538  1.00 20.00     0.155 C 
HETATM    2  O10 UNL     1     -35.965  12.781  -4.720  1.00 20.00    -0.295 OA
ENDROOT
BRANCH   1   3
HETATM    3  C7  UNL     1     -34.905  14.426  -3.378  1.00 20.00     0.190 C 
HETATM    4  C3  UNL     1     -35.359  15.761  -2.818  1.00 20.00     0.042 C 
HETATM    5  C2  UNL     1     -34.052  16.422  -2.461  1.00 20.00     0.029 C 
HETATM    6  C6  UNL     1     -33.143  15.933  -3.565  1.00 20.00     0.168 C 
HETATM    7  O11 UNL     1     -33.572  14.601  -3.875  1.00 20.00    -0.378 OA
ENDBRANCH   1   3
BRANCH   1   8
HETATM    8  C9  UNL     1     -36.241  15.066  -5.458  1.00 20.00     0.085 C 
BRANCH   8   9
HETATM    9  C8  UNL     1     -35.668  14.964  -6.861  1.00 20.00    -0.007 A 
HETATM   10  C4  UNL     1     -35.113  16.185  -7.541  1.00 20.00     0.005 A 
HETATM   11  C5  UNL     1     -34.187  15.092  -7.085  1.00 20.00     0.005 A 
ENDBRANCH   8   9
ENDBRANCH   1   8
TORSDOF 3
ENDMDL
MODEL 5
REMARK VINA RESULT:      -4.4     15.197     16.450
REMARK  3 active torsions:
REMARK  status: ('A' for Active; 'I' for Inactive)
REMARK    1  A    between atoms: C1_1  and  C7_7 
REMARK    2  A    between atoms: C1_1  and  C9_9 
REMARK    3  A    between atoms: C8_8  and  C9_9 
ROOT
HETATM    1  C1  UNL     1     -23.207  18.299   8.250  1.00 20.00     0.155 C 
HETATM    2  O10 UNL     1     -22.738  17.407   7.544  1.00 20.00    -0.295 OA
ENDROOT
BRANCH   1   3
HETATM    3  C7  UNL     1     -24.208  19.263   7.707  1.00 20.00     0.190 C 
HETATM    4  C3  UNL     1     -25.635  18.898   8.074  1.00 20.00     0.042 C 
HETATM    5  C2  UNL     1     -26.392  19.262   6.822  1.00 20.00     0.029 C 
HETATM    6  C6  UNL     1     -25.399  18.904   5.741  1.00 20.00     0.168 C 
HETATM    7  O11 UNL     1     -24.101  19.191   6.280  1.00 20.00    -0.378 OA
ENDBRANCH   1   3
BRANCH   1   8
HETATM    8  C9  UNL     1     -22.813  18.491   9.703  1.00 20.00     0.085 C 
BRANCH   8   9
HETATM    9  C8  UNL     1     -22.918  17.210  10.511  1.00 20.00    -0.007 A 
HETATM   10  C4  UNL     1     -23.170  17.269  11.993  1.00 20.00     0.005 A 
HETATM   11  C5  UNL     1     -24.245  16.773  11.066  1.00 20.00     0.005 A 
ENDBRANCH   8   9
ENDBRANCH   1   8
TORSDOF 3
ENDMDL
MODEL 6
REMARK VINA RESULT:      -4.2     10.661     11.978
REMARK  3 active torsions:
REMARK  status: ('A' for Active; 'I' for Inactive)
REMARK    1  A    between atoms: C1_1  and  C7_7 
REMARK    2  A    between atoms: C1_1  and  C9_9 
REMARK    3  A    between atoms: C8_8  and  C9_9 
ROOT
HETATM    1  C1  UNL     1     -36.575  14.603  -4.365  1.00 20.00     0.155 C 
HETATM    2  O10 UNL     1     -37.265  13.593  -4.498  1.00 20.00    -0.295 OA
ENDROOT
BRANCH   1   3
HETATM    3  C7  UNL     1     -35.326  14.581  -3.549  1.00 20.00     0.190 C 
HETATM    4  C3  UNL     1     -34.713  15.958  -3.375  1.00 20.00     0.042 C 
HETATM    5  C2  UNL     1     -33.236  15.664  -3.451  1.00 20.00     0.029 C 
HETATM    6  C6  UNL     1     -33.192  14.550  -4.472  1.00 20.00     0.168 C 
HETATM    7  O11 UNL     1     -34.386  13.782  -4.277  1.00 20.00    -0.378 OA
ENDBRANCH   1   3
BRANCH   1   8
HETATM    8  C9  UNL     1     -36.930  15.932  -5.008  1.00 20.00     0.085 C 
BRANCH   8   9
HETATM    9  C8  UNL     1     -36.808  15.900  -6.521  1.00 20.00    -0.007 A 
HETATM   10  C4  UNL     1     -35.765  16.734  -7.213  1.00 20.00     0.005 A 
HETATM   11  C5  UNL     1     -35.625  15.237  -7.170  1.00 20.00     0.005 A 
ENDBRANCH   8   9
ENDBRANCH   1   8
TORSDOF 3
ENDMDL
MODEL 7
REMARK VINA RESULT:      -4.2     14.949     15.757
REMARK  3 active torsions:
REMARK  status: ('A' for Active; 'I' for Inactive)
REMARK    1  A    between atoms: C1_1  and  C7_7 
REMARK    2  A    between atoms: C1_1  and  C9_9 
REMARK    3  A    between atoms: C8_8  and  C9_9 
ROOT
HETATM    1  C1  UNL     1     -24.114  18.779   8.123  1.00 20.00     0.155 C 
HETATM    2  O10 UNL     1     -23.369  18.461   7.197  1.00 20.00    -0.295 OA
ENDROOT
BRANCH   1   3
HETATM    3  C7  UNL     1     -23.655  18.704   9.541  1.00 20.00     0.190 C 
HETATM    4  C3  UNL     1     -22.781  17.495   9.814  1.00 20.00     0.042 C 
HETATM    5  C2  UNL     1     -23.221  17.085  11.197  1.00 20.00     0.029 C 
HETATM    6  C6  UNL     1     -24.699  17.400  11.160  1.00 20.00     0.168 C 
HETATM    7  O11 UNL     1     -24.837  18.567  10.339  1.00 20.00    -0.378 OA
ENDBRANCH   1   3
BRANCH   1   8
HETATM    8  C9  UNL     1     -25.536  19.262   7.905  1.00 20.00     0.085 C 
BRANCH   8   9
HETATM    9  C8  UNL     1     -26.198  18.609   6.706  1.00 20.00    -0.007 A 
HETATM   10  C4  UNL     1     -27.434  19.216   6.099  1.00 20.00     0.005 A 
HETATM   11  C5  UNL     1     -26.129  19.263   5.354  1.00 20.00     0.005 A 
ENDBRANCH   8   9
ENDBRANCH   1   8
TORSDOF 3
ENDMDL
MODEL 8
REMARK VINA RESULT:      -4.1     10.826     12.169
REMARK  3 active torsions:
REMARK  status: ('A' for Active; 'I' for Inactive)
REMARK    1  A    between atoms: C1_1  and  C7_7 
REMARK    2  A    between atoms: C1_1  and  C9_9 
REMARK    3  A    between atoms: C8_8  and  C9_9 
ROOT
HETATM    1  C1  UNL     1     -37.041  14.695  -4.657  1.00 20.00     0.155 C 
HETATM    2  O10 UNL     1     -37.305  13.513  -4.445  1.00 20.00    -0.295 OA
ENDROOT
BRANCH   1   3
HETATM    3  C7  UNL     1     -38.125  15.702  -4.856  1.00 20.00     0.190 C 
HETATM    4  C3  UNL     1     -38.199  16.716  -3.729  1.00 20.00     0.042 C 
HETATM    5  C2  UNL     1     -39.685  16.922  -3.580  1.00 20.00     0.029 C 
HETATM    6  C6  UNL     1     -40.223  15.539  -3.864  1.00 20.00     0.168 C 
HETATM    7  O11 UNL     1     -39.357  14.970  -4.855  1.00 20.00    -0.378 OA
ENDBRANCH   1   3
BRANCH   1   8
HETATM    8  C9  UNL     1     -35.619  15.220  -4.735  1.00 20.00     0.085 C 
BRANCH   8   9
HETATM    9  C8  UNL     1     -34.829  14.955  -3.466  1.00 20.00    -0.007 A 
HETATM   10  C4  UNL     1     -33.675  15.845  -3.094  1.00 20.00     0.005 A 
HETATM   11  C5  UNL     1     -34.946  15.888  -2.293  1.00 20.00     0.005 A 
ENDBRANCH   8   9
ENDBRANCH   1   8
TORSDOF 3
ENDMDL
MODEL 9
REMARK VINA RESULT:      -4.1     10.751     12.512
REMARK  3 active torsions:
REMARK  status: ('A' for Active; 'I' for Inactive)
REMARK    1  A    between atoms: C1_1  and  C7_7 
REMARK    2  A    between atoms: C1_1  and  C9_9 
REMARK    3  A    between atoms: C8_8  and  C9_9 
ROOT
HETATM    1  C1  UNL     1     -36.800  14.609  -4.814  1.00 20.00     0.155 C 
HETATM    2  O10 UNL     1     -37.389  13.604  -4.419  1.00 20.00    -0.295 OA
ENDROOT
BRANCH   1   3
HETATM    3  C7  UNL     1     -37.550  15.847  -5.178  1.00 20.00     0.190 C 
HETATM    4  C3  UNL     1     -36.644  16.961  -5.668  1.00 20.00     0.042 C 
HETATM    5  C2  UNL     1     -37.293  18.187  -5.076  1.00 20.00     0.029 C 
HETATM    6  C6  UNL     1     -37.790  17.666  -3.748  1.00 20.00     0.168 C 
HETATM    7  O11 UNL     1     -38.177  16.304  -3.973  1.00 20.00    -0.378 OA
ENDBRANCH   1   3
BRANCH   1   8
HETATM    8  C9  UNL     1     -35.291  14.674  -4.963  1.00 20.00     0.085 C 
BRANCH   8   9
HETATM    9  C8  UNL     1     -34.572  14.664  -3.626  1.00 20.00    -0.007 A 
HETATM   10  C4  UNL     1     -33.595  15.756  -3.285  1.00 20.00     0.005 A 
HETATM   11  C5  UNL     1     -34.917  15.681  -2.573  1.00 20.00     0.005 A 
ENDBRANCH   8   9
ENDBRANCH   1   8
TORSDOF 3
ENDMDL
