MODEL 1
REMARK VINA RESULT:      -5.1      0.000      0.000
REMARK  5 active torsions:
REMARK  status: ('A' for Active; 'I' for Inactive)
REMARK    1  A    between atoms: C1_1  and  C6_6 
REMARK    2  A    between atoms: C1_1  and  C10_10 
REMARK    3  A    between atoms: C7_7  and  C11_11 
REMARK    4  A    between atoms: C10_10  and  C13_13 
REMARK    5  A    between atoms: C12_12  and  C13_13 
ROOT
HETATM    1  C2  UNL     1     -35.450  17.192  -1.127  1.00 20.00     0.001 C 
HETATM    2  C3  UNL     1     -34.262  17.782  -0.370  1.00 20.00     0.012 C 
HETATM    3  C4  UNL     1     -35.021  16.044  -2.039  1.00 20.00     0.005 C 
HETATM    4  C5  UNL     1     -32.715  17.061  -2.232  1.00 20.00     0.016 C 
HETATM    5  C6  UNL     1     -33.157  18.208  -1.328  1.00 20.00     0.056 C 
HETATM    6  C7  UNL     1     -33.904  16.469  -3.002  1.00 20.00    -0.014 C 
ENDROOT
BRANCH   5   7
HETATM    7  C1  UNL     1     -31.961  18.622  -0.492  1.00 20.00     0.131 C 
HETATM    8  O14 UNL     1     -30.797  18.455  -0.874  1.00 20.00    -0.298 OA
BRANCH   7   9
HETATM    9  C10 UNL     1     -32.268  19.262   0.855  1.00 20.00     0.079 C 
BRANCH   9  10
HETATM   10  C13 UNL     1     -31.541  18.583   2.013  1.00 20.00     0.007 C 
BRANCH  10  11
HETATM   11  C12 UNL     1     -32.515  17.815   2.906  1.00 20.00    -0.004 C 
HETATM   12  C9  UNL     1     -33.751  18.642   3.222  1.00 20.00     0.005 C 
ENDBRANCH  10  11
ENDBRANCH   9  10
ENDBRANCH   7   9
ENDBRANCH   5   7
BRANCH   6  13
HETATM   13  C11 UNL     1     -33.457  15.290  -3.865  1.00 20.00     0.000 C 
HETATM   14  C8  UNL     1     -34.514  14.239  -3.953  1.00 20.00     0.005 C 
ENDBRANCH   6  13
TORSDOF 5
ENDMDL
MODEL 2
REMARK VINA RESULT:      -5.0      3.547      6.583
REMARK  5 active torsions:
REMARK  status: ('A' for Active; 'I' for Inactive)
REMARK    1  A    between atoms: C1_1  and  C6_6 
REMARK    2  A    between atoms: C1_1  and  C10_10 
REMARK    3  A    between atoms: C7_7  and  C11_11 
REMARK    4  A    between atoms: C10_10  and  C13_13 
REMARK    5  A    between atoms: C12_12  and  C13_13 
ROOT
HETATM    1  C2  UNL     1     -37.484  17.075  -3.324  1.00 20.00     0.001 C 
HETATM    2  C3  UNL     1     -37.206  15.961  -4.330  1.00 20.00     0.012 C 
HETATM    3  C4  UNL     1     -36.193  17.621  -2.719  1.00 20.00     0.005 C 
HETATM    4  C5  UNL     1     -35.067  15.392  -3.111  1.00 20.00     0.016 C 
HETATM    5  C6  UNL     1     -36.365  14.854  -3.706  1.00 20.00     0.056 C 
HETATM    6  C7  UNL     1     -35.343  16.507  -2.093  1.00 20.00    -0.014 C 
ENDROOT
BRANCH   5   7
HETATM    7  C1  UNL     1     -35.997  13.880  -4.809  1.00 20.00     0.131 C 
HETATM    8  O14 UNL     1     -35.843  12.672  -4.601  1.00 20.00    -0.298 OA
BRANCH   7   9
HETATM    9  C10 UNL     1     -35.827  14.472  -6.202  1.00 20.00     0.079 C 
BRANCH   9  10
HETATM   10  C13 UNL     1     -34.403  14.952  -6.472  1.00 20.00     0.007 C 
BRANCH  10  11
HETATM   11  C12 UNL     1     -34.398  16.321  -7.152  1.00 20.00    -0.004 C 
HETATM   12  C9  UNL     1     -34.422  17.449  -6.133  1.00 20.00     0.005 C 
ENDBRANCH  10  11
ENDBRANCH   9  10
ENDBRANCH   7   9
ENDBRANCH   5   7
BRANCH   6  13
HETATM   13  C11 UNL     1     -34.034  17.072  -1.542  1.00 20.00     0.000 C 
HETATM   14  C8  UNL     1     -32.954  17.068  -2.574  1.00 20.00     0.005 C 
ENDBRANCH   6  13
TORSDOF 5
ENDMDL
MODEL 3
REMARK VINA RESULT:      -4.9      2.038      3.498
REMARK  5 active torsions:
REMARK  status: ('A' for Active; 'I' for Inactive)
REMARK    1  A    between atoms: C1_1  and  C6_6 
REMARK    2  A    between atoms: C1_1  and  C10_10 
REMARK    3  A    between atoms: C7_7  and  C11_11 
REMARK    4  A    between atoms: C10_10  and  C13_13 
REMARK    5  A    between atoms: C12_12  and  C13_13 
ROOT
HETATM    1  C2  UNL     1     -32.806  15.067  -4.124  1.00 20.00     0.001 C 
HETATM    2  C3  UNL     1     -33.134  16.259  -3.227  1.00 20.00     0.012 C 
HETATM    3  C4  UNL     1     -34.034  14.589  -4.894  1.00 20.00     0.005 C 
HETATM    4  C5  UNL     1     -35.529  15.475  -3.059  1.00 20.00     0.016 C 
HETATM    5  C6  UNL     1     -34.295  15.941  -2.293  1.00 20.00     0.056 C 
HETATM    6  C7  UNL     1     -35.206  14.272  -3.956  1.00 20.00    -0.014 C 
ENDROOT
BRANCH   5   7
HETATM    7  C1  UNL     1     -34.661  17.220  -1.565  1.00 20.00     0.131 C 
HETATM    8  O14 UNL     1     -35.719  17.346  -0.940  1.00 20.00    -0.298 OA
BRANCH   7   9
HETATM    9  C10 UNL     1     -33.647  18.353  -1.640  1.00 20.00     0.079 C 
BRANCH   9  10
HETATM   10  C13 UNL     1     -32.913  18.581  -0.321  1.00 20.00     0.007 C 
BRANCH  10  11
HETATM   11  C12 UNL     1     -31.408  18.363  -0.477  1.00 20.00    -0.004 C 
HETATM   12  C9  UNL     1     -30.728  18.188   0.872  1.00 20.00     0.005 C 
ENDBRANCH  10  11
ENDBRANCH   9  10
ENDBRANCH   7   9
ENDBRANCH   5   7
BRANCH   6  13
HETATM   13  C11 UNL     1     -36.438  13.847  -4.755  1.00 20.00     0.000 C 
HETATM   14  C8  UNL     1     -37.662  14.580  -4.313  1.00 20.00     0.005 C 
ENDBRANCH   6  13
TORSDOF 5
ENDMDL
MODEL 4
REMARK VINA RESULT:      -4.9      2.785      6.099
REMARK  5 active torsions:
REMARK  status: ('A' for Active; 'I' for Inactive)
REMARK    1  A    between atoms: C1_1  and  C6_6 
REMARK    2  A    between atoms: C1_1  and  C10_10 
REMARK    3  A    between atoms: C7_7  and  C11_11 
REMARK    4  A    between atoms: C10_10  and  C13_13 
REMARK    5  A    between atoms: C12_12  and  C13_13 
ROOT
HETATM    1  C2  UNL     1     -35.967  17.194  -1.913  1.00 20.00     0.001 C 
HETATM    2  C3  UNL     1     -35.864  16.110  -2.984  1.00 20.00     0.012 C 
HETATM    3  C4  UNL     1     -34.763  18.132  -1.945  1.00 20.00     0.005 C 
HETATM    4  C5  UNL     1     -33.345  16.278  -2.913  1.00 20.00     0.016 C 
HETATM    5  C6  UNL     1     -34.551  15.345  -2.867  1.00 20.00     0.056 C 
HETATM    6  C7  UNL     1     -33.440  17.364  -1.832  1.00 20.00    -0.014 C 
ENDROOT
BRANCH   5   7
HETATM    7  C1  UNL     1     -34.458  14.412  -4.060  1.00 20.00     0.131 C 
HETATM    8  O14 UNL     1     -34.979  13.293  -4.066  1.00 20.00    -0.298 OA
BRANCH   7   9
HETATM    9  C10 UNL     1     -33.682  14.931  -5.263  1.00 20.00     0.079 C 
BRANCH   9  10
HETATM   10  C13 UNL     1     -34.533  15.004  -6.529  1.00 20.00     0.007 C 
BRANCH  10  11
HETATM   11  C12 UNL     1     -35.332  16.306  -6.586  1.00 20.00    -0.004 C 
HETATM   12  C9  UNL     1     -34.469  17.506  -6.228  1.00 20.00     0.005 C 
ENDBRANCH  10  11
ENDBRANCH   9  10
ENDBRANCH   7   9
ENDBRANCH   5   7
BRANCH   6  13
HETATM   13  C11 UNL     1     -32.251  18.320  -1.921  1.00 20.00     0.000 C 
HETATM   14  C8  UNL     1     -31.485  18.368  -0.640  1.00 20.00     0.005 C 
ENDBRANCH   6  13
TORSDOF 5
ENDMDL
MODEL 5
REMARK VINA RESULT:      -4.8      2.076      5.748
REMARK  5 active torsions:
REMARK  status: ('A' for Active; 'I' for Inactive)
REMARK    1  A    between atoms: C1_1  and  C6_6 
REMARK    2  A    between atoms: C1_1  and  C10_10 
REMARK    3  A    between atoms: C7_7  and  C11_11 
REMARK    4  A    between atoms: C10_10  and  C13_13 
REMARK    5  A    between atoms: C12_12  and  C13_13 
ROOT
HETATM    1  C2  UNL     1     -35.223  17.094  -0.507  1.00 20.00     0.001 C 
HETATM    2  C3  UNL     1     -35.259  16.613  -1.955  1.00 20.00     0.012 C 
HETATM    3  C4  UNL     1     -34.248  18.255  -0.324  1.00 20.00     0.005 C 
HETATM    4  C5  UNL     1     -32.887  17.418  -2.283  1.00 20.00     0.016 C 
HETATM    5  C6  UNL     1     -33.862  16.257  -2.451  1.00 20.00     0.056 C 
HETATM    6  C7  UNL     1     -32.841  17.900  -0.826  1.00 20.00    -0.014 C 
ENDROOT
BRANCH   5   7
HETATM    7  C1  UNL     1     -33.966  15.953  -3.933  1.00 20.00     0.131 C 
HETATM    8  O14 UNL     1     -34.165  16.834  -4.776  1.00 20.00    -0.298 OA
BRANCH   7   9
HETATM    9  C10 UNL     1     -33.809  14.493  -4.336  1.00 20.00     0.079 C 
BRANCH   9  10
HETATM   10  C13 UNL     1     -35.034  13.649  -3.994  1.00 20.00     0.007 C 
BRANCH  10  11
HETATM   11  C12 UNL     1     -36.178  13.907  -4.975  1.00 20.00    -0.004 C 
HETATM   12  C9  UNL     1     -37.388  14.507  -4.275  1.00 20.00     0.005 C 
ENDBRANCH  10  11
ENDBRANCH   9  10
ENDBRANCH   7   9
ENDBRANCH   5   7
BRANCH   6  13
HETATM   13  C11 UNL     1     -31.899  19.094  -0.681  1.00 20.00     0.000 C 
HETATM   14  C8  UNL     1     -30.949  18.913   0.456  1.00 20.00     0.005 C 
ENDBRANCH   6  13
TORSDOF 5
ENDMDL
MODEL 6
REMARK VINA RESULT:      -4.8      2.535      6.582
REMARK  5 active torsions:
REMARK  status: ('A' for Active; 'I' for Inactive)
REMARK    1  A    between atoms: C1_1  and  C6_6 
REMARK    2  A    between atoms: C1_1  and  C10_10 
REMARK    3  A    between atoms: C7_7  and  C11_11 
REMARK    4  A    between atoms: C10_10  and  C13_13 
REMARK    5  A    between atoms: C12_12  and  C13_13 
ROOT
HETATM    1  C2  UNL     1     -32.799  17.238  -2.924  1.00 20.00     0.001 C 
HETATM    2  C3  UNL     1     -33.109  15.882  -3.554  1.00 20.00     0.012 C 
HETATM    3  C4  UNL     1     -33.413  17.365  -1.532  1.00 20.00     0.005 C 
HETATM    4  C5  UNL     1     -35.225  15.727  -2.183  1.00 20.00     0.016 C 
HETATM    5  C6  UNL     1     -34.609  15.616  -3.574  1.00 20.00     0.056 C 
HETATM    6  C7  UNL     1     -34.923  17.093  -1.549  1.00 20.00    -0.014 C 
ENDROOT
BRANCH   5   7
HETATM    7  C1  UNL     1     -34.815  14.192  -4.056  1.00 20.00     0.131 C 
HETATM    8  O14 UNL     1     -33.947  13.322  -3.937  1.00 20.00    -0.298 OA
BRANCH   7   9
HETATM    9  C10 UNL     1     -36.161  13.885  -4.698  1.00 20.00     0.079 C 
BRANCH   9  10
HETATM   10  C13 UNL     1     -36.557  14.907  -5.761  1.00 20.00     0.007 C 
BRANCH  10  11
HETATM   11  C12 UNL     1     -35.646  14.816  -6.986  1.00 20.00    -0.004 C 
HETATM   12  C9  UNL     1     -34.905  16.122  -7.227  1.00 20.00     0.005 C 
ENDBRANCH  10  11
ENDBRANCH   9  10
ENDBRANCH   7   9
ENDBRANCH   5   7
BRANCH   6  13
HETATM   13  C11 UNL     1     -35.502  17.173  -0.137  1.00 20.00     0.000 C 
HETATM   14  C8  UNL     1     -34.567  17.858   0.805  1.00 20.00     0.005 C 
ENDBRANCH   6  13
TORSDOF 5
ENDMDL
MODEL 7
REMARK VINA RESULT:      -4.7      1.547      5.649
REMARK  5 active torsions:
REMARK  status: ('A' for Active; 'I' for Inactive)
REMARK    1  A    between atoms: C1_1  and  C6_6 
REMARK    2  A    between atoms: C1_1  and  C10_10 
REMARK    3  A    between atoms: C7_7  and  C11_11 
REMARK    4  A    between atoms: C10_10  and  C13_13 
REMARK    5  A    between atoms: C12_12  and  C13_13 
ROOT
HETATM    1  C2  UNL     1     -31.025  18.601  -0.093  1.00 20.00     0.001 C 
HETATM    2  C3  UNL     1     -32.028  18.158  -1.157  1.00 20.00     0.012 C 
HETATM    3  C4  UNL     1     -31.459  18.165   1.304  1.00 20.00     0.005 C 
HETATM    4  C5  UNL     1     -33.876  18.202   0.565  1.00 20.00     0.016 C 
HETATM    5  C6  UNL     1     -33.432  18.647  -0.826  1.00 20.00     0.056 C 
HETATM    6  C7  UNL     1     -32.875  18.653   1.638  1.00 20.00    -0.014 C 
ENDROOT
BRANCH   5   7
HETATM    7  C1  UNL     1     -34.383  18.026  -1.832  1.00 20.00     0.131 C 
HETATM    8  O14 UNL     1     -34.818  18.652  -2.804  1.00 20.00    -0.298 OA
BRANCH   7   9
HETATM    9  C10 UNL     1     -34.775  16.576  -1.584  1.00 20.00     0.079 C 
BRANCH   9  10
HETATM   10  C13 UNL     1     -34.748  15.730  -2.855  1.00 20.00     0.007 C 
BRANCH  10  11
HETATM   11  C12 UNL     1     -33.346  15.685  -3.463  1.00 20.00    -0.004 C 
HETATM   12  C9  UNL     1     -33.196  14.523  -4.432  1.00 20.00     0.005 C 
ENDBRANCH  10  11
ENDBRANCH   9  10
ENDBRANCH   7   9
ENDBRANCH   5   7
BRANCH   6  13
HETATM   13  C11 UNL     1     -33.305  18.159   3.019  1.00 20.00     0.000 C 
HETATM   14  C8  UNL     1     -32.191  18.252   4.010  1.00 20.00     0.005 C 
ENDBRANCH   6  13
TORSDOF 5
ENDMDL
MODEL 8
REMARK VINA RESULT:      -4.5      4.382      6.573
REMARK  5 active torsions:
REMARK  status: ('A' for Active; 'I' for Inactive)
REMARK    1  A    between atoms: C1_1  and  C6_6 
REMARK    2  A    between atoms: C1_1  and  C10_10 
REMARK    3  A    between atoms: C7_7  and  C11_11 
REMARK    4  A    between atoms: C10_10  and  C13_13 
REMARK    5  A    between atoms: C12_12  and  C13_13 
ROOT
HETATM    1  C2  UNL     1     -33.991  15.656  -7.697  1.00 20.00     0.001 C 
HETATM    2  C3  UNL     1     -34.312  14.827  -6.456  1.00 20.00     0.012 C 
HETATM    3  C4  UNL     1     -34.559  17.070  -7.591  1.00 20.00     0.005 C 
HETATM    4  C5  UNL     1     -36.381  16.222  -6.057  1.00 20.00     0.016 C 
HETATM    5  C6  UNL     1     -35.811  14.812  -6.178  1.00 20.00     0.056 C 
HETATM    6  C7  UNL     1     -36.067  17.057  -7.307  1.00 20.00    -0.014 C 
ENDROOT
BRANCH   5   7
HETATM    7  C1  UNL     1     -36.023  14.114  -4.848  1.00 20.00     0.131 C 
HETATM    8  O14 UNL     1     -37.089  13.566  -4.551  1.00 20.00    -0.298 OA
BRANCH   7   9
HETATM    9  C10 UNL     1     -34.842  14.121  -3.887  1.00 20.00     0.079 C 
BRANCH   9  10
HETATM   10  C13 UNL     1     -34.848  15.326  -2.950  1.00 20.00     0.007 C 
BRANCH  10  11
HETATM   11  C12 UNL     1     -33.525  16.089  -3.016  1.00 20.00    -0.004 C 
HETATM   12  C9  UNL     1     -33.668  17.387  -3.796  1.00 20.00     0.005 C 
ENDBRANCH  10  11
ENDBRANCH   9  10
ENDBRANCH   7   9
ENDBRANCH   5   7
BRANCH   6  13
HETATM   13  C11 UNL     1     -36.600  18.481  -7.152  1.00 20.00     0.000 C 
HETATM   14  C8  UNL     1     -36.900  18.806  -5.726  1.00 20.00     0.005 C 
ENDBRANCH   6  13
TORSDOF 5
ENDMDL
MODEL 9
REMARK VINA RESULT:      -4.4      1.984      2.903
REMARK  5 active torsions:
REMARK  status: ('A' for Active; 'I' for Inactive)
REMARK    1  A    between atoms: C1_1  and  C6_6 
REMARK    2  A    between atoms: C1_1  and  C10_10 
REMARK    3  A    between atoms: C7_7  and  C11_11 
REMARK    4  A    between atoms: C10_10  and  C13_13 
REMARK    5  A    between atoms: C12_12  and  C13_13 
ROOT
HETATM    1  C2  UNL     1     -32.981  18.138  -2.924  1.00 20.00     0.001 C 
HETATM    2  C3  UNL     1     -34.133  18.414  -1.960  1.00 20.00     0.012 C 
HETATM    3  C4  UNL     1     -33.309  16.992  -3.878  1.00 20.00     0.005 C 
HETATM    4  C5  UNL     1     -34.874  16.007  -2.155  1.00 20.00     0.016 C 
HETATM    5  C6  UNL     1     -34.532  17.152  -1.206  1.00 20.00     0.056 C 
HETATM    6  C7  UNL     1     -33.716  15.721  -3.121  1.00 20.00    -0.014 C 
ENDROOT
BRANCH   5   7
HETATM    7  C1  UNL     1     -35.779  17.473  -0.404  1.00 20.00     0.131 C 
HETATM    8  O14 UNL     1     -36.837  17.824  -0.938  1.00 20.00    -0.298 OA
BRANCH   7   9
HETATM    9  C10 UNL     1     -35.663  17.336   1.108  1.00 20.00     0.079 C 
BRANCH   9  10
HETATM   10  C13 UNL     1     -34.898  18.491   1.749  1.00 20.00     0.007 C 
BRANCH  10  11
HETATM   11  C12 UNL     1     -33.542  18.030   2.285  1.00 20.00    -0.004 C 
HETATM   12  C9  UNL     1     -32.402  18.503   1.396  1.00 20.00     0.005 C 
ENDBRANCH  10  11
ENDBRANCH   9  10
ENDBRANCH   7   9
ENDBRANCH   5   7
BRANCH   6  13
HETATM   13  C11 UNL     1     -34.089  14.607  -4.098  1.00 20.00     0.000 C 
HETATM   14  C8  UNL     1     -35.562  14.358  -4.114  1.00 20.00     0.005 C 
ENDBRANCH   6  13
TORSDOF 5
ENDMDL
