MODEL 1
REMARK VINA RESULT:      -4.1      0.000      0.000
REMARK  2 active torsions:
REMARK  status: ('A' for Active; 'I' for Inactive)
REMARK    1  A    between atoms: C2_2  and  C8_8 
REMARK    2  A    between atoms: C3_3  and  C5_5 
ROOT
HETATM    1  C1  UNL     1     -34.025  17.838  -0.600  1.00 20.00     0.080 A 
HETATM    2  C2  UNL     1     -32.866  17.862  -1.348  1.00 20.00     0.055 A 
HETATM    3  C3  UNL     1     -34.080  16.592  -2.661  1.00 20.00     0.080 A 
HETATM    4  N9  UNL     1     -32.895  17.148  -2.530  1.00 20.00    -0.248 NA
HETATM    5  S10 UNL     1     -35.206  16.887  -1.401  1.00 20.00    -0.084 SA
ENDROOT
BRANCH   3   6
HETATM    6  C5  UNL     1     -34.431  15.739  -3.858  1.00 20.00     0.049 A 
HETATM    7  C4  UNL     1     -33.515  14.614  -4.287  1.00 20.00     0.016 A 
HETATM    8  C6  UNL     1     -34.840  14.294  -3.662  1.00 20.00    -0.007 A 
HETATM    9  C7  UNL     1     -35.936  13.710  -4.485  1.00 20.00     0.011 C 
ENDBRANCH   3   6
BRANCH   2  10
HETATM   10  C8  UNL     1     -31.624  18.576  -0.990  1.00 20.00     0.174 C 
HETATM   11 CL11 UNL     1     -31.105  18.173   0.668  1.00 20.00    -0.124 Cl
ENDBRANCH   2  10
TORSDOF 2
ENDMDL
MODEL 2
REMARK VINA RESULT:      -3.9      1.504      1.866
REMARK  2 active torsions:
REMARK  status: ('A' for Active; 'I' for Inactive)
REMARK    1  A    between atoms: C2_2  and  C8_8 
REMARK    2  A    between atoms: C3_3  and  C5_5 
ROOT
HETATM    1  C1  UNL     1     -34.472  18.154   1.284  1.00 20.00     0.080 A 
HETATM    2  C2  UNL     1     -33.266  18.453   0.685  1.00 20.00     0.055 A 
HETATM    3  C3  UNL     1     -34.262  17.516  -1.030  1.00 20.00     0.080 A 
HETATM    4  N9  UNL     1     -33.143  18.088  -0.641  1.00 20.00    -0.248 NA
HETATM    5  S10 UNL     1     -35.503  17.386   0.149  1.00 20.00    -0.084 SA
ENDROOT
BRANCH   3   6
HETATM    6  C5  UNL     1     -34.447  17.002  -2.438  1.00 20.00     0.049 A 
HETATM    7  C4  UNL     1     -33.322  16.268  -3.135  1.00 20.00     0.016 A 
HETATM    8  C6  UNL     1     -34.539  15.512  -2.692  1.00 20.00    -0.007 A 
HETATM    9  C7  UNL     1     -35.501  14.984  -3.700  1.00 20.00     0.011 C 
ENDBRANCH   3   6
BRANCH   2  10
HETATM   10  C8  UNL     1     -32.121  19.118   1.338  1.00 20.00     0.174 C 
HETATM   11 CL11 UNL     1     -30.592  18.277   0.968  1.00 20.00    -0.124 Cl
ENDBRANCH   2  10
TORSDOF 2
ENDMDL
MODEL 3
REMARK VINA RESULT:      -3.9      2.544      5.205
REMARK  2 active torsions:
REMARK  status: ('A' for Active; 'I' for Inactive)
REMARK    1  A    between atoms: C2_2  and  C8_8 
REMARK    2  A    between atoms: C3_3  and  C5_5 
ROOT
HETATM    1  C1  UNL     1     -35.079  16.220  -1.962  1.00 20.00     0.080 A 
HETATM    2  C2  UNL     1     -33.867  16.242  -2.619  1.00 20.00     0.055 A 
HETATM    3  C3  UNL     1     -33.440  17.755  -1.089  1.00 20.00     0.080 A 
HETATM    4  N9  UNL     1     -32.926  17.122  -2.121  1.00 20.00    -0.248 NA
HETATM    5  S10 UNL     1     -35.050  17.341  -0.664  1.00 20.00    -0.084 SA
ENDROOT
BRANCH   3   6
HETATM    6  C5  UNL     1     -32.656  18.791  -0.319  1.00 20.00     0.049 A 
HETATM    7  C4  UNL     1     -33.083  19.187   1.077  1.00 20.00     0.016 A 
HETATM    8  C6  UNL     1     -31.836  18.377   0.886  1.00 20.00    -0.007 A 
HETATM    9  C7  UNL     1     -30.499  18.989   1.125  1.00 20.00     0.011 C 
ENDBRANCH   3   6
BRANCH   2  10
HETATM   10  C8  UNL     1     -33.505  15.417  -3.789  1.00 20.00     0.174 C 
HETATM   11 CL11 UNL     1     -34.564  13.988  -3.920  1.00 20.00    -0.124 Cl
ENDBRANCH   2  10
TORSDOF 2
ENDMDL
MODEL 4
REMARK VINA RESULT:      -3.8     10.940     11.817
REMARK  2 active torsions:
REMARK  status: ('A' for Active; 'I' for Inactive)
REMARK    1  A    between atoms: C2_2  and  C8_8 
REMARK    2  A    between atoms: C3_3  and  C5_5 
ROOT
HETATM    1  C1  UNL     1     -34.068   4.353   3.456  1.00 20.00     0.080 A 
HETATM    2  C2  UNL     1     -34.219   5.417   4.322  1.00 20.00     0.055 A 
HETATM    3  C3  UNL     1     -33.093   6.436   2.739  1.00 20.00     0.080 A 
HETATM    4  N9  UNL     1     -33.660   6.611   3.913  1.00 20.00    -0.248 NA
HETATM    5  S10 UNL     1     -33.195   4.860   2.070  1.00 20.00    -0.084 SA
ENDROOT
BRANCH   3   6
HETATM    6  C5  UNL     1     -32.389   7.562   2.018  1.00 20.00     0.049 A 
HETATM    7  C4  UNL     1     -31.981   7.403   0.570  1.00 20.00     0.016 A 
HETATM    8  C6  UNL     1     -33.109   8.325   0.925  1.00 20.00    -0.007 A 
HETATM    9  C7  UNL     1     -32.936   9.801   0.807  1.00 20.00     0.011 C 
ENDBRANCH   3   6
BRANCH   2  10
HETATM   10  C8  UNL     1     -34.915   5.377   5.623  1.00 20.00     0.174 C 
HETATM   11 CL11 UNL     1     -34.415   6.738   6.662  1.00 20.00    -0.124 Cl
ENDBRANCH   2  10
TORSDOF 2
ENDMDL
MODEL 5
REMARK VINA RESULT:      -3.8      2.507      3.188
REMARK  2 active torsions:
REMARK  status: ('A' for Active; 'I' for Inactive)
REMARK    1  A    between atoms: C2_2  and  C8_8 
REMARK    2  A    between atoms: C3_3  and  C5_5 
ROOT
HETATM    1  C1  UNL     1     -31.706  18.665   1.119  1.00 20.00     0.080 A 
HETATM    2  C2  UNL     1     -33.005  18.432   1.519  1.00 20.00     0.055 A 
HETATM    3  C3  UNL     1     -33.240  18.015  -0.622  1.00 20.00     0.080 A 
HETATM    4  N9  UNL     1     -33.886  18.060   0.523  1.00 20.00    -0.248 NA
HETATM    5  S10 UNL     1     -31.571  18.408  -0.572  1.00 20.00    -0.084 SA
ENDROOT
BRANCH   3   6
HETATM    6  C5  UNL     1     -33.930  17.637  -1.912  1.00 20.00     0.049 A 
HETATM    7  C4  UNL     1     -33.125  17.119  -3.083  1.00 20.00     0.016 A 
HETATM    8  C6  UNL     1     -34.016  16.182  -2.324  1.00 20.00    -0.007 A 
HETATM    9  C7  UNL     1     -35.261  15.657  -2.953  1.00 20.00     0.011 C 
ENDBRANCH   3   6
BRANCH   2  10
HETATM   10  C8  UNL     1     -33.516  18.548   2.899  1.00 20.00     0.174 C 
HETATM   11 CL11 UNL     1     -32.309  17.976   4.082  1.00 20.00    -0.124 Cl
ENDBRANCH   2  10
TORSDOF 2
ENDMDL
MODEL 6
REMARK VINA RESULT:      -3.8      1.917      2.461
REMARK  2 active torsions:
REMARK  status: ('A' for Active; 'I' for Inactive)
REMARK    1  A    between atoms: C2_2  and  C8_8 
REMARK    2  A    between atoms: C3_3  and  C5_5 
ROOT
HETATM    1  C1  UNL     1     -33.797  18.205  -1.188  1.00 20.00     0.080 A 
HETATM    2  C2  UNL     1     -34.759  17.264  -0.885  1.00 20.00     0.055 A 
HETATM    3  C3  UNL     1     -33.902  16.301  -2.660  1.00 20.00     0.080 A 
HETATM    4  N9  UNL     1     -34.821  16.172  -1.728  1.00 20.00    -0.248 NA
HETATM    5  S10 UNL     1     -32.928  17.711  -2.581  1.00 20.00    -0.084 SA
ENDROOT
BRANCH   3   6
HETATM    6  C5  UNL     1     -33.713  15.263  -3.742  1.00 20.00     0.049 A 
HETATM    7  C4  UNL     1     -34.751  14.184  -3.952  1.00 20.00     0.016 A 
HETATM    8  C6  UNL     1     -34.604  15.278  -4.967  1.00 20.00    -0.007 A 
HETATM    9  C7  UNL     1     -34.031  14.983  -6.310  1.00 20.00     0.011 C 
ENDBRANCH   3   6
BRANCH   2  10
HETATM   10  C8  UNL     1     -35.706  17.333   0.245  1.00 20.00     0.174 C 
HETATM   11 CL11 UNL     1     -34.916  17.974   1.709  1.00 20.00    -0.124 Cl
ENDBRANCH   2  10
TORSDOF 2
ENDMDL
MODEL 7
REMARK VINA RESULT:      -3.8      3.021      5.189
REMARK  2 active torsions:
REMARK  status: ('A' for Active; 'I' for Inactive)
REMARK    1  A    between atoms: C2_2  and  C8_8 
REMARK    2  A    between atoms: C3_3  and  C5_5 
ROOT
HETATM    1  C1  UNL     1     -33.140  16.104  -3.436  1.00 20.00     0.080 A 
HETATM    2  C2  UNL     1     -34.308  15.445  -3.115  1.00 20.00     0.055 A 
HETATM    3  C3  UNL     1     -34.421  17.057  -1.632  1.00 20.00     0.080 A 
HETATM    4  N9  UNL     1     -35.044  15.989  -2.080  1.00 20.00    -0.248 NA
HETATM    5  S10 UNL     1     -32.947  17.464  -2.409  1.00 20.00    -0.084 SA
ENDROOT
BRANCH   3   6
HETATM    6  C5  UNL     1     -34.975  17.882  -0.493  1.00 20.00     0.049 A 
HETATM    7  C4  UNL     1     -35.652  17.207   0.678  1.00 20.00     0.016 A 
HETATM    8  C6  UNL     1     -34.306  17.840   0.865  1.00 20.00    -0.007 A 
HETATM    9  C7  UNL     1     -34.169  19.087   1.668  1.00 20.00     0.011 C 
ENDBRANCH   3   6
BRANCH   2  10
HETATM   10  C8  UNL     1     -34.821  14.228  -3.776  1.00 20.00     0.174 C 
HETATM   11 CL11 UNL     1     -36.578  14.342  -4.060  1.00 20.00    -0.124 Cl
ENDBRANCH   2  10
TORSDOF 2
ENDMDL
MODEL 8
REMARK VINA RESULT:      -3.7      2.444      2.873
REMARK  2 active torsions:
REMARK  status: ('A' for Active; 'I' for Inactive)
REMARK    1  A    between atoms: C2_2  and  C8_8 
REMARK    2  A    between atoms: C3_3  and  C5_5 
ROOT
HETATM    1  C1  UNL     1     -32.559  18.715   0.528  1.00 20.00     0.080 A 
HETATM    2  C2  UNL     1     -33.846  18.293   0.788  1.00 20.00     0.055 A 
HETATM    3  C3  UNL     1     -33.705  17.652  -1.305  1.00 20.00     0.080 A 
HETATM    4  N9  UNL     1     -34.505  17.684  -0.261  1.00 20.00    -0.248 NA
HETATM    5  S10 UNL     1     -32.146  18.336  -1.093  1.00 20.00    -0.084 SA
ENDROOT
BRANCH   3   6
HETATM    6  C5  UNL     1     -34.134  17.044  -2.620  1.00 20.00     0.049 A 
HETATM    7  C4  UNL     1     -33.237  16.057  -3.333  1.00 20.00     0.016 A 
HETATM    8  C6  UNL     1     -34.504  15.577  -2.690  1.00 20.00    -0.007 A 
HETATM    9  C7  UNL     1     -35.651  15.135  -3.531  1.00 20.00     0.011 C 
ENDBRANCH   3   6
BRANCH   2  10
HETATM   10  C8  UNL     1     -34.558  18.439   2.073  1.00 20.00     0.174 C 
HETATM   11 CL11 UNL     1     -36.242  17.865   1.945  1.00 20.00    -0.124 Cl
ENDBRANCH   2  10
TORSDOF 2
ENDMDL
MODEL 9
REMARK VINA RESULT:      -3.6      3.251      5.738
REMARK  2 active torsions:
REMARK  status: ('A' for Active; 'I' for Inactive)
REMARK    1  A    between atoms: C2_2  and  C8_8 
REMARK    2  A    between atoms: C3_3  and  C5_5 
ROOT
HETATM    1  C1  UNL     1     -32.648  17.786  -1.970  1.00 20.00     0.080 A 
HETATM    2  C2  UNL     1     -33.926  17.481  -1.553  1.00 20.00     0.055 A 
HETATM    3  C3  UNL     1     -33.177  18.370   0.307  1.00 20.00     0.080 A 
HETATM    4  N9  UNL     1     -34.232  17.814  -0.248  1.00 20.00    -0.248 NA
HETATM    5  S10 UNL     1     -31.785  18.524  -0.684  1.00 20.00    -0.084 SA
ENDROOT
BRANCH   3   6
HETATM    6  C5  UNL     1     -33.190  18.849   1.740  1.00 20.00     0.049 A 
HETATM    7  C4  UNL     1     -34.337  18.482   2.656  1.00 20.00     0.016 A 
HETATM    8  C6  UNL     1     -32.989  17.860   2.869  1.00 20.00    -0.007 A 
HETATM    9  C7  UNL     1     -32.168  18.236   4.054  1.00 20.00     0.011 C 
ENDBRANCH   3   6
BRANCH   2  10
HETATM   10  C8  UNL     1     -34.970  16.838  -2.375  1.00 20.00     0.174 C 
HETATM   11 CL11 UNL     1     -34.383  15.308  -3.079  1.00 20.00    -0.124 Cl
ENDBRANCH   2  10
TORSDOF 2
ENDMDL
