MODEL 1
REMARK VINA RESULT:      -4.4      0.000      0.000
REMARK  2 active torsions:
REMARK  status: ('A' for Active; 'I' for Inactive)
REMARK    1  A    between atoms: C2_2  and  C9_9 
REMARK    2  A    between atoms: C9_9  and  N11_11 
ROOT
HETATM    1  C1  UNL     1     -28.531  17.950  11.911  1.00 20.00    -0.109 C 
HETATM    2  C2  UNL     1     -27.471  18.513  11.953  1.00 20.00    -0.077 C 
HETATM    3  C7  UNL     1     -29.821  17.263  11.859  1.00 20.00     0.112 C 
ENDROOT
BRANCH   2   4
HETATM    4  C9  UNL     1     -26.175  19.195  12.003  1.00 20.00     0.365 C 
BRANCH   4   5
HETATM    5  N11 UNL     1     -25.087  18.274  11.680  1.00 20.00     0.103 N 
HETATM    6  C4  UNL     1     -25.417  16.909  12.108  1.00 20.00     0.303 C 
HETATM    7  C3  UNL     1     -24.280  15.942  11.773  1.00 20.00     0.300 C 
HETATM    8  N10 UNL     1     -23.932  15.970  10.350  1.00 20.00     0.091 N 
HETATM    9  C6  UNL     1     -23.647  17.335   9.879  1.00 20.00     0.244 C 
HETATM   10  H27 UNL     1     -23.099  15.388  10.203  1.00 20.00     0.316 HD
HETATM   11  C5  UNL     1     -24.793  18.297  10.241  1.00 20.00     0.308 C 
HETATM   12  C8  UNL     1     -22.287  17.827  10.385  1.00 20.00     0.044 C 
ENDBRANCH   4   5
ENDBRANCH   2   4
TORSDOF 2
ENDMDL
MODEL 2
REMARK VINA RESULT:      -4.0     17.525     18.670
REMARK  2 active torsions:
REMARK  status: ('A' for Active; 'I' for Inactive)
REMARK    1  A    between atoms: C2_2  and  C9_9 
REMARK    2  A    between atoms: C9_9  and  N11_11 
ROOT
HETATM    1  C1  UNL     1     -32.996  17.381  -1.969  1.00 20.00    -0.109 C 
HETATM    2  C2  UNL     1     -33.730  16.538  -2.407  1.00 20.00    -0.077 C 
HETATM    3  C7  UNL     1     -32.103  18.408  -1.434  1.00 20.00     0.112 C 
ENDROOT
BRANCH   2   4
HETATM    4  C9  UNL     1     -34.630  15.510  -2.938  1.00 20.00     0.365 C 
BRANCH   4   5
HETATM    5  N11 UNL     1     -34.785  15.649  -4.385  1.00 20.00     0.103 N 
HETATM    6  C4  UNL     1     -33.781  14.848  -5.095  1.00 20.00     0.303 C 
HETATM    7  C3  UNL     1     -33.940  14.992  -6.610  1.00 20.00     0.300 C 
HETATM    8  N10 UNL     1     -35.292  14.647  -7.059  1.00 20.00     0.091 N 
HETATM    9  C6  UNL     1     -36.324  15.397  -6.326  1.00 20.00     0.244 C 
HETATM   10  H27 UNL     1     -35.372  14.865  -8.059  1.00 20.00     0.316 HD
HETATM   11  C5  UNL     1     -36.138  15.256  -4.805  1.00 20.00     0.308 C 
HETATM   12  C8  UNL     1     -36.376  16.861  -6.776  1.00 20.00     0.044 C 
ENDBRANCH   4   5
ENDBRANCH   2   4
TORSDOF 2
ENDMDL
MODEL 3
REMARK VINA RESULT:      -4.0     17.052     18.348
REMARK  2 active torsions:
REMARK  status: ('A' for Active; 'I' for Inactive)
REMARK    1  A    between atoms: C2_2  and  C9_9 
REMARK    2  A    between atoms: C9_9  and  N11_11 
ROOT
HETATM    1  C1  UNL     1     -34.910  16.973  -0.861  1.00 20.00    -0.109 C 
HETATM    2  C2  UNL     1     -34.407  16.642  -1.899  1.00 20.00    -0.077 C 
HETATM    3  C7  UNL     1     -35.524  17.376   0.404  1.00 20.00     0.112 C 
ENDROOT
BRANCH   2   4
HETATM    4  C9  UNL     1     -33.797  16.234  -3.168  1.00 20.00     0.365 C 
BRANCH   4   5
HETATM    5  N11 UNL     1     -34.811  15.757  -4.106  1.00 20.00     0.103 N 
HETATM    6  C4  UNL     1     -34.366  15.942  -5.493  1.00 20.00     0.303 C 
HETATM    7  C3  UNL     1     -35.427  15.445  -6.477  1.00 20.00     0.300 C 
HETATM    8  N10 UNL     1     -35.797  14.049  -6.232  1.00 20.00     0.091 N 
HETATM    9  C6  UNL     1     -36.197  13.821  -4.835  1.00 20.00     0.244 C 
HETATM   10  H27 UNL     1     -36.582  13.804  -6.846  1.00 20.00     0.316 HD
HETATM   11  C5  UNL     1     -35.128  14.343  -3.859  1.00 20.00     0.308 C 
HETATM   12  C8  UNL     1     -37.585  14.405  -4.550  1.00 20.00     0.044 C 
ENDBRANCH   4   5
ENDBRANCH   2   4
TORSDOF 2
ENDMDL
MODEL 4
REMARK VINA RESULT:      -4.0     13.335     14.405
REMARK  2 active torsions:
REMARK  status: ('A' for Active; 'I' for Inactive)
REMARK    1  A    between atoms: C2_2  and  C9_9 
REMARK    2  A    between atoms: C9_9  and  N11_11 
ROOT
HETATM    1  C1  UNL     1     -33.632  15.921  -3.176  1.00 20.00    -0.109 C 
HETATM    2  C2  UNL     1     -33.141  16.931  -2.753  1.00 20.00    -0.077 C 
HETATM    3  C7  UNL     1     -34.229  14.689  -3.691  1.00 20.00     0.112 C 
ENDROOT
BRANCH   2   4
HETATM    4  C9  UNL     1     -32.537  18.165  -2.241  1.00 20.00     0.365 C 
BRANCH   4   5
HETATM    5  N11 UNL     1     -32.453  18.139  -0.782  1.00 20.00     0.103 N 
HETATM    6  C4  UNL     1     -31.058  18.257  -0.339  1.00 20.00     0.303 C 
HETATM    7  C3  UNL     1     -30.967  18.229   1.188  1.00 20.00     0.300 C 
HETATM    8  N10 UNL     1     -31.798  19.262   1.810  1.00 20.00     0.091 N 
HETATM    9  C6  UNL     1     -33.193  19.203   1.344  1.00 20.00     0.244 C 
HETATM   10  H27 UNL     1     -31.783  19.128   2.828  1.00 20.00     0.316 HD
HETATM   11  C5  UNL     1     -33.265  19.213  -0.194  1.00 20.00     0.308 C 
HETATM   12  C8  UNL     1     -33.936  18.011   1.956  1.00 20.00     0.044 C 
ENDBRANCH   4   5
ENDBRANCH   2   4
TORSDOF 2
ENDMDL
MODEL 5
REMARK VINA RESULT:      -4.0     15.103     16.092
REMARK  2 active torsions:
REMARK  status: ('A' for Active; 'I' for Inactive)
REMARK    1  A    between atoms: C2_2  and  C9_9 
REMARK    2  A    between atoms: C9_9  and  N11_11 
ROOT
HETATM    1  C1  UNL     1     -31.261  18.499  -0.083  1.00 20.00    -0.109 C 
HETATM    2  C2  UNL     1     -31.803  18.534  -1.154  1.00 20.00    -0.077 C 
HETATM    3  C7  UNL     1     -30.601  18.455   1.222  1.00 20.00     0.112 C 
ENDROOT
BRANCH   2   4
HETATM    4  C9  UNL     1     -32.469  18.572  -2.459  1.00 20.00     0.365 C 
BRANCH   4   5
HETATM    5  N11 UNL     1     -33.175  17.319  -2.722  1.00 20.00     0.103 N 
HETATM    6  C4  UNL     1     -34.358  17.198  -1.863  1.00 20.00     0.303 C 
HETATM    7  C3  UNL     1     -35.098  15.887  -2.135  1.00 20.00     0.300 C 
HETATM    8  N10 UNL     1     -35.465  15.742  -3.546  1.00 20.00     0.091 N 
HETATM    9  C6  UNL     1     -34.305  15.912  -4.437  1.00 20.00     0.244 C 
HETATM   10  H27 UNL     1     -35.858  14.805  -3.690  1.00 20.00     0.316 HD
HETATM   11  C5  UNL     1     -33.562  17.226  -4.137  1.00 20.00     0.308 C 
HETATM   12  C8  UNL     1     -33.380  14.692  -4.387  1.00 20.00     0.044 C 
ENDBRANCH   4   5
ENDBRANCH   2   4
TORSDOF 2
ENDMDL
MODEL 6
REMARK VINA RESULT:      -4.0     22.404     24.574
REMARK  2 active torsions:
REMARK  status: ('A' for Active; 'I' for Inactive)
REMARK    1  A    between atoms: C2_2  and  C9_9 
REMARK    2  A    between atoms: C9_9  and  N11_11 
ROOT
HETATM    1  C1  UNL     1     -42.433   3.103  -3.574  1.00 20.00    -0.109 C 
HETATM    2  C2  UNL     1     -42.874   3.390  -2.495  1.00 20.00    -0.077 C 
HETATM    3  C7  UNL     1     -41.897   2.754  -4.890  1.00 20.00     0.112 C 
ENDROOT
BRANCH   2   4
HETATM    4  C9  UNL     1     -43.417   3.740  -1.179  1.00 20.00     0.365 C 
BRANCH   4   5
HETATM    5  N11 UNL     1     -42.957   5.062  -0.759  1.00 20.00     0.103 N 
HETATM    6  C4  UNL     1     -43.195   5.264   0.675  1.00 20.00     0.303 C 
HETATM    7  C3  UNL     1     -42.715   6.648   1.118  1.00 20.00     0.300 C 
HETATM    8  N10 UNL     1     -41.306   6.876   0.788  1.00 20.00     0.091 N 
HETATM    9  C6  UNL     1     -41.026   6.629  -0.636  1.00 20.00     0.244 C 
HETATM   10  H27 UNL     1     -41.070   7.851   1.008  1.00 20.00     0.316 HD
HETATM   11  C5  UNL     1     -41.532   5.241  -1.068  1.00 20.00     0.308 C 
HETATM   12  C8  UNL     1     -41.579   7.754  -1.516  1.00 20.00     0.044 C 
ENDBRANCH   4   5
ENDBRANCH   2   4
TORSDOF 2
ENDMDL
MODEL 7
REMARK VINA RESULT:      -3.9     17.535     18.601
REMARK  2 active torsions:
REMARK  status: ('A' for Active; 'I' for Inactive)
REMARK    1  A    between atoms: C2_2  and  C9_9 
REMARK    2  A    between atoms: C9_9  and  N11_11 
ROOT
HETATM    1  C1  UNL     1     -35.182  16.614  -1.367  1.00 20.00    -0.109 C 
HETATM    2  C2  UNL     1     -34.726  15.954  -2.261  1.00 20.00    -0.077 C 
HETATM    3  C7  UNL     1     -35.736  17.418  -0.278  1.00 20.00     0.112 C 
ENDROOT
BRANCH   2   4
HETATM    4  C9  UNL     1     -34.164  15.148  -3.349  1.00 20.00     0.365 C 
BRANCH   4   5
HETATM    5  N11 UNL     1     -34.528  15.702  -4.651  1.00 20.00     0.103 N 
HETATM    6  C4  UNL     1     -34.103  17.103  -4.758  1.00 20.00     0.303 C 
HETATM    7  C3  UNL     1     -34.485  17.687  -6.120  1.00 20.00     0.300 C 
HETATM    8  N10 UNL     1     -33.948  16.895  -7.230  1.00 20.00     0.091 N 
HETATM    9  C6  UNL     1     -34.314  15.474  -7.121  1.00 20.00     0.244 C 
HETATM   10  H27 UNL     1     -34.323  17.267  -8.111  1.00 20.00     0.316 HD
HETATM   11  C5  UNL     1     -33.940  14.909  -5.739  1.00 20.00     0.308 C 
HETATM   12  C8  UNL     1     -35.790  15.250  -7.465  1.00 20.00     0.044 C 
ENDBRANCH   4   5
ENDBRANCH   2   4
TORSDOF 2
ENDMDL
MODEL 8
REMARK VINA RESULT:      -3.9     17.424     18.484
REMARK  2 active torsions:
REMARK  status: ('A' for Active; 'I' for Inactive)
REMARK    1  A    between atoms: C2_2  and  C9_9 
REMARK    2  A    between atoms: C9_9  and  N11_11 
ROOT
HETATM    1  C1  UNL     1     -34.740  16.781  -1.517  1.00 20.00    -0.109 C 
HETATM    2  C2  UNL     1     -34.035  16.321  -2.373  1.00 20.00    -0.077 C 
HETATM    3  C7  UNL     1     -35.597  17.343  -0.473  1.00 20.00     0.112 C 
ENDROOT
BRANCH   2   4
HETATM    4  C9  UNL     1     -33.171  15.763  -3.417  1.00 20.00     0.365 C 
BRANCH   4   5
HETATM    5  N11 UNL     1     -33.954  15.361  -4.584  1.00 20.00     0.103 N 
HETATM    6  C4  UNL     1     -35.096  14.530  -4.184  1.00 20.00     0.303 C 
HETATM    7  C3  UNL     1     -35.916  14.107  -5.403  1.00 20.00     0.300 C 
HETATM    8  N10 UNL     1     -36.363  15.256  -6.195  1.00 20.00     0.091 N 
HETATM    9  C6  UNL     1     -35.244  16.137  -6.566  1.00 20.00     0.244 C 
HETATM   10  H27 UNL     1     -36.812  14.912  -7.051  1.00 20.00     0.316 HD
HETATM   11  C5  UNL     1     -34.419  16.538  -5.330  1.00 20.00     0.308 C 
HETATM   12  C8  UNL     1     -34.383  15.511  -7.668  1.00 20.00     0.044 C 
ENDBRANCH   4   5
ENDBRANCH   2   4
TORSDOF 2
ENDMDL
MODEL 9
REMARK VINA RESULT:      -3.9     22.525     24.741
REMARK  2 active torsions:
REMARK  status: ('A' for Active; 'I' for Inactive)
REMARK    1  A    between atoms: C2_2  and  C9_9 
REMARK    2  A    between atoms: C9_9  and  N11_11 
ROOT
HETATM    1  C1  UNL     1     -42.296   3.024  -3.362  1.00 20.00    -0.109 C 
HETATM    2  C2  UNL     1     -42.802   3.496  -2.381  1.00 20.00    -0.077 C 
HETATM    3  C7  UNL     1     -41.678   2.449  -4.556  1.00 20.00     0.112 C 
ENDROOT
BRANCH   2   4
HETATM    4  C9  UNL     1     -43.417   4.068  -1.180  1.00 20.00     0.365 C 
BRANCH   4   5
HETATM    5  N11 UNL     1     -42.861   5.388  -0.886  1.00 20.00     0.103 N 
HETATM    6  C4  UNL     1     -41.396   5.368  -0.982  1.00 20.00     0.303 C 
HETATM    7  C3  UNL     1     -40.811   6.747  -0.674  1.00 20.00     0.300 C 
HETATM    8  N10 UNL     1     -41.373   7.791  -1.535  1.00 20.00     0.091 N 
HETATM    9  C6  UNL     1     -42.844   7.800  -1.501  1.00 20.00     0.244 C 
HETATM   10  H27 UNL     1     -41.028   8.703  -1.214  1.00 20.00     0.316 HD
HETATM   11  C5  UNL     1     -43.415   6.401  -1.794  1.00 20.00     0.308 C 
HETATM   12  C8  UNL     1     -43.368   8.382  -0.184  1.00 20.00     0.044 C 
ENDBRANCH   4   5
ENDBRANCH   2   4
TORSDOF 2
ENDMDL
