MODEL 1
REMARK VINA RESULT:      -4.3      0.000      0.000
REMARK  3 active torsions:
REMARK  status: ('A' for Active; 'I' for Inactive)
REMARK    1  A    between atoms: C4_4  and  C6_6 
REMARK    2  A    between atoms: C4_4  and  O7_7 
REMARK    3  A    between atoms: C5_5  and  C6_6 
ROOT
HETATM    1  C6  UNL     1     -33.970   6.573   3.991  1.00 20.00     0.109 C 
HETATM    2 CL8  UNL     1     -33.072   7.377   5.324  1.00 20.00    -0.122 Cl
ENDROOT
BRANCH   1   3
HETATM    3  C4  UNL     1     -32.997   6.234   2.861  1.00 20.00     0.187 C 
BRANCH   3   4
HETATM    4  O7  UNL     1     -32.182   7.367   2.577  1.00 20.00    -0.394 OA
HETATM    5  C3  UNL     1     -32.578   8.000   1.368  1.00 20.00     0.201 C 
ENDBRANCH   3   4
ENDBRANCH   1   3
BRANCH   1   6
HETATM    6  C5  UNL     1     -34.759   5.339   4.493  1.00 20.00    -0.002 C 
HETATM    7  C1  UNL     1     -34.815   5.211   6.018  1.00 20.00     0.011 C 
HETATM    8  C2  UNL     1     -34.231   4.037   3.880  1.00 20.00     0.011 C 
ENDBRANCH   1   6
TORSDOF 3
ENDMDL
MODEL 2
REMARK VINA RESULT:      -4.3      1.712      1.867
REMARK  3 active torsions:
REMARK  status: ('A' for Active; 'I' for Inactive)
REMARK    1  A    between atoms: C4_4  and  C6_6 
REMARK    2  A    between atoms: C4_4  and  O7_7 
REMARK    3  A    between atoms: C5_5  and  C6_6 
ROOT
HETATM    1  C6  UNL     1     -33.004   6.231   3.529  1.00 20.00     0.109 C 
HETATM    2 CL8  UNL     1     -33.322   4.993   2.265  1.00 20.00    -0.122 Cl
ENDROOT
BRANCH   1   3
HETATM    3  C4  UNL     1     -32.539   7.525   2.858  1.00 20.00     0.187 C 
BRANCH   3   4
HETATM    4  O7  UNL     1     -32.499   7.344   1.447  1.00 20.00    -0.394 OA
HETATM    5  C3  UNL     1     -32.777   8.556   0.760  1.00 20.00     0.201 C 
ENDBRANCH   3   4
ENDBRANCH   1   3
BRANCH   1   6
HETATM    6  C5  UNL     1     -34.230   6.441   4.450  1.00 20.00    -0.002 C 
HETATM    7  C1  UNL     1     -33.872   6.804   5.894  1.00 20.00     0.011 C 
HETATM    8  C2  UNL     1     -35.167   5.228   4.436  1.00 20.00     0.011 C 
ENDBRANCH   1   6
TORSDOF 3
ENDMDL
MODEL 3
REMARK VINA RESULT:      -3.8     11.969     12.382
REMARK  3 active torsions:
REMARK  status: ('A' for Active; 'I' for Inactive)
REMARK    1  A    between atoms: C4_4  and  C6_6 
REMARK    2  A    between atoms: C4_4  and  O7_7 
REMARK    3  A    between atoms: C5_5  and  C6_6 
ROOT
HETATM    1  C6  UNL     1     -35.723  15.132  -4.277  1.00 20.00     0.109 C 
HETATM    2 CL8  UNL     1     -35.101  15.823  -5.814  1.00 20.00    -0.122 Cl
ENDROOT
BRANCH   1   3
HETATM    3  C4  UNL     1     -36.205  13.702  -4.527  1.00 20.00     0.187 C 
BRANCH   3   4
HETATM    4  O7  UNL     1     -37.627  13.659  -4.463  1.00 20.00    -0.394 OA
HETATM    5  C3  UNL     1     -38.175  14.949  -4.233  1.00 20.00     0.201 C 
ENDBRANCH   3   4
ENDBRANCH   1   3
BRANCH   1   6
HETATM    6  C5  UNL     1     -34.676  15.222  -3.140  1.00 20.00    -0.002 C 
HETATM    7  C1  UNL     1     -35.081  16.146  -1.989  1.00 20.00     0.011 C 
HETATM    8  C2  UNL     1     -33.295  15.624  -3.669  1.00 20.00     0.011 C 
ENDBRANCH   1   6
TORSDOF 3
ENDMDL
MODEL 4
REMARK VINA RESULT:      -3.7      2.227      4.064
REMARK  3 active torsions:
REMARK  status: ('A' for Active; 'I' for Inactive)
REMARK    1  A    between atoms: C4_4  and  C6_6 
REMARK    2  A    between atoms: C4_4  and  O7_7 
REMARK    3  A    between atoms: C5_5  and  C6_6 
ROOT
HETATM    1  C6  UNL     1     -33.562   6.215   2.755  1.00 20.00     0.109 C 
HETATM    2 CL8  UNL     1     -33.271   4.455   2.535  1.00 20.00    -0.122 Cl
ENDROOT
BRANCH   1   3
HETATM    3  C4  UNL     1     -34.038   6.471   4.186  1.00 20.00     0.187 C 
BRANCH   3   4
HETATM    4  O7  UNL     1     -34.954   5.452   4.574  1.00 20.00    -0.394 OA
HETATM    5  C3  UNL     1     -34.787   5.097   5.939  1.00 20.00     0.201 C 
ENDBRANCH   3   4
ENDBRANCH   1   3
BRANCH   1   6
HETATM    6  C5  UNL     1     -32.319   7.055   2.377  1.00 20.00    -0.002 C 
HETATM    7  C1  UNL     1     -31.635   7.730   3.570  1.00 20.00     0.011 C 
HETATM    8  C2  UNL     1     -32.641   8.099   1.303  1.00 20.00     0.011 C 
ENDBRANCH   1   6
TORSDOF 3
ENDMDL
MODEL 5
REMARK VINA RESULT:      -3.7     11.969     12.557
REMARK  3 active torsions:
REMARK  status: ('A' for Active; 'I' for Inactive)
REMARK    1  A    between atoms: C4_4  and  C6_6 
REMARK    2  A    between atoms: C4_4  and  O7_7 
REMARK    3  A    between atoms: C5_5  and  C6_6 
ROOT
HETATM    1  C6  UNL     1     -35.638  14.964  -4.980  1.00 20.00     0.109 C 
HETATM    2 CL8  UNL     1     -35.305  14.852  -6.743  1.00 20.00    -0.122 Cl
ENDROOT
BRANCH   1   3
HETATM    3  C4  UNL     1     -36.179  13.622  -4.484  1.00 20.00     0.187 C 
BRANCH   3   4
HETATM    4  O7  UNL     1     -37.602  13.662  -4.457  1.00 20.00    -0.394 OA
HETATM    5  C3  UNL     1     -38.081  14.990  -4.304  1.00 20.00     0.201 C 
ENDBRANCH   3   4
ENDBRANCH   1   3
BRANCH   1   6
HETATM    6  C5  UNL     1     -34.394  15.439  -4.189  1.00 20.00    -0.002 C 
HETATM    7  C1  UNL     1     -33.160  14.552  -4.376  1.00 20.00     0.011 C 
HETATM    8  C2  UNL     1     -34.697  15.601  -2.696  1.00 20.00     0.011 C 
ENDBRANCH   1   6
TORSDOF 3
ENDMDL
MODEL 6
REMARK VINA RESULT:      -3.5     11.477     12.169
REMARK  3 active torsions:
REMARK  status: ('A' for Active; 'I' for Inactive)
REMARK    1  A    between atoms: C4_4  and  C6_6 
REMARK    2  A    between atoms: C4_4  and  O7_7 
REMARK    3  A    between atoms: C5_5  and  C6_6 
ROOT
HETATM    1  C6  UNL     1     -34.251  15.031  -4.029  1.00 20.00     0.109 C 
HETATM    2 CL8  UNL     1     -32.671  14.285  -4.452  1.00 20.00    -0.122 Cl
ENDROOT
BRANCH   1   3
HETATM    3  C4  UNL     1     -35.339  13.955  -4.059  1.00 20.00     0.187 C 
BRANCH   3   4
HETATM    4  O7  UNL     1     -35.653  13.632  -5.410  1.00 20.00    -0.394 OA
HETATM    5  C3  UNL     1     -35.792  14.801  -6.204  1.00 20.00     0.201 C 
ENDBRANCH   3   4
ENDBRANCH   1   3
BRANCH   1   6
HETATM    6  C5  UNL     1     -34.189  15.782  -2.678  1.00 20.00    -0.002 C 
HETATM    7  C1  UNL     1     -35.520  16.407  -2.248  1.00 20.00     0.011 C 
HETATM    8  C2  UNL     1     -33.087  16.847  -2.668  1.00 20.00     0.011 C 
ENDBRANCH   1   6
TORSDOF 3
ENDMDL
MODEL 7
REMARK VINA RESULT:      -3.5     11.766     12.179
REMARK  3 active torsions:
REMARK  status: ('A' for Active; 'I' for Inactive)
REMARK    1  A    between atoms: C4_4  and  C6_6 
REMARK    2  A    between atoms: C4_4  and  O7_7 
REMARK    3  A    between atoms: C5_5  and  C6_6 
ROOT
HETATM    1  C6  UNL     1     -34.627  15.575  -3.778  1.00 20.00     0.109 C 
HETATM    2 CL8  UNL     1     -34.344  16.791  -5.071  1.00 20.00    -0.122 Cl
ENDROOT
BRANCH   1   3
HETATM    3  C4  UNL     1     -34.010  14.240  -4.200  1.00 20.00     0.187 C 
BRANCH   3   4
HETATM    4  O7  UNL     1     -34.999  13.217  -4.143  1.00 20.00    -0.394 OA
HETATM    5  C3  UNL     1     -36.262  13.692  -4.584  1.00 20.00     0.201 C 
ENDBRANCH   3   4
ENDBRANCH   1   3
BRANCH   1   6
HETATM    6  C5  UNL     1     -34.112  16.065  -2.404  1.00 20.00    -0.002 C 
HETATM    7  C1  UNL     1     -35.212  16.584  -1.473  1.00 20.00     0.011 C 
HETATM    8  C2  UNL     1     -33.013  17.124  -2.552  1.00 20.00     0.011 C 
ENDBRANCH   1   6
TORSDOF 3
ENDMDL
MODEL 8
REMARK VINA RESULT:      -3.4     15.981     16.686
REMARK  3 active torsions:
REMARK  status: ('A' for Active; 'I' for Inactive)
REMARK    1  A    between atoms: C4_4  and  C6_6 
REMARK    2  A    between atoms: C4_4  and  O7_7 
REMARK    3  A    between atoms: C5_5  and  C6_6 
ROOT
HETATM    1  C6  UNL     1     -23.976  17.932   9.953  1.00 20.00     0.109 C 
HETATM    2 CL8  UNL     1     -25.182  19.190   9.513  1.00 20.00    -0.122 Cl
ENDROOT
BRANCH   1   3
HETATM    3  C4  UNL     1     -22.572  18.448   9.634  1.00 20.00     0.187 C 
BRANCH   3   4
HETATM    4  O7  UNL     1     -22.386  18.485   8.223  1.00 20.00    -0.394 OA
HETATM    5  C3  UNL     1     -21.691  17.335   7.761  1.00 20.00     0.201 C 
ENDBRANCH   3   4
ENDBRANCH   1   3
BRANCH   1   6
HETATM    6  C5  UNL     1     -24.129  17.479  11.425  1.00 20.00    -0.002 C 
HETATM    7  C1  UNL     1     -22.885  17.720  12.284  1.00 20.00     0.011 C 
HETATM    8  C2  UNL     1     -24.556  16.011  11.528  1.00 20.00     0.011 C 
ENDBRANCH   1   6
TORSDOF 3
ENDMDL
MODEL 9
REMARK VINA RESULT:      -3.4     11.692     12.318
REMARK  3 active torsions:
REMARK  status: ('A' for Active; 'I' for Inactive)
REMARK    1  A    between atoms: C4_4  and  C6_6 
REMARK    2  A    between atoms: C4_4  and  O7_7 
REMARK    3  A    between atoms: C5_5  and  C6_6 
ROOT
HETATM    1  C6  UNL     1     -34.585  14.903  -3.412  1.00 20.00     0.109 C 
HETATM    2 CL8  UNL     1     -36.266  14.557  -3.946  1.00 20.00    -0.122 Cl
ENDROOT
BRANCH   1   3
HETATM    3  C4  UNL     1     -33.626  14.648  -4.576  1.00 20.00     0.187 C 
BRANCH   3   4
HETATM    4  O7  UNL     1     -34.369  14.304  -5.741  1.00 20.00    -0.394 OA
HETATM    5  C3  UNL     1     -34.038  15.146  -6.836  1.00 20.00     0.201 C 
ENDBRANCH   3   4
ENDBRANCH   1   3
BRANCH   1   6
HETATM    6  C5  UNL     1     -34.450  16.328  -2.825  1.00 20.00    -0.002 C 
HETATM    7  C1  UNL     1     -33.007  16.829  -2.725  1.00 20.00     0.011 C 
HETATM    8  C2  UNL     1     -35.139  16.450  -1.461  1.00 20.00     0.011 C 
ENDBRANCH   1   6
TORSDOF 3
ENDMDL
