MODEL 1
REMARK VINA RESULT:      -4.7      0.000      0.000
REMARK  2 active torsions:
REMARK  status: ('A' for Active; 'I' for Inactive)
REMARK    1  A    between atoms: C3_3  and  C5_5 
REMARK    2  A    between atoms: C5_5  and  C7_7 
ROOT
HETATM    1  C1  UNL     1     -34.753  15.788  -2.337  1.00 20.00     0.029 A 
HETATM    2  C2  UNL     1     -32.944  16.927  -3.251  1.00 20.00     0.065 A 
HETATM    3  C3  UNL     1     -33.773  15.833  -3.370  1.00 20.00     0.018 A 
HETATM    4  C4  UNL     1     -34.636  16.851  -1.467  1.00 20.00    -0.021 A 
HETATM    5  C9  UNL     1     -35.458  17.160  -0.278  1.00 20.00     0.056 C 
HETATM    6  S12 UNL     1     -33.349  17.895  -1.897  1.00 20.00    -0.106 SA
ENDROOT
BRANCH   3   7
HETATM    7  C5  UNL     1     -33.630  14.851  -4.448  1.00 20.00     0.164 C 
HETATM    8  O11 UNL     1     -32.953  13.832  -4.376  1.00 20.00    -0.292 OA
BRANCH   7   9
HETATM    9  C7  UNL     1     -34.358  15.116  -5.694  1.00 20.00     0.065 A 
HETATM   10  C6  UNL     1     -35.537  16.055  -5.678  1.00 20.00     0.018 A 
HETATM   11  C8  UNL     1     -35.756  14.586  -5.905  1.00 20.00    -0.006 A 
HETATM   12  C10 UNL     1     -36.459  13.769  -4.875  1.00 20.00     0.011 C 
ENDBRANCH   7   9
ENDBRANCH   3   7
TORSDOF 2
ENDMDL
MODEL 2
REMARK VINA RESULT:      -4.5      1.305      2.187
REMARK  2 active torsions:
REMARK  status: ('A' for Active; 'I' for Inactive)
REMARK    1  A    between atoms: C3_3  and  C5_5 
REMARK    2  A    between atoms: C5_5  and  C7_7 
ROOT
HETATM    1  C1  UNL     1     -33.005  16.669  -2.695  1.00 20.00     0.029 A 
HETATM    2  C2  UNL     1     -35.107  16.354  -1.754  1.00 20.00     0.065 A 
HETATM    3  C3  UNL     1     -34.220  15.925  -2.717  1.00 20.00     0.018 A 
HETATM    4  C4  UNL     1     -33.009  17.638  -1.716  1.00 20.00    -0.021 A 
HETATM    5  C9  UNL     1     -31.944  18.607  -1.377  1.00 20.00     0.056 C 
HETATM    6  S12 UNL     1     -34.473  17.650  -0.830  1.00 20.00    -0.106 SA
ENDROOT
BRANCH   3   7
HETATM    7  C5  UNL     1     -34.528  14.827  -3.637  1.00 20.00     0.164 C 
HETATM    8  O11 UNL     1     -33.688  14.177  -4.250  1.00 20.00    -0.292 OA
BRANCH   7   9
HETATM    9  C7  UNL     1     -35.943  14.489  -3.825  1.00 20.00     0.065 A 
HETATM   10  C6  UNL     1     -36.354  13.662  -5.017  1.00 20.00     0.018 A 
HETATM   11  C8  UNL     1     -36.750  15.110  -4.940  1.00 20.00    -0.006 A 
HETATM   12  C10 UNL     1     -36.161  16.094  -5.891  1.00 20.00     0.011 C 
ENDBRANCH   7   9
ENDBRANCH   3   7
TORSDOF 2
ENDMDL
MODEL 3
REMARK VINA RESULT:      -4.4      2.872      4.334
REMARK  2 active torsions:
REMARK  status: ('A' for Active; 'I' for Inactive)
REMARK    1  A    between atoms: C3_3  and  C5_5 
REMARK    2  A    between atoms: C5_5  and  C7_7 
ROOT
HETATM    1  C1  UNL     1     -38.336  14.567  -4.141  1.00 20.00     0.029 A 
HETATM    2  C2  UNL     1     -37.245  15.924  -5.681  1.00 20.00     0.065 A 
HETATM    3  C3  UNL     1     -37.131  14.828  -4.855  1.00 20.00     0.018 A 
HETATM    4  C4  UNL     1     -39.326  15.474  -4.450  1.00 20.00    -0.021 A 
HETATM    5  C9  UNL     1     -40.708  15.542  -3.926  1.00 20.00     0.056 C 
HETATM    6  S12 UNL     1     -38.801  16.634  -5.594  1.00 20.00    -0.106 SA
ENDROOT
BRANCH   3   7
HETATM    7  C5  UNL     1     -35.896  14.047  -4.750  1.00 20.00     0.164 C 
HETATM    8  O11 UNL     1     -35.850  12.848  -4.498  1.00 20.00    -0.292 OA
BRANCH   7   9
HETATM    9  C7  UNL     1     -34.632  14.760  -4.970  1.00 20.00     0.065 A 
HETATM   10  C6  UNL     1     -33.381  14.277  -4.281  1.00 20.00     0.018 A 
HETATM   11  C8  UNL     1     -34.003  15.583  -3.871  1.00 20.00    -0.006 A 
HETATM   12  C10 UNL     1     -34.628  15.720  -2.525  1.00 20.00     0.011 C 
ENDBRANCH   7   9
ENDBRANCH   3   7
TORSDOF 2
ENDMDL
MODEL 4
REMARK VINA RESULT:      -4.4      2.939      3.787
REMARK  2 active torsions:
REMARK  status: ('A' for Active; 'I' for Inactive)
REMARK    1  A    between atoms: C3_3  and  C5_5 
REMARK    2  A    between atoms: C5_5  and  C7_7 
ROOT
HETATM    1  C1  UNL     1     -31.399  18.211  -0.778  1.00 20.00     0.029 A 
HETATM    2  C2  UNL     1     -33.692  18.403  -0.443  1.00 20.00     0.065 A 
HETATM    3  C3  UNL     1     -32.700  18.086  -1.345  1.00 20.00     0.018 A 
HETATM    4  C4  UNL     1     -31.447  18.618   0.538  1.00 20.00    -0.021 A 
HETATM    5  C9  UNL     1     -30.321  18.860   1.466  1.00 20.00     0.056 C 
HETATM    6  S12 UNL     1     -33.053  18.849   1.082  1.00 20.00    -0.106 SA
ENDROOT
BRANCH   3   7
HETATM    7  C5  UNL     1     -32.991  17.672  -2.720  1.00 20.00     0.164 C 
HETATM    8  O11 UNL     1     -33.153  18.444  -3.660  1.00 20.00    -0.292 OA
BRANCH   7   9
HETATM    9  C7  UNL     1     -33.086  16.231  -2.980  1.00 20.00     0.065 A 
HETATM   10  C6  UNL     1     -33.740  15.750  -4.251  1.00 20.00     0.018 A 
HETATM   11  C8  UNL     1     -34.417  15.519  -2.929  1.00 20.00    -0.006 A 
HETATM   12  C10 UNL     1     -35.686  16.230  -2.607  1.00 20.00     0.011 C 
ENDBRANCH   7   9
ENDBRANCH   3   7
TORSDOF 2
ENDMDL
MODEL 5
REMARK VINA RESULT:      -4.3      1.775      2.224
REMARK  2 active torsions:
REMARK  status: ('A' for Active; 'I' for Inactive)
REMARK    1  A    between atoms: C3_3  and  C5_5 
REMARK    2  A    between atoms: C5_5  and  C7_7 
ROOT
HETATM    1  C1  UNL     1     -34.756  17.153  -1.207  1.00 20.00     0.029 A 
HETATM    2  C2  UNL     1     -32.633  18.032  -1.562  1.00 20.00     0.065 A 
HETATM    3  C3  UNL     1     -33.676  17.324  -2.120  1.00 20.00     0.018 A 
HETATM    4  C4  UNL     1     -34.498  17.736   0.015  1.00 20.00    -0.021 A 
HETATM    5  C9  UNL     1     -35.361  17.777   1.215  1.00 20.00     0.056 C 
HETATM    6  S12 UNL     1     -32.959  18.485   0.057  1.00 20.00    -0.106 SA
ENDROOT
BRANCH   3   7
HETATM    7  C5  UNL     1     -33.639  16.824  -3.496  1.00 20.00     0.164 C 
HETATM    8  O11 UNL     1     -33.812  17.516  -4.493  1.00 20.00    -0.292 OA
BRANCH   7   9
HETATM    9  C7  UNL     1     -33.371  15.393  -3.681  1.00 20.00     0.065 A 
HETATM   10  C6  UNL     1     -33.635  14.758  -5.023  1.00 20.00     0.018 A 
HETATM   11  C8  UNL     1     -34.500  14.405  -3.846  1.00 20.00    -0.006 A 
HETATM   12  C10 UNL     1     -35.930  14.824  -3.822  1.00 20.00     0.011 C 
ENDBRANCH   7   9
ENDBRANCH   3   7
TORSDOF 2
ENDMDL
MODEL 6
REMARK VINA RESULT:      -4.1      2.458      4.184
REMARK  2 active torsions:
REMARK  status: ('A' for Active; 'I' for Inactive)
REMARK    1  A    between atoms: C3_3  and  C5_5 
REMARK    2  A    between atoms: C5_5  and  C7_7 
ROOT
HETATM    1  C1  UNL     1     -37.442  14.743  -4.320  1.00 20.00     0.029 A 
HETATM    2  C2  UNL     1     -36.573  16.548  -5.499  1.00 20.00     0.065 A 
HETATM    3  C3  UNL     1     -36.273  15.390  -4.817  1.00 20.00     0.018 A 
HETATM    4  C4  UNL     1     -38.590  15.432  -4.642  1.00 20.00    -0.021 A 
HETATM    5  C9  UNL     1     -39.991  15.089  -4.313  1.00 20.00     0.056 C 
HETATM    6  S12 UNL     1     -38.258  16.852  -5.539  1.00 20.00    -0.106 SA
ENDROOT
BRANCH   3   7
HETATM    7  C5  UNL     1     -34.899  14.912  -4.644  1.00 20.00     0.164 C 
HETATM    8  O11 UNL     1     -34.198  14.469  -5.547  1.00 20.00    -0.292 OA
BRANCH   7   9
HETATM    9  C7  UNL     1     -34.332  14.978  -3.292  1.00 20.00     0.065 A 
HETATM   10  C6  UNL     1     -34.929  15.929  -2.285  1.00 20.00     0.018 A 
HETATM   11  C8  UNL     1     -33.554  16.189  -2.834  1.00 20.00    -0.006 A 
HETATM   12  C10 UNL     1     -33.317  17.362  -3.722  1.00 20.00     0.011 C 
ENDBRANCH   7   9
ENDBRANCH   3   7
TORSDOF 2
ENDMDL
MODEL 7
REMARK VINA RESULT:      -4.1      2.690      3.498
REMARK  2 active torsions:
REMARK  status: ('A' for Active; 'I' for Inactive)
REMARK    1  A    between atoms: C3_3  and  C5_5 
REMARK    2  A    between atoms: C5_5  and  C7_7 
ROOT
HETATM    1  C1  UNL     1     -35.384  16.040  -3.071  1.00 20.00     0.029 A 
HETATM    2  C2  UNL     1     -34.938  14.374  -4.629  1.00 20.00     0.065 A 
HETATM    3  C3  UNL     1     -35.923  15.065  -3.959  1.00 20.00     0.018 A 
HETATM    4  C4  UNL     1     -34.006  16.057  -3.096  1.00 20.00    -0.021 A 
HETATM    5  C9  UNL     1     -33.083  16.918  -2.326  1.00 20.00     0.056 C 
HETATM    6  S12 UNL     1     -33.369  14.900  -4.186  1.00 20.00    -0.106 SA
ENDROOT
BRANCH   3   7
HETATM    7  C5  UNL     1     -37.349  14.800  -4.165  1.00 20.00     0.164 C 
HETATM    8  O11 UNL     1     -37.822  13.697  -4.419  1.00 20.00    -0.292 OA
BRANCH   7   9
HETATM    9  C7  UNL     1     -38.266  15.939  -4.050  1.00 20.00     0.065 A 
HETATM   10  C6  UNL     1     -39.606  15.884  -4.738  1.00 20.00     0.018 A 
HETATM   11  C8  UNL     1     -38.551  16.831  -5.235  1.00 20.00    -0.006 A 
HETATM   12  C10 UNL     1     -37.917  16.608  -6.565  1.00 20.00     0.011 C 
ENDBRANCH   7   9
ENDBRANCH   3   7
TORSDOF 2
ENDMDL
MODEL 8
REMARK VINA RESULT:      -4.1      2.672      5.642
REMARK  2 active torsions:
REMARK  status: ('A' for Active; 'I' for Inactive)
REMARK    1  A    between atoms: C3_3  and  C5_5 
REMARK    2  A    between atoms: C5_5  and  C7_7 
ROOT
HETATM    1  C1  UNL     1     -35.261  15.928  -2.112  1.00 20.00     0.029 A 
HETATM    2  C2  UNL     1     -33.498  17.443  -2.080  1.00 20.00     0.065 A 
HETATM    3  C3  UNL     1     -34.713  17.106  -1.526  1.00 20.00     0.018 A 
HETATM    4  C4  UNL     1     -34.443  15.410  -3.092  1.00 20.00    -0.021 A 
HETATM    5  C9  UNL     1     -34.656  14.208  -3.926  1.00 20.00     0.056 C 
HETATM    6  S12 UNL     1     -33.023  16.342  -3.303  1.00 20.00    -0.106 SA
ENDROOT
BRANCH   3   7
HETATM    7  C5  UNL     1     -35.336  17.892  -0.458  1.00 20.00     0.164 C 
HETATM    8  O11 UNL     1     -35.997  18.909  -0.638  1.00 20.00    -0.292 OA
BRANCH   7   9
HETATM    9  C7  UNL     1     -35.155  17.416   0.918  1.00 20.00     0.065 A 
HETATM   10  C6  UNL     1     -35.459  18.343   2.068  1.00 20.00     0.018 A 
HETATM   11  C8  UNL     1     -34.037  17.948   1.783  1.00 20.00    -0.006 A 
HETATM   12  C10 UNL     1     -33.066  18.965   1.289  1.00 20.00     0.011 C 
ENDBRANCH   7   9
ENDBRANCH   3   7
TORSDOF 2
ENDMDL
MODEL 9
REMARK VINA RESULT:      -4.0      2.316      4.452
REMARK  2 active torsions:
REMARK  status: ('A' for Active; 'I' for Inactive)
REMARK    1  A    between atoms: C3_3  and  C5_5 
REMARK    2  A    between atoms: C5_5  and  C7_7 
ROOT
HETATM    1  C1  UNL     1     -36.600  15.476  -5.860  1.00 20.00     0.029 A 
HETATM    2  C2  UNL     1     -34.327  15.338  -6.331  1.00 20.00     0.065 A 
HETATM    3  C3  UNL     1     -35.313  15.064  -5.408  1.00 20.00     0.018 A 
HETATM    4  C4  UNL     1     -36.548  16.049  -7.112  1.00 20.00    -0.021 A 
HETATM    5  C9  UNL     1     -37.661  16.598  -7.918  1.00 20.00     0.056 C 
HETATM    6  S12 UNL     1     -34.955  16.090  -7.736  1.00 20.00    -0.106 SA
ENDROOT
BRANCH   3   7
HETATM    7  C5  UNL     1     -35.030  14.421  -4.123  1.00 20.00     0.164 C 
HETATM    8  O11 UNL     1     -34.584  13.286  -3.995  1.00 20.00    -0.292 OA
BRANCH   7   9
HETATM    9  C7  UNL     1     -35.297  15.203  -2.910  1.00 20.00     0.065 A 
HETATM   10  C6  UNL     1     -35.521  16.689  -3.022  1.00 20.00     0.018 A 
HETATM   11  C8  UNL     1     -34.272  16.170  -2.367  1.00 20.00    -0.006 A 
HETATM   12  C10 UNL     1     -32.949  16.373  -3.021  1.00 20.00     0.011 C 
ENDBRANCH   7   9
ENDBRANCH   3   7
TORSDOF 2
ENDMDL
