MODEL 1
REMARK VINA RESULT:      -4.9      0.000      0.000
REMARK  3 active torsions:
REMARK  status: ('A' for Active; 'I' for Inactive)
REMARK    1  A    between atoms: C1_1  and  C3_3 
REMARK    2  A    between atoms: C1_1  and  C8_8 
REMARK    3  A    between atoms: C8_8  and  C9_9 
ROOT
HETATM    1  C1  UNL     1     -33.585   5.076   3.071  1.00 20.00     0.131 C 
HETATM    2  O10 UNL     1     -32.759   4.321   2.559  1.00 20.00    -0.298 OA
ENDROOT
BRANCH   1   3
HETATM    3  C3  UNL     1     -34.569   4.569   4.092  1.00 20.00     0.059 A 
HETATM    4  C2  UNL     1     -35.779   5.391   4.366  1.00 20.00     0.017 A 
HETATM    5  C4  UNL     1     -34.698   5.266   5.403  1.00 20.00    -0.007 A 
HETATM    6  C5  UNL     1     -33.888   6.458   5.782  1.00 20.00     0.011 C 
ENDBRANCH   1   3
BRANCH   1   7
HETATM    7  C8  UNL     1     -33.710   6.544   2.692  1.00 20.00     0.082 C 
BRANCH   7   8
HETATM    8  C9  UNL     1     -32.396   7.173   2.203  1.00 20.00    -0.016 C 
HETATM    9  C6  UNL     1     -31.578   7.735   3.367  1.00 20.00     0.010 C 
HETATM   10  C7  UNL     1     -32.691   8.285   1.194  1.00 20.00     0.010 C 
ENDBRANCH   7   8
ENDBRANCH   1   7
TORSDOF 3
ENDMDL
MODEL 2
REMARK VINA RESULT:      -4.5     11.592     12.515
REMARK  3 active torsions:
REMARK  status: ('A' for Active; 'I' for Inactive)
REMARK    1  A    between atoms: C1_1  and  C3_3 
REMARK    2  A    between atoms: C1_1  and  C8_8 
REMARK    3  A    between atoms: C8_8  and  C9_9 
ROOT
HETATM    1  C1  UNL     1     -33.715  14.981  -4.822  1.00 20.00     0.131 C 
HETATM    2  O10 UNL     1     -33.041  14.012  -4.472  1.00 20.00    -0.298 OA
ENDROOT
BRANCH   1   3
HETATM    3  C3  UNL     1     -34.619  14.902  -6.025  1.00 20.00     0.059 A 
HETATM    4  C2  UNL     1     -35.779  15.831  -6.091  1.00 20.00     0.017 A 
HETATM    5  C4  UNL     1     -35.999  14.361  -5.877  1.00 20.00    -0.007 A 
HETATM    6  C5  UNL     1     -36.555  13.871  -4.583  1.00 20.00     0.011 C 
ENDBRANCH   1   3
BRANCH   1   7
HETATM    7  C8  UNL     1     -33.660  16.326  -4.113  1.00 20.00     0.082 C 
BRANCH   7   8
HETATM    8  C9  UNL     1     -33.662  16.220  -2.581  1.00 20.00    -0.016 C 
HETATM    9  C6  UNL     1     -35.085  16.109  -2.030  1.00 20.00     0.010 C 
HETATM   10  C7  UNL     1     -32.965  17.438  -1.971  1.00 20.00     0.010 C 
ENDBRANCH   7   8
ENDBRANCH   1   7
TORSDOF 3
ENDMDL
MODEL 3
REMARK VINA RESULT:      -4.5     11.327     12.950
REMARK  3 active torsions:
REMARK  status: ('A' for Active; 'I' for Inactive)
REMARK    1  A    between atoms: C1_1  and  C3_3 
REMARK    2  A    between atoms: C1_1  and  C8_8 
REMARK    3  A    between atoms: C8_8  and  C9_9 
ROOT
HETATM    1  C1  UNL     1     -35.752  14.355  -4.929  1.00 20.00     0.131 C 
HETATM    2  O10 UNL     1     -36.271  13.311  -5.323  1.00 20.00    -0.298 OA
ENDROOT
BRANCH   1   3
HETATM    3  C3  UNL     1     -35.884  15.632  -5.718  1.00 20.00     0.059 A 
HETATM    4  C2  UNL     1     -36.303  15.534  -7.142  1.00 20.00     0.017 A 
HETATM    5  C4  UNL     1     -34.899  15.941  -6.793  1.00 20.00    -0.007 A 
HETATM    6  C5  UNL     1     -33.757  15.049  -7.141  1.00 20.00     0.011 C 
ENDBRANCH   1   3
BRANCH   1   7
HETATM    7  C8  UNL     1     -34.913  14.434  -3.663  1.00 20.00     0.082 C 
BRANCH   7   8
HETATM    8  C9  UNL     1     -34.552  15.868  -3.246  1.00 20.00    -0.016 C 
HETATM    9  C6  UNL     1     -33.043  16.110  -3.324  1.00 20.00     0.010 C 
HETATM   10  C7  UNL     1     -35.046  16.140  -1.824  1.00 20.00     0.010 C 
ENDBRANCH   7   8
ENDBRANCH   1   7
TORSDOF 3
ENDMDL
MODEL 4
REMARK VINA RESULT:      -4.4     11.320     12.792
REMARK  3 active torsions:
REMARK  status: ('A' for Active; 'I' for Inactive)
REMARK    1  A    between atoms: C1_1  and  C3_3 
REMARK    2  A    between atoms: C1_1  and  C8_8 
REMARK    3  A    between atoms: C8_8  and  C9_9 
ROOT
HETATM    1  C1  UNL     1     -36.026  14.143  -4.628  1.00 20.00     0.131 C 
HETATM    2  O10 UNL     1     -37.128  13.883  -4.149  1.00 20.00    -0.298 OA
ENDROOT
BRANCH   1   3
HETATM    3  C3  UNL     1     -35.831  14.239  -6.119  1.00 20.00     0.059 A 
HETATM    4  C2  UNL     1     -34.691  15.050  -6.625  1.00 20.00     0.017 A 
HETATM    5  C4  UNL     1     -36.102  15.528  -6.817  1.00 20.00    -0.007 A 
HETATM    6  C5  UNL     1     -36.574  16.757  -6.118  1.00 20.00     0.011 C 
ENDBRANCH   1   3
BRANCH   1   7
HETATM    7  C8  UNL     1     -34.781  14.342  -3.776  1.00 20.00     0.082 C 
BRANCH   7   8
HETATM    8  C9  UNL     1     -34.554  15.797  -3.339  1.00 20.00    -0.016 C 
HETATM    9  C6  UNL     1     -33.066  16.154  -3.330  1.00 20.00     0.010 C 
HETATM   10  C7  UNL     1     -35.148  16.024  -1.947  1.00 20.00     0.010 C 
ENDBRANCH   7   8
ENDBRANCH   1   7
TORSDOF 3
ENDMDL
MODEL 5
REMARK VINA RESULT:      -4.4      0.985      1.983
REMARK  3 active torsions:
REMARK  status: ('A' for Active; 'I' for Inactive)
REMARK    1  A    between atoms: C1_1  and  C3_3 
REMARK    2  A    between atoms: C1_1  and  C8_8 
REMARK    3  A    between atoms: C8_8  and  C9_9 
ROOT
HETATM    1  C1  UNL     1     -33.229   6.396   3.042  1.00 20.00     0.131 C 
HETATM    2  O10 UNL     1     -33.218   5.238   2.628  1.00 20.00    -0.298 OA
ENDROOT
BRANCH   1   3
HETATM    3  C3  UNL     1     -34.181   6.822   4.129  1.00 20.00     0.059 A 
HETATM    4  C2  UNL     1     -33.705   6.764   5.538  1.00 20.00     0.017 A 
HETATM    5  C4  UNL     1     -34.751   5.800   5.052  1.00 20.00    -0.007 A 
HETATM    6  C5  UNL     1     -34.439   4.345   4.961  1.00 20.00     0.011 C 
ENDBRANCH   1   3
BRANCH   1   7
HETATM    7  C8  UNL     1     -32.332   7.486   2.473  1.00 20.00     0.082 C 
BRANCH   7   8
HETATM    8  C9  UNL     1     -32.789   8.012   1.104  1.00 20.00    -0.016 C 
HETATM    9  C6  UNL     1     -31.731   7.760   0.027  1.00 20.00     0.010 C 
HETATM   10  C7  UNL     1     -33.088   9.510   1.192  1.00 20.00     0.010 C 
ENDBRANCH   7   8
ENDBRANCH   1   7
TORSDOF 3
ENDMDL
MODEL 6
REMARK VINA RESULT:      -4.3     11.126     12.610
REMARK  3 active torsions:
REMARK  status: ('A' for Active; 'I' for Inactive)
REMARK    1  A    between atoms: C1_1  and  C3_3 
REMARK    2  A    between atoms: C1_1  and  C8_8 
REMARK    3  A    between atoms: C8_8  and  C9_9 
ROOT
HETATM    1  C1  UNL     1     -35.580  13.798  -4.137  1.00 20.00     0.131 C 
HETATM    2  O10 UNL     1     -35.907  12.675  -4.519  1.00 20.00    -0.298 OA
ENDROOT
BRANCH   1   3
HETATM    3  C3  UNL     1     -34.128  14.179  -4.004  1.00 20.00     0.059 A 
HETATM    4  C2  UNL     1     -33.787  15.626  -3.943  1.00 20.00     0.017 A 
HETATM    5  C4  UNL     1     -33.423  14.814  -5.153  1.00 20.00    -0.007 A 
HETATM    6  C5  UNL     1     -34.076  15.095  -6.463  1.00 20.00     0.011 C 
ENDBRANCH   1   3
BRANCH   1   7
HETATM    7  C8  UNL     1     -36.590  14.861  -3.732  1.00 20.00     0.082 C 
BRANCH   7   8
HETATM    8  C9  UNL     1     -37.634  15.169  -4.816  1.00 20.00    -0.016 C 
HETATM    9  C6  UNL     1     -37.466  16.586  -5.368  1.00 20.00     0.010 C 
HETATM   10  C7  UNL     1     -39.045  14.999  -4.249  1.00 20.00     0.010 C 
ENDBRANCH   7   8
ENDBRANCH   1   7
TORSDOF 3
ENDMDL
MODEL 7
REMARK VINA RESULT:      -4.3     11.995     13.032
REMARK  3 active torsions:
REMARK  status: ('A' for Active; 'I' for Inactive)
REMARK    1  A    between atoms: C1_1  and  C3_3 
REMARK    2  A    between atoms: C1_1  and  C8_8 
REMARK    3  A    between atoms: C8_8  and  C9_9 
ROOT
HETATM    1  C1  UNL     1     -33.038  17.765  -3.404  1.00 20.00     0.131 C 
HETATM    2  O10 UNL     1     -33.410  18.149  -4.512  1.00 20.00    -0.298 OA
ENDROOT
BRANCH   1   3
HETATM    3  C3  UNL     1     -33.125  16.311  -3.018  1.00 20.00     0.059 A 
HETATM    4  C2  UNL     1     -33.851  15.387  -3.931  1.00 20.00     0.017 A 
HETATM    5  C4  UNL     1     -34.432  15.738  -2.590  1.00 20.00    -0.007 A 
HETATM    6  C5  UNL     1     -35.690  16.533  -2.508  1.00 20.00     0.011 C 
ENDBRANCH   1   3
BRANCH   1   7
HETATM    7  C8  UNL     1     -32.512  18.711  -2.334  1.00 20.00     0.082 C 
BRANCH   7   8
HETATM    8  C9  UNL     1     -32.414  18.077  -0.939  1.00 20.00    -0.016 C 
HETATM    9  C6  UNL     1     -33.552  18.547  -0.030  1.00 20.00     0.010 C 
HETATM   10  C7  UNL     1     -31.067  18.421  -0.300  1.00 20.00     0.010 C 
ENDBRANCH   7   8
ENDBRANCH   1   7
TORSDOF 3
ENDMDL
MODEL 8
REMARK VINA RESULT:      -4.3     11.299     12.624
REMARK  3 active torsions:
REMARK  status: ('A' for Active; 'I' for Inactive)
REMARK    1  A    between atoms: C1_1  and  C3_3 
REMARK    2  A    between atoms: C1_1  and  C8_8 
REMARK    3  A    between atoms: C8_8  and  C9_9 
ROOT
HETATM    1  C1  UNL     1     -34.707  14.473  -4.247  1.00 20.00     0.131 C 
HETATM    2  O10 UNL     1     -33.921  13.527  -4.252  1.00 20.00    -0.298 OA
ENDROOT
BRANCH   1   3
HETATM    3  C3  UNL     1     -35.196  15.067  -2.951  1.00 20.00     0.059 A 
HETATM    4  C2  UNL     1     -35.711  16.463  -2.972  1.00 20.00     0.017 A 
HETATM    5  C4  UNL     1     -34.409  16.146  -2.291  1.00 20.00    -0.007 A 
HETATM    6  C5  UNL     1     -33.131  16.684  -2.839  1.00 20.00     0.011 C 
ENDBRANCH   1   3
BRANCH   1   7
HETATM    7  C8  UNL     1     -35.276  15.082  -5.519  1.00 20.00     0.082 C 
BRANCH   7   8
HETATM    8  C9  UNL     1     -34.255  15.898  -6.326  1.00 20.00    -0.016 C 
HETATM    9  C6  UNL     1     -34.660  17.372  -6.413  1.00 20.00     0.010 C 
HETATM   10  C7  UNL     1     -34.117  15.318  -7.735  1.00 20.00     0.010 C 
ENDBRANCH   7   8
ENDBRANCH   1   7
TORSDOF 3
ENDMDL
MODEL 9
REMARK VINA RESULT:      -4.2     11.410     12.956
REMARK  3 active torsions:
REMARK  status: ('A' for Active; 'I' for Inactive)
REMARK    1  A    between atoms: C1_1  and  C3_3 
REMARK    2  A    between atoms: C1_1  and  C8_8 
REMARK    3  A    between atoms: C8_8  and  C9_9 
ROOT
HETATM    1  C1  UNL     1     -36.731  14.666  -4.249  1.00 20.00     0.131 C 
HETATM    2  O10 UNL     1     -37.492  13.718  -4.435  1.00 20.00    -0.298 OA
ENDROOT
BRANCH   1   3
HETATM    3  C3  UNL     1     -37.100  16.056  -4.701  1.00 20.00     0.059 A 
HETATM    4  C2  UNL     1     -38.214  16.201  -5.675  1.00 20.00     0.017 A 
HETATM    5  C4  UNL     1     -36.799  16.482  -6.097  1.00 20.00    -0.007 A 
HETATM    6  C5  UNL     1     -36.132  15.602  -7.099  1.00 20.00     0.011 C 
ENDBRANCH   1   3
BRANCH   1   7
HETATM    7  C8  UNL     1     -35.362  14.514  -3.602  1.00 20.00     0.082 C 
BRANCH   7   8
HETATM    8  C9  UNL     1     -34.696  15.849  -3.239  1.00 20.00    -0.016 C 
HETATM    9  C6  UNL     1     -33.188  15.810  -3.497  1.00 20.00     0.010 C 
HETATM   10  C7  UNL     1     -34.960  16.184  -1.769  1.00 20.00     0.010 C 
ENDBRANCH   7   8
ENDBRANCH   1   7
TORSDOF 3
ENDMDL
