MODEL 1
REMARK VINA RESULT:      -4.8      0.000      0.000
REMARK  3 active torsions:
REMARK  status: ('A' for Active; 'I' for Inactive)
REMARK    1  A    between atoms: C1_1  and  C9_9 
REMARK    2  A    between atoms: C10_10  and  C11_11 
REMARK    3  A    between atoms: C11_11  and  N12_12 
ROOT
HETATM    1  C5  UNL     1     -34.793  15.999  -6.083  1.00 20.00     0.039 C 
HETATM    2  C6  UNL     1     -33.267  14.542  -4.686  1.00 20.00     0.039 C 
HETATM    3  C7  UNL     1     -34.740  17.070  -5.002  1.00 20.00     0.235 C 
HETATM    4  C8  UNL     1     -33.230  15.629  -3.618  1.00 20.00     0.235 C 
HETATM    5  C9  UNL     1     -34.535  14.593  -5.539  1.00 20.00     0.050 C 
HETATM    6  N12 UNL     1     -33.426  16.978  -4.265  1.00 20.00    -0.071 N 
HETATM    7  H33 UNL     1     -32.676  17.096  -4.960  1.00 20.00     0.279 HD
ENDROOT
BRANCH   6   8
HETATM    8  C11 UNL     1     -33.266  18.097  -3.274  1.00 20.00     0.239 C 
BRANCH   8   9
HETATM    9  C10 UNL     1     -32.945  17.513  -1.907  1.00 20.00     0.011 C 
HETATM   10  C3  UNL     1     -33.942  17.854  -0.771  1.00 20.00     0.006 C 
HETATM   11  C2  UNL     1     -33.010  19.014  -0.372  1.00 20.00     0.001 C 
HETATM   12  C4  UNL     1     -31.868  18.263  -1.083  1.00 20.00     0.006 C 
ENDBRANCH   8   9
ENDBRANCH   6   8
BRANCH   5  13
HETATM   13  C1  UNL     1     -35.722  14.092  -4.765  1.00 20.00     0.235 C 
HETATM   14  O13 UNL     1     -35.948  12.904  -4.566  1.00 20.00    -0.306 OA
ENDBRANCH   5  13
TORSDOF 3
ENDMDL
MODEL 2
REMARK VINA RESULT:      -4.6      1.041      1.173
REMARK  3 active torsions:
REMARK  status: ('A' for Active; 'I' for Inactive)
REMARK    1  A    between atoms: C1_1  and  C9_9 
REMARK    2  A    between atoms: C10_10  and  C11_11 
REMARK    3  A    between atoms: C11_11  and  N12_12 
ROOT
HETATM    1  C5  UNL     1     -36.625  15.952  -5.632  1.00 20.00     0.039 C 
HETATM    2  C6  UNL     1     -34.368  14.818  -5.786  1.00 20.00     0.039 C 
HETATM    3  C7  UNL     1     -36.099  16.817  -4.493  1.00 20.00     0.235 C 
HETATM    4  C8  UNL     1     -33.866  15.695  -4.644  1.00 20.00     0.235 C 
HETATM    5  C9  UNL     1     -35.884  14.620  -5.756  1.00 20.00     0.050 C 
HETATM    6  N12 UNL     1     -34.610  17.007  -4.651  1.00 20.00    -0.071 N 
HETATM    7  H33 UNL     1     -34.452  17.444  -5.569  1.00 20.00     0.279 HD
ENDROOT
BRANCH   6   8
HETATM    8  C11 UNL     1     -34.061  17.962  -3.627  1.00 20.00     0.239 C 
BRANCH   8   9
HETATM    9  C10 UNL     1     -33.522  17.173  -2.445  1.00 20.00     0.011 C 
HETATM   10  C3  UNL     1     -34.432  17.119  -1.192  1.00 20.00     0.006 C 
HETATM   11  C2  UNL     1     -33.631  18.306  -0.623  1.00 20.00     0.001 C 
HETATM   12  C4  UNL     1     -32.478  17.900  -1.561  1.00 20.00     0.006 C 
ENDBRANCH   8   9
ENDBRANCH   6   8
BRANCH   5  13
HETATM   13  C1  UNL     1     -36.280  13.682  -4.651  1.00 20.00     0.235 C 
HETATM   14  O13 UNL     1     -35.811  12.556  -4.519  1.00 20.00    -0.306 OA
ENDBRANCH   5  13
TORSDOF 3
ENDMDL
MODEL 3
REMARK VINA RESULT:      -4.4      2.827      5.635
REMARK  3 active torsions:
REMARK  status: ('A' for Active; 'I' for Inactive)
REMARK    1  A    between atoms: C1_1  and  C9_9 
REMARK    2  A    between atoms: C10_10  and  C11_11 
REMARK    3  A    between atoms: C11_11  and  N12_12 
ROOT
HETATM    1  C5  UNL     1     -32.460  18.790  -2.238  1.00 20.00     0.039 C 
HETATM    2  C6  UNL     1     -33.871  19.003  -0.148  1.00 20.00     0.039 C 
HETATM    3  C7  UNL     1     -33.009  17.385  -2.450  1.00 20.00     0.235 C 
HETATM    4  C8  UNL     1     -34.405  17.595  -0.382  1.00 20.00     0.235 C 
HETATM    5  C9  UNL     1     -32.492  19.225  -0.771  1.00 20.00     0.050 C 
HETATM    6  N12 UNL     1     -34.394  17.291  -1.860  1.00 20.00    -0.071 N 
HETATM    7  H33 UNL     1     -34.974  18.004  -2.324  1.00 20.00     0.279 HD
ENDROOT
BRANCH   6   8
HETATM    8  C11 UNL     1     -35.036  15.964  -2.159  1.00 20.00     0.239 C 
BRANCH   8   9
HETATM    9  C10 UNL     1     -34.680  15.543  -3.576  1.00 20.00     0.011 C 
HETATM   10  C3  UNL     1     -35.822  15.637  -4.619  1.00 20.00     0.006 C 
HETATM   11  C2  UNL     1     -36.105  14.143  -4.366  1.00 20.00     0.001 C 
HETATM   12  C4  UNL     1     -34.659  14.018  -3.847  1.00 20.00     0.006 C 
ENDBRANCH   8   9
ENDBRANCH   6   8
BRANCH   5  13
HETATM   13  C1  UNL     1     -31.427  18.519   0.020  1.00 20.00     0.235 C 
HETATM   14  O13 UNL     1     -30.306  18.282  -0.417  1.00 20.00    -0.306 OA
ENDBRANCH   5  13
TORSDOF 3
ENDMDL
MODEL 4
REMARK VINA RESULT:      -4.4      2.030      2.784
REMARK  3 active torsions:
REMARK  status: ('A' for Active; 'I' for Inactive)
REMARK    1  A    between atoms: C1_1  and  C9_9 
REMARK    2  A    between atoms: C10_10  and  C11_11 
REMARK    3  A    between atoms: C11_11  and  N12_12 
ROOT
HETATM    1  C5  UNL     1     -34.872  14.025  -3.834  1.00 20.00     0.039 C 
HETATM    2  C6  UNL     1     -37.247  14.627  -4.468  1.00 20.00     0.039 C 
HETATM    3  C7  UNL     1     -34.709  15.397  -3.191  1.00 20.00     0.235 C 
HETATM    4  C8  UNL     1     -37.059  15.993  -3.818  1.00 20.00     0.235 C 
HETATM    5  C9  UNL     1     -35.929  14.009  -4.939  1.00 20.00     0.050 C 
HETATM    6  N12 UNL     1     -36.050  15.886  -2.702  1.00 20.00    -0.071 N 
HETATM    7  H33 UNL     1     -36.405  15.189  -2.033  1.00 20.00     0.279 HD
ENDROOT
BRANCH   6   8
HETATM    8  C11 UNL     1     -35.925  17.177  -1.940  1.00 20.00     0.239 C 
BRANCH   8   9
HETATM    9  C10 UNL     1     -34.994  16.972  -0.756  1.00 20.00     0.011 C 
HETATM   10  C3  UNL     1     -35.575  17.330   0.635  1.00 20.00     0.006 C 
HETATM   11  C2  UNL     1     -34.914  18.715   0.497  1.00 20.00     0.001 C 
HETATM   12  C4  UNL     1     -33.941  18.085  -0.519  1.00 20.00     0.006 C 
ENDBRANCH   8   9
ENDBRANCH   6   8
BRANCH   5  13
HETATM   13  C1  UNL     1     -35.425  14.702  -6.173  1.00 20.00     0.235 C 
HETATM   14  O13 UNL     1     -34.263  14.635  -6.560  1.00 20.00    -0.306 OA
ENDBRANCH   5  13
TORSDOF 3
ENDMDL
MODEL 5
REMARK VINA RESULT:      -4.1      1.492      2.129
REMARK  3 active torsions:
REMARK  status: ('A' for Active; 'I' for Inactive)
REMARK    1  A    between atoms: C1_1  and  C9_9 
REMARK    2  A    between atoms: C10_10  and  C11_11 
REMARK    3  A    between atoms: C11_11  and  N12_12 
ROOT
HETATM    1  C5  UNL     1     -35.246  15.263  -3.210  1.00 20.00     0.039 C 
HETATM    2  C6  UNL     1     -34.958  16.853  -5.158  1.00 20.00     0.039 C 
HETATM    3  C7  UNL     1     -34.452  16.218  -2.329  1.00 20.00     0.235 C 
HETATM    4  C8  UNL     1     -34.165  17.792  -4.255  1.00 20.00     0.235 C 
HETATM    5  C9  UNL     1     -34.899  15.397  -4.694  1.00 20.00     0.050 C 
HETATM    6  N12 UNL     1     -34.630  17.630  -2.828  1.00 20.00    -0.071 N 
HETATM    7  H33 UNL     1     -35.637  17.838  -2.809  1.00 20.00     0.279 HD
ENDROOT
BRANCH   6   8
HETATM    8  C11 UNL     1     -33.973  18.629  -1.915  1.00 20.00     0.239 C 
BRANCH   8   9
HETATM    9  C10 UNL     1     -33.122  17.890  -0.894  1.00 20.00     0.011 C 
HETATM   10  C3  UNL     1     -33.191  18.421   0.560  1.00 20.00     0.006 C 
HETATM   11  C2  UNL     1     -31.923  19.244   0.263  1.00 20.00     0.001 C 
HETATM   12  C4  UNL     1     -31.616  18.252  -0.875  1.00 20.00     0.006 C 
ENDBRANCH   8   9
ENDBRANCH   6   8
BRANCH   5  13
HETATM   13  C1  UNL     1     -33.552  14.796  -4.986  1.00 20.00     0.235 C 
HETATM   14  O13 UNL     1     -33.139  13.771  -4.454  1.00 20.00    -0.306 OA
ENDBRANCH   5  13
TORSDOF 3
ENDMDL
MODEL 6
REMARK VINA RESULT:      -4.0      1.506      2.287
REMARK  3 active torsions:
REMARK  status: ('A' for Active; 'I' for Inactive)
REMARK    1  A    between atoms: C1_1  and  C9_9 
REMARK    2  A    between atoms: C10_10  and  C11_11 
REMARK    3  A    between atoms: C11_11  and  N12_12 
ROOT
HETATM    1  C5  UNL     1     -35.297  13.890  -4.121  1.00 20.00     0.039 C 
HETATM    2  C6  UNL     1     -36.655  15.992  -3.748  1.00 20.00     0.039 C 
HETATM    3  C7  UNL     1     -34.019  14.694  -3.922  1.00 20.00     0.235 C 
HETATM    4  C8  UNL     1     -35.361  16.775  -3.553  1.00 20.00     0.235 C 
HETATM    5  C9  UNL     1     -36.466  14.745  -4.613  1.00 20.00     0.050 C 
HETATM    6  N12 UNL     1     -34.296  15.860  -3.004  1.00 20.00    -0.071 N 
HETATM    7  H33 UNL     1     -34.649  15.475  -2.118  1.00 20.00     0.279 HD
ENDROOT
BRANCH   6   8
HETATM    8  C11 UNL     1     -33.037  16.612  -2.668  1.00 20.00     0.239 C 
BRANCH   8   9
HETATM    9  C10 UNL     1     -33.405  17.953  -2.053  1.00 20.00     0.011 C 
HETATM   10  C3  UNL     1     -32.288  19.028  -2.049  1.00 20.00     0.006 C 
HETATM   11  C2  UNL     1     -31.944  18.589  -0.613  1.00 20.00     0.001 C 
HETATM   12  C4  UNL     1     -33.373  18.024  -0.506  1.00 20.00     0.006 C 
ENDBRANCH   8   9
ENDBRANCH   6   8
BRANCH   5  13
HETATM   13  C1  UNL     1     -36.288  15.117  -6.058  1.00 20.00     0.235 C 
HETATM   14  O13 UNL     1     -36.160  14.293  -6.957  1.00 20.00    -0.306 OA
ENDBRANCH   5  13
TORSDOF 3
ENDMDL
MODEL 7
REMARK VINA RESULT:      -4.0      3.628      5.632
REMARK  3 active torsions:
REMARK  status: ('A' for Active; 'I' for Inactive)
REMARK    1  A    between atoms: C1_1  and  C9_9 
REMARK    2  A    between atoms: C10_10  and  C11_11 
REMARK    3  A    between atoms: C11_11  and  N12_12 
ROOT
HETATM    1  C5  UNL     1     -34.886  15.534  -2.809  1.00 20.00     0.039 C 
HETATM    2  C6  UNL     1     -35.790  13.670  -4.263  1.00 20.00     0.039 C 
HETATM    3  C7  UNL     1     -36.062  16.409  -3.221  1.00 20.00     0.235 C 
HETATM    4  C8  UNL     1     -36.958  14.566  -4.660  1.00 20.00     0.235 C 
HETATM    5  C9  UNL     1     -34.550  14.464  -3.849  1.00 20.00     0.050 C 
HETATM    6  N12 UNL     1     -37.251  15.537  -3.542  1.00 20.00    -0.071 N 
HETATM    7  H33 UNL     1     -37.461  14.982  -2.702  1.00 20.00     0.279 HD
ENDROOT
BRANCH   6   8
HETATM    8  C11 UNL     1     -38.480  16.356  -3.827  1.00 20.00     0.239 C 
BRANCH   8   9
HETATM    9  C10 UNL     1     -39.693  15.440  -3.872  1.00 20.00     0.011 C 
HETATM   10  C3  UNL     1     -40.564  15.529  -5.150  1.00 20.00     0.006 C 
HETATM   11  C2  UNL     1     -41.476  16.516  -4.397  1.00 20.00     0.001 C 
HETATM   12  C4  UNL     1     -40.936  15.920  -3.082  1.00 20.00     0.006 C 
ENDBRANCH   8   9
ENDBRANCH   6   8
BRANCH   5  13
HETATM   13  C1  UNL     1     -33.880  15.073  -5.048  1.00 20.00     0.235 C 
HETATM   14  O13 UNL     1     -33.792  14.510  -6.134  1.00 20.00    -0.306 OA
ENDBRANCH   5  13
TORSDOF 3
ENDMDL
MODEL 8
REMARK VINA RESULT:      -3.9      2.015      2.564
REMARK  3 active torsions:
REMARK  status: ('A' for Active; 'I' for Inactive)
REMARK    1  A    between atoms: C1_1  and  C9_9 
REMARK    2  A    between atoms: C10_10  and  C11_11 
REMARK    3  A    between atoms: C11_11  and  N12_12 
ROOT
HETATM    1  C5  UNL     1     -37.402  17.301  -4.194  1.00 20.00     0.039 C 
HETATM    2  C6  UNL     1     -36.196  15.345  -5.254  1.00 20.00     0.039 C 
HETATM    3  C7  UNL     1     -36.558  17.125  -2.938  1.00 20.00     0.235 C 
HETATM    4  C8  UNL     1     -35.364  15.190  -3.986  1.00 20.00     0.235 C 
HETATM    5  C9  UNL     1     -37.550  16.006  -4.995  1.00 20.00     0.050 C 
HETATM    6  N12 UNL     1     -35.221  16.531  -3.309  1.00 20.00    -0.071 N 
HETATM    7  H33 UNL     1     -34.778  17.169  -3.983  1.00 20.00     0.279 HD
ENDROOT
BRANCH   6   8
HETATM    8  C11 UNL     1     -34.298  16.459  -2.124  1.00 20.00     0.239 C 
BRANCH   8   9
HETATM    9  C10 UNL     1     -32.944  17.035  -2.509  1.00 20.00     0.011 C 
HETATM   10  C3  UNL     1     -32.318  18.031  -1.500  1.00 20.00     0.006 C 
HETATM   11  C2  UNL     1     -32.918  19.175  -2.338  1.00 20.00     0.001 C 
HETATM   12  C4  UNL     1     -32.966  18.199  -3.530  1.00 20.00     0.006 C 
ENDBRANCH   8   9
ENDBRANCH   6   8
BRANCH   5  13
HETATM   13  C1  UNL     1     -38.488  15.055  -4.307  1.00 20.00     0.235 C 
HETATM   14  O13 UNL     1     -38.403  13.835  -4.401  1.00 20.00    -0.306 OA
ENDBRANCH   5  13
TORSDOF 3
ENDMDL
MODEL 9
REMARK VINA RESULT:      -3.9      3.697      4.677
REMARK  3 active torsions:
REMARK  status: ('A' for Active; 'I' for Inactive)
REMARK    1  A    between atoms: C1_1  and  C9_9 
REMARK    2  A    between atoms: C10_10  and  C11_11 
REMARK    3  A    between atoms: C11_11  and  N12_12 
ROOT
HETATM    1  C5  UNL     1     -39.028  14.674  -4.233  1.00 20.00     0.039 C 
HETATM    2  C6  UNL     1     -39.961  16.765  -3.156  1.00 20.00     0.039 C 
HETATM    3  C7  UNL     1     -37.673  15.358  -4.360  1.00 20.00     0.235 C 
HETATM    4  C8  UNL     1     -38.595  17.428  -3.295  1.00 20.00     0.235 C 
HETATM    5  C9  UNL     1     -40.192  15.665  -4.193  1.00 20.00     0.050 C 
HETATM    6  N12 UNL     1     -37.517  16.374  -3.255  1.00 20.00    -0.071 N 
HETATM    7  H33 UNL     1     -37.611  15.872  -2.362  1.00 20.00     0.279 HD
ENDROOT
BRANCH   6   8
HETATM    8  C11 UNL     1     -36.142  16.986  -3.254  1.00 20.00     0.239 C 
BRANCH   8   9
HETATM    9  C10 UNL     1     -35.203  16.105  -2.445  1.00 20.00     0.011 C 
HETATM   10  C3  UNL     1     -33.986  16.819  -1.805  1.00 20.00     0.006 C 
HETATM   11  C2  UNL     1     -33.156  16.389  -3.029  1.00 20.00     0.001 C 
HETATM   12  C4  UNL     1     -34.187  15.267  -3.261  1.00 20.00     0.006 C 
ENDBRANCH   8   9
ENDBRANCH   6   8
BRANCH   5  13
HETATM   13  C1  UNL     1     -40.441  16.255  -5.553  1.00 20.00     0.235 C 
HETATM   14  O13 UNL     1     -40.544  15.582  -6.573  1.00 20.00    -0.306 OA
ENDBRANCH   5  13
TORSDOF 3
ENDMDL
