MODEL 1
REMARK VINA RESULT:      -4.1      0.000      0.000
REMARK  2 active torsions:
REMARK  status: ('A' for Active; 'I' for Inactive)
REMARK    1  A    between atoms: C2_2  and  C8_8 
REMARK    2  A    between atoms: C3_3  and  C5_5 
ROOT
HETATM    1  C1  UNL     1     -23.590  18.572   7.739  1.00 20.00     0.080 A 
HETATM    2  C2  UNL     1     -24.898  18.801   8.114  1.00 20.00     0.055 A 
HETATM    3  C3  UNL     1     -24.041  18.452  10.103  1.00 20.00     0.080 A 
HETATM    4  N9  UNL     1     -25.158  18.733   9.469  1.00 20.00    -0.248 NA
HETATM    5  S10 UNL     1     -22.640  18.258   9.132  1.00 20.00    -0.084 SA
ENDROOT
BRANCH   3   6
HETATM    6  C5  UNL     1     -23.993  18.305  11.634  1.00 20.00     0.049 A 
HETATM    7  C4  UNL     1     -22.852  17.525  12.248  1.00 20.00     0.016 A 
HETATM    8  C6  UNL     1     -24.240  16.959  12.288  1.00 20.00    -0.007 A 
HETATM    9  C7  UNL     1     -24.571  15.735  11.503  1.00 20.00     0.011 C 
ENDBRANCH   3   6
BRANCH   2  10
HETATM   10  C8  UNL     1     -26.015  19.108   7.199  1.00 20.00     0.174 C 
HETATM   11 CL11 UNL     1     -25.446  19.262   5.517  1.00 20.00    -0.124 Cl
ENDBRANCH   2  10
TORSDOF 2
ENDMDL
MODEL 2
REMARK VINA RESULT:      -3.9     13.807     15.936
REMARK  2 active torsions:
REMARK  status: ('A' for Active; 'I' for Inactive)
REMARK    1  A    between atoms: C2_2  and  C8_8 
REMARK    2  A    between atoms: C3_3  and  C5_5 
ROOT
HETATM    1  C1  UNL     1     -34.252  18.026  -0.881  1.00 20.00     0.080 A 
HETATM    2  C2  UNL     1     -33.038  17.895  -1.524  1.00 20.00     0.055 A 
HETATM    3  C3  UNL     1     -34.093  16.217  -2.464  1.00 20.00     0.080 A 
HETATM    4  N9  UNL     1     -32.945  16.858  -2.432  1.00 20.00    -0.248 NA
HETATM    5  S10 UNL     1     -35.327  16.809  -1.429  1.00 20.00    -0.084 SA
ENDROOT
BRANCH   3   6
HETATM    6  C5  UNL     1     -34.318  15.003  -3.381  1.00 20.00     0.049 A 
HETATM    7  C4  UNL     1     -33.263  14.675  -4.416  1.00 20.00     0.016 A 
HETATM    8  C6  UNL     1     -34.598  15.194  -4.860  1.00 20.00    -0.007 A 
HETATM    9  C7  UNL     1     -34.705  16.543  -5.487  1.00 20.00     0.011 C 
ENDBRANCH   3   6
BRANCH   2  10
HETATM   10  C8  UNL     1     -31.857  18.757  -1.320  1.00 20.00     0.174 C 
HETATM   11 CL11 UNL     1     -30.877  18.191   0.057  1.00 20.00    -0.124 Cl
ENDBRANCH   2  10
TORSDOF 2
ENDMDL
MODEL 3
REMARK VINA RESULT:      -3.8     16.473     18.142
REMARK  2 active torsions:
REMARK  status: ('A' for Active; 'I' for Inactive)
REMARK    1  A    between atoms: C2_2  and  C8_8 
REMARK    2  A    between atoms: C3_3  and  C5_5 
ROOT
HETATM    1  C1  UNL     1     -37.068  16.081  -5.797  1.00 20.00     0.080 A 
HETATM    2  C2  UNL     1     -35.889  15.511  -6.233  1.00 20.00     0.055 A 
HETATM    3  C3  UNL     1     -35.414  15.658  -4.096  1.00 20.00     0.080 A 
HETATM    4  N9  UNL     1     -34.940  15.269  -5.259  1.00 20.00    -0.248 NA
HETATM    5  S10 UNL     1     -36.995  16.324  -4.101  1.00 20.00    -0.084 SA
ENDROOT
BRANCH   3   6
HETATM    6  C5  UNL     1     -34.595  15.523  -2.801  1.00 20.00     0.049 A 
HETATM    7  C4  UNL     1     -34.841  16.514  -1.685  1.00 20.00     0.016 A 
HETATM    8  C6  UNL     1     -33.547  16.557  -2.440  1.00 20.00    -0.007 A 
HETATM    9  C7  UNL     1     -33.232  17.720  -3.319  1.00 20.00     0.011 C 
ENDBRANCH   3   6
BRANCH   2  10
HETATM   10  C8  UNL     1     -35.572  15.150  -7.629  1.00 20.00     0.174 C 
HETATM   11 CL11 UNL     1     -33.813  15.186  -7.918  1.00 20.00    -0.124 Cl
ENDBRANCH   2  10
TORSDOF 2
ENDMDL
MODEL 4
REMARK VINA RESULT:      -3.7     13.919     16.006
REMARK  2 active torsions:
REMARK  status: ('A' for Active; 'I' for Inactive)
REMARK    1  A    between atoms: C2_2  and  C8_8 
REMARK    2  A    between atoms: C3_3  and  C5_5 
ROOT
HETATM    1  C1  UNL     1     -33.310  19.248  -3.295  1.00 20.00     0.080 A 
HETATM    2  C2  UNL     1     -32.830  18.596  -2.178  1.00 20.00     0.055 A 
HETATM    3  C3  UNL     1     -33.194  16.846  -3.450  1.00 20.00     0.080 A 
HETATM    4  N9  UNL     1     -32.763  17.219  -2.264  1.00 20.00    -0.248 NA
HETATM    5  S10 UNL     1     -33.694  18.099  -4.509  1.00 20.00    -0.084 SA
ENDROOT
BRANCH   3   6
HETATM    6  C5  UNL     1     -33.246  15.366  -3.863  1.00 20.00     0.049 A 
HETATM    7  C4  UNL     1     -33.970  14.998  -5.140  1.00 20.00     0.016 A 
HETATM    8  C6  UNL     1     -34.553  14.597  -3.818  1.00 20.00    -0.007 A 
HETATM    9  C7  UNL     1     -35.827  15.211  -3.344  1.00 20.00     0.011 C 
ENDBRANCH   3   6
BRANCH   2  10
HETATM   10  C8  UNL     1     -32.392  19.243  -0.925  1.00 20.00     0.174 C 
HETATM   11 CL11 UNL     1     -30.991  18.396  -0.220  1.00 20.00    -0.124 Cl
ENDBRANCH   2  10
TORSDOF 2
ENDMDL
MODEL 5
REMARK VINA RESULT:      -3.7     16.869     18.540
REMARK  2 active torsions:
REMARK  status: ('A' for Active; 'I' for Inactive)
REMARK    1  A    between atoms: C2_2  and  C8_8 
REMARK    2  A    between atoms: C3_3  and  C5_5 
ROOT
HETATM    1  C1  UNL     1     -35.549  15.667  -7.192  1.00 20.00     0.080 A 
HETATM    2  C2  UNL     1     -36.540  16.085  -6.327  1.00 20.00     0.055 A 
HETATM    3  C3  UNL     1     -35.069  15.411  -4.845  1.00 20.00     0.080 A 
HETATM    4  N9  UNL     1     -36.266  15.938  -4.981  1.00 20.00    -0.248 NA
HETATM    5  S10 UNL     1     -34.217  15.067  -6.294  1.00 20.00    -0.084 SA
ENDROOT
BRANCH   3   6
HETATM    6  C5  UNL     1     -34.465  15.119  -3.461  1.00 20.00     0.049 A 
HETATM    7  C4  UNL     1     -34.957  15.921  -2.275  1.00 20.00     0.016 A 
HETATM    8  C6  UNL     1     -33.562  16.133  -2.784  1.00 20.00    -0.007 A 
HETATM    9  C7  UNL     1     -33.188  17.427  -3.424  1.00 20.00     0.011 C 
ENDBRANCH   3   6
BRANCH   2  10
HETATM   10  C8  UNL     1     -37.840  16.662  -6.720  1.00 20.00     0.174 C 
HETATM   11 CL11 UNL     1     -39.099  16.294  -5.513  1.00 20.00    -0.124 Cl
ENDBRANCH   2  10
TORSDOF 2
ENDMDL
MODEL 6
REMARK VINA RESULT:      -3.6     14.874     16.588
REMARK  2 active torsions:
REMARK  status: ('A' for Active; 'I' for Inactive)
REMARK    1  A    between atoms: C2_2  and  C8_8 
REMARK    2  A    between atoms: C3_3  and  C5_5 
ROOT
HETATM    1  C1  UNL     1     -33.713  17.754  -1.528  1.00 20.00     0.080 A 
HETATM    2  C2  UNL     1     -34.826  17.063  -1.094  1.00 20.00     0.055 A 
HETATM    3  C3  UNL     1     -34.306  15.805  -2.815  1.00 20.00     0.080 A 
HETATM    4  N9  UNL     1     -35.168  15.945  -1.831  1.00 20.00    -0.248 NA
HETATM    5  S10 UNL     1     -33.060  16.981  -2.912  1.00 20.00    -0.084 SA
ENDROOT
BRANCH   3   6
HETATM    6  C5  UNL     1     -34.410  14.649  -3.824  1.00 20.00     0.049 A 
HETATM    7  C4  UNL     1     -33.678  14.773  -5.142  1.00 20.00     0.016 A 
HETATM    8  C6  UNL     1     -35.177  14.824  -5.121  1.00 20.00    -0.007 A 
HETATM    9  C7  UNL     1     -35.888  16.088  -5.468  1.00 20.00     0.011 C 
ENDBRANCH   3   6
BRANCH   2  10
HETATM   10  C8  UNL     1     -35.661  17.417   0.071  1.00 20.00     0.174 C 
HETATM   11 CL11 UNL     1     -34.653  17.836   1.481  1.00 20.00    -0.124 Cl
ENDBRANCH   2  10
TORSDOF 2
ENDMDL
MODEL 7
REMARK VINA RESULT:      -3.6     17.274     18.825
REMARK  2 active torsions:
REMARK  status: ('A' for Active; 'I' for Inactive)
REMARK    1  A    between atoms: C2_2  and  C8_8 
REMARK    2  A    between atoms: C3_3  and  C5_5 
ROOT
HETATM    1  C1  UNL     1     -38.002  16.792  -4.090  1.00 20.00     0.080 A 
HETATM    2  C2  UNL     1     -38.252  15.436  -4.146  1.00 20.00     0.055 A 
HETATM    3  C3  UNL     1     -36.100  15.357  -3.729  1.00 20.00     0.080 A 
HETATM    4  N9  UNL     1     -37.163  14.612  -3.940  1.00 20.00    -0.248 NA
HETATM    5  S10 UNL     1     -36.338  17.055  -3.764  1.00 20.00    -0.084 SA
ENDROOT
BRANCH   3   6
HETATM    6  C5  UNL     1     -34.717  14.737  -3.465  1.00 20.00     0.049 A 
HETATM    7  C4  UNL     1     -33.501  15.637  -3.519  1.00 20.00     0.016 A 
HETATM    8  C6  UNL     1     -33.705  14.603  -4.586  1.00 20.00    -0.007 A 
HETATM    9  C7  UNL     1     -34.000  15.022  -5.987  1.00 20.00     0.011 C 
ENDBRANCH   3   6
BRANCH   2  10
HETATM   10  C8  UNL     1     -39.566  14.813  -4.404  1.00 20.00     0.174 C 
HETATM   11 CL11 UNL     1     -40.855  15.620  -3.474  1.00 20.00    -0.124 Cl
ENDBRANCH   2  10
TORSDOF 2
ENDMDL
MODEL 8
REMARK VINA RESULT:      -3.5     12.437     14.170
REMARK  2 active torsions:
REMARK  status: ('A' for Active; 'I' for Inactive)
REMARK    1  A    between atoms: C2_2  and  C8_8 
REMARK    2  A    between atoms: C3_3  and  C5_5 
ROOT
HETATM    1  C1  UNL     1     -35.702  17.473  -1.325  1.00 20.00     0.080 A 
HETATM    2  C2  UNL     1     -34.650  16.778  -1.885  1.00 20.00     0.055 A 
HETATM    3  C3  UNL     1     -33.505  18.349  -0.869  1.00 20.00     0.080 A 
HETATM    4  N9  UNL     1     -33.390  17.279  -1.625  1.00 20.00    -0.248 NA
HETATM    5  S10 UNL     1     -35.100  18.808  -0.433  1.00 20.00    -0.084 SA
ENDROOT
BRANCH   3   6
HETATM    6  C5  UNL     1     -32.275  19.146  -0.400  1.00 20.00     0.049 A 
HETATM    7  C4  UNL     1     -30.990  18.396  -0.128  1.00 20.00     0.016 A 
HETATM    8  C6  UNL     1     -31.753  18.996   1.015  1.00 20.00    -0.007 A 
HETATM    9  C7  UNL     1     -32.408  18.113   2.022  1.00 20.00     0.011 C 
ENDBRANCH   3   6
BRANCH   2  10
HETATM   10  C8  UNL     1     -34.765  15.567  -2.722  1.00 20.00     0.174 C 
HETATM   11 CL11 UNL     1     -33.316  15.348  -3.737  1.00 20.00    -0.124 Cl
ENDBRANCH   2  10
TORSDOF 2
ENDMDL
MODEL 9
REMARK VINA RESULT:      -3.5     13.058     15.471
REMARK  2 active torsions:
REMARK  status: ('A' for Active; 'I' for Inactive)
REMARK    1  A    between atoms: C2_2  and  C8_8 
REMARK    2  A    between atoms: C3_3  and  C5_5 
ROOT
HETATM    1  C1  UNL     1     -32.281  19.120  -2.161  1.00 20.00     0.080 A 
HETATM    2  C2  UNL     1     -32.805  18.351  -1.143  1.00 20.00     0.055 A 
HETATM    3  C3  UNL     1     -33.897  17.461  -2.824  1.00 20.00     0.080 A 
HETATM    4  N9  UNL     1     -33.732  17.400  -1.521  1.00 20.00    -0.248 NA
HETATM    5  S10 UNL     1     -32.968  18.640  -3.657  1.00 20.00    -0.084 SA
ENDROOT
BRANCH   3   6
HETATM    6  C5  UNL     1     -34.871  16.527  -3.563  1.00 20.00     0.049 A 
HETATM    7  C4  UNL     1     -35.188  15.182  -2.946  1.00 20.00     0.016 A 
HETATM    8  C6  UNL     1     -34.373  15.245  -4.203  1.00 20.00    -0.007 A 
HETATM    9  C7  UNL     1     -32.937  14.845  -4.185  1.00 20.00     0.011 C 
ENDBRANCH   3   6
BRANCH   2  10
HETATM   10  C8  UNL     1     -32.460  18.464   0.288  1.00 20.00     0.174 C 
HETATM   11 CL11 UNL     1     -30.725  18.152   0.558  1.00 20.00    -0.124 Cl
ENDBRANCH   2  10
TORSDOF 2
ENDMDL
