MODEL 1
REMARK VINA RESULT:      -3.9      0.000      0.000
REMARK  1 active torsions:
REMARK  status: ('A' for Active; 'I' for Inactive)
REMARK    1  A    between atoms: C3_3  and  C8_8 
ROOT
HETATM    1  C1  UNL     1     -33.036  18.179  -3.275  1.00 20.00     0.285 C 
HETATM    2  C2  UNL     1     -33.136  17.413  -1.956  1.00 20.00     0.073 C 
HETATM    3  C3  UNL     1     -34.340  16.388  -4.070  1.00 20.00     0.289 C 
HETATM    4  C4  UNL     1     -33.440  18.316  -0.775  1.00 20.00     0.023 C 
HETATM    5  N9  UNL     1     -33.148  17.192  -4.351  1.00 20.00     0.099 N 
HETATM    6  S10 UNL     1     -34.475  16.226  -2.261  1.00 20.00    -0.127 SA
HETATM    7  H27 UNL     1     -33.234  17.653  -5.255  1.00 20.00     0.317 HD
ENDROOT
BRANCH   3   8
HETATM    8  C8  UNL     1     -34.226  15.024  -4.732  1.00 20.00    -0.011 C 
HETATM    9  C5  UNL     1     -34.374  15.165  -6.259  1.00 20.00     0.017 C 
HETATM   10  C6  UNL     1     -35.333  14.090  -4.207  1.00 20.00     0.017 C 
HETATM   11  C7  UNL     1     -32.854  14.399  -4.418  1.00 20.00     0.017 C 
ENDBRANCH   3   8
TORSDOF 1
ENDMDL
MODEL 2
REMARK VINA RESULT:      -3.9      0.024      1.376
REMARK  1 active torsions:
REMARK  status: ('A' for Active; 'I' for Inactive)
REMARK    1  A    between atoms: C3_3  and  C8_8 
ROOT
HETATM    1  C1  UNL     1     -33.041  18.179  -3.291  1.00 20.00     0.285 C 
HETATM    2  C2  UNL     1     -33.122  17.413  -1.971  1.00 20.00     0.073 C 
HETATM    3  C3  UNL     1     -34.355  16.387  -4.068  1.00 20.00     0.289 C 
HETATM    4  C4  UNL     1     -33.410  18.315  -0.786  1.00 20.00     0.023 C 
HETATM    5  N9  UNL     1     -33.168  17.192  -4.366  1.00 20.00     0.099 N 
HETATM    6  S10 UNL     1     -34.464  16.225  -2.257  1.00 20.00    -0.127 SA
HETATM    7  H27 UNL     1     -33.267  17.653  -5.268  1.00 20.00     0.317 HD
ENDROOT
BRANCH   3   8
HETATM    8  C8  UNL     1     -34.249  15.023  -4.732  1.00 20.00    -0.011 C 
HETATM    9  C5  UNL     1     -32.883  14.387  -4.413  1.00 20.00     0.017 C 
HETATM   10  C6  UNL     1     -34.389  15.168  -6.258  1.00 20.00     0.017 C 
HETATM   11  C7  UNL     1     -35.366  14.097  -4.213  1.00 20.00     0.017 C 
ENDBRANCH   3   8
TORSDOF 1
ENDMDL
MODEL 3
REMARK VINA RESULT:      -3.9      0.028      1.372
REMARK  1 active torsions:
REMARK  status: ('A' for Active; 'I' for Inactive)
REMARK    1  A    between atoms: C3_3  and  C8_8 
ROOT
HETATM    1  C1  UNL     1     -33.041  18.177  -3.287  1.00 20.00     0.285 C 
HETATM    2  C2  UNL     1     -33.127  17.410  -1.968  1.00 20.00     0.073 C 
HETATM    3  C3  UNL     1     -34.361  16.390  -4.067  1.00 20.00     0.289 C 
HETATM    4  C4  UNL     1     -33.413  18.312  -0.781  1.00 20.00     0.023 C 
HETATM    5  N9  UNL     1     -33.171  17.191  -4.362  1.00 20.00     0.099 N 
HETATM    6  S10 UNL     1     -34.472  16.227  -2.256  1.00 20.00    -0.127 SA
HETATM    7  H27 UNL     1     -33.268  17.654  -5.265  1.00 20.00     0.317 HD
ENDROOT
BRANCH   3   8
HETATM    8  C8  UNL     1     -34.259  15.027  -4.731  1.00 20.00    -0.011 C 
HETATM    9  C5  UNL     1     -35.373  14.101  -4.207  1.00 20.00     0.017 C 
HETATM   10  C6  UNL     1     -32.892  14.390  -4.420  1.00 20.00     0.017 C 
HETATM   11  C7  UNL     1     -34.407  15.172  -6.257  1.00 20.00     0.017 C 
ENDBRANCH   3   8
TORSDOF 1
ENDMDL
MODEL 4
REMARK VINA RESULT:      -3.8      1.699      2.168
REMARK  1 active torsions:
REMARK  status: ('A' for Active; 'I' for Inactive)
REMARK    1  A    between atoms: C3_3  and  C8_8 
ROOT
HETATM    1  C1  UNL     1     -35.139  16.750  -1.193  1.00 20.00     0.285 C 
HETATM    2  C2  UNL     1     -34.033  17.591  -1.829  1.00 20.00     0.073 C 
HETATM    3  C3  UNL     1     -34.705  15.334  -3.023  1.00 20.00     0.289 C 
HETATM    4  C4  UNL     1     -33.032  18.111  -0.814  1.00 20.00     0.023 C 
HETATM    5  N9  UNL     1     -35.776  15.995  -2.274  1.00 20.00     0.099 N 
HETATM    6  S10 UNL     1     -33.264  16.449  -3.012  1.00 20.00    -0.127 SA
HETATM    7  H27 UNL     1     -36.425  15.306  -1.898  1.00 20.00     0.317 HD
ENDROOT
BRANCH   3   8
HETATM    8  C8  UNL     1     -35.156  15.042  -4.445  1.00 20.00    -0.011 C 
HETATM    9  C5  UNL     1     -33.929  14.837  -5.355  1.00 20.00     0.017 C 
HETATM   10  C6  UNL     1     -35.988  16.219  -4.986  1.00 20.00     0.017 C 
HETATM   11  C7  UNL     1     -36.017  13.766  -4.473  1.00 20.00     0.017 C 
ENDBRANCH   3   8
TORSDOF 1
ENDMDL
MODEL 5
REMARK VINA RESULT:      -3.8      1.696      1.950
REMARK  1 active torsions:
REMARK  status: ('A' for Active; 'I' for Inactive)
REMARK    1  A    between atoms: C3_3  and  C8_8 
ROOT
HETATM    1  C1  UNL     1     -35.134  16.758  -1.188  1.00 20.00     0.285 C 
HETATM    2  C2  UNL     1     -34.023  17.593  -1.824  1.00 20.00     0.073 C 
HETATM    3  C3  UNL     1     -34.701  15.336  -3.014  1.00 20.00     0.289 C 
HETATM    4  C4  UNL     1     -33.023  18.111  -0.807  1.00 20.00     0.023 C 
HETATM    5  N9  UNL     1     -35.772  16.003  -2.269  1.00 20.00     0.099 N 
HETATM    6  S10 UNL     1     -33.256  16.444  -3.002  1.00 20.00    -0.127 SA
HETATM    7  H27 UNL     1     -36.424  15.318  -1.893  1.00 20.00     0.317 HD
ENDROOT
BRANCH   3   8
HETATM    8  C8  UNL     1     -35.150  15.042  -4.436  1.00 20.00    -0.011 C 
HETATM    9  C5  UNL     1     -35.983  16.219  -4.980  1.00 20.00     0.017 C 
HETATM   10  C6  UNL     1     -36.011  13.765  -4.464  1.00 20.00     0.017 C 
HETATM   11  C7  UNL     1     -33.923  14.836  -5.344  1.00 20.00     0.017 C 
ENDBRANCH   3   8
TORSDOF 1
ENDMDL
MODEL 6
REMARK VINA RESULT:      -3.8      1.150      4.075
REMARK  1 active torsions:
REMARK  status: ('A' for Active; 'I' for Inactive)
REMARK    1  A    between atoms: C3_3  and  C8_8 
ROOT
HETATM    1  C1  UNL     1     -33.569  14.789  -4.475  1.00 20.00     0.285 C 
HETATM    2  C2  UNL     1     -35.070  15.022  -4.305  1.00 20.00     0.073 C 
HETATM    3  C3  UNL     1     -33.432  16.319  -2.691  1.00 20.00     0.289 C 
HETATM    4  C4  UNL     1     -35.873  13.735  -4.350  1.00 20.00     0.023 C 
HETATM    5  N9  UNL     1     -32.894  16.005  -4.017  1.00 20.00     0.099 N 
HETATM    6  S10 UNL     1     -35.188  15.836  -2.686  1.00 20.00    -0.127 SA
HETATM    7  H27 UNL     1     -31.887  15.861  -3.968  1.00 20.00     0.317 HD
ENDROOT
BRANCH   3   8
HETATM    8  C8  UNL     1     -33.274  17.802  -2.394  1.00 20.00    -0.011 C 
HETATM    9  C5  UNL     1     -34.599  18.374  -1.854  1.00 20.00     0.017 C 
HETATM   10  C6  UNL     1     -32.890  18.559  -3.679  1.00 20.00     0.017 C 
HETATM   11  C7  UNL     1     -32.171  18.014  -1.340  1.00 20.00     0.017 C 
ENDBRANCH   3   8
TORSDOF 1
ENDMDL
MODEL 7
REMARK VINA RESULT:      -3.6      1.746      2.460
REMARK  1 active torsions:
REMARK  status: ('A' for Active; 'I' for Inactive)
REMARK    1  A    between atoms: C3_3  and  C8_8 
ROOT
HETATM    1  C1  UNL     1     -33.364  16.248  -3.064  1.00 20.00     0.285 C 
HETATM    2  C2  UNL     1     -34.748  15.943  -2.491  1.00 20.00     0.073 C 
HETATM    3  C3  UNL     1     -34.563  16.400  -5.085  1.00 20.00     0.289 C 
HETATM    4  C4  UNL     1     -35.027  16.691  -1.200  1.00 20.00     0.023 C 
HETATM    5  N9  UNL     1     -33.376  15.810  -4.462  1.00 20.00     0.099 N 
HETATM    6  S10 UNL     1     -35.874  16.449  -3.821  1.00 20.00    -0.127 SA
HETATM    7  H27 UNL     1     -32.532  16.118  -4.942  1.00 20.00     0.317 HD
ENDROOT
BRANCH   3   8
HETATM    8  C8  UNL     1     -34.995  15.576  -6.286  1.00 20.00    -0.011 C 
HETATM    9  C5  UNL     1     -35.841  14.373  -5.824  1.00 20.00     0.017 C 
HETATM   10  C6  UNL     1     -33.757  15.055  -7.041  1.00 20.00     0.017 C 
HETATM   11  C7  UNL     1     -35.837  16.440  -7.244  1.00 20.00     0.017 C 
ENDBRANCH   3   8
TORSDOF 1
ENDMDL
MODEL 8
REMARK VINA RESULT:      -3.6      1.606      4.225
REMARK  1 active torsions:
REMARK  status: ('A' for Active; 'I' for Inactive)
REMARK    1  A    between atoms: C3_3  and  C8_8 
ROOT
HETATM    1  C1  UNL     1     -33.674  14.941  -4.544  1.00 20.00     0.285 C 
HETATM    2  C2  UNL     1     -34.980  15.453  -5.148  1.00 20.00     0.073 C 
HETATM    3  C3  UNL     1     -34.539  15.927  -2.589  1.00 20.00     0.289 C 
HETATM    4  C4  UNL     1     -35.660  14.426  -6.036  1.00 20.00     0.023 C 
HETATM    5  N9  UNL     1     -33.342  15.831  -3.429  1.00 20.00     0.099 N 
HETATM    6  S10 UNL     1     -35.986  15.859  -3.693  1.00 20.00    -0.127 SA
HETATM    7  H27 UNL     1     -32.560  15.459  -2.892  1.00 20.00     0.317 HD
ENDROOT
BRANCH   3   8
HETATM    8  C8  UNL     1     -34.523  17.222  -1.792  1.00 20.00    -0.011 C 
HETATM    9  C5  UNL     1     -33.069  17.654  -1.519  1.00 20.00     0.017 C 
HETATM   10  C6  UNL     1     -35.246  17.022  -0.448  1.00 20.00     0.017 C 
HETATM   11  C7  UNL     1     -35.235  18.336  -2.582  1.00 20.00     0.017 C 
ENDBRANCH   3   8
TORSDOF 1
ENDMDL
MODEL 9
REMARK VINA RESULT:      -3.4      2.349      4.075
REMARK  1 active torsions:
REMARK  status: ('A' for Active; 'I' for Inactive)
REMARK    1  A    between atoms: C3_3  and  C8_8 
ROOT
HETATM    1  C1  UNL     1     -36.679  17.433  -5.648  1.00 20.00     0.285 C 
HETATM    2  C2  UNL     1     -36.574  16.119  -6.422  1.00 20.00     0.073 C 
HETATM    3  C3  UNL     1     -34.592  16.753  -4.798  1.00 20.00     0.289 C 
HETATM    4  C4  UNL     1     -36.967  16.264  -7.881  1.00 20.00     0.023 C 
HETATM    5  N9  UNL     1     -35.910  17.262  -4.413  1.00 20.00     0.099 N 
HETATM    6  S10 UNL     1     -34.827  15.661  -6.237  1.00 20.00    -0.127 SA
HETATM    7  H27 UNL     1     -35.819  18.149  -3.921  1.00 20.00     0.317 HD
ENDROOT
BRANCH   3   8
HETATM    8  C8  UNL     1     -33.957  15.999  -3.640  1.00 20.00    -0.011 C 
HETATM    9  C5  UNL     1     -33.179  14.778  -4.170  1.00 20.00     0.017 C 
HETATM   10  C6  UNL     1     -35.048  15.512  -2.668  1.00 20.00     0.017 C 
HETATM   11  C7  UNL     1     -32.986  16.920  -2.880  1.00 20.00     0.017 C 
ENDBRANCH   3   8
TORSDOF 1
ENDMDL
