MODEL 1
REMARK VINA RESULT:      -4.3      0.000      0.000
REMARK  4 active torsions:
REMARK  status: ('A' for Active; 'I' for Inactive)
REMARK    1  A    between atoms: C5_5  and  C7_7 
REMARK    2  A    between atoms: C6_6  and  C7_7 
REMARK    3  A    between atoms: C6_6  and  C8_8 
REMARK    4  A    between atoms: C8_8  and  N9_9 
ROOT
HETATM    1  C1  UNL     1     -37.884  14.913  -4.282  1.00 20.00     0.158 C 
HETATM    2  N9  UNL     1     -37.511  13.819  -4.488  1.00 20.00    -0.271 NA
HETATM    3  S10 UNL     1     -38.420  16.384  -3.995  1.00 20.00    -0.055 SA
ENDROOT
BRANCH   2   4
HETATM    4  C8  UNL     1     -36.103  13.715  -4.886  1.00 20.00     0.106 C 
HETATM    5  C4  UNL     1     -35.883  14.641  -6.078  1.00 20.00     0.034 C 
BRANCH   4   6
HETATM    6  C6  UNL     1     -35.210  14.120  -3.704  1.00 20.00     0.031 C 
BRANCH   6   7
HETATM    7  C7  UNL     1     -34.120  15.167  -4.032  1.00 20.00    -0.017 C 
HETATM    8  C3  UNL     1     -32.779  14.506  -4.372  1.00 20.00     0.010 C 
BRANCH   7   9
HETATM    9  C5  UNL     1     -33.908  16.152  -2.863  1.00 20.00    -0.000 C 
HETATM   10  C2  UNL     1     -35.066  16.197  -1.876  1.00 20.00     0.005 C 
ENDBRANCH   7   9
ENDBRANCH   6   7
ENDBRANCH   4   6
ENDBRANCH   2   4
TORSDOF 4
ENDMDL
MODEL 2
REMARK VINA RESULT:      -4.3     16.897     18.383
REMARK  4 active torsions:
REMARK  status: ('A' for Active; 'I' for Inactive)
REMARK    1  A    between atoms: C5_5  and  C7_7 
REMARK    2  A    between atoms: C6_6  and  C7_7 
REMARK    3  A    between atoms: C6_6  and  C8_8 
REMARK    4  A    between atoms: C8_8  and  N9_9 
ROOT
HETATM    1  C1  UNL     1     -24.668  18.945   7.253  1.00 20.00     0.158 C 
HETATM    2  N9  UNL     1     -23.515  18.723   7.245  1.00 20.00    -0.271 NA
HETATM    3  S10 UNL     1     -26.228  19.263   7.236  1.00 20.00    -0.055 SA
ENDROOT
BRANCH   2   4
HETATM    4  C8  UNL     1     -23.046  17.875   8.346  1.00 20.00     0.106 C 
HETATM    5  C4  UNL     1     -21.625  17.426   8.019  1.00 20.00     0.034 C 
BRANCH   4   6
HETATM    6  C6  UNL     1     -23.082  18.675   9.656  1.00 20.00     0.031 C 
BRANCH   6   7
HETATM    7  C7  UNL     1     -23.511  17.871  10.905  1.00 20.00    -0.017 C 
HETATM    8  C3  UNL     1     -22.356  17.702  11.899  1.00 20.00     0.010 C 
BRANCH   7   9
HETATM    9  C5  UNL     1     -24.050  16.475  10.525  1.00 20.00    -0.000 C 
HETATM   10  C2  UNL     1     -24.657  15.709  11.692  1.00 20.00     0.005 C 
ENDBRANCH   7   9
ENDBRANCH   6   7
ENDBRANCH   4   6
ENDBRANCH   2   4
TORSDOF 4
ENDMDL
MODEL 3
REMARK VINA RESULT:      -4.0      1.046      1.854
REMARK  4 active torsions:
REMARK  status: ('A' for Active; 'I' for Inactive)
REMARK    1  A    between atoms: C5_5  and  C7_7 
REMARK    2  A    between atoms: C6_6  and  C7_7 
REMARK    3  A    between atoms: C6_6  and  C8_8 
REMARK    4  A    between atoms: C8_8  and  N9_9 
ROOT
HETATM    1  C1  UNL     1     -38.482  14.860  -4.451  1.00 20.00     0.158 C 
HETATM    2  N9  UNL     1     -37.763  13.950  -4.267  1.00 20.00    -0.271 NA
HETATM    3  S10 UNL     1     -39.483  16.074  -4.696  1.00 20.00    -0.055 SA
ENDROOT
BRANCH   2   4
HETATM    4  C8  UNL     1     -36.334  14.276  -4.324  1.00 20.00     0.106 C 
HETATM    5  C4  UNL     1     -35.934  14.374  -5.793  1.00 20.00     0.034 C 
BRANCH   4   6
HETATM    6  C6  UNL     1     -36.086  15.605  -3.596  1.00 20.00     0.031 C 
BRANCH   6   7
HETATM    7  C7  UNL     1     -34.942  15.580  -2.555  1.00 20.00    -0.017 C 
HETATM    8  C3  UNL     1     -35.198  16.558  -1.403  1.00 20.00     0.010 C 
BRANCH   7   9
HETATM    9  C5  UNL     1     -33.580  15.915  -3.200  1.00 20.00    -0.000 C 
HETATM   10  C2  UNL     1     -32.918  17.162  -2.631  1.00 20.00     0.005 C 
ENDBRANCH   7   9
ENDBRANCH   6   7
ENDBRANCH   4   6
ENDBRANCH   2   4
TORSDOF 4
ENDMDL
MODEL 4
REMARK VINA RESULT:      -3.8      2.100      2.823
REMARK  4 active torsions:
REMARK  status: ('A' for Active; 'I' for Inactive)
REMARK    1  A    between atoms: C5_5  and  C7_7 
REMARK    2  A    between atoms: C6_6  and  C7_7 
REMARK    3  A    between atoms: C6_6  and  C8_8 
REMARK    4  A    between atoms: C8_8  and  N9_9 
ROOT
HETATM    1  C1  UNL     1     -35.546  14.851  -6.309  1.00 20.00     0.158 C 
HETATM    2  N9  UNL     1     -36.495  14.515  -5.703  1.00 20.00    -0.271 NA
HETATM    3  S10 UNL     1     -34.278  15.303  -7.159  1.00 20.00    -0.055 SA
ENDROOT
BRANCH   2   4
HETATM    4  C8  UNL     1     -36.289  14.401  -4.255  1.00 20.00     0.106 C 
HETATM    5  C4  UNL     1     -35.217  13.342  -4.017  1.00 20.00     0.034 C 
BRANCH   4   6
HETATM    6  C6  UNL     1     -35.852  15.762  -3.694  1.00 20.00     0.031 C 
BRANCH   6   7
HETATM    7  C7  UNL     1     -34.766  15.701  -2.594  1.00 20.00    -0.017 C 
HETATM    8  C3  UNL     1     -35.171  16.499  -1.349  1.00 20.00     0.010 C 
BRANCH   7   9
HETATM    9  C5  UNL     1     -33.409  16.228  -3.106  1.00 20.00    -0.000 C 
HETATM   10  C2  UNL     1     -32.826  17.354  -2.263  1.00 20.00     0.005 C 
ENDBRANCH   7   9
ENDBRANCH   6   7
ENDBRANCH   4   6
ENDBRANCH   2   4
TORSDOF 4
ENDMDL
MODEL 5
REMARK VINA RESULT:      -3.8      1.971      2.951
REMARK  4 active torsions:
REMARK  status: ('A' for Active; 'I' for Inactive)
REMARK    1  A    between atoms: C5_5  and  C7_7 
REMARK    2  A    between atoms: C6_6  and  C7_7 
REMARK    3  A    between atoms: C6_6  and  C8_8 
REMARK    4  A    between atoms: C8_8  and  N9_9 
ROOT
HETATM    1  C1  UNL     1     -35.454  14.566  -5.960  1.00 20.00     0.158 C 
HETATM    2  N9  UNL     1     -35.462  13.855  -5.025  1.00 20.00    -0.271 NA
HETATM    3  S10 UNL     1     -35.464  15.509  -7.243  1.00 20.00    -0.055 SA
ENDROOT
BRANCH   2   4
HETATM    4  C8  UNL     1     -34.595  14.283  -3.922  1.00 20.00     0.106 C 
HETATM    5  C4  UNL     1     -33.162  14.326  -4.442  1.00 20.00     0.034 C 
BRANCH   4   6
HETATM    6  C6  UNL     1     -35.043  15.667  -3.430  1.00 20.00     0.031 C 
BRANCH   6   7
HETATM    7  C7  UNL     1     -34.255  16.221  -2.220  1.00 20.00    -0.017 C 
HETATM    8  C3  UNL     1     -35.189  16.737  -1.119  1.00 20.00     0.010 C 
BRANCH   7   9
HETATM    9  C5  UNL     1     -33.300  17.360  -2.637  1.00 20.00    -0.000 C 
HETATM   10  C2  UNL     1     -32.500  17.948  -1.483  1.00 20.00     0.005 C 
ENDBRANCH   7   9
ENDBRANCH   6   7
ENDBRANCH   4   6
ENDBRANCH   2   4
TORSDOF 4
ENDMDL
MODEL 6
REMARK VINA RESULT:      -3.8      4.462      6.015
REMARK  4 active torsions:
REMARK  status: ('A' for Active; 'I' for Inactive)
REMARK    1  A    between atoms: C5_5  and  C7_7 
REMARK    2  A    between atoms: C6_6  and  C7_7 
REMARK    3  A    between atoms: C6_6  and  C8_8 
REMARK    4  A    between atoms: C8_8  and  N9_9 
ROOT
HETATM    1  C1  UNL     1     -31.385  18.702  -0.331  1.00 20.00     0.158 C 
HETATM    2  N9  UNL     1     -31.411  18.931  -1.483  1.00 20.00    -0.271 NA
HETATM    3  S10 UNL     1     -31.319  18.400   1.230  1.00 20.00    -0.055 SA
ENDROOT
BRANCH   2   4
HETATM    4  C8  UNL     1     -32.700  18.669  -2.132  1.00 20.00     0.106 C 
HETATM    5  C4  UNL     1     -32.646  19.260  -3.537  1.00 20.00     0.034 C 
BRANCH   4   6
HETATM    6  C6  UNL     1     -32.945  17.154  -2.182  1.00 20.00     0.031 C 
BRANCH   6   7
HETATM    7  C7  UNL     1     -34.413  16.734  -2.427  1.00 20.00    -0.017 C 
HETATM    8  C3  UNL     1     -35.241  16.773  -1.137  1.00 20.00     0.010 C 
BRANCH   7   9
HETATM    9  C5  UNL     1     -34.505  15.318  -3.036  1.00 20.00    -0.000 C 
HETATM   10  C2  UNL     1     -33.466  15.041  -4.113  1.00 20.00     0.005 C 
ENDBRANCH   7   9
ENDBRANCH   6   7
ENDBRANCH   4   6
ENDBRANCH   2   4
TORSDOF 4
ENDMDL
MODEL 7
REMARK VINA RESULT:      -3.7     17.377     18.726
REMARK  4 active torsions:
REMARK  status: ('A' for Active; 'I' for Inactive)
REMARK    1  A    between atoms: C5_5  and  C7_7 
REMARK    2  A    between atoms: C6_6  and  C7_7 
REMARK    3  A    between atoms: C6_6  and  C8_8 
REMARK    4  A    between atoms: C8_8  and  N9_9 
ROOT
HETATM    1  C1  UNL     1     -26.192  18.156  12.276  1.00 20.00     0.158 C 
HETATM    2  N9  UNL     1     -25.046  18.414  12.295  1.00 20.00    -0.271 NA
HETATM    3  S10 UNL     1     -27.749  17.826  12.276  1.00 20.00    -0.055 SA
ENDROOT
BRANCH   2   4
HETATM    4  C8  UNL     1     -24.259  17.788  11.227  1.00 20.00     0.106 C 
HETATM    5  C4  UNL     1     -24.360  16.276  11.394  1.00 20.00     0.034 C 
BRANCH   4   6
HETATM    6  C6  UNL     1     -24.810  18.229   9.863  1.00 20.00     0.031 C 
BRANCH   6   7
HETATM    7  C7  UNL     1     -23.834  19.059   8.997  1.00 20.00    -0.017 C 
HETATM    8  C3  UNL     1     -24.234  19.047   7.517  1.00 20.00     0.010 C 
BRANCH   7   9
HETATM    9  C5  UNL     1     -22.384  18.547   9.126  1.00 20.00    -0.000 C 
HETATM   10  C2  UNL     1     -22.037  17.424   8.159  1.00 20.00     0.005 C 
ENDBRANCH   7   9
ENDBRANCH   6   7
ENDBRANCH   4   6
ENDBRANCH   2   4
TORSDOF 4
ENDMDL
MODEL 8
REMARK VINA RESULT:      -3.7     11.192     11.946
REMARK  4 active torsions:
REMARK  status: ('A' for Active; 'I' for Inactive)
REMARK    1  A    between atoms: C5_5  and  C7_7 
REMARK    2  A    between atoms: C6_6  and  C7_7 
REMARK    3  A    between atoms: C6_6  and  C8_8 
REMARK    4  A    between atoms: C8_8  and  N9_9 
ROOT
HETATM    1  C1  UNL     1     -32.565   7.942   1.316  1.00 20.00     0.158 C 
HETATM    2  N9  UNL     1     -32.258   7.059   2.026  1.00 20.00    -0.271 NA
HETATM    3  S10 UNL     1     -32.951   9.149   0.352  1.00 20.00    -0.055 SA
ENDROOT
BRANCH   2   4
HETATM    4  C8  UNL     1     -33.362   6.180   2.426  1.00 20.00     0.106 C 
HETATM    5  C4  UNL     1     -32.909   4.737   2.225  1.00 20.00     0.034 C 
BRANCH   4   6
HETATM    6  C6  UNL     1     -33.718   6.445   3.896  1.00 20.00     0.031 C 
BRANCH   6   7
HETATM    7  C7  UNL     1     -34.554   5.339   4.580  1.00 20.00    -0.017 C 
HETATM    8  C3  UNL     1     -35.975   5.264   4.010  1.00 20.00     0.010 C 
BRANCH   7   9
HETATM    9  C5  UNL     1     -34.640   5.553   6.106  1.00 20.00    -0.000 C 
HETATM   10  C2  UNL     1     -34.058   6.878   6.577  1.00 20.00     0.005 C 
ENDBRANCH   7   9
ENDBRANCH   6   7
ENDBRANCH   4   6
ENDBRANCH   2   4
TORSDOF 4
ENDMDL
MODEL 9
REMARK VINA RESULT:      -3.7      2.549      3.177
REMARK  4 active torsions:
REMARK  status: ('A' for Active; 'I' for Inactive)
REMARK    1  A    between atoms: C5_5  and  C7_7 
REMARK    2  A    between atoms: C6_6  and  C7_7 
REMARK    3  A    between atoms: C6_6  and  C8_8 
REMARK    4  A    between atoms: C8_8  and  N9_9 
ROOT
HETATM    1  C1  UNL     1     -34.155  15.404  -6.753  1.00 20.00     0.158 C 
HETATM    2  N9  UNL     1     -34.056  14.510  -5.997  1.00 20.00    -0.271 NA
HETATM    3  S10 UNL     1     -34.274  16.597  -7.800  1.00 20.00    -0.055 SA
ENDROOT
BRANCH   2   4
HETATM    4  C8  UNL     1     -34.618  14.767  -4.666  1.00 20.00     0.106 C 
HETATM    5  C4  UNL     1     -35.079  13.433  -4.087  1.00 20.00     0.034 C 
BRANCH   4   6
HETATM    6  C6  UNL     1     -33.545  15.412  -3.777  1.00 20.00     0.031 C 
BRANCH   6   7
HETATM    7  C7  UNL     1     -34.032  16.604  -2.920  1.00 20.00    -0.017 C 
HETATM    8  C3  UNL     1     -32.880  17.261  -2.151  1.00 20.00     0.010 C 
BRANCH   7   9
HETATM    9  C5  UNL     1     -35.121  16.174  -1.914  1.00 20.00    -0.000 C 
HETATM   10  C2  UNL     1     -35.199  17.053  -0.674  1.00 20.00     0.005 C 
ENDBRANCH   7   9
ENDBRANCH   6   7
ENDBRANCH   4   6
ENDBRANCH   2   4
TORSDOF 4
ENDMDL
