MODEL 1
REMARK VINA RESULT:      -5.6      0.000      0.000
REMARK  2 active torsions:
REMARK  status: ('A' for Active; 'I' for Inactive)
REMARK    1  A    between atoms: C3_3  and  C5_5 
REMARK    2  A    between atoms: C3_3  and  C8_8 
ROOT
HETATM    1  C1  UNL     1     -32.695   8.316   0.576  1.00 20.00     0.012 C 
HETATM    2  C2  UNL     1     -32.623   7.761   1.639  1.00 20.00    -0.110 C 
HETATM    3  C8  UNL     1     -32.528   7.090   2.941  1.00 20.00     0.171 C 
ENDROOT
BRANCH   3   4
HETATM    4  C3  UNL     1     -33.245   5.754   2.958  1.00 20.00     0.142 C 
HETATM    5  O9  UNL     1     -32.767   4.729   2.477  1.00 20.00    -0.297 OA
BRANCH   4   6
HETATM    6  C5  UNL     1     -34.568   5.743   3.592  1.00 20.00     0.060 A 
HETATM    7  C4  UNL     1     -34.885   4.696   4.630  1.00 20.00     0.017 A 
HETATM    8  C6  UNL     1     -34.737   6.133   5.042  1.00 20.00    -0.007 A 
HETATM    9  C7  UNL     1     -33.586   6.551   5.890  1.00 20.00     0.011 C 
ENDBRANCH   4   6
ENDBRANCH   3   4
TORSDOF 2
ENDMDL
MODEL 2
REMARK VINA RESULT:      -5.4      1.442      1.492
REMARK  2 active torsions:
REMARK  status: ('A' for Active; 'I' for Inactive)
REMARK    1  A    between atoms: C3_3  and  C5_5 
REMARK    2  A    between atoms: C3_3  and  C8_8 
ROOT
HETATM    1  C1  UNL     1     -32.929   8.639   0.832  1.00 20.00     0.012 C 
HETATM    2  C2  UNL     1     -32.630   7.809   1.646  1.00 20.00    -0.110 C 
HETATM    3  C8  UNL     1     -32.258   6.791   2.636  1.00 20.00     0.171 C 
ENDROOT
BRANCH   3   4
HETATM    4  C3  UNL     1     -33.279   6.662   3.748  1.00 20.00     0.142 C 
HETATM    5  O9  UNL     1     -33.202   7.283   4.807  1.00 20.00    -0.297 OA
BRANCH   4   6
HETATM    6  C5  UNL     1     -34.391   5.737   3.496  1.00 20.00     0.060 A 
HETATM    7  C4  UNL     1     -34.194   4.260   3.728  1.00 20.00     0.017 A 
HETATM    8  C6  UNL     1     -35.097   5.044   4.637  1.00 20.00    -0.007 A 
HETATM    9  C7  UNL     1     -34.714   5.266   6.060  1.00 20.00     0.011 C 
ENDBRANCH   4   6
ENDBRANCH   3   4
TORSDOF 2
ENDMDL
MODEL 3
REMARK VINA RESULT:      -4.9     10.891     12.155
REMARK  2 active torsions:
REMARK  status: ('A' for Active; 'I' for Inactive)
REMARK    1  A    between atoms: C3_3  and  C5_5 
REMARK    2  A    between atoms: C3_3  and  C8_8 
ROOT
HETATM    1  C1  UNL     1     -33.020  16.470  -3.044  1.00 20.00     0.012 C 
HETATM    2  C2  UNL     1     -34.045  15.845  -3.074  1.00 20.00    -0.110 C 
HETATM    3  C8  UNL     1     -35.302  15.087  -3.104  1.00 20.00     0.171 C 
ENDROOT
BRANCH   3   4
HETATM    4  C3  UNL     1     -35.270  13.951  -4.108  1.00 20.00     0.142 C 
HETATM    5  O9  UNL     1     -34.577  12.946  -3.964  1.00 20.00    -0.297 OA
BRANCH   4   6
HETATM    6  C5  UNL     1     -36.128  14.112  -5.287  1.00 20.00     0.060 A 
HETATM    7  C4  UNL     1     -36.509  15.497  -5.744  1.00 20.00     0.017 A 
HETATM    8  C6  UNL     1     -35.575  14.668  -6.578  1.00 20.00    -0.007 A 
HETATM    9  C7  UNL     1     -34.148  15.069  -6.722  1.00 20.00     0.011 C 
ENDBRANCH   4   6
ENDBRANCH   3   4
TORSDOF 2
ENDMDL
MODEL 4
REMARK VINA RESULT:      -4.9      1.288      1.718
REMARK  2 active torsions:
REMARK  status: ('A' for Active; 'I' for Inactive)
REMARK    1  A    between atoms: C3_3  and  C5_5 
REMARK    2  A    between atoms: C3_3  and  C8_8 
ROOT
HETATM    1  C1  UNL     1     -32.232   7.272   2.486  1.00 20.00     0.012 C 
HETATM    2  C2  UNL     1     -32.902   6.275   2.487  1.00 20.00    -0.110 C 
HETATM    3  C8  UNL     1     -33.723   5.058   2.479  1.00 20.00     0.171 C 
ENDROOT
BRANCH   3   4
HETATM    4  C3  UNL     1     -34.052   4.570   3.875  1.00 20.00     0.142 C 
HETATM    5  O9  UNL     1     -33.511   3.594   4.391  1.00 20.00    -0.297 OA
BRANCH   4   6
HETATM    6  C5  UNL     1     -35.072   5.336   4.600  1.00 20.00     0.060 A 
HETATM    7  C4  UNL     1     -35.212   5.159   6.091  1.00 20.00     0.017 A 
HETATM    8  C6  UNL     1     -34.682   6.452   5.541  1.00 20.00    -0.007 A 
HETATM    9  C7  UNL     1     -33.260   6.833   5.772  1.00 20.00     0.011 C 
ENDBRANCH   4   6
ENDBRANCH   3   4
TORSDOF 2
ENDMDL
MODEL 5
REMARK VINA RESULT:      -4.8      1.706      3.691
REMARK  2 active torsions:
REMARK  status: ('A' for Active; 'I' for Inactive)
REMARK    1  A    between atoms: C3_3  and  C5_5 
REMARK    2  A    between atoms: C3_3  and  C8_8 
ROOT
HETATM    1  C1  UNL     1     -33.631   7.561   6.398  1.00 20.00     0.012 C 
HETATM    2  C2  UNL     1     -34.136   6.509   6.113  1.00 20.00    -0.110 C 
HETATM    3  C8  UNL     1     -34.752   5.220   5.774  1.00 20.00     0.171 C 
ENDROOT
BRANCH   3   4
HETATM    4  C3  UNL     1     -34.976   5.058   4.284  1.00 20.00     0.142 C 
HETATM    5  O9  UNL     1     -36.005   5.419   3.716  1.00 20.00    -0.297 OA
BRANCH   4   6
HETATM    6  C5  UNL     1     -33.881   4.434   3.534  1.00 20.00     0.060 A 
HETATM    7  C4  UNL     1     -33.883   4.498   2.027  1.00 20.00     0.017 A 
HETATM    8  C6  UNL     1     -32.860   5.276   2.806  1.00 20.00    -0.007 A 
HETATM    9  C7  UNL     1     -32.907   6.765   2.818  1.00 20.00     0.011 C 
ENDBRANCH   4   6
ENDBRANCH   3   4
TORSDOF 2
ENDMDL
MODEL 6
REMARK VINA RESULT:      -4.7     16.433     17.104
REMARK  2 active torsions:
REMARK  status: ('A' for Active; 'I' for Inactive)
REMARK    1  A    between atoms: C3_3  and  C5_5 
REMARK    2  A    between atoms: C3_3  and  C8_8 
ROOT
HETATM    1  C1  UNL     1     -26.769  18.632  12.047  1.00 20.00     0.012 C 
HETATM    2  C2  UNL     1     -25.612  18.323  12.135  1.00 20.00    -0.110 C 
HETATM    3  C8  UNL     1     -24.197  17.950  12.251  1.00 20.00     0.171 C 
ENDROOT
BRANCH   3   4
HETATM    4  C3  UNL     1     -23.700  17.173  11.048  1.00 20.00     0.142 C 
HETATM    5  O9  UNL     1     -24.260  16.165  10.621  1.00 20.00    -0.297 OA
BRANCH   4   6
HETATM    6  C5  UNL     1     -22.491  17.694  10.401  1.00 20.00     0.060 A 
HETATM    7  C4  UNL     1     -22.159  17.265   8.994  1.00 20.00     0.017 A 
HETATM    8  C6  UNL     1     -22.584  18.681   9.261  1.00 20.00    -0.007 A 
HETATM    9  C7  UNL     1     -23.892  19.177   8.747  1.00 20.00     0.011 C 
ENDBRANCH   4   6
ENDBRANCH   3   4
TORSDOF 2
ENDMDL
MODEL 7
REMARK VINA RESULT:      -4.6     11.352     12.124
REMARK  2 active torsions:
REMARK  status: ('A' for Active; 'I' for Inactive)
REMARK    1  A    between atoms: C3_3  and  C5_5 
REMARK    2  A    between atoms: C3_3  and  C8_8 
ROOT
HETATM    1  C1  UNL     1     -35.093  16.440  -1.558  1.00 20.00     0.012 C 
HETATM    2  C2  UNL     1     -34.250  16.184  -2.374  1.00 20.00    -0.110 C 
HETATM    3  C8  UNL     1     -33.214  15.877  -3.368  1.00 20.00     0.171 C 
ENDROOT
BRANCH   3   4
HETATM    4  C3  UNL     1     -33.725  14.985  -4.483  1.00 20.00     0.142 C 
HETATM    5  O9  UNL     1     -33.340  13.829  -4.648  1.00 20.00    -0.297 OA
BRANCH   4   6
HETATM    6  C5  UNL     1     -34.724  15.582  -5.376  1.00 20.00     0.060 A 
HETATM    7  C4  UNL     1     -35.315  14.751  -6.487  1.00 20.00     0.017 A 
HETATM    8  C6  UNL     1     -36.170  15.152  -5.320  1.00 20.00    -0.007 A 
HETATM    9  C7  UNL     1     -36.655  14.120  -4.360  1.00 20.00     0.011 C 
ENDBRANCH   4   6
ENDBRANCH   3   4
TORSDOF 2
ENDMDL
MODEL 8
REMARK VINA RESULT:      -4.6     15.828     16.707
REMARK  2 active torsions:
REMARK  status: ('A' for Active; 'I' for Inactive)
REMARK    1  A    between atoms: C3_3  and  C5_5 
REMARK    2  A    between atoms: C3_3  and  C8_8 
ROOT
HETATM    1  C1  UNL     1     -25.333  18.905   7.993  1.00 20.00     0.012 C 
HETATM    2  C2  UNL     1     -24.260  18.892   8.530  1.00 20.00    -0.110 C 
HETATM    3  C8  UNL     1     -22.945  18.884   9.184  1.00 20.00     0.171 C 
ENDROOT
BRANCH   3   4
HETATM    4  C3  UNL     1     -22.539  17.502   9.655  1.00 20.00     0.142 C 
HETATM    5  O9  UNL     1     -22.337  16.562   8.888  1.00 20.00    -0.297 OA
BRANCH   4   6
HETATM    6  C5  UNL     1     -22.395  17.334  11.105  1.00 20.00     0.060 A 
HETATM    7  C4  UNL     1     -23.285  18.120  12.035  1.00 20.00     0.017 A 
HETATM    8  C6  UNL     1     -23.459  16.633  11.915  1.00 20.00    -0.007 A 
HETATM    9  C7  UNL     1     -24.691  16.074  11.291  1.00 20.00     0.011 C 
ENDBRANCH   4   6
ENDBRANCH   3   4
TORSDOF 2
ENDMDL
MODEL 9
REMARK VINA RESULT:      -4.6     16.137     16.694
REMARK  2 active torsions:
REMARK  status: ('A' for Active; 'I' for Inactive)
REMARK    1  A    between atoms: C3_3  and  C5_5 
REMARK    2  A    between atoms: C3_3  and  C8_8 
ROOT
HETATM    1  C1  UNL     1     -24.591  19.263   8.274  1.00 20.00     0.012 C 
HETATM    2  C2  UNL     1     -23.633  18.841   8.863  1.00 20.00    -0.110 C 
HETATM    3  C8  UNL     1     -22.457  18.328   9.576  1.00 20.00     0.171 C 
ENDROOT
BRANCH   3   4
HETATM    4  C3  UNL     1     -22.828  17.554  10.826  1.00 20.00     0.142 C 
HETATM    5  O9  UNL     1     -22.206  17.645  11.882  1.00 20.00    -0.297 OA
BRANCH   4   6
HETATM    6  C5  UNL     1     -23.992  16.667  10.711  1.00 20.00     0.060 A 
HETATM    7  C4  UNL     1     -24.416  15.843  11.900  1.00 20.00     0.017 A 
HETATM    8  C6  UNL     1     -25.280  16.980  11.434  1.00 20.00    -0.007 A 
HETATM    9  C7  UNL     1     -25.437  18.194  12.284  1.00 20.00     0.011 C 
ENDBRANCH   4   6
ENDBRANCH   3   4
TORSDOF 2
ENDMDL
