MODEL 1
REMARK VINA RESULT:      -3.9      0.000      0.000
REMARK  1 active torsions:
REMARK  status: ('A' for Active; 'I' for Inactive)
REMARK    1  A    between atoms: C3_3  and  C4_4 
ROOT
HETATM    1  C1  UNL     1     -32.698   7.236   2.443  1.00 20.00     0.064 C 
HETATM    2  C4  UNL     1     -33.243   6.742   3.715  1.00 20.00     0.175 C 
HETATM    3  N5  UNL     1     -32.268   7.630   1.440  1.00 20.00    -0.197 NA
ENDROOT
BRANCH   2   4
HETATM    4  C3  UNL     1     -33.810   5.361   3.545  1.00 20.00     0.035 C 
HETATM    5  C2  UNL     1     -34.552   4.682   4.429  1.00 20.00     0.105 C 
HETATM    6 CL6  UNL     1     -35.061   5.273   5.954  1.00 20.00    -0.096 Cl
HETATM    7 CL7  UNL     1     -33.391   4.579   2.048  1.00 20.00    -0.087 Cl
ENDBRANCH   2   4
TORSDOF 1
ENDMDL
MODEL 2
REMARK VINA RESULT:      -3.7     16.961     17.382
REMARK  1 active torsions:
REMARK  status: ('A' for Active; 'I' for Inactive)
REMARK    1  A    between atoms: C3_3  and  C4_4 
ROOT
HETATM    1  C1  UNL     1     -21.687  17.387   8.064  1.00 20.00     0.064 C 
HETATM    2  C4  UNL     1     -21.798  18.310   9.201  1.00 20.00     0.175 C 
HETATM    3  N5  UNL     1     -21.595  16.659   7.165  1.00 20.00    -0.197 NA
ENDROOT
BRANCH   2   4
HETATM    4  C3  UNL     1     -23.183  18.266   9.783  1.00 20.00     0.035 C 
HETATM    5  C2  UNL     1     -23.513  18.025  11.058  1.00 20.00     0.105 C 
HETATM    6 CL6  UNL     1     -22.400  17.754  12.332  1.00 20.00    -0.096 Cl
HETATM    7 CL7  UNL     1     -24.466  18.509   8.632  1.00 20.00    -0.087 Cl
ENDBRANCH   2   4
TORSDOF 1
ENDMDL
MODEL 3
REMARK VINA RESULT:      -3.7     11.499     11.844
REMARK  1 active torsions:
REMARK  status: ('A' for Active; 'I' for Inactive)
REMARK    1  A    between atoms: C3_3  and  C4_4 
ROOT
HETATM    1  C1  UNL     1     -35.704  13.859  -4.150  1.00 20.00     0.064 C 
HETATM    2  C4  UNL     1     -35.514  15.201  -3.585  1.00 20.00     0.175 C 
HETATM    3  N5  UNL     1     -35.859  12.798  -4.595  1.00 20.00    -0.197 NA
ENDROOT
BRANCH   2   4
HETATM    4  C3  UNL     1     -34.052  15.485  -3.380  1.00 20.00     0.035 C 
HETATM    5  C2  UNL     1     -33.515  16.369  -2.530  1.00 20.00     0.105 C 
HETATM    6 CL6  UNL     1     -34.398  17.353  -1.440  1.00 20.00    -0.096 Cl
HETATM    7 CL7  UNL     1     -32.982  14.583  -4.415  1.00 20.00    -0.087 Cl
ENDBRANCH   2   4
TORSDOF 1
ENDMDL
MODEL 4
REMARK VINA RESULT:      -3.7     11.553     12.209
REMARK  1 active torsions:
REMARK  status: ('A' for Active; 'I' for Inactive)
REMARK    1  A    between atoms: C3_3  and  C4_4 
ROOT
HETATM    1  C1  UNL     1     -36.350  13.848  -4.317  1.00 20.00     0.064 C 
HETATM    2  C4  UNL     1     -34.911  13.785  -4.027  1.00 20.00     0.175 C 
HETATM    3  N5  UNL     1     -37.487  13.894  -4.545  1.00 20.00    -0.197 NA
ENDROOT
BRANCH   2   4
HETATM    4  C3  UNL     1     -34.208  14.993  -4.579  1.00 20.00     0.035 C 
HETATM    5  C2  UNL     1     -33.827  16.083  -3.900  1.00 20.00     0.105 C 
HETATM    6 CL6  UNL     1     -34.026  16.316  -2.215  1.00 20.00    -0.096 Cl
HETATM    7 CL7  UNL     1     -33.923  14.951  -6.296  1.00 20.00    -0.087 Cl
ENDBRANCH   2   4
TORSDOF 1
ENDMDL
MODEL 5
REMARK VINA RESULT:      -3.6      2.703      4.099
REMARK  1 active torsions:
REMARK  status: ('A' for Active; 'I' for Inactive)
REMARK    1  A    between atoms: C3_3  and  C4_4 
ROOT
HETATM    1  C1  UNL     1     -34.178   4.789   3.601  1.00 20.00     0.064 C 
HETATM    2  C4  UNL     1     -33.305   5.435   2.612  1.00 20.00     0.175 C 
HETATM    3  N5  UNL     1     -34.869   4.275   4.380  1.00 20.00    -0.197 NA
ENDROOT
BRANCH   2   4
HETATM    4  C3  UNL     1     -32.925   6.816   3.066  1.00 20.00     0.035 C 
HETATM    5  C2  UNL     1     -32.439   7.807   2.309  1.00 20.00     0.105 C 
HETATM    6 CL6  UNL     1     -32.182   7.722   0.617  1.00 20.00    -0.096 Cl
HETATM    7 CL7  UNL     1     -33.106   7.098   4.774  1.00 20.00    -0.087 Cl
ENDBRANCH   2   4
TORSDOF 1
ENDMDL
MODEL 6
REMARK VINA RESULT:      -3.6     16.624     17.252
REMARK  1 active torsions:
REMARK  status: ('A' for Active; 'I' for Inactive)
REMARK    1  A    between atoms: C3_3  and  C4_4 
ROOT
HETATM    1  C1  UNL     1     -21.827  17.523   8.220  1.00 20.00     0.064 C 
HETATM    2  C4  UNL     1     -21.997  18.496   9.306  1.00 20.00     0.175 C 
HETATM    3  N5  UNL     1     -21.690  16.756   7.359  1.00 20.00    -0.197 NA
ENDROOT
BRANCH   2   4
HETATM    4  C3  UNL     1     -23.160  18.116  10.178  1.00 20.00     0.035 C 
HETATM    5  C2  UNL     1     -24.460  18.247   9.887  1.00 20.00     0.105 C 
HETATM    6 CL6  UNL     1     -25.087  18.848   8.410  1.00 20.00    -0.096 Cl
HETATM    7 CL7  UNL     1     -22.725  17.489  11.743  1.00 20.00    -0.087 Cl
ENDBRANCH   2   4
TORSDOF 1
ENDMDL
MODEL 7
REMARK VINA RESULT:      -3.5     11.623     12.716
REMARK  1 active torsions:
REMARK  status: ('A' for Active; 'I' for Inactive)
REMARK    1  A    between atoms: C3_3  and  C4_4 
ROOT
HETATM    1  C1  UNL     1     -36.610  13.992  -4.310  1.00 20.00     0.064 C 
HETATM    2  C4  UNL     1     -35.156  14.058  -4.112  1.00 20.00     0.175 C 
HETATM    3  N5  UNL     1     -37.758  13.936  -4.468  1.00 20.00    -0.197 NA
ENDROOT
BRANCH   2   4
HETATM    4  C3  UNL     1     -34.719  15.477  -3.882  1.00 20.00     0.035 C 
HETATM    5  C2  UNL     1     -34.373  16.374  -4.813  1.00 20.00     0.105 C 
HETATM    6 CL6  UNL     1     -34.399  16.102  -6.505  1.00 20.00    -0.096 Cl
HETATM    7 CL7  UNL     1     -34.617  15.945  -2.208  1.00 20.00    -0.087 Cl
ENDBRANCH   2   4
TORSDOF 1
ENDMDL
MODEL 8
REMARK VINA RESULT:      -3.4     16.767     17.266
REMARK  1 active torsions:
REMARK  status: ('A' for Active; 'I' for Inactive)
REMARK    1  A    between atoms: C3_3  and  C4_4 
ROOT
HETATM    1  C1  UNL     1     -22.908  17.399   9.336  1.00 20.00     0.064 C 
HETATM    2  C4  UNL     1     -23.700  18.382  10.087  1.00 20.00     0.175 C 
HETATM    3  N5  UNL     1     -22.284  16.624   8.739  1.00 20.00    -0.197 NA
ENDROOT
BRANCH   2   4
HETATM    4  C3  UNL     1     -23.758  18.013  11.542  1.00 20.00     0.035 C 
HETATM    5  C2  UNL     1     -24.840  18.016  12.331  1.00 20.00     0.105 C 
HETATM    6 CL6  UNL     1     -26.430  18.406  11.826  1.00 20.00    -0.096 Cl
HETATM    7 CL7  UNL     1     -22.224  17.593  12.249  1.00 20.00    -0.087 Cl
ENDBRANCH   2   4
TORSDOF 1
ENDMDL
MODEL 9
REMARK VINA RESULT:      -3.4      2.665      3.698
REMARK  1 active torsions:
REMARK  status: ('A' for Active; 'I' for Inactive)
REMARK    1  A    between atoms: C3_3  and  C4_4 
ROOT
HETATM    1  C1  UNL     1     -34.350   6.047   4.574  1.00 20.00     0.064 C 
HETATM    2  C4  UNL     1     -33.385   6.948   3.929  1.00 20.00     0.175 C 
HETATM    3  N5  UNL     1     -35.111   5.338   5.088  1.00 20.00    -0.197 NA
ENDROOT
BRANCH   2   4
HETATM    4  C3  UNL     1     -32.983   6.412   2.583  1.00 20.00     0.035 C 
HETATM    5  C2  UNL     1     -32.699   7.125   1.486  1.00 20.00     0.105 C 
HETATM    6 CL6  UNL     1     -32.689   8.836   1.394  1.00 20.00    -0.096 Cl
HETATM    7 CL7  UNL     1     -32.946   4.676   2.470  1.00 20.00    -0.087 Cl
ENDBRANCH   2   4
TORSDOF 1
ENDMDL
