MODEL 1
REMARK VINA RESULT:      -4.1      0.000      0.000
REMARK  2 active torsions:
REMARK  status: ('A' for Active; 'I' for Inactive)
REMARK    1  A    between atoms: C2_2  and  C9_9 
REMARK    2  A    between atoms: C9_9  and  N11_11 
ROOT
HETATM    1  C3  UNL     1     -36.509  14.039  -4.929  1.00 20.00     0.300 C 
HETATM    2  C4  UNL     1     -36.023  14.935  -3.779  1.00 20.00     0.303 C 
HETATM    3  C5  UNL     1     -34.114  15.698  -5.063  1.00 20.00     0.308 C 
HETATM    4  C6  UNL     1     -35.006  15.362  -6.277  1.00 20.00     0.244 C 
HETATM    5  C7  UNL     1     -34.203  15.394  -7.575  1.00 20.00     0.044 C 
HETATM    6  N10 UNL     1     -35.634  14.054  -6.105  1.00 20.00     0.091 N 
HETATM    7  N11 UNL     1     -34.568  15.071  -3.812  1.00 20.00     0.100 N 
HETATM    8  H29 UNL     1     -34.906  13.344  -5.978  1.00 20.00     0.316 HD
ENDROOT
BRANCH   7   9
HETATM    9  C9  UNL     1     -34.062  15.786  -2.646  1.00 20.00     0.241 C 
HETATM   10  C8  UNL     1     -33.109  16.900  -3.065  1.00 20.00     0.047 C 
BRANCH   9  11
HETATM   11  C2  UNL     1     -35.238  16.330  -1.887  1.00 20.00    -0.002 C 
HETATM   12  C1  UNL     1     -35.132  17.048  -0.763  1.00 20.00     0.009 C 
ENDBRANCH   9  11
ENDBRANCH   7   9
TORSDOF 2
ENDMDL
MODEL 2
REMARK VINA RESULT:      -3.9      1.990      4.847
REMARK  2 active torsions:
REMARK  status: ('A' for Active; 'I' for Inactive)
REMARK    1  A    between atoms: C2_2  and  C9_9 
REMARK    2  A    between atoms: C9_9  and  N11_11 
ROOT
HETATM    1  C3  UNL     1     -32.583  18.166  -2.100  1.00 20.00     0.300 C 
HETATM    2  C4  UNL     1     -33.160  17.411  -3.308  1.00 20.00     0.303 C 
HETATM    3  C5  UNL     1     -34.815  16.296  -1.930  1.00 20.00     0.308 C 
HETATM    4  C6  UNL     1     -34.644  17.530  -1.018  1.00 20.00     0.244 C 
HETATM    5  C7  UNL     1     -35.325  17.314   0.331  1.00 20.00     0.044 C 
HETATM    6  N10 UNL     1     -33.228  17.834  -0.827  1.00 20.00     0.091 N 
HETATM    7  N11 UNL     1     -33.715  16.123  -2.892  1.00 20.00     0.100 N 
HETATM    8  H29 UNL     1     -32.759  17.017  -0.427  1.00 20.00     0.316 HD
ENDROOT
BRANCH   7   9
HETATM    9  C9  UNL     1     -34.130  15.316  -4.034  1.00 20.00     0.241 C 
HETATM   10  C8  UNL     1     -33.011  14.378  -4.469  1.00 20.00     0.047 C 
BRANCH   9  11
HETATM   11  C2  UNL     1     -35.362  14.552  -3.640  1.00 20.00    -0.002 C 
HETATM   12  C1  UNL     1     -36.033  13.743  -4.468  1.00 20.00     0.009 C 
ENDBRANCH   9  11
ENDBRANCH   7   9
TORSDOF 2
ENDMDL
MODEL 3
REMARK VINA RESULT:      -3.9      1.612      2.015
REMARK  2 active torsions:
REMARK  status: ('A' for Active; 'I' for Inactive)
REMARK    1  A    between atoms: C2_2  and  C9_9 
REMARK    2  A    between atoms: C9_9  and  N11_11 
ROOT
HETATM    1  C3  UNL     1     -32.990  14.342  -4.501  1.00 20.00     0.300 C 
HETATM    2  C4  UNL     1     -34.077  14.954  -3.602  1.00 20.00     0.303 C 
HETATM    3  C5  UNL     1     -35.003  16.231  -5.444  1.00 20.00     0.308 C 
HETATM    4  C6  UNL     1     -34.389  15.111  -6.311  1.00 20.00     0.244 C 
HETATM    5  C7  UNL     1     -34.412  15.487  -7.791  1.00 20.00     0.044 C 
HETATM    6  N10 UNL     1     -33.021  14.825  -5.884  1.00 20.00     0.091 N 
HETATM    7  N11 UNL     1     -34.452  16.284  -4.081  1.00 20.00     0.100 N 
HETATM    8  H29 UNL     1     -32.463  15.681  -5.944  1.00 20.00     0.316 HD
ENDROOT
BRANCH   7   9
HETATM    9  C9  UNL     1     -35.366  16.955  -3.164  1.00 20.00     0.241 C 
HETATM   10  C8  UNL     1     -36.809  16.806  -3.633  1.00 20.00     0.047 C 
BRANCH   9  11
HETATM   11  C2  UNL     1     -35.172  16.364  -1.798  1.00 20.00    -0.002 C 
HETATM   12  C1  UNL     1     -35.195  17.079  -0.666  1.00 20.00     0.009 C 
ENDBRANCH   9  11
ENDBRANCH   7   9
TORSDOF 2
ENDMDL
MODEL 4
REMARK VINA RESULT:      -3.8      1.729      2.011
REMARK  2 active torsions:
REMARK  status: ('A' for Active; 'I' for Inactive)
REMARK    1  A    between atoms: C2_2  and  C9_9 
REMARK    2  A    between atoms: C9_9  and  N11_11 
ROOT
HETATM    1  C3  UNL     1     -34.064  14.992  -6.193  1.00 20.00     0.300 C 
HETATM    2  C4  UNL     1     -34.148  15.040  -4.659  1.00 20.00     0.303 C 
HETATM    3  C5  UNL     1     -34.204  17.465  -4.652  1.00 20.00     0.308 C 
HETATM    4  C6  UNL     1     -34.792  17.289  -6.069  1.00 20.00     0.244 C 
HETATM    5  C7  UNL     1     -34.837  18.621  -6.814  1.00 20.00     0.044 C 
HETATM    6  N10 UNL     1     -34.016  16.311  -6.828  1.00 20.00     0.091 N 
HETATM    7  N11 UNL     1     -33.526  16.261  -4.148  1.00 20.00     0.100 N 
HETATM    8  H29 UNL     1     -33.040  16.617  -6.873  1.00 20.00     0.316 HD
ENDROOT
BRANCH   7   9
HETATM    9  C9  UNL     1     -33.451  16.264  -2.691  1.00 20.00     0.241 C 
HETATM   10  C8  UNL     1     -32.797  17.545  -2.185  1.00 20.00     0.047 C 
BRANCH   9  11
HETATM   11  C2  UNL     1     -34.845  16.113  -2.153  1.00 20.00    -0.002 C 
HETATM   12  C1  UNL     1     -35.300  16.753  -1.070  1.00 20.00     0.009 C 
ENDBRANCH   9  11
ENDBRANCH   7   9
TORSDOF 2
ENDMDL
MODEL 5
REMARK VINA RESULT:      -3.7      1.711      2.380
REMARK  2 active torsions:
REMARK  status: ('A' for Active; 'I' for Inactive)
REMARK    1  A    between atoms: C2_2  and  C9_9 
REMARK    2  A    between atoms: C9_9  and  N11_11 
ROOT
HETATM    1  C3  UNL     1     -33.166  14.418  -4.505  1.00 20.00     0.300 C 
HETATM    2  C4  UNL     1     -33.675  15.384  -3.423  1.00 20.00     0.303 C 
HETATM    3  C5  UNL     1     -34.282  17.052  -5.075  1.00 20.00     0.308 C 
HETATM    4  C6  UNL     1     -34.405  15.834  -6.016  1.00 20.00     0.244 C 
HETATM    5  C7  UNL     1     -34.546  16.276  -7.471  1.00 20.00     0.044 C 
HETATM    6  N10 UNL     1     -33.249  14.953  -5.867  1.00 20.00     0.091 N 
HETATM    7  N11 UNL     1     -33.511  16.772  -3.854  1.00 20.00     0.100 N 
HETATM    8  H29 UNL     1     -32.394  15.481  -6.063  1.00 20.00     0.316 HD
ENDROOT
BRANCH   7   9
HETATM    9  C9  UNL     1     -33.840  17.714  -2.790  1.00 20.00     0.241 C 
HETATM   10  C8  UNL     1     -34.491  16.996  -1.614  1.00 20.00     0.047 C 
BRANCH   9  11
HETATM   11  C2  UNL     1     -32.575  18.408  -2.376  1.00 20.00    -0.002 C 
HETATM   12  C1  UNL     1     -31.975  18.222  -1.195  1.00 20.00     0.009 C 
ENDBRANCH   9  11
ENDBRANCH   7   9
TORSDOF 2
ENDMDL
MODEL 6
REMARK VINA RESULT:      -3.7      1.851      4.422
REMARK  2 active torsions:
REMARK  status: ('A' for Active; 'I' for Inactive)
REMARK    1  A    between atoms: C2_2  and  C9_9 
REMARK    2  A    between atoms: C9_9  and  N11_11 
ROOT
HETATM    1  C3  UNL     1     -35.358  17.251  -1.031  1.00 20.00     0.300 C 
HETATM    2  C4  UNL     1     -35.205  16.068  -2.000  1.00 20.00     0.303 C 
HETATM    3  C5  UNL     1     -33.133  16.956  -2.894  1.00 20.00     0.308 C 
HETATM    4  C6  UNL     1     -33.026  17.642  -1.515  1.00 20.00     0.244 C 
HETATM    5  C7  UNL     1     -31.912  18.687  -1.506  1.00 20.00     0.044 C 
HETATM    6  N10 UNL     1     -34.299  18.258  -1.149  1.00 20.00     0.091 N 
HETATM    7  N11 UNL     1     -34.490  16.481  -3.207  1.00 20.00     0.100 N 
HETATM    8  H29 UNL     1     -34.568  18.931  -1.872  1.00 20.00     0.316 HD
ENDROOT
BRANCH   7   9
HETATM    9  C9  UNL     1     -34.464  15.425  -4.212  1.00 20.00     0.241 C 
HETATM   10  C8  UNL     1     -33.086  14.776  -4.281  1.00 20.00     0.047 C 
BRANCH   9  11
HETATM   11  C2  UNL     1     -35.523  14.421  -3.860  1.00 20.00    -0.002 C 
HETATM   12  C1  UNL     1     -36.184  13.686  -4.762  1.00 20.00     0.009 C 
ENDBRANCH   9  11
ENDBRANCH   7   9
TORSDOF 2
ENDMDL
MODEL 7
REMARK VINA RESULT:      -3.7      1.904      2.860
REMARK  2 active torsions:
REMARK  status: ('A' for Active; 'I' for Inactive)
REMARK    1  A    between atoms: C2_2  and  C9_9 
REMARK    2  A    between atoms: C9_9  and  N11_11 
ROOT
HETATM    1  C3  UNL     1     -34.158  15.335  -7.706  1.00 20.00     0.300 C 
HETATM    2  C4  UNL     1     -35.098  14.963  -6.548  1.00 20.00     0.303 C 
HETATM    3  C5  UNL     1     -34.818  17.136  -5.509  1.00 20.00     0.308 C 
HETATM    4  C6  UNL     1     -34.506  17.599  -6.948  1.00 20.00     0.244 C 
HETATM    5  C7  UNL     1     -33.934  19.015  -6.957  1.00 20.00     0.044 C 
HETATM    6  N10 UNL     1     -33.576  16.675  -7.593  1.00 20.00     0.091 N 
HETATM    7  N11 UNL     1     -34.722  15.679  -5.330  1.00 20.00     0.100 N 
HETATM    8  H29 UNL     1     -32.720  16.614  -7.035  1.00 20.00     0.316 HD
ENDROOT
BRANCH   7   9
HETATM    9  C9  UNL     1     -35.496  15.234  -4.177  1.00 20.00     0.241 C 
HETATM   10  C8  UNL     1     -35.934  13.784  -4.346  1.00 20.00     0.047 C 
BRANCH   9  11
HETATM   11  C2  UNL     1     -34.648  15.409  -2.951  1.00 20.00    -0.002 C 
HETATM   12  C1  UNL     1     -35.003  16.155  -1.898  1.00 20.00     0.009 C 
ENDBRANCH   9  11
ENDBRANCH   7   9
TORSDOF 2
ENDMDL
MODEL 8
REMARK VINA RESULT:      -3.7      2.307      3.474
REMARK  2 active torsions:
REMARK  status: ('A' for Active; 'I' for Inactive)
REMARK    1  A    between atoms: C2_2  and  C9_9 
REMARK    2  A    between atoms: C9_9  and  N11_11 
ROOT
HETATM    1  C3  UNL     1     -36.025  17.222  -2.310  1.00 20.00     0.300 C 
HETATM    2  C4  UNL     1     -34.730  18.048  -2.350  1.00 20.00     0.303 C 
HETATM    3  C5  UNL     1     -33.412  16.112  -2.982  1.00 20.00     0.308 C 
HETATM    4  C6  UNL     1     -34.748  15.600  -3.561  1.00 20.00     0.244 C 
HETATM    5  C7  UNL     1     -34.650  14.126  -3.948  1.00 20.00     0.044 C 
HETATM    6  N10 UNL     1     -35.832  15.798  -2.601  1.00 20.00     0.091 N 
HETATM    7  N11 UNL     1     -33.576  17.212  -2.019  1.00 20.00     0.100 N 
HETATM    8  H29 UNL     1     -35.603  15.315  -1.729  1.00 20.00     0.316 HD
ENDROOT
BRANCH   7   9
HETATM    9  C9  UNL     1     -32.353  17.997  -1.896  1.00 20.00     0.241 C 
HETATM   10  C8  UNL     1     -32.427  19.253  -2.756  1.00 20.00     0.047 C 
BRANCH   9  11
HETATM   11  C2  UNL     1     -32.163  18.338  -0.446  1.00 20.00    -0.002 C 
HETATM   12  C1  UNL     1     -30.976  18.626   0.102  1.00 20.00     0.009 C 
ENDBRANCH   9  11
ENDBRANCH   7   9
TORSDOF 2
ENDMDL
MODEL 9
REMARK VINA RESULT:      -3.7      1.292      1.883
REMARK  2 active torsions:
REMARK  status: ('A' for Active; 'I' for Inactive)
REMARK    1  A    between atoms: C2_2  and  C9_9 
REMARK    2  A    between atoms: C9_9  and  N11_11 
ROOT
HETATM    1  C3  UNL     1     -33.914  14.909  -6.120  1.00 20.00     0.300 C 
HETATM    2  C4  UNL     1     -33.707  14.861  -4.597  1.00 20.00     0.303 C 
HETATM    3  C5  UNL     1     -35.686  16.204  -4.198  1.00 20.00     0.308 C 
HETATM    4  C6  UNL     1     -36.148  15.627  -5.553  1.00 20.00     0.244 C 
HETATM    5  C7  UNL     1     -37.387  16.357  -6.067  1.00 20.00     0.044 C 
HETATM    6  N10 UNL     1     -35.071  15.707  -6.537  1.00 20.00     0.091 N 
HETATM    7  N11 UNL     1     -34.239  16.068  -3.967  1.00 20.00     0.100 N 
HETATM    8  H29 UNL     1     -34.775  16.682  -6.636  1.00 20.00     0.316 HD
ENDROOT
BRANCH   7   9
HETATM    9  C9  UNL     1     -33.921  16.124  -2.545  1.00 20.00     0.241 C 
HETATM   10  C8  UNL     1     -32.911  17.230  -2.260  1.00 20.00     0.047 C 
BRANCH   9  11
HETATM   11  C2  UNL     1     -35.200  16.343  -1.790  1.00 20.00    -0.002 C 
HETATM   12  C1  UNL     1     -35.277  17.006  -0.630  1.00 20.00     0.009 C 
ENDBRANCH   9  11
ENDBRANCH   7   9
TORSDOF 2
ENDMDL
