MODEL 1
REMARK VINA RESULT:      -3.9      0.000      0.000
REMARK  2 active torsions:
REMARK  status: ('A' for Active; 'I' for Inactive)
REMARK    1  A    between atoms: C2_2  and  C9_9 
REMARK    2  A    between atoms: C9_9  and  N11_11 
ROOT
HETATM    1  C3  UNL     1     -34.105   4.390   2.960  1.00 20.00     0.300 C 
HETATM    2  C4  UNL     1     -33.021   5.241   2.298  1.00 20.00     0.302 C 
HETATM    3  C5  UNL     1     -33.320   6.932   3.994  1.00 20.00     0.307 C 
HETATM    4  C6  UNL     1     -34.416   6.078   4.654  1.00 20.00     0.244 C 
HETATM    5  C8  UNL     1     -34.446   6.313   6.163  1.00 20.00     0.044 C 
HETATM    6  N10 UNL     1     -34.186   4.652   4.395  1.00 20.00     0.091 N 
HETATM    7  N11 UNL     1     -33.253   6.669   2.550  1.00 20.00     0.096 N 
HETATM    8  H29 UNL     1     -34.940   4.101   4.802  1.00 20.00     0.316 HD
ENDROOT
BRANCH   7   9
HETATM    9  C9  UNL     1     -32.214   7.482   1.921  1.00 20.00     0.305 C 
BRANCH   9  10
HETATM   10  C2  UNL     1     -32.843   8.482   0.994  1.00 20.00    -0.065 C 
HETATM   11  C1  UNL     1     -33.154   9.721   1.407  1.00 20.00     0.015 C 
HETATM   12  C7  UNL     1     -33.149   8.022  -0.403  1.00 20.00     0.044 C 
ENDBRANCH   9  10
ENDBRANCH   7   9
TORSDOF 2
ENDMDL
MODEL 2
REMARK VINA RESULT:      -3.8     15.672     17.064
REMARK  2 active torsions:
REMARK  status: ('A' for Active; 'I' for Inactive)
REMARK    1  A    between atoms: C2_2  and  C9_9 
REMARK    2  A    between atoms: C9_9  and  N11_11 
ROOT
HETATM    1  C3  UNL     1     -21.663  18.148   8.949  1.00 20.00     0.300 C 
HETATM    2  C4  UNL     1     -22.064  17.596  10.318  1.00 20.00     0.302 C 
HETATM    3  C5  UNL     1     -24.308  18.420   9.988  1.00 20.00     0.307 C 
HETATM    4  C6  UNL     1     -23.901  18.982   8.615  1.00 20.00     0.244 C 
HETATM    5  C8  UNL     1     -25.088  18.964   7.653  1.00 20.00     0.044 C 
HETATM    6  N10 UNL     1     -22.805  18.194   8.039  1.00 20.00     0.091 N 
HETATM    7  N11 UNL     1     -23.155  18.386  10.900  1.00 20.00     0.096 N 
HETATM    8  H29 UNL     1     -22.517  18.601   7.149  1.00 20.00     0.316 HD
ENDROOT
BRANCH   7   9
HETATM    9  C9  UNL     1     -23.542  17.856  12.206  1.00 20.00     0.305 C 
BRANCH   9  10
HETATM   10  C2  UNL     1     -24.833  17.098  12.084  1.00 20.00    -0.065 C 
HETATM   11  C1  UNL     1     -26.015  17.684  12.331  1.00 20.00     0.015 C 
HETATM   12  C7  UNL     1     -24.742  15.645  11.714  1.00 20.00     0.044 C 
ENDBRANCH   9  10
ENDBRANCH   7   9
TORSDOF 2
ENDMDL
MODEL 3
REMARK VINA RESULT:      -3.8     11.250     12.454
REMARK  2 active torsions:
REMARK  status: ('A' for Active; 'I' for Inactive)
REMARK    1  A    between atoms: C2_2  and  C9_9 
REMARK    2  A    between atoms: C9_9  and  N11_11 
ROOT
HETATM    1  C3  UNL     1     -36.126  13.958  -5.226  1.00 20.00     0.300 C 
HETATM    2  C4  UNL     1     -36.303  15.215  -4.372  1.00 20.00     0.302 C 
HETATM    3  C5  UNL     1     -34.578  16.319  -5.647  1.00 20.00     0.307 C 
HETATM    4  C6  UNL     1     -34.395  15.052  -6.500  1.00 20.00     0.244 C 
HETATM    5  C8  UNL     1     -33.957  15.415  -7.918  1.00 20.00     0.044 C 
HETATM    6  N10 UNL     1     -35.647  14.289  -6.566  1.00 20.00     0.091 N 
HETATM    7  N11 UNL     1     -35.050  15.976  -4.299  1.00 20.00     0.096 N 
HETATM    8  H29 UNL     1     -35.502  13.432  -7.099  1.00 20.00     0.316 HD
ENDROOT
BRANCH   7   9
HETATM    9  C9  UNL     1     -35.221  17.179  -3.487  1.00 20.00     0.305 C 
BRANCH   9  10
HETATM   10  C2  UNL     1     -34.441  17.044  -2.210  1.00 20.00    -0.065 C 
HETATM   11  C1  UNL     1     -33.099  17.085  -2.201  1.00 20.00     0.015 C 
HETATM   12  C7  UNL     1     -35.226  16.820  -0.950  1.00 20.00     0.044 C 
ENDBRANCH   9  10
ENDBRANCH   7   9
TORSDOF 2
ENDMDL
MODEL 4
REMARK VINA RESULT:      -3.8     10.693     12.369
REMARK  2 active torsions:
REMARK  status: ('A' for Active; 'I' for Inactive)
REMARK    1  A    between atoms: C2_2  and  C9_9 
REMARK    2  A    between atoms: C9_9  and  N11_11 
ROOT
HETATM    1  C3  UNL     1     -33.361  14.917  -4.196  1.00 20.00     0.300 C 
HETATM    2  C4  UNL     1     -34.717  14.294  -3.861  1.00 20.00     0.302 C 
HETATM    3  C5  UNL     1     -35.472  14.738  -6.109  1.00 20.00     0.307 C 
HETATM    4  C6  UNL     1     -34.111  15.371  -6.443  1.00 20.00     0.244 C 
HETATM    5  C8  UNL     1     -33.768  15.165  -7.918  1.00 20.00     0.044 C 
HETATM    6  N10 UNL     1     -33.051  14.781  -5.618  1.00 20.00     0.091 N 
HETATM    7  N11 UNL     1     -35.780  14.888  -4.680  1.00 20.00     0.096 N 
HETATM    8  H29 UNL     1     -32.161  15.237  -5.819  1.00 20.00     0.316 HD
ENDROOT
BRANCH   7   9
HETATM    9  C9  UNL     1     -37.076  14.290  -4.363  1.00 20.00     0.305 C 
BRANCH   9  10
HETATM   10  C2  UNL     1     -38.104  15.370  -4.187  1.00 20.00    -0.065 C 
HETATM   11  C1  UNL     1     -37.754  16.622  -3.852  1.00 20.00     0.015 C 
HETATM   12  C7  UNL     1     -39.544  14.979  -4.361  1.00 20.00     0.044 C 
ENDBRANCH   9  10
ENDBRANCH   7   9
TORSDOF 2
ENDMDL
MODEL 5
REMARK VINA RESULT:      -3.7     10.979     12.676
REMARK  2 active torsions:
REMARK  status: ('A' for Active; 'I' for Inactive)
REMARK    1  A    between atoms: C2_2  and  C9_9 
REMARK    2  A    between atoms: C9_9  and  N11_11 
ROOT
HETATM    1  C3  UNL     1     -34.095  15.324  -7.056  1.00 20.00     0.300 C 
HETATM    2  C4  UNL     1     -33.977  14.769  -5.636  1.00 20.00     0.302 C 
HETATM    3  C5  UNL     1     -36.039  15.872  -5.039  1.00 20.00     0.307 C 
HETATM    4  C6  UNL     1     -36.152  16.436  -6.466  1.00 20.00     0.244 C 
HETATM    5  C8  UNL     1     -37.617  16.601  -6.865  1.00 20.00     0.044 C 
HETATM    6  N10 UNL     1     -35.491  15.545  -7.427  1.00 20.00     0.091 N 
HETATM    7  N11 UNL     1     -34.632  15.662  -4.672  1.00 20.00     0.096 N 
HETATM    8  H29 UNL     1     -35.537  15.950  -8.362  1.00 20.00     0.316 HD
ENDROOT
BRANCH   7   9
HETATM    9  C9  UNL     1     -34.523  15.129  -3.315  1.00 20.00     0.305 C 
BRANCH   9  10
HETATM   10  C2  UNL     1     -34.271  16.251  -2.348  1.00 20.00    -0.065 C 
HETATM   11  C1  UNL     1     -35.151  16.552  -1.381  1.00 20.00     0.015 C 
HETATM   12  C7  UNL     1     -33.012  17.047  -2.537  1.00 20.00     0.044 C 
ENDBRANCH   9  10
ENDBRANCH   7   9
TORSDOF 2
ENDMDL
MODEL 6
REMARK VINA RESULT:      -3.7     11.160     11.935
REMARK  2 active torsions:
REMARK  status: ('A' for Active; 'I' for Inactive)
REMARK    1  A    between atoms: C2_2  and  C9_9 
REMARK    2  A    between atoms: C9_9  and  N11_11 
ROOT
HETATM    1  C3  UNL     1     -30.979  18.524   0.569  1.00 20.00     0.300 C 
HETATM    2  C4  UNL     1     -31.690  18.627  -0.782  1.00 20.00     0.302 C 
HETATM    3  C5  UNL     1     -33.815  18.317   0.318  1.00 20.00     0.307 C 
HETATM    4  C6  UNL     1     -33.099  18.206   1.675  1.00 20.00     0.244 C 
HETATM    5  C8  UNL     1     -33.989  18.733   2.799  1.00 20.00     0.044 C 
HETATM    6  N10 UNL     1     -31.845  18.967   1.660  1.00 20.00     0.091 N 
HETATM    7  N11 UNL     1     -32.942  17.860  -0.772  1.00 20.00     0.096 N 
HETATM    8  H29 UNL     1     -31.360  18.852   2.549  1.00 20.00     0.316 HD
ENDROOT
BRANCH   7   9
HETATM    9  C9  UNL     1     -33.623  17.962  -2.061  1.00 20.00     0.305 C 
BRANCH   9  10
HETATM   10  C2  UNL     1     -33.906  16.587  -2.596  1.00 20.00    -0.065 C 
HETATM   11  C1  UNL     1     -33.042  15.962  -3.411  1.00 20.00     0.015 C 
HETATM   12  C7  UNL     1     -35.215  15.959  -2.212  1.00 20.00     0.044 C 
ENDBRANCH   9  10
ENDBRANCH   7   9
TORSDOF 2
ENDMDL
MODEL 7
REMARK VINA RESULT:      -3.6     10.986     12.073
REMARK  2 active torsions:
REMARK  status: ('A' for Active; 'I' for Inactive)
REMARK    1  A    between atoms: C2_2  and  C9_9 
REMARK    2  A    between atoms: C9_9  and  N11_11 
ROOT
HETATM    1  C3  UNL     1     -36.385  17.821  -0.732  1.00 20.00     0.300 C 
HETATM    2  C4  UNL     1     -35.190  18.758  -0.555  1.00 20.00     0.302 C 
HETATM    3  C5  UNL     1     -33.768  17.146  -1.651  1.00 20.00     0.307 C 
HETATM    4  C6  UNL     1     -34.969  16.200  -1.821  1.00 20.00     0.244 C 
HETATM    5  C8  UNL     1     -34.815  15.356  -3.085  1.00 20.00     0.044 C 
HETATM    6  N10 UNL     1     -36.220  16.963  -1.904  1.00 20.00     0.091 N 
HETATM    7  N11 UNL     1     -33.938  17.997  -0.465  1.00 20.00     0.096 N 
HETATM    8  H29 UNL     1     -37.011  16.325  -1.975  1.00 20.00     0.316 HD
ENDROOT
BRANCH   7   9
HETATM    9  C9  UNL     1     -32.795  18.893  -0.300  1.00 20.00     0.305 C 
BRANCH   9  10
HETATM   10  C2  UNL     1     -31.994  18.479   0.901  1.00 20.00    -0.065 C 
HETATM   11  C1  UNL     1     -30.656  18.387   0.852  1.00 20.00     0.015 C 
HETATM   12  C7  UNL     1     -32.758  18.131   2.146  1.00 20.00     0.044 C 
ENDBRANCH   9  10
ENDBRANCH   7   9
TORSDOF 2
ENDMDL
MODEL 8
REMARK VINA RESULT:      -3.6     11.018     12.074
REMARK  2 active torsions:
REMARK  status: ('A' for Active; 'I' for Inactive)
REMARK    1  A    between atoms: C2_2  and  C9_9 
REMARK    2  A    between atoms: C9_9  and  N11_11 
ROOT
HETATM    1  C3  UNL     1     -36.509  17.799  -0.780  1.00 20.00     0.300 C 
HETATM    2  C4  UNL     1     -35.336  18.753  -0.545  1.00 20.00     0.302 C 
HETATM    3  C5  UNL     1     -33.848  17.174  -1.601  1.00 20.00     0.307 C 
HETATM    4  C6  UNL     1     -35.026  16.213  -1.830  1.00 20.00     0.244 C 
HETATM    5  C8  UNL     1     -34.809  15.386  -3.096  1.00 20.00     0.044 C 
HETATM    6  N10 UNL     1     -36.284  16.959  -1.954  1.00 20.00     0.091 N 
HETATM    7  N11 UNL     1     -34.078  18.008  -0.413  1.00 20.00     0.096 N 
HETATM    8  H29 UNL     1     -37.062  16.309  -2.065  1.00 20.00     0.316 HD
ENDROOT
BRANCH   7   9
HETATM    9  C9  UNL     1     -32.957  18.919  -0.193  1.00 20.00     0.305 C 
BRANCH   9  10
HETATM   10  C2  UNL     1     -32.171  18.476   1.008  1.00 20.00    -0.065 C 
HETATM   11  C1  UNL     1     -32.770  18.221   2.182  1.00 20.00     0.015 C 
HETATM   12  C7  UNL     1     -30.681  18.370   0.850  1.00 20.00     0.044 C 
ENDBRANCH   9  10
ENDBRANCH   7   9
TORSDOF 2
ENDMDL
MODEL 9
REMARK VINA RESULT:      -3.6     10.814     12.255
REMARK  2 active torsions:
REMARK  status: ('A' for Active; 'I' for Inactive)
REMARK    1  A    between atoms: C2_2  and  C9_9 
REMARK    2  A    between atoms: C9_9  and  N11_11 
ROOT
HETATM    1  C3  UNL     1     -32.893  18.747  -3.953  1.00 20.00     0.300 C 
HETATM    2  C4  UNL     1     -34.062  17.765  -3.864  1.00 20.00     0.302 C 
HETATM    3  C5  UNL     1     -33.394  17.181  -1.620  1.00 20.00     0.307 C 
HETATM    4  C6  UNL     1     -32.214  18.163  -1.714  1.00 20.00     0.244 C 
HETATM    5  C8  UNL     1     -31.886  18.743  -0.339  1.00 20.00     0.044 C 
HETATM    6  N10 UNL     1     -32.529  19.261  -2.634  1.00 20.00     0.091 N 
HETATM    7  N11 UNL     1     -33.747  16.662  -2.949  1.00 20.00     0.096 N 
HETATM    8  H29 UNL     1     -31.725  19.882  -2.719  1.00 20.00     0.316 HD
ENDROOT
BRANCH   7   9
HETATM    9  C9  UNL     1     -34.866  15.725  -2.861  1.00 20.00     0.305 C 
BRANCH   9  10
HETATM   10  C2  UNL     1     -34.674  14.611  -3.849  1.00 20.00    -0.065 C 
HETATM   11  C1  UNL     1     -35.703  13.848  -4.252  1.00 20.00     0.015 C 
HETATM   12  C7  UNL     1     -33.276  14.360  -4.335  1.00 20.00     0.044 C 
ENDBRANCH   9  10
ENDBRANCH   7   9
TORSDOF 2
ENDMDL
