MODEL 1
REMARK VINA RESULT:      -3.8      0.000      0.000
REMARK  2 active torsions:
REMARK  status: ('A' for Active; 'I' for Inactive)
REMARK    1  A    between atoms: C1_1  and  C3_3 
REMARK    2  A    between atoms: C1_1  and  C9_9 
ROOT
HETATM    1  C1  UNL     1     -34.864  15.853  -4.661  1.00 20.00     0.139 C 
HETATM    2  O10 UNL     1     -34.427  16.860  -5.224  1.00 20.00    -0.297 OA
ENDROOT
BRANCH   1   3
HETATM    3  C3  UNL     1     -34.306  15.448  -3.317  1.00 20.00     0.060 A 
HETATM    4  C2  UNL     1     -33.441  16.421  -2.598  1.00 20.00     0.017 A 
HETATM    5  C4  UNL     1     -34.816  16.104  -2.083  1.00 20.00    -0.007 A 
HETATM    6  C5  UNL     1     -35.874  17.154  -2.085  1.00 20.00     0.011 C 
ENDBRANCH   1   3
BRANCH   1   7
HETATM    7  C9  UNL     1     -35.986  14.998  -5.279  1.00 20.00     0.010 C 
HETATM    8  C6  UNL     1     -37.298  15.790  -5.227  1.00 20.00     0.022 C 
HETATM    9  C7  UNL     1     -36.139  13.672  -4.523  1.00 20.00     0.022 C 
HETATM   10  C8  UNL     1     -35.645  14.688  -6.747  1.00 20.00     0.022 C 
ENDBRANCH   1   7
TORSDOF 2
ENDMDL
MODEL 2
REMARK VINA RESULT:      -3.8      0.164      1.382
REMARK  2 active torsions:
REMARK  status: ('A' for Active; 'I' for Inactive)
REMARK    1  A    between atoms: C1_1  and  C3_3 
REMARK    2  A    between atoms: C1_1  and  C9_9 
ROOT
HETATM    1  C1  UNL     1     -34.830  15.871  -4.787  1.00 20.00     0.139 C 
HETATM    2  O10 UNL     1     -34.437  16.901  -5.340  1.00 20.00    -0.297 OA
ENDROOT
BRANCH   1   3
HETATM    3  C3  UNL     1     -34.182  15.421  -3.500  1.00 20.00     0.060 A 
HETATM    4  C2  UNL     1     -33.290  16.380  -2.794  1.00 20.00     0.017 A 
HETATM    5  C4  UNL     1     -34.625  16.013  -2.209  1.00 20.00    -0.007 A 
HETATM    6  C5  UNL     1     -35.700  17.040  -2.099  1.00 20.00     0.011 C 
ENDBRANCH   1   3
BRANCH   1   7
HETATM    7  C9  UNL     1     -35.987  15.030  -5.360  1.00 20.00     0.010 C 
HETATM    8  C6  UNL     1     -35.671  14.681  -6.819  1.00 20.00     0.022 C 
HETATM    9  C7  UNL     1     -37.312  15.799  -5.275  1.00 20.00     0.022 C 
HETATM   10  C8  UNL     1     -36.123  13.729  -4.551  1.00 20.00     0.022 C 
ENDBRANCH   1   7
TORSDOF 2
ENDMDL
MODEL 3
REMARK VINA RESULT:      -3.8      1.725      2.422
REMARK  2 active torsions:
REMARK  status: ('A' for Active; 'I' for Inactive)
REMARK    1  A    between atoms: C1_1  and  C3_3 
REMARK    2  A    between atoms: C1_1  and  C9_9 
ROOT
HETATM    1  C1  UNL     1     -33.925  16.005  -2.868  1.00 20.00     0.139 C 
HETATM    2  O10 UNL     1     -32.894  16.633  -2.615  1.00 20.00    -0.297 OA
ENDROOT
BRANCH   1   3
HETATM    3  C3  UNL     1     -35.102  16.090  -1.926  1.00 20.00     0.060 A 
HETATM    4  C2  UNL     1     -35.037  17.075  -0.813  1.00 20.00     0.017 A 
HETATM    5  C4  UNL     1     -35.985  17.287  -1.959  1.00 20.00    -0.007 A 
HETATM    6  C5  UNL     1     -35.784  18.433  -2.892  1.00 20.00     0.011 C 
ENDBRANCH   1   3
BRANCH   1   7
HETATM    7  C9  UNL     1     -34.063  15.146  -4.140  1.00 20.00     0.010 C 
HETATM    8  C6  UNL     1     -35.212  14.150  -3.944  1.00 20.00     0.022 C 
HETATM    9  C7  UNL     1     -32.757  14.396  -4.434  1.00 20.00     0.022 C 
HETATM   10  C8  UNL     1     -34.386  16.055  -5.339  1.00 20.00     0.022 C 
ENDBRANCH   1   7
TORSDOF 2
ENDMDL
MODEL 4
REMARK VINA RESULT:      -3.7      1.393      1.995
REMARK  2 active torsions:
REMARK  status: ('A' for Active; 'I' for Inactive)
REMARK    1  A    between atoms: C1_1  and  C3_3 
REMARK    2  A    between atoms: C1_1  and  C9_9 
ROOT
HETATM    1  C1  UNL     1     -34.275  16.450  -4.355  1.00 20.00     0.139 C 
HETATM    2  O10 UNL     1     -35.106  17.242  -4.808  1.00 20.00    -0.297 OA
ENDROOT
BRANCH   1   3
HETATM    3  C3  UNL     1     -33.312  16.909  -3.287  1.00 20.00     0.060 A 
HETATM    4  C2  UNL     1     -33.551  18.232  -2.652  1.00 20.00     0.017 A 
HETATM    5  C4  UNL     1     -33.760  16.967  -1.870  1.00 20.00    -0.007 A 
HETATM    6  C5  UNL     1     -35.129  16.584  -1.422  1.00 20.00     0.011 C 
ENDBRANCH   1   3
BRANCH   1   7
HETATM    7  C9  UNL     1     -34.203  14.987  -4.832  1.00 20.00     0.010 C 
HETATM    8  C6  UNL     1     -34.317  14.957  -6.361  1.00 20.00     0.022 C 
HETATM    9  C7  UNL     1     -35.325  14.153  -4.201  1.00 20.00     0.022 C 
HETATM   10  C8  UNL     1     -32.851  14.381  -4.418  1.00 20.00     0.022 C 
ENDBRANCH   1   7
TORSDOF 2
ENDMDL
MODEL 5
REMARK VINA RESULT:      -3.6      1.123      3.785
REMARK  2 active torsions:
REMARK  status: ('A' for Active; 'I' for Inactive)
REMARK    1  A    between atoms: C1_1  and  C3_3 
REMARK    2  A    between atoms: C1_1  and  C9_9 
ROOT
HETATM    1  C1  UNL     1     -35.272  16.189  -4.770  1.00 20.00     0.139 C 
HETATM    2  O10 UNL     1     -35.183  17.417  -4.847  1.00 20.00    -0.297 OA
ENDROOT
BRANCH   1   3
HETATM    3  C3  UNL     1     -36.076  15.433  -5.800  1.00 20.00     0.060 A 
HETATM    4  C2  UNL     1     -36.438  16.137  -7.059  1.00 20.00     0.017 A 
HETATM    5  C4  UNL     1     -35.432  15.021  -7.076  1.00 20.00    -0.007 A 
HETATM    6  C5  UNL     1     -34.007  15.305  -7.410  1.00 20.00     0.011 C 
ENDBRANCH   1   3
BRANCH   1   7
HETATM    7  C9  UNL     1     -34.564  15.391  -3.659  1.00 20.00     0.010 C 
HETATM    8  C6  UNL     1     -35.069  15.881  -2.297  1.00 20.00     0.022 C 
HETATM    9  C7  UNL     1     -33.042  15.561  -3.752  1.00 20.00     0.022 C 
HETATM   10  C8  UNL     1     -34.899  13.897  -3.810  1.00 20.00     0.022 C 
ENDBRANCH   1   7
TORSDOF 2
ENDMDL
MODEL 6
REMARK VINA RESULT:      -3.6      1.282      3.762
REMARK  2 active torsions:
REMARK  status: ('A' for Active; 'I' for Inactive)
REMARK    1  A    between atoms: C1_1  and  C3_3 
REMARK    2  A    between atoms: C1_1  and  C9_9 
ROOT
HETATM    1  C1  UNL     1     -33.804  15.896  -4.072  1.00 20.00     0.139 C 
HETATM    2  O10 UNL     1     -32.879  15.085  -3.985  1.00 20.00    -0.297 OA
ENDROOT
BRANCH   1   3
HETATM    3  C3  UNL     1     -34.618  15.967  -5.343  1.00 20.00     0.060 A 
HETATM    4  C2  UNL     1     -34.411  14.906  -6.365  1.00 20.00     0.017 A 
HETATM    5  C4  UNL     1     -35.693  14.967  -5.583  1.00 20.00    -0.007 A 
HETATM    6  C5  UNL     1     -36.035  13.879  -4.624  1.00 20.00     0.011 C 
ENDBRANCH   1   3
BRANCH   1   7
HETATM    7  C9  UNL     1     -34.177  16.834  -2.908  1.00 20.00     0.010 C 
HETATM    8  C6  UNL     1     -32.889  17.344  -2.251  1.00 20.00     0.022 C 
HETATM    9  C7  UNL     1     -35.043  16.102  -1.875  1.00 20.00     0.022 C 
HETATM   10  C8  UNL     1     -34.972  18.034  -3.452  1.00 20.00     0.022 C 
ENDBRANCH   1   7
TORSDOF 2
ENDMDL
MODEL 7
REMARK VINA RESULT:      -3.5      1.411      3.897
REMARK  2 active torsions:
REMARK  status: ('A' for Active; 'I' for Inactive)
REMARK    1  A    between atoms: C1_1  and  C3_3 
REMARK    2  A    between atoms: C1_1  and  C9_9 
ROOT
HETATM    1  C1  UNL     1     -35.119  16.636  -3.527  1.00 20.00     0.139 C 
HETATM    2  O10 UNL     1     -35.273  17.182  -4.622  1.00 20.00    -0.297 OA
ENDROOT
BRANCH   1   3
HETATM    3  C3  UNL     1     -35.451  15.172  -3.370  1.00 20.00     0.060 A 
HETATM    4  C2  UNL     1     -35.767  14.391  -4.596  1.00 20.00     0.017 A 
HETATM    5  C4  UNL     1     -34.487  14.145  -3.849  1.00 20.00    -0.007 A 
HETATM    6  C5  UNL     1     -33.178  14.475  -4.481  1.00 20.00     0.011 C 
ENDBRANCH   1   3
BRANCH   1   7
HETATM    7  C9  UNL     1     -34.573  17.401  -2.307  1.00 20.00     0.010 C 
HETATM    8  C6  UNL     1     -35.176  16.798  -1.032  1.00 20.00     0.022 C 
HETATM    9  C7  UNL     1     -34.917  18.893  -2.400  1.00 20.00     0.022 C 
HETATM   10  C8  UNL     1     -33.042  17.255  -2.254  1.00 20.00     0.022 C 
ENDBRANCH   1   7
TORSDOF 2
ENDMDL
MODEL 8
REMARK VINA RESULT:      -3.5     18.130     18.779
REMARK  2 active torsions:
REMARK  status: ('A' for Active; 'I' for Inactive)
REMARK    1  A    between atoms: C1_1  and  C3_3 
REMARK    2  A    between atoms: C1_1  and  C9_9 
ROOT
HETATM    1  C1  UNL     1     -24.538  18.513  10.173  1.00 20.00     0.139 C 
HETATM    2  O10 UNL     1     -25.170  18.650   9.123  1.00 20.00    -0.297 OA
ENDROOT
BRANCH   1   3
HETATM    3  C3  UNL     1     -25.108  19.052  11.463  1.00 20.00     0.060 A 
HETATM    4  C2  UNL     1     -26.578  19.263  11.543  1.00 20.00     0.017 A 
HETATM    5  C4  UNL     1     -25.925  18.163  12.332  1.00 20.00    -0.007 A 
HETATM    6  C5  UNL     1     -26.219  16.738  12.009  1.00 20.00     0.011 C 
ENDBRANCH   1   3
BRANCH   1   7
HETATM    7  C9  UNL     1     -23.181  17.784  10.216  1.00 20.00     0.010 C 
HETATM    8  C6  UNL     1     -23.375  16.346   9.720  1.00 20.00     0.022 C 
HETATM    9  C7  UNL     1     -22.611  17.780  11.641  1.00 20.00     0.022 C 
HETATM   10  C8  UNL     1     -22.184  18.503   9.292  1.00 20.00     0.022 C 
ENDBRANCH   1   7
TORSDOF 2
ENDMDL
MODEL 9
REMARK VINA RESULT:      -3.5      2.129      4.548
REMARK  2 active torsions:
REMARK  status: ('A' for Active; 'I' for Inactive)
REMARK    1  A    between atoms: C1_1  and  C3_3 
REMARK    2  A    between atoms: C1_1  and  C9_9 
ROOT
HETATM    1  C1  UNL     1     -34.275  16.680  -1.937  1.00 20.00     0.139 C 
HETATM    2  O10 UNL     1     -35.310  16.158  -1.515  1.00 20.00    -0.297 OA
ENDROOT
BRANCH   1   3
HETATM    3  C3  UNL     1     -33.514  16.024  -3.064  1.00 20.00     0.060 A 
HETATM    4  C2  UNL     1     -34.132  14.848  -3.733  1.00 20.00     0.017 A 
HETATM    5  C4  UNL     1     -34.012  16.157  -4.460  1.00 20.00    -0.007 A 
HETATM    6  C5  UNL     1     -35.237  16.922  -4.829  1.00 20.00     0.011 C 
ENDBRANCH   1   3
BRANCH   1   7
HETATM    7  C9  UNL     1     -33.739  18.004  -1.361  1.00 20.00     0.010 C 
HETATM    8  C6  UNL     1     -34.075  18.067   0.134  1.00 20.00     0.022 C 
HETATM    9  C7  UNL     1     -34.353  19.204  -2.092  1.00 20.00     0.022 C 
HETATM   10  C8  UNL     1     -32.211  18.056  -1.533  1.00 20.00     0.022 C 
ENDBRANCH   1   7
TORSDOF 2
ENDMDL
