MODEL 1
REMARK VINA RESULT:      -5.4      0.000      0.000
REMARK  3 active torsions:
REMARK  status: ('A' for Active; 'I' for Inactive)
REMARK    1  A    between atoms: C3_3  and  C5_5 
REMARK    2  A    between atoms: C3_3  and  C9_9 
REMARK    3  A    between atoms: C8_8  and  C9_9 
ROOT
HETATM    1  C1  UNL     1     -33.293   9.156   0.325  1.00 20.00     0.012 C 
HETATM    2  C2  UNL     1     -32.778   8.307   1.000  1.00 20.00    -0.117 C 
HETATM    3  C8  UNL     1     -32.145   7.266   1.825  1.00 20.00     0.100 C 
ENDROOT
BRANCH   3   4
HETATM    4  C9  UNL     1     -33.060   6.797   2.951  1.00 20.00     0.090 C 
BRANCH   4   5
HETATM    5  C3  UNL     1     -33.416   5.319   2.880  1.00 20.00     0.132 C 
HETATM    6  O10 UNL     1     -32.951   4.559   2.032  1.00 20.00    -0.298 OA
BRANCH   5   7
HETATM    7  C5  UNL     1     -34.371   4.816   3.931  1.00 20.00     0.059 A 
HETATM    8  C4  UNL     1     -35.689   5.492   4.059  1.00 20.00     0.017 A 
HETATM    9  C6  UNL     1     -34.632   5.695   5.113  1.00 20.00    -0.007 A 
HETATM   10  C7  UNL     1     -34.786   5.075   6.458  1.00 20.00     0.011 C 
ENDBRANCH   5   7
ENDBRANCH   4   5
ENDBRANCH   3   4
TORSDOF 3
ENDMDL
MODEL 2
REMARK VINA RESULT:      -4.9      0.991      4.318
REMARK  3 active torsions:
REMARK  status: ('A' for Active; 'I' for Inactive)
REMARK    1  A    between atoms: C3_3  and  C5_5 
REMARK    2  A    between atoms: C3_3  and  C9_9 
REMARK    3  A    between atoms: C8_8  and  C9_9 
ROOT
HETATM    1  C1  UNL     1     -34.009   6.890   6.416  1.00 20.00     0.012 C 
HETATM    2  C2  UNL     1     -34.386   6.073   5.621  1.00 20.00    -0.117 C 
HETATM    3  C8  UNL     1     -34.848   5.070   4.649  1.00 20.00     0.100 C 
ENDROOT
BRANCH   3   4
HETATM    4  C9  UNL     1     -34.669   5.546   3.211  1.00 20.00     0.090 C 
BRANCH   4   5
HETATM    5  C3  UNL     1     -33.332   5.160   2.596  1.00 20.00     0.132 C 
HETATM    6  O10 UNL     1     -32.977   3.992   2.447  1.00 20.00    -0.298 OA
BRANCH   5   7
HETATM    7  C5  UNL     1     -32.454   6.300   2.149  1.00 20.00     0.059 A 
HETATM    8  C4  UNL     1     -32.162   7.381   3.127  1.00 20.00     0.017 A 
HETATM    9  C6  UNL     1     -33.091   7.642   1.971  1.00 20.00    -0.007 A 
HETATM   10  C7  UNL     1     -32.656   8.507   0.840  1.00 20.00     0.011 C 
ENDBRANCH   5   7
ENDBRANCH   4   5
ENDBRANCH   3   4
TORSDOF 3
ENDMDL
MODEL 3
REMARK VINA RESULT:      -4.9      1.406      4.085
REMARK  3 active torsions:
REMARK  status: ('A' for Active; 'I' for Inactive)
REMARK    1  A    between atoms: C3_3  and  C5_5 
REMARK    2  A    between atoms: C3_3  and  C9_9 
REMARK    3  A    between atoms: C8_8  and  C9_9 
ROOT
HETATM    1  C1  UNL     1     -33.239   7.630   5.912  1.00 20.00     0.012 C 
HETATM    2  C2  UNL     1     -33.970   6.682   6.012  1.00 20.00    -0.117 C 
HETATM    3  C8  UNL     1     -34.863   5.520   6.136  1.00 20.00     0.100 C 
ENDROOT
BRANCH   3   4
HETATM    4  C9  UNL     1     -35.441   5.099   4.788  1.00 20.00     0.090 C 
BRANCH   4   5
HETATM    5  C3  UNL     1     -34.425   4.454   3.857  1.00 20.00     0.132 C 
HETATM    6  O10 UNL     1     -33.963   3.330   4.046  1.00 20.00    -0.298 OA
BRANCH   5   7
HETATM    7  C5  UNL     1     -34.017   5.266   2.656  1.00 20.00     0.059 A 
HETATM    8  C4  UNL     1     -32.899   4.760   1.817  1.00 20.00     0.017 A 
HETATM    9  C6  UNL     1     -32.693   5.962   2.701  1.00 20.00    -0.007 A 
HETATM   10  C7  UNL     1     -32.567   7.320   2.103  1.00 20.00     0.011 C 
ENDBRANCH   5   7
ENDBRANCH   4   5
ENDBRANCH   3   4
TORSDOF 3
ENDMDL
MODEL 4
REMARK VINA RESULT:      -4.6     15.828     16.716
REMARK  3 active torsions:
REMARK  status: ('A' for Active; 'I' for Inactive)
REMARK    1  A    between atoms: C3_3  and  C5_5 
REMARK    2  A    between atoms: C3_3  and  C9_9 
REMARK    3  A    between atoms: C8_8  and  C9_9 
ROOT
HETATM    1  C1  UNL     1     -26.619  18.870   5.844  1.00 20.00     0.012 C 
HETATM    2  C2  UNL     1     -25.983  18.916   6.861  1.00 20.00    -0.117 C 
HETATM    3  C8  UNL     1     -25.205  18.974   8.108  1.00 20.00     0.100 C 
ENDROOT
BRANCH   3   4
HETATM    4  C9  UNL     1     -23.746  18.586   7.888  1.00 20.00     0.090 C 
BRANCH   4   5
HETATM    5  C3  UNL     1     -22.886  18.689   9.139  1.00 20.00     0.132 C 
HETATM    6  O10 UNL     1     -21.738  19.131   9.128  1.00 20.00    -0.298 OA
BRANCH   5   7
HETATM    7  C5  UNL     1     -23.529  18.235  10.424  1.00 20.00     0.059 A 
HETATM    8  C4  UNL     1     -22.646  17.706  11.497  1.00 20.00     0.017 A 
HETATM    9  C6  UNL     1     -23.533  16.768  10.721  1.00 20.00    -0.007 A 
HETATM   10  C7  UNL     1     -24.730  16.163  11.366  1.00 20.00     0.011 C 
ENDBRANCH   5   7
ENDBRANCH   4   5
ENDBRANCH   3   4
TORSDOF 3
ENDMDL
MODEL 5
REMARK VINA RESULT:      -4.5      1.242      4.970
REMARK  3 active torsions:
REMARK  status: ('A' for Active; 'I' for Inactive)
REMARK    1  A    between atoms: C3_3  and  C5_5 
REMARK    2  A    between atoms: C3_3  and  C9_9 
REMARK    3  A    between atoms: C8_8  and  C9_9 
ROOT
HETATM    1  C1  UNL     1     -34.747   5.372   6.087  1.00 20.00     0.012 C 
HETATM    2  C2  UNL     1     -34.715   5.404   4.887  1.00 20.00    -0.117 C 
HETATM    3  C8  UNL     1     -34.679   5.443   3.417  1.00 20.00     0.100 C 
ENDROOT
BRANCH   3   4
HETATM    4  C9  UNL     1     -33.253   5.377   2.880  1.00 20.00     0.090 C 
BRANCH   4   5
HETATM    5  C3  UNL     1     -32.631   6.739   2.613  1.00 20.00     0.132 C 
HETATM    6  O10 UNL     1     -32.070   7.402   3.485  1.00 20.00    -0.298 OA
BRANCH   5   7
HETATM    7  C5  UNL     1     -32.719   7.242   1.196  1.00 20.00     0.059 A 
HETATM    8  C4  UNL     1     -31.550   7.976   0.642  1.00 20.00     0.017 A 
HETATM    9  C6  UNL     1     -32.813   8.721   0.986  1.00 20.00    -0.007 A 
HETATM   10  C7  UNL     1     -33.692   9.245  -0.096  1.00 20.00     0.011 C 
ENDBRANCH   5   7
ENDBRANCH   4   5
ENDBRANCH   3   4
TORSDOF 3
ENDMDL
MODEL 6
REMARK VINA RESULT:      -4.4     10.867     12.110
REMARK  3 active torsions:
REMARK  status: ('A' for Active; 'I' for Inactive)
REMARK    1  A    between atoms: C3_3  and  C5_5 
REMARK    2  A    between atoms: C3_3  and  C9_9 
REMARK    3  A    between atoms: C8_8  and  C9_9 
ROOT
HETATM    1  C1  UNL     1     -33.655  15.088  -7.266  1.00 20.00     0.012 C 
HETATM    2  C2  UNL     1     -34.832  15.065  -7.029  1.00 20.00    -0.117 C 
HETATM    3  C8  UNL     1     -36.274  15.037  -6.741  1.00 20.00     0.100 C 
ENDROOT
BRANCH   3   4
HETATM    4  C9  UNL     1     -36.557  15.085  -5.243  1.00 20.00     0.090 C 
BRANCH   4   5
HETATM    5  C3  UNL     1     -35.788  14.049  -4.437  1.00 20.00     0.132 C 
HETATM    6  O10 UNL     1     -35.933  12.837  -4.593  1.00 20.00    -0.298 OA
BRANCH   5   7
HETATM    7  C5  UNL     1     -34.802  14.588  -3.433  1.00 20.00     0.059 A 
HETATM    8  C4  UNL     1     -35.272  15.633  -2.485  1.00 20.00     0.017 A 
HETATM    9  C6  UNL     1     -34.333  15.998  -3.605  1.00 20.00    -0.007 A 
HETATM   10  C7  UNL     1     -32.911  16.330  -3.313  1.00 20.00     0.011 C 
ENDBRANCH   5   7
ENDBRANCH   4   5
ENDBRANCH   3   4
TORSDOF 3
ENDMDL
MODEL 7
REMARK VINA RESULT:      -4.4     10.963     12.668
REMARK  3 active torsions:
REMARK  status: ('A' for Active; 'I' for Inactive)
REMARK    1  A    between atoms: C3_3  and  C5_5 
REMARK    2  A    between atoms: C3_3  and  C9_9 
REMARK    3  A    between atoms: C8_8  and  C9_9 
ROOT
HETATM    1  C1  UNL     1     -32.938  16.946  -2.659  1.00 20.00     0.012 C 
HETATM    2  C2  UNL     1     -33.921  16.257  -2.658  1.00 20.00    -0.117 C 
HETATM    3  C8  UNL     1     -35.126  15.413  -2.654  1.00 20.00     0.100 C 
ENDROOT
BRANCH   3   4
HETATM    4  C9  UNL     1     -35.057  14.315  -3.711  1.00 20.00     0.090 C 
BRANCH   4   5
HETATM    5  C3  UNL     1     -36.235  14.312  -4.673  1.00 20.00     0.132 C 
HETATM    6  O10 UNL     1     -37.208  13.570  -4.538  1.00 20.00    -0.298 OA
BRANCH   5   7
HETATM    7  C5  UNL     1     -36.165  15.295  -5.812  1.00 20.00     0.059 A 
HETATM    8  C4  UNL     1     -35.642  14.815  -7.118  1.00 20.00     0.017 A 
HETATM    9  C6  UNL     1     -34.810  15.738  -6.267  1.00 20.00    -0.007 A 
HETATM   10  C7  UNL     1     -34.610  17.156  -6.674  1.00 20.00     0.011 C 
ENDBRANCH   5   7
ENDBRANCH   4   5
ENDBRANCH   3   4
TORSDOF 3
ENDMDL
MODEL 8
REMARK VINA RESULT:      -4.4     11.161     11.883
REMARK  3 active torsions:
REMARK  status: ('A' for Active; 'I' for Inactive)
REMARK    1  A    between atoms: C3_3  and  C5_5 
REMARK    2  A    between atoms: C3_3  and  C9_9 
REMARK    3  A    between atoms: C8_8  and  C9_9 
ROOT
HETATM    1  C1  UNL     1     -33.260  16.758  -2.643  1.00 20.00     0.012 C 
HETATM    2  C2  UNL     1     -33.296  15.815  -3.387  1.00 20.00    -0.117 C 
HETATM    3  C8  UNL     1     -33.337  14.661  -4.297  1.00 20.00     0.100 C 
ENDROOT
BRANCH   3   4
HETATM    4  C9  UNL     1     -34.595  14.660  -5.161  1.00 20.00     0.090 C 
BRANCH   4   5
HETATM    5  C3  UNL     1     -35.773  13.933  -4.530  1.00 20.00     0.132 C 
HETATM    6  O10 UNL     1     -35.902  12.710  -4.566  1.00 20.00    -0.298 OA
BRANCH   5   7
HETATM    7  C5  UNL     1     -36.786  14.798  -3.827  1.00 20.00     0.059 A 
HETATM    8  C4  UNL     1     -37.979  15.243  -4.595  1.00 20.00     0.017 A 
HETATM    9  C6  UNL     1     -36.895  16.229  -4.250  1.00 20.00    -0.007 A 
HETATM   10  C7  UNL     1     -37.133  17.275  -3.217  1.00 20.00     0.011 C 
ENDBRANCH   5   7
ENDBRANCH   4   5
ENDBRANCH   3   4
TORSDOF 3
ENDMDL
MODEL 9
REMARK VINA RESULT:      -4.3     16.655     17.687
REMARK  3 active torsions:
REMARK  status: ('A' for Active; 'I' for Inactive)
REMARK    1  A    between atoms: C3_3  and  C5_5 
REMARK    2  A    between atoms: C3_3  and  C9_9 
REMARK    3  A    between atoms: C8_8  and  C9_9 
ROOT
HETATM    1  C1  UNL     1     -26.451  19.263  11.938  1.00 20.00     0.012 C 
HETATM    2  C2  UNL     1     -25.899  18.224  11.698  1.00 20.00    -0.117 C 
HETATM    3  C8  UNL     1     -25.227  16.950  11.402  1.00 20.00     0.100 C 
ENDROOT
BRANCH   3   4
HETATM    4  C9  UNL     1     -23.942  16.783  12.209  1.00 20.00     0.090 C 
BRANCH   4   5
HETATM    5  C3  UNL     1     -22.714  17.383  11.541  1.00 20.00     0.132 C 
HETATM    6  O10 UNL     1     -21.758  17.828  12.175  1.00 20.00    -0.298 OA
BRANCH   5   7
HETATM    7  C5  UNL     1     -22.713  17.386  10.035  1.00 20.00     0.059 A 
HETATM    8  C4  UNL     1     -21.632  18.133   9.338  1.00 20.00     0.017 A 
HETATM    9  C6  UNL     1     -23.039  18.671   9.341  1.00 20.00    -0.007 A 
HETATM   10  C7  UNL     1     -23.857  18.636   8.097  1.00 20.00     0.011 C 
ENDBRANCH   5   7
ENDBRANCH   4   5
ENDBRANCH   3   4
TORSDOF 3
ENDMDL
