MODEL 1
REMARK VINA RESULT:      -4.9      0.000      0.000
REMARK  3 active torsions:
REMARK  status: ('A' for Active; 'I' for Inactive)
REMARK    1  A    between atoms: C1_1  and  C3_3 
REMARK    2  A    between atoms: C1_1  and  C8_8 
REMARK    3  A    between atoms: C8_8  and  C9_9 
ROOT
HETATM    1  C1  UNL     1     -34.018   5.421   3.357  1.00 20.00     0.131 C 
HETATM    2  O10 UNL     1     -33.377   4.462   2.927  1.00 20.00    -0.298 OA
ENDROOT
BRANCH   1   3
HETATM    3  C3  UNL     1     -35.012   5.250   4.475  1.00 20.00     0.059 A 
HETATM    4  C2  UNL     1     -34.578   4.507   5.691  1.00 20.00     0.017 A 
HETATM    5  C4  UNL     1     -34.818   5.989   5.754  1.00 20.00    -0.007 A 
HETATM    6  C5  UNL     1     -33.679   6.919   6.001  1.00 20.00     0.011 C 
ENDBRANCH   1   3
BRANCH   1   7
HETATM    7  C8  UNL     1     -33.895   6.822   2.779  1.00 20.00     0.082 C 
BRANCH   7   8
HETATM    8  C9  UNL     1     -32.502   7.140   2.214  1.00 20.00    -0.016 C 
HETATM    9  C6  UNL     1     -31.543   7.595   3.315  1.00 20.00     0.010 C 
HETATM   10  C7  UNL     1     -32.608   8.228   1.142  1.00 20.00     0.010 C 
ENDBRANCH   7   8
ENDBRANCH   1   7
TORSDOF 3
ENDMDL
MODEL 2
REMARK VINA RESULT:      -4.5     11.488     12.647
REMARK  3 active torsions:
REMARK  status: ('A' for Active; 'I' for Inactive)
REMARK    1  A    between atoms: C1_1  and  C3_3 
REMARK    2  A    between atoms: C1_1  and  C8_8 
REMARK    3  A    between atoms: C8_8  and  C9_9 
ROOT
HETATM    1  C1  UNL     1     -35.439  14.225  -4.254  1.00 20.00     0.131 C 
HETATM    2  O10 UNL     1     -34.717  13.276  -3.951  1.00 20.00    -0.298 OA
ENDROOT
BRANCH   1   3
HETATM    3  C3  UNL     1     -36.145  14.269  -5.584  1.00 20.00     0.059 A 
HETATM    4  C2  UNL     1     -36.445  15.603  -6.173  1.00 20.00     0.017 A 
HETATM    5  C4  UNL     1     -35.405  14.718  -6.797  1.00 20.00    -0.007 A 
HETATM    6  C5  UNL     1     -33.971  15.126  -6.780  1.00 20.00     0.011 C 
ENDBRANCH   1   3
BRANCH   1   7
HETATM    7  C8  UNL     1     -35.641  15.431  -3.349  1.00 20.00     0.082 C 
BRANCH   7   8
HETATM    8  C9  UNL     1     -34.412  15.780  -2.496  1.00 20.00    -0.016 C 
HETATM    9  C6  UNL     1     -34.761  16.788  -1.399  1.00 20.00     0.010 C 
HETATM   10  C7  UNL     1     -33.302  16.347  -3.384  1.00 20.00     0.010 C 
ENDBRANCH   7   8
ENDBRANCH   1   7
TORSDOF 3
ENDMDL
MODEL 3
REMARK VINA RESULT:      -4.5      0.871      1.453
REMARK  3 active torsions:
REMARK  status: ('A' for Active; 'I' for Inactive)
REMARK    1  A    between atoms: C1_1  and  C3_3 
REMARK    2  A    between atoms: C1_1  and  C8_8 
REMARK    3  A    between atoms: C8_8  and  C9_9 
ROOT
HETATM    1  C1  UNL     1     -33.207   5.920   2.852  1.00 20.00     0.131 C 
HETATM    2  O10 UNL     1     -32.677   4.866   2.504  1.00 20.00    -0.298 OA
ENDROOT
BRANCH   1   3
HETATM    3  C3  UNL     1     -34.561   5.926   3.512  1.00 20.00     0.059 A 
HETATM    4  C2  UNL     1     -34.848   4.879   4.531  1.00 20.00     0.017 A 
HETATM    5  C4  UNL     1     -34.680   6.313   4.946  1.00 20.00    -0.007 A 
HETATM    6  C5  UNL     1     -33.518   6.715   5.788  1.00 20.00     0.011 C 
ENDBRANCH   1   3
BRANCH   1   7
HETATM    7  C8  UNL     1     -32.574   7.282   2.611  1.00 20.00     0.082 C 
BRANCH   7   8
HETATM    8  C9  UNL     1     -32.922   7.896   1.247  1.00 20.00    -0.016 C 
HETATM    9  C6  UNL     1     -31.823   7.626   0.216  1.00 20.00     0.010 C 
HETATM   10  C7  UNL     1     -33.134   9.405   1.390  1.00 20.00     0.010 C 
ENDBRANCH   7   8
ENDBRANCH   1   7
TORSDOF 3
ENDMDL
MODEL 4
REMARK VINA RESULT:      -4.3     11.606     12.774
REMARK  3 active torsions:
REMARK  status: ('A' for Active; 'I' for Inactive)
REMARK    1  A    between atoms: C1_1  and  C3_3 
REMARK    2  A    between atoms: C1_1  and  C8_8 
REMARK    3  A    between atoms: C8_8  and  C9_9 
ROOT
HETATM    1  C1  UNL     1     -33.772  14.640  -4.564  1.00 20.00     0.131 C 
HETATM    2  O10 UNL     1     -34.055  13.509  -4.170  1.00 20.00    -0.298 OA
ENDROOT
BRANCH   1   3
HETATM    3  C3  UNL     1     -33.053  15.614  -3.668  1.00 20.00     0.059 A 
HETATM    4  C2  UNL     1     -33.432  17.052  -3.750  1.00 20.00     0.017 A 
HETATM    5  C4  UNL     1     -33.781  16.246  -2.532  1.00 20.00    -0.007 A 
HETATM    6  C5  UNL     1     -35.208  15.961  -2.209  1.00 20.00     0.011 C 
ENDBRANCH   1   3
BRANCH   1   7
HETATM    7  C8  UNL     1     -34.154  15.155  -5.943  1.00 20.00     0.082 C 
BRANCH   7   8
HETATM    8  C9  UNL     1     -35.572  14.759  -6.382  1.00 20.00    -0.016 C 
HETATM    9  C6  UNL     1     -35.798  15.050  -7.867  1.00 20.00     0.010 C 
HETATM   10  C7  UNL     1     -36.609  15.512  -5.546  1.00 20.00     0.010 C 
ENDBRANCH   7   8
ENDBRANCH   1   7
TORSDOF 3
ENDMDL
MODEL 5
REMARK VINA RESULT:      -4.3     11.553     12.509
REMARK  3 active torsions:
REMARK  status: ('A' for Active; 'I' for Inactive)
REMARK    1  A    between atoms: C1_1  and  C3_3 
REMARK    2  A    between atoms: C1_1  and  C8_8 
REMARK    3  A    between atoms: C8_8  and  C9_9 
ROOT
HETATM    1  C1  UNL     1     -34.132  14.687  -4.394  1.00 20.00     0.131 C 
HETATM    2  O10 UNL     1     -34.199  13.465  -4.264  1.00 20.00    -0.298 OA
ENDROOT
BRANCH   1   3
HETATM    3  C3  UNL     1     -34.956  15.401  -5.433  1.00 20.00     0.059 A 
HETATM    4  C2  UNL     1     -35.662  14.579  -6.453  1.00 20.00     0.017 A 
HETATM    5  C4  UNL     1     -36.442  15.301  -5.392  1.00 20.00    -0.007 A 
HETATM    6  C5  UNL     1     -37.186  14.528  -4.357  1.00 20.00     0.011 C 
ENDBRANCH   1   3
BRANCH   1   7
HETATM    7  C8  UNL     1     -33.200  15.557  -3.564  1.00 20.00     0.082 C 
BRANCH   7   8
HETATM    8  C9  UNL     1     -33.911  16.699  -2.825  1.00 20.00    -0.016 C 
HETATM    9  C6  UNL     1     -32.917  17.569  -2.052  1.00 20.00     0.010 C 
HETATM   10  C7  UNL     1     -34.955  16.130  -1.861  1.00 20.00     0.010 C 
ENDBRANCH   7   8
ENDBRANCH   1   7
TORSDOF 3
ENDMDL
MODEL 6
REMARK VINA RESULT:      -4.3     15.500     16.577
REMARK  3 active torsions:
REMARK  status: ('A' for Active; 'I' for Inactive)
REMARK    1  A    between atoms: C1_1  and  C3_3 
REMARK    2  A    between atoms: C1_1  and  C8_8 
REMARK    3  A    between atoms: C8_8  and  C9_9 
ROOT
HETATM    1  C1  UNL     1     -22.648  17.641   9.421  1.00 20.00     0.131 C 
HETATM    2  O10 UNL     1     -22.262  16.875   8.538  1.00 20.00    -0.298 OA
ENDROOT
BRANCH   1   3
HETATM    3  C3  UNL     1     -22.372  17.352  10.873  1.00 20.00     0.059 A 
HETATM    4  C2  UNL     1     -23.129  18.124  11.896  1.00 20.00     0.017 A 
HETATM    5  C4  UNL     1     -23.405  16.661  11.696  1.00 20.00    -0.007 A 
HETATM    6  C5  UNL     1     -24.722  16.217  11.158  1.00 20.00     0.011 C 
ENDBRANCH   1   3
BRANCH   1   7
HETATM    7  C8  UNL     1     -23.458  18.895   9.130  1.00 20.00     0.082 C 
BRANCH   7   8
HETATM    8  C9  UNL     1     -24.727  18.637   8.304  1.00 20.00    -0.016 C 
HETATM    9  C6  UNL     1     -24.597  19.203   6.888  1.00 20.00     0.010 C 
HETATM   10  C7  UNL     1     -25.940  19.261   8.999  1.00 20.00     0.010 C 
ENDBRANCH   7   8
ENDBRANCH   1   7
TORSDOF 3
ENDMDL
MODEL 7
REMARK VINA RESULT:      -4.2     11.450     12.826
REMARK  3 active torsions:
REMARK  status: ('A' for Active; 'I' for Inactive)
REMARK    1  A    between atoms: C1_1  and  C3_3 
REMARK    2  A    between atoms: C1_1  and  C8_8 
REMARK    3  A    between atoms: C8_8  and  C9_9 
ROOT
HETATM    1  C1  UNL     1     -36.826  14.452  -4.574  1.00 20.00     0.131 C 
HETATM    2  O10 UNL     1     -37.864  13.808  -4.424  1.00 20.00    -0.298 OA
ENDROOT
BRANCH   1   3
HETATM    3  C3  UNL     1     -36.808  15.713  -5.398  1.00 20.00     0.059 A 
HETATM    4  C2  UNL     1     -38.114  16.292  -5.819  1.00 20.00     0.017 A 
HETATM    5  C4  UNL     1     -37.271  16.994  -4.794  1.00 20.00    -0.007 A 
HETATM    6  C5  UNL     1     -37.752  17.113  -3.388  1.00 20.00     0.011 C 
ENDBRANCH   1   3
BRANCH   1   7
HETATM    7  C8  UNL     1     -35.491  14.015  -3.991  1.00 20.00     0.082 C 
BRANCH   7   8
HETATM    8  C9  UNL     1     -34.420  15.116  -3.997  1.00 20.00    -0.016 C 
HETATM    9  C6  UNL     1     -33.049  14.560  -4.389  1.00 20.00     0.010 C 
HETATM   10  C7  UNL     1     -34.335  15.772  -2.617  1.00 20.00     0.010 C 
ENDBRANCH   7   8
ENDBRANCH   1   7
TORSDOF 3
ENDMDL
MODEL 8
REMARK VINA RESULT:      -4.1     11.429     12.852
REMARK  3 active torsions:
REMARK  status: ('A' for Active; 'I' for Inactive)
REMARK    1  A    between atoms: C1_1  and  C3_3 
REMARK    2  A    between atoms: C1_1  and  C8_8 
REMARK    3  A    between atoms: C8_8  and  C9_9 
ROOT
HETATM    1  C1  UNL     1     -36.066  13.889  -4.365  1.00 20.00     0.131 C 
HETATM    2  O10 UNL     1     -35.854  12.695  -4.579  1.00 20.00    -0.298 OA
ENDROOT
BRANCH   1   3
HETATM    3  C3  UNL     1     -34.938  14.830  -4.034  1.00 20.00     0.059 A 
HETATM    4  C2  UNL     1     -33.543  14.327  -4.177  1.00 20.00     0.017 A 
HETATM    5  C4  UNL     1     -34.076  15.360  -5.128  1.00 20.00    -0.007 A 
HETATM    6  C5  UNL     1     -34.271  15.020  -6.566  1.00 20.00     0.011 C 
ENDBRANCH   1   3
BRANCH   1   7
HETATM    7  C8  UNL     1     -37.462  14.494  -4.373  1.00 20.00     0.082 C 
BRANCH   7   8
HETATM    8  C9  UNL     1     -37.476  16.020  -4.546  1.00 20.00    -0.016 C 
HETATM    9  C6  UNL     1     -38.554  16.671  -3.677  1.00 20.00     0.010 C 
HETATM   10  C7  UNL     1     -37.712  16.378  -6.015  1.00 20.00     0.010 C 
ENDBRANCH   7   8
ENDBRANCH   1   7
TORSDOF 3
ENDMDL
MODEL 9
REMARK VINA RESULT:      -4.1     11.359     13.010
REMARK  3 active torsions:
REMARK  status: ('A' for Active; 'I' for Inactive)
REMARK    1  A    between atoms: C1_1  and  C3_3 
REMARK    2  A    between atoms: C1_1  and  C8_8 
REMARK    3  A    between atoms: C8_8  and  C9_9 
ROOT
HETATM    1  C1  UNL     1     -35.957  14.142  -4.981  1.00 20.00     0.131 C 
HETATM    2  O10 UNL     1     -37.100  13.744  -4.758  1.00 20.00    -0.298 OA
ENDROOT
BRANCH   1   3
HETATM    3  C3  UNL     1     -34.895  14.085  -3.915  1.00 20.00     0.059 A 
HETATM    4  C2  UNL     1     -33.735  15.012  -4.032  1.00 20.00     0.017 A 
HETATM    5  C4  UNL     1     -34.758  15.212  -2.950  1.00 20.00    -0.007 A 
HETATM    6  C5  UNL     1     -35.633  16.418  -2.965  1.00 20.00     0.011 C 
ENDBRANCH   1   3
BRANCH   1   7
HETATM    7  C8  UNL     1     -35.540  14.754  -6.310  1.00 20.00     0.082 C 
BRANCH   7   8
HETATM    8  C9  UNL     1     -36.177  16.123  -6.590  1.00 20.00    -0.016 C 
HETATM    9  C6  UNL     1     -36.939  16.123  -7.917  1.00 20.00     0.010 C 
HETATM   10  C7  UNL     1     -35.098  17.208  -6.616  1.00 20.00     0.010 C 
ENDBRANCH   7   8
ENDBRANCH   1   7
TORSDOF 3
ENDMDL
