MODEL 1
REMARK VINA RESULT:      -5.2      0.000      0.000
REMARK  4 active torsions:
REMARK  status: ('A' for Active; 'I' for Inactive)
REMARK    1  A    between atoms: C2_2  and  C8_8 
REMARK    2  A    between atoms: C5_5  and  C9_9 
REMARK    3  A    between atoms: C8_8  and  C9_9 
REMARK    4  A    between atoms: C9_9  and  O10_10 
ROOT
HETATM    1  C1  UNL     1     -32.795   7.797   1.507  1.00 20.00    -0.111 C 
HETATM    2  C2  UNL     1     -32.790   6.761   2.117  1.00 20.00    -0.104 C 
HETATM    3  C6  UNL     1     -32.801   9.056   0.766  1.00 20.00     0.112 C 
ENDROOT
BRANCH   2   4
HETATM    4  C8  UNL     1     -32.784   5.493   2.861  1.00 20.00     0.126 C 
BRANCH   4   5
HETATM    5  C9  UNL     1     -34.198   5.086   3.282  1.00 20.00     0.133 C 
BRANCH   5   6
HETATM    6  C5  UNL     1     -34.680   5.917   4.464  1.00 20.00     0.019 A 
HETATM    7  C3  UNL     1     -34.955   5.259   5.791  1.00 20.00     0.012 A 
HETATM    8  C4  UNL     1     -33.765   6.169   5.634  1.00 20.00    -0.012 A 
HETATM    9  C7  UNL     1     -33.751   7.503   6.298  1.00 20.00     0.010 C 
ENDBRANCH   5   6
BRANCH   5  10
HETATM   10  O10 UNL     1     -34.185   3.712   3.669  1.00 20.00    -0.394 OA
HETATM   11  H24 UNL     1     -33.463   3.296   3.176  1.00 20.00     0.210 HD
ENDBRANCH   5  10
ENDBRANCH   4   5
ENDBRANCH   2   4
TORSDOF 4
ENDMDL
MODEL 2
REMARK VINA RESULT:      -4.8      9.468     10.314
REMARK  4 active torsions:
REMARK  status: ('A' for Active; 'I' for Inactive)
REMARK    1  A    between atoms: C2_2  and  C8_8 
REMARK    2  A    between atoms: C5_5  and  C9_9 
REMARK    3  A    between atoms: C8_8  and  C9_9 
REMARK    4  A    between atoms: C9_9  and  O10_10 
ROOT
HETATM    1  C1  UNL     1     -42.212   3.046  -3.165  1.00 20.00    -0.111 C 
HETATM    2  C2  UNL     1     -42.496   3.885  -2.352  1.00 20.00    -0.104 C 
HETATM    3  C6  UNL     1     -41.867   2.026  -4.153  1.00 20.00     0.112 C 
ENDROOT
BRANCH   2   4
HETATM    4  C8  UNL     1     -42.842   4.913  -1.358  1.00 20.00     0.126 C 
BRANCH   4   5
HETATM    5  C9  UNL     1     -41.590   5.499  -0.704  1.00 20.00     0.133 C 
BRANCH   5   6
HETATM    6  C5  UNL     1     -41.462   6.988  -0.997  1.00 20.00     0.019 A 
HETATM    7  C3  UNL     1     -42.664   7.779  -1.445  1.00 20.00     0.012 A 
HETATM    8  C4  UNL     1     -42.088   7.998  -0.071  1.00 20.00    -0.012 A 
HETATM    9  C7  UNL     1     -41.372   9.266   0.246  1.00 20.00     0.010 C 
ENDBRANCH   5   6
BRANCH   5  10
HETATM   10  O10 UNL     1     -40.442   4.833  -1.229  1.00 20.00    -0.394 OA
HETATM   11  H24 UNL     1     -39.803   4.775  -0.502  1.00 20.00     0.210 HD
ENDBRANCH   5  10
ENDBRANCH   4   5
ENDBRANCH   2   4
TORSDOF 4
ENDMDL
MODEL 3
REMARK VINA RESULT:      -4.6     12.149     12.926
REMARK  4 active torsions:
REMARK  status: ('A' for Active; 'I' for Inactive)
REMARK    1  A    between atoms: C2_2  and  C8_8 
REMARK    2  A    between atoms: C5_5  and  C9_9 
REMARK    3  A    between atoms: C8_8  and  C9_9 
REMARK    4  A    between atoms: C9_9  and  O10_10 
ROOT
HETATM    1  C1  UNL     1     -33.667  15.868  -3.147  1.00 20.00    -0.111 C 
HETATM    2  C2  UNL     1     -33.553  16.738  -2.325  1.00 20.00    -0.104 C 
HETATM    3  C6  UNL     1     -33.807  14.811  -4.147  1.00 20.00     0.112 C 
ENDROOT
BRANCH   2   4
HETATM    4  C8  UNL     1     -33.410  17.801  -1.319  1.00 20.00     0.126 C 
BRANCH   4   5
HETATM    5  C9  UNL     1     -31.970  18.313  -1.249  1.00 20.00     0.133 C 
BRANCH   5   6
HETATM    6  C5  UNL     1     -31.694  18.996   0.084  1.00 20.00     0.019 A 
HETATM    7  C3  UNL     1     -32.191  18.383   1.367  1.00 20.00     0.012 A 
HETATM    8  C4  UNL     1     -30.717  18.388   1.057  1.00 20.00    -0.012 A 
HETATM    9  C7  UNL     1     -29.793  19.262   1.832  1.00 20.00     0.010 C 
ENDBRANCH   5   6
BRANCH   5  10
HETATM   10  O10 UNL     1     -31.769  19.263  -2.295  1.00 20.00    -0.394 OA
HETATM   11  H24 UNL     1     -32.497  19.899  -2.232  1.00 20.00     0.210 HD
ENDBRANCH   5  10
ENDBRANCH   4   5
ENDBRANCH   2   4
TORSDOF 4
ENDMDL
MODEL 4
REMARK VINA RESULT:      -4.6      1.061      1.720
REMARK  4 active torsions:
REMARK  status: ('A' for Active; 'I' for Inactive)
REMARK    1  A    between atoms: C2_2  and  C8_8 
REMARK    2  A    between atoms: C5_5  and  C9_9 
REMARK    3  A    between atoms: C8_8  and  C9_9 
REMARK    4  A    between atoms: C9_9  and  O10_10 
ROOT
HETATM    1  C1  UNL     1     -32.958   8.484   0.555  1.00 20.00    -0.111 C 
HETATM    2  C2  UNL     1     -32.645   7.847   1.525  1.00 20.00    -0.104 C 
HETATM    3  C6  UNL     1     -33.337   9.259  -0.625  1.00 20.00     0.112 C 
ENDROOT
BRANCH   2   4
HETATM    4  C8  UNL     1     -32.263   7.066   2.712  1.00 20.00     0.126 C 
BRANCH   4   5
HETATM    5  C9  UNL     1     -33.328   6.024   3.059  1.00 20.00     0.133 C 
BRANCH   5   6
HETATM    6  C5  UNL     1     -33.423   5.816   4.565  1.00 20.00     0.019 A 
HETATM    7  C3  UNL     1     -33.791   6.966   5.467  1.00 20.00     0.012 A 
HETATM    8  C4  UNL     1     -34.766   5.839   5.249  1.00 20.00    -0.012 A 
HETATM    9  C7  UNL     1     -35.060   4.879   6.350  1.00 20.00     0.010 C 
ENDBRANCH   5   6
BRANCH   5  10
HETATM   10  O10 UNL     1     -32.973   4.782   2.452  1.00 20.00    -0.394 OA
HETATM   11  H24 UNL     1     -33.503   4.101   2.891  1.00 20.00     0.210 HD
ENDBRANCH   5  10
ENDBRANCH   4   5
ENDBRANCH   2   4
TORSDOF 4
ENDMDL
MODEL 5
REMARK VINA RESULT:      -4.6     11.296     13.017
REMARK  4 active torsions:
REMARK  status: ('A' for Active; 'I' for Inactive)
REMARK    1  A    between atoms: C2_2  and  C8_8 
REMARK    2  A    between atoms: C5_5  and  C9_9 
REMARK    3  A    between atoms: C8_8  and  C9_9 
REMARK    4  A    between atoms: C9_9  and  O10_10 
ROOT
HETATM    1  C1  UNL     1     -34.896  16.364  -1.845  1.00 20.00    -0.111 C 
HETATM    2  C2  UNL     1     -34.809  15.511  -2.686  1.00 20.00    -0.104 C 
HETATM    3  C6  UNL     1     -35.000  17.402  -0.821  1.00 20.00     0.112 C 
ENDROOT
BRANCH   2   4
HETATM    4  C8  UNL     1     -34.704  14.467  -3.718  1.00 20.00     0.126 C 
BRANCH   4   5
HETATM    5  C9  UNL     1     -33.499  14.705  -4.630  1.00 20.00     0.133 C 
BRANCH   5   6
HETATM    6  C5  UNL     1     -33.933  14.879  -6.080  1.00 20.00     0.019 A 
HETATM    7  C3  UNL     1     -35.390  15.057  -6.419  1.00 20.00     0.012 A 
HETATM    8  C4  UNL     1     -34.436  16.214  -6.564  1.00 20.00    -0.012 A 
HETATM    9  C7  UNL     1     -34.060  16.708  -7.918  1.00 20.00     0.010 C 
ENDBRANCH   5   6
BRANCH   5  10
HETATM   10  O10 UNL     1     -32.631  13.574  -4.549  1.00 20.00    -0.394 OA
HETATM   11  H24 UNL     1     -32.317  13.405  -5.450  1.00 20.00     0.210 HD
ENDBRANCH   5  10
ENDBRANCH   4   5
ENDBRANCH   2   4
TORSDOF 4
ENDMDL
MODEL 6
REMARK VINA RESULT:      -4.5     16.551     17.380
REMARK  4 active torsions:
REMARK  status: ('A' for Active; 'I' for Inactive)
REMARK    1  A    between atoms: C2_2  and  C8_8 
REMARK    2  A    between atoms: C5_5  and  C9_9 
REMARK    3  A    between atoms: C8_8  and  C9_9 
REMARK    4  A    between atoms: C9_9  and  O10_10 
ROOT
HETATM    1  C1  UNL     1     -26.434  18.388  11.847  1.00 20.00    -0.111 C 
HETATM    2  C2  UNL     1     -25.369  17.875  12.066  1.00 20.00    -0.104 C 
HETATM    3  C6  UNL     1     -27.729  19.011  11.582  1.00 20.00     0.112 C 
ENDROOT
BRANCH   2   4
HETATM    4  C8  UNL     1     -24.065  17.249  12.332  1.00 20.00     0.126 C 
BRANCH   4   5
HETATM    5  C9  UNL     1     -22.949  17.921  11.530  1.00 20.00     0.133 C 
BRANCH   5   6
HETATM    6  C5  UNL     1     -23.109  17.657  10.038  1.00 20.00     0.019 A 
HETATM    7  C3  UNL     1     -23.496  18.777   9.108  1.00 20.00     0.012 A 
HETATM    8  C4  UNL     1     -22.103  18.207   9.060  1.00 20.00    -0.012 A 
HETATM    9  C7  UNL     1     -21.669  17.388   7.895  1.00 20.00     0.010 C 
ENDBRANCH   5   6
BRANCH   5  10
HETATM   10  O10 UNL     1     -21.694  17.388  11.952  1.00 20.00    -0.394 OA
HETATM   11  H24 UNL     1     -21.600  17.618  12.888  1.00 20.00     0.210 HD
ENDBRANCH   5  10
ENDBRANCH   4   5
ENDBRANCH   2   4
TORSDOF 4
ENDMDL
MODEL 7
REMARK VINA RESULT:      -4.5     11.269     12.435
REMARK  4 active torsions:
REMARK  status: ('A' for Active; 'I' for Inactive)
REMARK    1  A    between atoms: C2_2  and  C8_8 
REMARK    2  A    between atoms: C5_5  and  C9_9 
REMARK    3  A    between atoms: C8_8  and  C9_9 
REMARK    4  A    between atoms: C9_9  and  O10_10 
ROOT
HETATM    1  C1  UNL     1     -31.647  18.252  -0.670  1.00 20.00    -0.111 C 
HETATM    2  C2  UNL     1     -32.321  17.915  -1.606  1.00 20.00    -0.104 C 
HETATM    3  C6  UNL     1     -30.826  18.663   0.468  1.00 20.00     0.112 C 
ENDROOT
BRANCH   2   4
HETATM    4  C8  UNL     1     -33.148  17.501  -2.750  1.00 20.00     0.126 C 
BRANCH   4   5
HETATM    5  C9  UNL     1     -33.888  16.194  -2.459  1.00 20.00     0.133 C 
BRANCH   5   6
HETATM    6  C5  UNL     1     -34.483  15.604  -3.731  1.00 20.00     0.019 A 
HETATM    7  C3  UNL     1     -33.647  14.718  -4.618  1.00 20.00     0.012 A 
HETATM    8  C4  UNL     1     -34.776  14.128  -3.814  1.00 20.00    -0.012 A 
HETATM    9  C7  UNL     1     -36.011  13.649  -4.498  1.00 20.00     0.010 C 
ENDBRANCH   5   6
BRANCH   5  10
HETATM   10  O10 UNL     1     -34.951  16.461  -1.544  1.00 20.00    -0.394 OA
HETATM   11  H24 UNL     1     -35.770  16.435  -2.061  1.00 20.00     0.210 HD
ENDBRANCH   5  10
ENDBRANCH   4   5
ENDBRANCH   2   4
TORSDOF 4
ENDMDL
MODEL 8
REMARK VINA RESULT:      -4.5     11.058     12.261
REMARK  4 active torsions:
REMARK  status: ('A' for Active; 'I' for Inactive)
REMARK    1  A    between atoms: C2_2  and  C8_8 
REMARK    2  A    between atoms: C5_5  and  C9_9 
REMARK    3  A    between atoms: C8_8  and  C9_9 
REMARK    4  A    between atoms: C9_9  and  O10_10 
ROOT
HETATM    1  C1  UNL     1     -36.994  14.391  -4.321  1.00 20.00    -0.111 C 
HETATM    2  C2  UNL     1     -35.876  13.971  -4.184  1.00 20.00    -0.104 C 
HETATM    3  C6  UNL     1     -38.353  14.902  -4.489  1.00 20.00     0.112 C 
ENDROOT
BRANCH   2   4
HETATM    4  C8  UNL     1     -34.509  13.455  -4.016  1.00 20.00     0.126 C 
BRANCH   4   5
HETATM    5  C9  UNL     1     -33.466  14.529  -4.333  1.00 20.00     0.133 C 
BRANCH   5   6
HETATM    6  C5  UNL     1     -33.908  15.893  -3.821  1.00 20.00     0.019 A 
HETATM    7  C3  UNL     1     -34.183  16.100  -2.354  1.00 20.00     0.012 A 
HETATM    8  C4  UNL     1     -32.971  16.729  -2.989  1.00 20.00    -0.012 A 
HETATM    9  C7  UNL     1     -32.910  18.205  -3.186  1.00 20.00     0.010 C 
ENDBRANCH   5   6
BRANCH   5  10
HETATM   10  O10 UNL     1     -33.302  14.607  -5.749  1.00 20.00    -0.394 OA
HETATM   11  H24 UNL     1     -33.457  13.715  -6.092  1.00 20.00     0.210 HD
ENDBRANCH   5  10
ENDBRANCH   4   5
ENDBRANCH   2   4
TORSDOF 4
ENDMDL
MODEL 9
REMARK VINA RESULT:      -4.4     11.948     12.793
REMARK  4 active torsions:
REMARK  status: ('A' for Active; 'I' for Inactive)
REMARK    1  A    between atoms: C2_2  and  C8_8 
REMARK    2  A    between atoms: C5_5  and  C9_9 
REMARK    3  A    between atoms: C8_8  and  C9_9 
REMARK    4  A    between atoms: C9_9  and  O10_10 
ROOT
HETATM    1  C1  UNL     1     -33.094  16.660  -2.636  1.00 20.00    -0.111 C 
HETATM    2  C2  UNL     1     -33.250  15.754  -3.410  1.00 20.00    -0.104 C 
HETATM    3  C6  UNL     1     -32.905  17.762  -1.695  1.00 20.00     0.112 C 
ENDROOT
BRANCH   2   4
HETATM    4  C8  UNL     1     -33.439  14.646  -4.359  1.00 20.00     0.126 C 
BRANCH   4   5
HETATM    5  C9  UNL     1     -34.037  15.138  -5.678  1.00 20.00     0.133 C 
BRANCH   5   6
HETATM    6  C5  UNL     1     -35.510  14.768  -5.786  1.00 20.00     0.019 A 
HETATM    7  C3  UNL     1     -36.192  14.033  -4.662  1.00 20.00     0.012 A 
HETATM    8  C4  UNL     1     -36.532  15.474  -4.934  1.00 20.00    -0.012 A 
HETATM    9  C7  UNL     1     -37.861  15.835  -5.505  1.00 20.00     0.010 C 
ENDBRANCH   5   6
BRANCH   5  10
HETATM   10  O10 UNL     1     -33.335  14.523  -6.759  1.00 20.00    -0.394 OA
HETATM   11  H24 UNL     1     -32.539  15.056  -6.906  1.00 20.00     0.210 HD
ENDBRANCH   5  10
ENDBRANCH   4   5
ENDBRANCH   2   4
TORSDOF 4
ENDMDL
