MODEL 1
REMARK VINA RESULT:      -6.0      0.000      0.000
REMARK  3 active torsions:
REMARK  status: ('A' for Active; 'I' for Inactive)
REMARK    1  A    between atoms: C3_3  and  C5_5 
REMARK    2  A    between atoms: C3_3  and  C9_9 
REMARK    3  A    between atoms: C8_8  and  C9_9 
ROOT
HETATM    1  C1  UNL     1     -33.244   9.218   0.313  1.00 20.00     0.012 C 
HETATM    2  C2  UNL     1     -32.753   8.342   0.971  1.00 20.00    -0.117 C 
HETATM    3  C8  UNL     1     -32.149   7.268   1.773  1.00 20.00     0.100 C 
ENDROOT
BRANCH   3   4
HETATM    4  C9  UNL     1     -32.945   6.990   3.046  1.00 20.00     0.090 C 
BRANCH   4   5
HETATM    5  C3  UNL     1     -33.543   5.592   3.103  1.00 20.00     0.132 C 
HETATM    6  O10 UNL     1     -33.052   4.629   2.517  1.00 20.00    -0.298 OA
BRANCH   5   7
HETATM    7  C5  UNL     1     -34.781   5.436   3.949  1.00 20.00     0.059 A 
HETATM    8  C4  UNL     1     -34.706   4.545   5.139  1.00 20.00     0.017 A 
HETATM    9  C6  UNL     1     -34.821   6.033   5.313  1.00 20.00    -0.007 A 
HETATM   10  C7  UNL     1     -33.690   6.802   5.907  1.00 20.00     0.011 C 
ENDBRANCH   5   7
ENDBRANCH   4   5
ENDBRANCH   3   4
TORSDOF 3
ENDMDL
MODEL 2
REMARK VINA RESULT:      -5.8      1.517      1.671
REMARK  3 active torsions:
REMARK  status: ('A' for Active; 'I' for Inactive)
REMARK    1  A    between atoms: C3_3  and  C5_5 
REMARK    2  A    between atoms: C3_3  and  C9_9 
REMARK    3  A    between atoms: C8_8  and  C9_9 
ROOT
HETATM    1  C1  UNL     1     -32.930   9.408   0.559  1.00 20.00     0.012 C 
HETATM    2  C2  UNL     1     -32.768   8.350   1.103  1.00 20.00    -0.117 C 
HETATM    3  C8  UNL     1     -32.573   7.051   1.766  1.00 20.00     0.100 C 
ENDROOT
BRANCH   3   4
HETATM    4  C9  UNL     1     -32.148   7.215   3.224  1.00 20.00     0.090 C 
BRANCH   4   5
HETATM    5  C3  UNL     1     -33.232   6.841   4.224  1.00 20.00     0.132 C 
HETATM    6  O10 UNL     1     -33.242   7.247   5.384  1.00 20.00    -0.298 OA
BRANCH   5   7
HETATM    7  C5  UNL     1     -34.330   5.948   3.706  1.00 20.00     0.059 A 
HETATM    8  C4  UNL     1     -34.095   4.478   3.706  1.00 20.00     0.017 A 
HETATM    9  C6  UNL     1     -35.089   5.087   4.654  1.00 20.00    -0.007 A 
HETATM   10  C7  UNL     1     -34.833   5.057   6.122  1.00 20.00     0.011 C 
ENDBRANCH   5   7
ENDBRANCH   4   5
ENDBRANCH   3   4
TORSDOF 3
ENDMDL
MODEL 3
REMARK VINA RESULT:      -5.2      1.770      2.384
REMARK  3 active torsions:
REMARK  status: ('A' for Active; 'I' for Inactive)
REMARK    1  A    between atoms: C3_3  and  C5_5 
REMARK    2  A    between atoms: C3_3  and  C9_9 
REMARK    3  A    between atoms: C8_8  and  C9_9 
ROOT
HETATM    1  C1  UNL     1     -32.213   7.238   2.684  1.00 20.00     0.012 C 
HETATM    2  C2  UNL     1     -32.787   6.198   2.508  1.00 20.00    -0.117 C 
HETATM    3  C8  UNL     1     -33.491   4.926   2.289  1.00 20.00     0.100 C 
ENDROOT
BRANCH   3   4
HETATM    4  C9  UNL     1     -33.977   4.310   3.599  1.00 20.00     0.090 C 
BRANCH   4   5
HETATM    5  C3  UNL     1     -35.095   5.096   4.268  1.00 20.00     0.132 C 
HETATM    6  O10 UNL     1     -36.005   5.633   3.640  1.00 20.00    -0.298 OA
BRANCH   5   7
HETATM    7  C5  UNL     1     -35.045   5.166   5.773  1.00 20.00     0.059 A 
HETATM    8  C4  UNL     1     -33.743   4.896   6.442  1.00 20.00     0.017 A 
HETATM    9  C6  UNL     1     -34.317   6.284   6.435  1.00 20.00    -0.007 A 
HETATM   10  C7  UNL     1     -33.626   7.372   5.685  1.00 20.00     0.011 C 
ENDBRANCH   5   7
ENDBRANCH   4   5
ENDBRANCH   3   4
TORSDOF 3
ENDMDL
MODEL 4
REMARK VINA RESULT:      -5.1     10.766     12.092
REMARK  3 active torsions:
REMARK  status: ('A' for Active; 'I' for Inactive)
REMARK    1  A    between atoms: C3_3  and  C5_5 
REMARK    2  A    between atoms: C3_3  and  C9_9 
REMARK    3  A    between atoms: C8_8  and  C9_9 
ROOT
HETATM    1  C1  UNL     1     -33.016  17.858  -1.571  1.00 20.00     0.012 C 
HETATM    2  C2  UNL     1     -33.189  16.964  -2.354  1.00 20.00    -0.117 C 
HETATM    3  C8  UNL     1     -33.398  15.871  -3.316  1.00 20.00     0.100 C 
ENDROOT
BRANCH   3   4
HETATM    4  C9  UNL     1     -34.778  15.235  -3.165  1.00 20.00     0.090 C 
BRANCH   4   5
HETATM    5  C3  UNL     1     -35.005  14.038  -4.076  1.00 20.00     0.132 C 
HETATM    6  O10 UNL     1     -34.418  12.968  -3.935  1.00 20.00    -0.298 OA
BRANCH   5   7
HETATM    7  C5  UNL     1     -36.024  14.226  -5.172  1.00 20.00     0.059 A 
HETATM    8  C4  UNL     1     -36.368  15.616  -5.577  1.00 20.00     0.017 A 
HETATM    9  C6  UNL     1     -35.590  14.727  -6.504  1.00 20.00    -0.007 A 
HETATM   10  C7  UNL     1     -34.174  15.055  -6.838  1.00 20.00     0.011 C 
ENDBRANCH   5   7
ENDBRANCH   4   5
ENDBRANCH   3   4
TORSDOF 3
ENDMDL
MODEL 5
REMARK VINA RESULT:      -4.9     16.044     16.581
REMARK  3 active torsions:
REMARK  status: ('A' for Active; 'I' for Inactive)
REMARK    1  A    between atoms: C3_3  and  C5_5 
REMARK    2  A    between atoms: C3_3  and  C9_9 
REMARK    3  A    between atoms: C8_8  and  C9_9 
ROOT
HETATM    1  C1  UNL     1     -25.019  19.260   7.495  1.00 20.00     0.012 C 
HETATM    2  C2  UNL     1     -24.054  18.638   7.849  1.00 20.00    -0.117 C 
HETATM    3  C8  UNL     1     -22.874  17.874   8.280  1.00 20.00     0.100 C 
ENDROOT
BRANCH   3   4
HETATM    4  C9  UNL     1     -22.275  18.429   9.570  1.00 20.00     0.090 C 
BRANCH   4   5
HETATM    5  C3  UNL     1     -22.623  17.616  10.808  1.00 20.00     0.132 C 
HETATM    6  O10 UNL     1     -22.007  17.713  11.868  1.00 20.00    -0.298 OA
BRANCH   5   7
HETATM    7  C5  UNL     1     -23.799  16.682  10.676  1.00 20.00     0.059 A 
HETATM    8  C4  UNL     1     -24.314  16.028  11.910  1.00 20.00     0.017 A 
HETATM    9  C6  UNL     1     -25.125  17.086  11.219  1.00 20.00    -0.007 A 
HETATM   10  C7  UNL     1     -25.374  18.392  11.893  1.00 20.00     0.011 C 
ENDBRANCH   5   7
ENDBRANCH   4   5
ENDBRANCH   3   4
TORSDOF 3
ENDMDL
MODEL 6
REMARK VINA RESULT:      -4.9     11.333     12.216
REMARK  3 active torsions:
REMARK  status: ('A' for Active; 'I' for Inactive)
REMARK    1  A    between atoms: C3_3  and  C5_5 
REMARK    2  A    between atoms: C3_3  and  C9_9 
REMARK    3  A    between atoms: C8_8  and  C9_9 
ROOT
HETATM    1  C1  UNL     1     -34.958  16.548  -1.521  1.00 20.00     0.012 C 
HETATM    2  C2  UNL     1     -34.220  16.193  -2.400  1.00 20.00    -0.117 C 
HETATM    3  C8  UNL     1     -33.314  15.762  -3.475  1.00 20.00     0.100 C 
ENDROOT
BRANCH   3   4
HETATM    4  C9  UNL     1     -33.815  14.499  -4.170  1.00 20.00     0.090 C 
BRANCH   4   5
HETATM    5  C3  UNL     1     -34.503  14.762  -5.502  1.00 20.00     0.132 C 
HETATM    6  O10 UNL     1     -33.920  15.238  -6.474  1.00 20.00    -0.298 OA
BRANCH   5   7
HETATM    7  C5  UNL     1     -35.960  14.383  -5.580  1.00 20.00     0.059 A 
HETATM    8  C4  UNL     1     -36.732  14.311  -4.310  1.00 20.00     0.017 A 
HETATM    9  C6  UNL     1     -37.004  15.406  -5.301  1.00 20.00    -0.007 A 
HETATM   10  C7  UNL     1     -36.694  16.822  -4.950  1.00 20.00     0.011 C 
ENDBRANCH   5   7
ENDBRANCH   4   5
ENDBRANCH   3   4
TORSDOF 3
ENDMDL
MODEL 7
REMARK VINA RESULT:      -4.8     11.143     12.221
REMARK  3 active torsions:
REMARK  status: ('A' for Active; 'I' for Inactive)
REMARK    1  A    between atoms: C3_3  and  C5_5 
REMARK    2  A    between atoms: C3_3  and  C9_9 
REMARK    3  A    between atoms: C8_8  and  C9_9 
ROOT
HETATM    1  C1  UNL     1     -36.994  16.993  -5.316  1.00 20.00     0.012 C 
HETATM    2  C2  UNL     1     -36.363  16.091  -5.796  1.00 20.00    -0.117 C 
HETATM    3  C8  UNL     1     -35.594  14.984  -6.386  1.00 20.00     0.100 C 
ENDROOT
BRANCH   3   4
HETATM    4  C9  UNL     1     -34.126  15.026  -5.970  1.00 20.00     0.090 C 
BRANCH   4   5
HETATM    5  C3  UNL     1     -33.883  14.595  -4.531  1.00 20.00     0.132 C 
HETATM    6  O10 UNL     1     -34.279  13.524  -4.077  1.00 20.00    -0.298 OA
BRANCH   5   7
HETATM    7  C5  UNL     1     -33.097  15.557  -3.677  1.00 20.00     0.059 A 
HETATM    8  C4  UNL     1     -33.415  17.007  -3.783  1.00 20.00     0.017 A 
HETATM    9  C6  UNL     1     -33.764  16.245  -2.537  1.00 20.00    -0.007 A 
HETATM   10  C7  UNL     1     -35.193  16.031  -2.171  1.00 20.00     0.011 C 
ENDBRANCH   5   7
ENDBRANCH   4   5
ENDBRANCH   3   4
TORSDOF 3
ENDMDL
MODEL 8
REMARK VINA RESULT:      -4.8     10.834     11.881
REMARK  3 active torsions:
REMARK  status: ('A' for Active; 'I' for Inactive)
REMARK    1  A    between atoms: C3_3  and  C5_5 
REMARK    2  A    between atoms: C3_3  and  C9_9 
REMARK    3  A    between atoms: C8_8  and  C9_9 
ROOT
HETATM    1  C1  UNL     1     -38.169  17.010  -3.931  1.00 20.00     0.012 C 
HETATM    2  C2  UNL     1     -37.781  15.892  -4.138  1.00 20.00    -0.117 C 
HETATM    3  C8  UNL     1     -37.310  14.522  -4.389  1.00 20.00     0.100 C 
ENDROOT
BRANCH   3   4
HETATM    4  C9  UNL     1     -35.994  14.505  -5.163  1.00 20.00     0.090 C 
BRANCH   4   5
HETATM    5  C3  UNL     1     -34.803  14.042  -4.338  1.00 20.00     0.132 C 
HETATM    6  O10 UNL     1     -34.704  12.904  -3.884  1.00 20.00    -0.298 OA
BRANCH   5   7
HETATM    7  C5  UNL     1     -33.714  15.062  -4.118  1.00 20.00     0.059 A 
HETATM    8  C4  UNL     1     -34.039  16.494  -4.362  1.00 20.00     0.017 A 
HETATM    9  C6  UNL     1     -33.805  15.998  -2.964  1.00 20.00    -0.007 A 
HETATM   10  C7  UNL     1     -34.925  15.985  -1.981  1.00 20.00     0.011 C 
ENDBRANCH   5   7
ENDBRANCH   4   5
ENDBRANCH   3   4
TORSDOF 3
ENDMDL
MODEL 9
REMARK VINA RESULT:      -4.7     10.798     12.399
REMARK  3 active torsions:
REMARK  status: ('A' for Active; 'I' for Inactive)
REMARK    1  A    between atoms: C3_3  and  C5_5 
REMARK    2  A    between atoms: C3_3  and  C9_9 
REMARK    3  A    between atoms: C8_8  and  C9_9 
ROOT
HETATM    1  C1  UNL     1     -34.830  17.868  -7.006  1.00 20.00     0.012 C 
HETATM    2  C2  UNL     1     -35.592  16.960  -6.815  1.00 20.00    -0.117 C 
HETATM    3  C8  UNL     1     -36.530  15.851  -6.582  1.00 20.00     0.100 C 
ENDROOT
BRANCH   3   4
HETATM    4  C9  UNL     1     -35.802  14.551  -6.247  1.00 20.00     0.090 C 
BRANCH   4   5
HETATM    5  C3  UNL     1     -36.096  14.026  -4.849  1.00 20.00     0.132 C 
HETATM    6  O10 UNL     1     -37.198  13.597  -4.513  1.00 20.00    -0.298 OA
BRANCH   5   7
HETATM    7  C5  UNL     1     -34.940  14.037  -3.882  1.00 20.00     0.059 A 
HETATM    8  C4  UNL     1     -33.796  14.944  -4.170  1.00 20.00     0.017 A 
HETATM    9  C6  UNL     1     -34.714  15.226  -3.016  1.00 20.00    -0.007 A 
HETATM   10  C7  UNL     1     -35.587  16.435  -3.036  1.00 20.00     0.011 C 
ENDBRANCH   5   7
ENDBRANCH   4   5
ENDBRANCH   3   4
TORSDOF 3
ENDMDL
