MODEL 1
REMARK VINA RESULT:      -4.6      0.000      0.000
REMARK  2 active torsions:
REMARK  status: ('A' for Active; 'I' for Inactive)
REMARK    1  A    between atoms: C1_1  and  C3_3 
REMARK    2  A    between atoms: C1_1  and  C7_7 
ROOT
HETATM    1  C2  UNL     1     -33.663   6.980   5.757  1.00 20.00     0.017 A 
HETATM    2  C3  UNL     1     -34.294   6.729   4.411  1.00 20.00     0.059 A 
HETATM    3  C4  UNL     1     -34.699   5.902   5.608  1.00 20.00    -0.007 A 
HETATM    4  C5  UNL     1     -34.310   4.470   5.753  1.00 20.00     0.011 C 
ENDROOT
BRANCH   2   5
HETATM    5  C1  UNL     1     -33.485   6.150   3.333  1.00 20.00     0.131 C 
HETATM    6  O8  UNL     1     -33.789   5.076   2.817  1.00 20.00    -0.298 OA
BRANCH   5   7
HETATM    7  C7  UNL     1     -32.269   6.952   2.908  1.00 20.00     0.074 C 
HETATM    8  C6  UNL     1     -32.508   7.747   1.637  1.00 20.00     0.013 C 
ENDBRANCH   5   7
ENDBRANCH   2   5
TORSDOF 2
ENDMDL
MODEL 2
REMARK VINA RESULT:      -4.5      1.512      1.623
REMARK  2 active torsions:
REMARK  status: ('A' for Active; 'I' for Inactive)
REMARK    1  A    between atoms: C1_1  and  C3_3 
REMARK    2  A    between atoms: C1_1  and  C7_7 
ROOT
HETATM    1  C2  UNL     1     -34.713   5.680   5.758  1.00 20.00     0.017 A 
HETATM    2  C3  UNL     1     -34.583   6.387   4.433  1.00 20.00     0.059 A 
HETATM    3  C4  UNL     1     -34.956   4.925   4.482  1.00 20.00    -0.007 A 
HETATM    4  C5  UNL     1     -34.013   3.850   4.060  1.00 20.00     0.011 C 
ENDROOT
BRANCH   2   5
HETATM    5  C1  UNL     1     -33.257   6.813   3.971  1.00 20.00     0.131 C 
HETATM    6  O8  UNL     1     -32.485   7.408   4.720  1.00 20.00    -0.298 OA
BRANCH   5   7
HETATM    7  C7  UNL     1     -32.913   6.476   2.532  1.00 20.00     0.074 C 
HETATM    8  C6  UNL     1     -32.523   7.700   1.723  1.00 20.00     0.013 C 
ENDBRANCH   5   7
ENDBRANCH   2   5
TORSDOF 2
ENDMDL
MODEL 3
REMARK VINA RESULT:      -4.4      9.329      9.856
REMARK  2 active torsions:
REMARK  status: ('A' for Active; 'I' for Inactive)
REMARK    1  A    between atoms: C1_1  and  C3_3 
REMARK    2  A    between atoms: C1_1  and  C7_7 
ROOT
HETATM    1  C2  UNL     1     -41.270   5.387  -1.184  1.00 20.00     0.017 A 
HETATM    2  C3  UNL     1     -41.320   6.829  -0.747  1.00 20.00     0.059 A 
HETATM    3  C4  UNL     1     -41.386   5.721   0.276  1.00 20.00    -0.007 A 
HETATM    4  C5  UNL     1     -42.639   5.398   1.017  1.00 20.00     0.011 C 
ENDROOT
BRANCH   2   5
HETATM    5  C1  UNL     1     -42.502   7.638  -1.062  1.00 20.00     0.131 C 
HETATM    6  O8  UNL     1     -43.271   7.312  -1.965  1.00 20.00    -0.298 OA
BRANCH   5   7
HETATM    7  C7  UNL     1     -42.706   8.880  -0.215  1.00 20.00     0.074 C 
HETATM    8  C6  UNL     1     -41.403   9.439   0.326  1.00 20.00     0.013 C 
ENDBRANCH   5   7
ENDBRANCH   2   5
TORSDOF 2
ENDMDL
MODEL 4
REMARK VINA RESULT:      -4.2      9.225      9.858
REMARK  2 active torsions:
REMARK  status: ('A' for Active; 'I' for Inactive)
REMARK    1  A    between atoms: C1_1  and  C3_3 
REMARK    2  A    between atoms: C1_1  and  C7_7 
ROOT
HETATM    1  C2  UNL     1     -42.803   7.038   0.937  1.00 20.00     0.017 A 
HETATM    2  C3  UNL     1     -41.648   6.153   0.545  1.00 20.00     0.059 A 
HETATM    3  C4  UNL     1     -41.449   7.643   0.692  1.00 20.00    -0.007 A 
HETATM    4  C5  UNL     1     -41.233   8.535  -0.483  1.00 20.00     0.011 C 
ENDROOT
BRANCH   2   5
HETATM    5  C1  UNL     1     -41.644   5.517  -0.778  1.00 20.00     0.131 C 
HETATM    6  O8  UNL     1     -40.595   5.137  -1.296  1.00 20.00    -0.298 OA
BRANCH   5   7
HETATM    7  C7  UNL     1     -42.996   5.367  -1.450  1.00 20.00     0.074 C 
HETATM    8  C6  UNL     1     -43.153   4.031  -2.154  1.00 20.00     0.013 C 
ENDBRANCH   5   7
ENDBRANCH   2   5
TORSDOF 2
ENDMDL
MODEL 5
REMARK VINA RESULT:      -4.2     11.494     12.258
REMARK  2 active torsions:
REMARK  status: ('A' for Active; 'I' for Inactive)
REMARK    1  A    between atoms: C1_1  and  C3_3 
REMARK    2  A    between atoms: C1_1  and  C7_7 
ROOT
HETATM    1  C2  UNL     1     -33.477  14.486  -4.373  1.00 20.00     0.017 A 
HETATM    2  C3  UNL     1     -34.864  14.773  -4.889  1.00 20.00     0.059 A 
HETATM    3  C4  UNL     1     -34.238  15.670  -3.848  1.00 20.00    -0.007 A 
HETATM    4  C5  UNL     1     -34.703  15.689  -2.432  1.00 20.00     0.011 C 
ENDROOT
BRANCH   2   5
HETATM    5  C1  UNL     1     -35.964  13.866  -4.541  1.00 20.00     0.131 C 
HETATM    6  O8  UNL     1     -35.767  12.663  -4.377  1.00 20.00    -0.298 OA
BRANCH   5   7
HETATM    7  C7  UNL     1     -37.334  14.502  -4.401  1.00 20.00     0.074 C 
HETATM    8  C6  UNL     1     -37.500  15.731  -5.278  1.00 20.00     0.013 C 
ENDBRANCH   5   7
ENDBRANCH   2   5
TORSDOF 2
ENDMDL
MODEL 6
REMARK VINA RESULT:      -4.2     11.399     12.168
REMARK  2 active torsions:
REMARK  status: ('A' for Active; 'I' for Inactive)
REMARK    1  A    between atoms: C1_1  and  C3_3 
REMARK    2  A    between atoms: C1_1  and  C7_7 
ROOT
HETATM    1  C2  UNL     1     -35.670  16.467  -3.180  1.00 20.00     0.017 A 
HETATM    2  C3  UNL     1     -35.349  15.005  -3.001  1.00 20.00     0.059 A 
HETATM    3  C4  UNL     1     -34.416  16.062  -2.459  1.00 20.00    -0.007 A 
HETATM    4  C5  UNL     1     -33.084  16.334  -3.071  1.00 20.00     0.011 C 
ENDROOT
BRANCH   2   5
HETATM    5  C1  UNL     1     -34.980  14.200  -4.170  1.00 20.00     0.131 C 
HETATM    6  O8  UNL     1     -34.402  13.122  -4.041  1.00 20.00    -0.298 OA
BRANCH   5   7
HETATM    7  C7  UNL     1     -35.352  14.778  -5.523  1.00 20.00     0.074 C 
HETATM    8  C6  UNL     1     -34.143  15.015  -6.409  1.00 20.00     0.013 C 
ENDBRANCH   5   7
ENDBRANCH   2   5
TORSDOF 2
ENDMDL
MODEL 7
REMARK VINA RESULT:      -4.1     11.512     12.306
REMARK  2 active torsions:
REMARK  status: ('A' for Active; 'I' for Inactive)
REMARK    1  A    between atoms: C1_1  and  C3_3 
REMARK    2  A    between atoms: C1_1  and  C7_7 
ROOT
HETATM    1  C2  UNL     1     -35.185  16.276  -3.484  1.00 20.00     0.017 A 
HETATM    2  C3  UNL     1     -35.549  14.822  -3.330  1.00 20.00     0.059 A 
HETATM    3  C4  UNL     1     -34.115  15.268  -3.172  1.00 20.00    -0.007 A 
HETATM    4  C5  UNL     1     -33.069  14.952  -4.186  1.00 20.00     0.011 C 
ENDROOT
BRANCH   2   5
HETATM    5  C1  UNL     1     -35.977  14.057  -4.507  1.00 20.00     0.131 C 
HETATM    6  O8  UNL     1     -35.903  12.830  -4.528  1.00 20.00    -0.298 OA
BRANCH   5   7
HETATM    7  C7  UNL     1     -36.504  14.871  -5.675  1.00 20.00     0.074 C 
HETATM    8  C6  UNL     1     -35.602  14.795  -6.893  1.00 20.00     0.013 C 
ENDBRANCH   5   7
ENDBRANCH   2   5
TORSDOF 2
ENDMDL
MODEL 8
REMARK VINA RESULT:      -4.1      1.343      2.123
REMARK  2 active torsions:
REMARK  status: ('A' for Active; 'I' for Inactive)
REMARK    1  A    between atoms: C1_1  and  C3_3 
REMARK    2  A    between atoms: C1_1  and  C7_7 
ROOT
HETATM    1  C2  UNL     1     -35.149   5.195   6.383  1.00 20.00     0.017 A 
HETATM    2  C3  UNL     1     -34.291   4.775   5.218  1.00 20.00     0.059 A 
HETATM    3  C4  UNL     1     -33.790   5.807   6.200  1.00 20.00    -0.007 A 
HETATM    4  C5  UNL     1     -33.663   7.249   5.841  1.00 20.00     0.011 C 
ENDROOT
BRANCH   2   5
HETATM    5  C1  UNL     1     -34.686   5.157   3.857  1.00 20.00     0.131 C 
HETATM    6  O8  UNL     1     -35.816   5.578   3.619  1.00 20.00    -0.298 OA
BRANCH   5   7
HETATM    7  C7  UNL     1     -33.624   4.997   2.785  1.00 20.00     0.074 C 
HETATM    8  C6  UNL     1     -32.850   6.278   2.533  1.00 20.00     0.013 C 
ENDBRANCH   5   7
ENDBRANCH   2   5
TORSDOF 2
ENDMDL
MODEL 9
REMARK VINA RESULT:      -4.1      1.460      3.600
REMARK  2 active torsions:
REMARK  status: ('A' for Active; 'I' for Inactive)
REMARK    1  A    between atoms: C1_1  and  C3_3 
REMARK    2  A    between atoms: C1_1  and  C7_7 
ROOT
HETATM    1  C2  UNL     1     -32.851   4.698   2.049  1.00 20.00     0.017 A 
HETATM    2  C3  UNL     1     -34.164   5.054   2.699  1.00 20.00     0.059 A 
HETATM    3  C4  UNL     1     -33.171   6.136   2.346  1.00 20.00    -0.007 A 
HETATM    4  C5  UNL     1     -32.396   6.873   3.385  1.00 20.00     0.011 C 
ENDROOT
BRANCH   2   5
HETATM    5  C1  UNL     1     -34.402   4.674   4.096  1.00 20.00     0.131 C 
HETATM    6  O8  UNL     1     -33.970   3.616   4.548  1.00 20.00    -0.298 OA
BRANCH   5   7
HETATM    7  C7  UNL     1     -35.204   5.659   4.927  1.00 20.00     0.074 C 
HETATM    8  C6  UNL     1     -34.465   6.108   6.174  1.00 20.00     0.013 C 
ENDBRANCH   5   7
ENDBRANCH   2   5
TORSDOF 2
ENDMDL
