MODEL 1
REMARK VINA RESULT:      -5.3      0.000      0.000
REMARK  3 active torsions:
REMARK  status: ('A' for Active; 'I' for Inactive)
REMARK    1  A    between atoms: C1_1  and  C3_3 
REMARK    2  A    between atoms: C1_1  and  C7_7 
REMARK    3  A    between atoms: C7_7  and  C8_8 
ROOT
HETATM    1  C1  UNL     1     -33.363   5.764   2.962  1.00 20.00     0.131 C 
HETATM    2  O9  UNL     1     -32.810   4.761   2.516  1.00 20.00    -0.298 OA
ENDROOT
BRANCH   1   3
HETATM    3  C3  UNL     1     -34.672   5.665   3.702  1.00 20.00     0.059 A 
HETATM    4  C2  UNL     1     -34.783   4.663   4.797  1.00 20.00     0.017 A 
HETATM    5  C4  UNL     1     -34.758   6.132   5.114  1.00 20.00    -0.007 A 
HETATM    6  C5  UNL     1     -33.606   6.715   5.859  1.00 20.00     0.011 C 
ENDBRANCH   1   3
BRANCH   1   7
HETATM    7  C7  UNL     1     -32.786   7.160   2.810  1.00 20.00     0.078 C 
BRANCH   7   8
HETATM    8  C8  UNL     1     -32.384   7.474   1.372  1.00 20.00     0.003 C 
HETATM    9  C6  UNL     1     -32.933   8.818   0.921  1.00 20.00     0.005 C 
ENDBRANCH   7   8
ENDBRANCH   1   7
TORSDOF 3
ENDMDL
MODEL 2
REMARK VINA RESULT:      -4.9      1.533      1.644
REMARK  3 active torsions:
REMARK  status: ('A' for Active; 'I' for Inactive)
REMARK    1  A    between atoms: C1_1  and  C3_3 
REMARK    2  A    between atoms: C1_1  and  C7_7 
REMARK    3  A    between atoms: C7_7  and  C8_8 
ROOT
HETATM    1  C1  UNL     1     -33.198   6.851   4.072  1.00 20.00     0.131 C 
HETATM    2  O9  UNL     1     -33.173   7.261   5.231  1.00 20.00    -0.298 OA
ENDROOT
BRANCH   1   3
HETATM    3  C3  UNL     1     -34.299   5.940   3.594  1.00 20.00     0.059 A 
HETATM    4  C2  UNL     1     -34.068   4.470   3.657  1.00 20.00     0.017 A 
HETATM    5  C4  UNL     1     -35.060   5.122   4.580  1.00 20.00    -0.007 A 
HETATM    6  C5  UNL     1     -34.802   5.155   6.048  1.00 20.00     0.011 C 
ENDBRANCH   1   3
BRANCH   1   7
HETATM    7  C7  UNL     1     -32.144   7.222   3.045  1.00 20.00     0.078 C 
BRANCH   7   8
HETATM    8  C8  UNL     1     -32.693   7.235   1.621  1.00 20.00     0.003 C 
HETATM    9  C6  UNL     1     -32.744   8.646   1.056  1.00 20.00     0.005 C 
ENDBRANCH   7   8
ENDBRANCH   1   7
TORSDOF 3
ENDMDL
MODEL 3
REMARK VINA RESULT:      -4.8      1.121      1.533
REMARK  3 active torsions:
REMARK  status: ('A' for Active; 'I' for Inactive)
REMARK    1  A    between atoms: C1_1  and  C3_3 
REMARK    2  A    between atoms: C1_1  and  C7_7 
REMARK    3  A    between atoms: C7_7  and  C8_8 
ROOT
HETATM    1  C1  UNL     1     -34.342   4.772   3.739  1.00 20.00     0.131 C 
HETATM    2  O9  UNL     1     -33.913   3.621   3.810  1.00 20.00    -0.298 OA
ENDROOT
BRANCH   1   3
HETATM    3  C3  UNL     1     -35.186   5.356   4.841  1.00 20.00     0.059 A 
HETATM    4  C2  UNL     1     -34.821   5.034   6.249  1.00 20.00     0.017 A 
HETATM    5  C4  UNL     1     -34.624   6.425   5.714  1.00 20.00    -0.007 A 
HETATM    6  C5  UNL     1     -33.247   6.975   5.555  1.00 20.00     0.011 C 
ENDBRANCH   1   3
BRANCH   1   7
HETATM    7  C7  UNL     1     -34.061   5.683   2.558  1.00 20.00     0.078 C 
BRANCH   7   8
HETATM    8  C8  UNL     1     -32.608   6.146   2.507  1.00 20.00     0.003 C 
HETATM    9  C6  UNL     1     -32.484   7.526   1.881  1.00 20.00     0.005 C 
ENDBRANCH   7   8
ENDBRANCH   1   7
TORSDOF 3
ENDMDL
MODEL 4
REMARK VINA RESULT:      -4.5     10.879     12.161
REMARK  3 active torsions:
REMARK  status: ('A' for Active; 'I' for Inactive)
REMARK    1  A    between atoms: C1_1  and  C3_3 
REMARK    2  A    between atoms: C1_1  and  C7_7 
REMARK    3  A    between atoms: C7_7  and  C8_8 
ROOT
HETATM    1  C1  UNL     1     -35.033  14.029  -4.067  1.00 20.00     0.131 C 
HETATM    2  O9  UNL     1     -34.434  12.962  -3.941  1.00 20.00    -0.298 OA
ENDROOT
BRANCH   1   3
HETATM    3  C3  UNL     1     -36.052  14.221  -5.161  1.00 20.00     0.059 A 
HETATM    4  C2  UNL     1     -36.392  15.614  -5.564  1.00 20.00     0.017 A 
HETATM    5  C4  UNL     1     -35.617  14.724  -6.494  1.00 20.00    -0.007 A 
HETATM    6  C5  UNL     1     -34.200  15.047  -6.828  1.00 20.00     0.011 C 
ENDBRANCH   1   3
BRANCH   1   7
HETATM    7  C7  UNL     1     -34.803  15.217  -3.151  1.00 20.00     0.078 C 
BRANCH   7   8
HETATM    8  C8  UNL     1     -33.411  15.821  -3.313  1.00 20.00     0.003 C 
HETATM    9  C6  UNL     1     -33.210  17.012  -2.390  1.00 20.00     0.005 C 
ENDBRANCH   7   8
ENDBRANCH   1   7
TORSDOF 3
ENDMDL
MODEL 5
REMARK VINA RESULT:      -4.4     15.756     16.708
REMARK  3 active torsions:
REMARK  status: ('A' for Active; 'I' for Inactive)
REMARK    1  A    between atoms: C1_1  and  C3_3 
REMARK    2  A    between atoms: C1_1  and  C7_7 
REMARK    3  A    between atoms: C7_7  and  C8_8 
ROOT
HETATM    1  C1  UNL     1     -22.654  17.551   9.703  1.00 20.00     0.131 C 
HETATM    2  O9  UNL     1     -22.361  16.607   8.971  1.00 20.00    -0.298 OA
ENDROOT
BRANCH   1   3
HETATM    3  C3  UNL     1     -22.536  17.438  11.201  1.00 20.00     0.059 A 
HETATM    4  C2  UNL     1     -23.548  18.138  12.039  1.00 20.00     0.017 A 
HETATM    5  C4  UNL     1     -23.537  16.637  11.962  1.00 20.00    -0.007 A 
HETATM    6  C5  UNL     1     -24.671  15.915  11.318  1.00 20.00     0.011 C 
ENDBRANCH   1   3
BRANCH   1   7
HETATM    7  C7  UNL     1     -23.149  18.884   9.171  1.00 20.00     0.078 C 
BRANCH   7   8
HETATM    8  C8  UNL     1     -24.472  18.761   8.422  1.00 20.00     0.003 C 
HETATM    9  C6  UNL     1     -25.636  19.263   9.261  1.00 20.00     0.005 C 
ENDBRANCH   7   8
ENDBRANCH   1   7
TORSDOF 3
ENDMDL
MODEL 6
REMARK VINA RESULT:      -4.4     11.214     12.103
REMARK  3 active torsions:
REMARK  status: ('A' for Active; 'I' for Inactive)
REMARK    1  A    between atoms: C1_1  and  C3_3 
REMARK    2  A    between atoms: C1_1  and  C7_7 
REMARK    3  A    between atoms: C7_7  and  C8_8 
ROOT
HETATM    1  C1  UNL     1     -33.636  14.583  -4.556  1.00 20.00     0.131 C 
HETATM    2  O9  UNL     1     -33.673  13.397  -4.234  1.00 20.00    -0.298 OA
ENDROOT
BRANCH   1   3
HETATM    3  C3  UNL     1     -33.007  15.613  -3.655  1.00 20.00     0.059 A 
HETATM    4  C2  UNL     1     -33.459  17.026  -3.783  1.00 20.00     0.017 A 
HETATM    5  C4  UNL     1     -33.811  16.226  -2.561  1.00 20.00    -0.007 A 
HETATM    6  C5  UNL     1     -35.233  15.869  -2.287  1.00 20.00     0.011 C 
ENDBRANCH   1   3
BRANCH   1   7
HETATM    7  C7  UNL     1     -34.208  15.099  -5.864  1.00 20.00     0.078 C 
BRANCH   7   8
HETATM    8  C8  UNL     1     -35.639  14.627  -6.104  1.00 20.00     0.003 C 
HETATM    9  C6  UNL     1     -36.647  15.722  -5.794  1.00 20.00     0.005 C 
ENDBRANCH   7   8
ENDBRANCH   1   7
TORSDOF 3
ENDMDL
MODEL 7
REMARK VINA RESULT:      -4.4      1.672      3.749
REMARK  3 active torsions:
REMARK  status: ('A' for Active; 'I' for Inactive)
REMARK    1  A    between atoms: C1_1  and  C3_3 
REMARK    2  A    between atoms: C1_1  and  C7_7 
REMARK    3  A    between atoms: C7_7  and  C8_8 
ROOT
HETATM    1  C1  UNL     1     -34.815   4.995   4.255  1.00 20.00     0.131 C 
HETATM    2  O9  UNL     1     -35.806   5.528   3.760  1.00 20.00    -0.298 OA
ENDROOT
BRANCH   1   3
HETATM    3  C3  UNL     1     -33.728   4.417   3.385  1.00 20.00     0.059 A 
HETATM    4  C2  UNL     1     -33.848   4.584   1.911  1.00 20.00     0.017 A 
HETATM    5  C4  UNL     1     -32.789   5.329   2.674  1.00 20.00    -0.007 A 
HETATM    6  C5  UNL     1     -32.851   6.815   2.778  1.00 20.00     0.011 C 
ENDBRANCH   1   3
BRANCH   1   7
HETATM    7  C7  UNL     1     -34.605   4.876   5.754  1.00 20.00     0.078 C 
BRANCH   7   8
HETATM    8  C8  UNL     1     -34.656   6.226   6.461  1.00 20.00     0.003 C 
HETATM    9  C6  UNL     1     -33.538   7.144   5.993  1.00 20.00     0.005 C 
ENDBRANCH   7   8
ENDBRANCH   1   7
TORSDOF 3
ENDMDL
MODEL 8
REMARK VINA RESULT:      -4.3     10.926     12.241
REMARK  3 active torsions:
REMARK  status: ('A' for Active; 'I' for Inactive)
REMARK    1  A    between atoms: C1_1  and  C3_3 
REMARK    2  A    between atoms: C1_1  and  C7_7 
REMARK    3  A    between atoms: C7_7  and  C8_8 
ROOT
HETATM    1  C1  UNL     1     -36.082  14.019  -4.841  1.00 20.00     0.131 C 
HETATM    2  O9  UNL     1     -37.191  13.598  -4.518  1.00 20.00    -0.298 OA
ENDROOT
BRANCH   1   3
HETATM    3  C3  UNL     1     -34.941  14.036  -3.856  1.00 20.00     0.059 A 
HETATM    4  C2  UNL     1     -33.810  14.970  -4.111  1.00 20.00     0.017 A 
HETATM    5  C4  UNL     1     -34.753  15.218  -2.967  1.00 20.00    -0.007 A 
HETATM    6  C5  UNL     1     -35.649  16.409  -2.983  1.00 20.00     0.011 C 
ENDBRANCH   1   3
BRANCH   1   7
HETATM    7  C7  UNL     1     -35.772  14.544  -6.231  1.00 20.00     0.078 C 
BRANCH   7   8
HETATM    8  C8  UNL     1     -36.530  15.828  -6.554  1.00 20.00     0.003 C 
HETATM    9  C6  UNL     1     -35.586  17.008  -6.714  1.00 20.00     0.005 C 
ENDBRANCH   7   8
ENDBRANCH   1   7
TORSDOF 3
ENDMDL
MODEL 9
REMARK VINA RESULT:      -4.2      1.011      3.932
REMARK  3 active torsions:
REMARK  status: ('A' for Active; 'I' for Inactive)
REMARK    1  A    between atoms: C1_1  and  C3_3 
REMARK    2  A    between atoms: C1_1  and  C7_7 
REMARK    3  A    between atoms: C7_7  and  C8_8 
ROOT
HETATM    1  C1  UNL     1     -33.377   5.396   2.968  1.00 20.00     0.131 C 
HETATM    2  O9  UNL     1     -32.676   4.860   2.112  1.00 20.00    -0.298 OA
ENDROOT
BRANCH   1   3
HETATM    3  C3  UNL     1     -33.161   6.836   3.359  1.00 20.00     0.059 A 
HETATM    4  C2  UNL     1     -31.764   7.351   3.389  1.00 20.00     0.017 A 
HETATM    5  C4  UNL     1     -32.723   7.821   2.331  1.00 20.00    -0.007 A 
HETATM    6  C5  UNL     1     -32.488   7.467   0.902  1.00 20.00     0.011 C 
ENDBRANCH   1   3
BRANCH   1   7
HETATM    7  C7  UNL     1     -34.497   4.669   3.690  1.00 20.00     0.078 C 
BRANCH   7   8
HETATM    8  C8  UNL     1     -35.201   5.551   4.717  1.00 20.00     0.003 C 
HETATM    9  C6  UNL     1     -34.710   5.265   6.127  1.00 20.00     0.005 C 
ENDBRANCH   7   8
ENDBRANCH   1   7
TORSDOF 3
ENDMDL
