MODEL 1
REMARK VINA RESULT:      -4.5      0.000      0.000
REMARK  3 active torsions:
REMARK  status: ('A' for Active; 'I' for Inactive)
REMARK    1  A    between atoms: C3_3  and  C7_7 
REMARK    2  A    between atoms: C6_6  and  O9_9 
REMARK    3  A    between atoms: C7_7  and  O9_9 
ROOT
HETATM    1  C1  UNL     1     -32.847   8.307   0.674  1.00 20.00     0.021 C 
HETATM    2  C2  UNL     1     -32.605   7.790   1.730  1.00 20.00    -0.037 C 
HETATM    3  C3  UNL     1     -32.310   7.169   3.002  1.00 20.00     0.230 C 
HETATM    4  O8  UNL     1     -31.408   7.624   3.694  1.00 20.00    -0.281 OA
ENDROOT
BRANCH   3   5
HETATM    5  C7  UNL     1     -33.141   5.955   3.372  1.00 20.00     0.200 C 
HETATM    6  C5  UNL     1     -33.330   5.014   2.193  1.00 20.00     0.049 C 
BRANCH   5   7
HETATM    7  O9  UNL     1     -34.410   6.396   3.828  1.00 20.00    -0.378 OA
BRANCH   7   8
HETATM    8  C6  UNL     1     -35.131   5.349   4.465  1.00 20.00     0.164 C 
HETATM    9  C4  UNL     1     -34.728   5.291   5.924  1.00 20.00     0.033 C 
ENDBRANCH   7   8
ENDBRANCH   5   7
ENDBRANCH   3   5
TORSDOF 3
ENDMDL
MODEL 2
REMARK VINA RESULT:      -4.5      1.280      4.008
REMARK  3 active torsions:
REMARK  status: ('A' for Active; 'I' for Inactive)
REMARK    1  A    between atoms: C3_3  and  C7_7 
REMARK    2  A    between atoms: C6_6  and  O9_9 
REMARK    3  A    between atoms: C7_7  and  O9_9 
ROOT
HETATM    1  C1  UNL     1     -34.059   6.931   6.298  1.00 20.00     0.021 C 
HETATM    2  C2  UNL     1     -34.255   6.214   5.356  1.00 20.00    -0.037 C 
HETATM    3  C3  UNL     1     -34.491   5.346   4.223  1.00 20.00     0.230 C 
HETATM    4  O8  UNL     1     -35.150   4.327   4.380  1.00 20.00    -0.281 OA
ENDROOT
BRANCH   3   5
HETATM    5  C7  UNL     1     -33.862   5.764   2.908  1.00 20.00     0.200 C 
HETATM    6  C5  UNL     1     -33.011   4.656   2.307  1.00 20.00     0.049 C 
BRANCH   5   7
HETATM    7  O9  UNL     1     -33.051   6.906   3.136  1.00 20.00    -0.378 OA
BRANCH   7   8
HETATM    8  C6  UNL     1     -32.212   7.182   2.022  1.00 20.00     0.164 C 
HETATM    9  C4  UNL     1     -32.856   8.259   1.174  1.00 20.00     0.033 C 
ENDBRANCH   7   8
ENDBRANCH   5   7
ENDBRANCH   3   5
TORSDOF 3
ENDMDL
MODEL 3
REMARK VINA RESULT:      -4.1     11.042     11.830
REMARK  3 active torsions:
REMARK  status: ('A' for Active; 'I' for Inactive)
REMARK    1  A    between atoms: C3_3  and  C7_7 
REMARK    2  A    between atoms: C6_6  and  O9_9 
REMARK    3  A    between atoms: C7_7  and  O9_9 
ROOT
HETATM    1  C1  UNL     1     -38.481  14.822  -4.191  1.00 20.00     0.021 C 
HETATM    2  C2  UNL     1     -37.399  14.346  -4.397  1.00 20.00    -0.037 C 
HETATM    3  C3  UNL     1     -36.095  13.769  -4.642  1.00 20.00     0.230 C 
HETATM    4  O8  UNL     1     -35.933  12.568  -4.471  1.00 20.00    -0.281 OA
ENDROOT
BRANCH   3   5
HETATM    5  C7  UNL     1     -35.000  14.727  -5.070  1.00 20.00     0.200 C 
HETATM    6  C5  UNL     1     -34.981  14.933  -6.576  1.00 20.00     0.049 C 
BRANCH   5   7
HETATM    7  O9  UNL     1     -33.750  14.201  -4.653  1.00 20.00    -0.378 OA
BRANCH   7   8
HETATM    8  C6  UNL     1     -32.944  15.197  -4.036  1.00 20.00     0.164 C 
HETATM    9  C4  UNL     1     -33.766  15.916  -2.986  1.00 20.00     0.033 C 
ENDBRANCH   7   8
ENDBRANCH   5   7
ENDBRANCH   3   5
TORSDOF 3
ENDMDL
MODEL 4
REMARK VINA RESULT:      -4.0     10.739     12.140
REMARK  3 active torsions:
REMARK  status: ('A' for Active; 'I' for Inactive)
REMARK    1  A    between atoms: C3_3  and  C7_7 
REMARK    2  A    between atoms: C6_6  and  O9_9 
REMARK    3  A    between atoms: C7_7  and  O9_9 
ROOT
HETATM    1  C1  UNL     1     -34.090  16.138  -2.391  1.00 20.00     0.021 C 
HETATM    2  C2  UNL     1     -34.492  15.282  -3.130  1.00 20.00    -0.037 C 
HETATM    3  C3  UNL     1     -34.974  14.249  -4.021  1.00 20.00     0.230 C 
HETATM    4  O8  UNL     1     -34.457  13.140  -3.983  1.00 20.00    -0.281 OA
ENDROOT
BRANCH   3   5
HETATM    5  C7  UNL     1     -36.086  14.642  -4.974  1.00 20.00     0.200 C 
HETATM    6  C5  UNL     1     -37.458  14.275  -4.431  1.00 20.00     0.049 C 
BRANCH   5   7
HETATM    7  O9  UNL     1     -35.879  13.976  -6.211  1.00 20.00    -0.378 OA
BRANCH   7   8
HETATM    8  C6  UNL     1     -35.670  14.899  -7.272  1.00 20.00     0.164 C 
HETATM    9  C4  UNL     1     -34.191  15.207  -7.375  1.00 20.00     0.033 C 
ENDBRANCH   7   8
ENDBRANCH   5   7
ENDBRANCH   3   5
TORSDOF 3
ENDMDL
MODEL 5
REMARK VINA RESULT:      -4.0     10.895     11.547
REMARK  3 active torsions:
REMARK  status: ('A' for Active; 'I' for Inactive)
REMARK    1  A    between atoms: C3_3  and  C7_7 
REMARK    2  A    between atoms: C6_6  and  O9_9 
REMARK    3  A    between atoms: C7_7  and  O9_9 
ROOT
HETATM    1  C1  UNL     1     -38.492  14.799  -4.227  1.00 20.00     0.021 C 
HETATM    2  C2  UNL     1     -37.373  14.386  -4.355  1.00 20.00    -0.037 C 
HETATM    3  C3  UNL     1     -36.024  13.885  -4.508  1.00 20.00     0.230 C 
HETATM    4  O8  UNL     1     -35.832  12.677  -4.493  1.00 20.00    -0.281 OA
ENDROOT
BRANCH   3   5
HETATM    5  C7  UNL     1     -34.928  14.924  -4.645  1.00 20.00     0.200 C 
HETATM    6  C5  UNL     1     -33.555  14.346  -4.341  1.00 20.00     0.049 C 
BRANCH   5   7
HETATM    7  O9  UNL     1     -35.198  15.989  -3.746  1.00 20.00    -0.378 OA
BRANCH   7   8
HETATM    8  C6  UNL     1     -34.375  15.918  -2.589  1.00 20.00     0.164 C 
HETATM    9  C4  UNL     1     -35.096  16.575  -1.430  1.00 20.00     0.033 C 
ENDBRANCH   7   8
ENDBRANCH   5   7
ENDBRANCH   3   5
TORSDOF 3
ENDMDL
MODEL 6
REMARK VINA RESULT:      -4.0     10.472     11.598
REMARK  3 active torsions:
REMARK  status: ('A' for Active; 'I' for Inactive)
REMARK    1  A    between atoms: C3_3  and  C7_7 
REMARK    2  A    between atoms: C6_6  and  O9_9 
REMARK    3  A    between atoms: C7_7  and  O9_9 
ROOT
HETATM    1  C1  UNL     1     -34.581  15.973  -2.570  1.00 20.00     0.021 C 
HETATM    2  C2  UNL     1     -34.867  15.005  -3.219  1.00 20.00    -0.037 C 
HETATM    3  C3  UNL     1     -35.209  13.838  -4.002  1.00 20.00     0.230 C 
HETATM    4  O8  UNL     1     -34.541  12.820  -3.877  1.00 20.00    -0.281 OA
ENDROOT
BRANCH   3   5
HETATM    5  C7  UNL     1     -36.375  13.983  -4.960  1.00 20.00     0.200 C 
HETATM    6  C5  UNL     1     -36.296  15.271  -5.763  1.00 20.00     0.049 C 
BRANCH   5   7
HETATM    7  O9  UNL     1     -37.581  13.970  -4.211  1.00 20.00    -0.378 OA
BRANCH   7   8
HETATM    8  C6  UNL     1     -38.295  15.192  -4.348  1.00 20.00     0.164 C 
HETATM    9  C4  UNL     1     -39.781  14.904  -4.298  1.00 20.00     0.033 C 
ENDBRANCH   7   8
ENDBRANCH   5   7
ENDBRANCH   3   5
TORSDOF 3
ENDMDL
MODEL 7
REMARK VINA RESULT:      -4.0      1.487      4.229
REMARK  3 active torsions:
REMARK  status: ('A' for Active; 'I' for Inactive)
REMARK    1  A    between atoms: C3_3  and  C7_7 
REMARK    2  A    between atoms: C6_6  and  O9_9 
REMARK    3  A    between atoms: C7_7  and  O9_9 
ROOT
HETATM    1  C1  UNL     1     -35.124   5.432   4.691  1.00 20.00     0.021 C 
HETATM    2  C2  UNL     1     -34.269   5.440   3.849  1.00 20.00    -0.037 C 
HETATM    3  C3  UNL     1     -33.237   5.447   2.835  1.00 20.00     0.230 C 
HETATM    4  O8  UNL     1     -32.983   4.410   2.236  1.00 20.00    -0.281 OA
ENDROOT
BRANCH   3   5
HETATM    5  C7  UNL     1     -32.515   6.762   2.612  1.00 20.00     0.200 C 
HETATM    6  C5  UNL     1     -32.227   7.481   3.920  1.00 20.00     0.049 C 
BRANCH   5   7
HETATM    7  O9  UNL     1     -33.323   7.589   1.790  1.00 20.00    -0.378 OA
BRANCH   7   8
HETATM    8  C6  UNL     1     -32.534   8.395   0.923  1.00 20.00     0.164 C 
HETATM    9  C4  UNL     1     -33.360   8.771  -0.289  1.00 20.00     0.033 C 
ENDBRANCH   7   8
ENDBRANCH   5   7
ENDBRANCH   3   5
TORSDOF 3
ENDMDL
MODEL 8
REMARK VINA RESULT:      -3.9     10.818     12.310
REMARK  3 active torsions:
REMARK  status: ('A' for Active; 'I' for Inactive)
REMARK    1  A    between atoms: C3_3  and  C7_7 
REMARK    2  A    between atoms: C6_6  and  O9_9 
REMARK    3  A    between atoms: C7_7  and  O9_9 
ROOT
HETATM    1  C1  UNL     1     -38.238  14.883  -4.302  1.00 20.00     0.021 C 
HETATM    2  C2  UNL     1     -37.156  14.363  -4.326  1.00 20.00    -0.037 C 
HETATM    3  C3  UNL     1     -35.854  13.734  -4.353  1.00 20.00     0.230 C 
HETATM    4  O8  UNL     1     -35.782  12.517  -4.468  1.00 20.00    -0.281 OA
ENDROOT
BRANCH   3   5
HETATM    5  C7  UNL     1     -34.656  14.651  -4.200  1.00 20.00     0.200 C 
HETATM    6  C5  UNL     1     -34.711  15.449  -2.908  1.00 20.00     0.049 C 
BRANCH   5   7
HETATM    7  O9  UNL     1     -34.625  15.544  -5.303  1.00 20.00    -0.378 OA
BRANCH   7   8
HETATM    8  C6  UNL     1     -33.942  14.979  -6.415  1.00 20.00     0.164 C 
HETATM    9  C4  UNL     1     -34.241  15.805  -7.648  1.00 20.00     0.033 C 
ENDBRANCH   7   8
ENDBRANCH   5   7
ENDBRANCH   3   5
TORSDOF 3
ENDMDL
MODEL 9
REMARK VINA RESULT:      -3.8     15.470     16.252
REMARK  3 active torsions:
REMARK  status: ('A' for Active; 'I' for Inactive)
REMARK    1  A    between atoms: C3_3  and  C7_7 
REMARK    2  A    between atoms: C6_6  and  O9_9 
REMARK    3  A    between atoms: C7_7  and  O9_9 
ROOT
HETATM    1  C1  UNL     1     -26.090  19.263   7.291  1.00 20.00     0.021 C 
HETATM    2  C2  UNL     1     -25.015  18.918   7.696  1.00 20.00    -0.037 C 
HETATM    3  C3  UNL     1     -23.717  18.500   8.181  1.00 20.00     0.230 C 
HETATM    4  O8  UNL     1     -22.856  18.175   7.374  1.00 20.00    -0.281 OA
ENDROOT
BRANCH   3   5
HETATM    5  C7  UNL     1     -23.536  18.466   9.686  1.00 20.00     0.200 C 
HETATM    6  C5  UNL     1     -22.217  17.824  10.086  1.00 20.00     0.049 C 
BRANCH   5   7
HETATM    7  O9  UNL     1     -24.608  17.730  10.255  1.00 20.00    -0.378 OA
BRANCH   7   8
HETATM    8  C6  UNL     1     -24.706  17.949  11.657  1.00 20.00     0.164 C 
HETATM    9  C4  UNL     1     -25.852  18.900  11.929  1.00 20.00     0.033 C 
ENDBRANCH   7   8
ENDBRANCH   5   7
ENDBRANCH   3   5
TORSDOF 3
ENDMDL
