MODEL 1
REMARK VINA RESULT:      -5.4      0.000      0.000
REMARK  2 active torsions:
REMARK  status: ('A' for Active; 'I' for Inactive)
REMARK    1  A    between atoms: C2_2  and  C3_3 
REMARK    2  A    between atoms: C3_3  and  C8_8 
ROOT
HETATM    1  C4  UNL     1     -34.591   6.123   6.009  1.00 20.00     0.027 C 
HETATM    2  C5  UNL     1     -33.488   6.851   5.249  1.00 20.00     0.017 C 
HETATM    3  C6  UNL     1     -34.696   4.674   5.551  1.00 20.00     0.167 C 
HETATM    4  C7  UNL     1     -33.815   5.172   3.409  1.00 20.00     0.180 C 
HETATM    5  C8  UNL     1     -33.655   6.653   3.743  1.00 20.00     0.083 C 
HETATM    6  O10 UNL     1     -34.902   4.604   4.140  1.00 20.00    -0.390 OA
ENDROOT
BRANCH   5   7
HETATM    7  C3  UNL     1     -32.473   7.223   3.024  1.00 20.00     0.154 C 
HETATM    8  O9  UNL     1     -31.450   7.534   3.628  1.00 20.00    -0.293 OA
BRANCH   7   9
HETATM    9  C2  UNL     1     -32.594   7.362   1.548  1.00 20.00     0.040 C 
HETATM   10  C1  UNL     1     -32.851   8.550   0.992  1.00 20.00     0.015 C 
ENDBRANCH   7   9
ENDBRANCH   5   7
TORSDOF 2
ENDMDL
MODEL 2
REMARK VINA RESULT:      -4.7     11.137     12.015
REMARK  2 active torsions:
REMARK  status: ('A' for Active; 'I' for Inactive)
REMARK    1  A    between atoms: C2_2  and  C3_3 
REMARK    2  A    between atoms: C3_3  and  C8_8 
ROOT
HETATM    1  C4  UNL     1     -34.133  16.465  -2.156  1.00 20.00     0.027 C 
HETATM    2  C5  UNL     1     -35.326  15.754  -2.787  1.00 20.00     0.017 C 
HETATM    3  C6  UNL     1     -33.044  16.714  -3.191  1.00 20.00     0.167 C 
HETATM    4  C7  UNL     1     -33.731  14.876  -4.518  1.00 20.00     0.180 C 
HETATM    5  C8  UNL     1     -34.866  14.520  -3.561  1.00 20.00     0.083 C 
HETATM    6  O10 UNL     1     -32.651  15.492  -3.815  1.00 20.00    -0.390 OA
ENDROOT
BRANCH   5   7
HETATM    7  C3  UNL     1     -36.018  13.937  -4.316  1.00 20.00     0.154 C 
HETATM    8  O9  UNL     1     -36.039  12.748  -4.625  1.00 20.00    -0.293 OA
BRANCH   7   9
HETATM    9  C2  UNL     1     -37.139  14.859  -4.640  1.00 20.00     0.040 C 
HETATM   10  C1  UNL     1     -38.394  14.561  -4.290  1.00 20.00     0.015 C 
ENDBRANCH   7   9
ENDBRANCH   5   7
TORSDOF 2
ENDMDL
MODEL 3
REMARK VINA RESULT:      -4.6     11.148     12.072
REMARK  2 active torsions:
REMARK  status: ('A' for Active; 'I' for Inactive)
REMARK    1  A    between atoms: C2_2  and  C3_3 
REMARK    2  A    between atoms: C3_3  and  C8_8 
ROOT
HETATM    1  C4  UNL     1     -34.464  16.441  -2.008  1.00 20.00     0.027 C 
HETATM    2  C5  UNL     1     -35.443  15.673  -2.889  1.00 20.00     0.017 C 
HETATM    3  C6  UNL     1     -33.232  16.854  -2.803  1.00 20.00     0.167 C 
HETATM    4  C7  UNL     1     -33.477  15.057  -4.327  1.00 20.00     0.180 C 
HETATM    5  C8  UNL     1     -34.728  14.540  -3.623  1.00 20.00     0.083 C 
HETATM    6  O10 UNL     1     -32.612  15.716  -3.401  1.00 20.00    -0.390 OA
ENDROOT
BRANCH   5   7
HETATM    7  C3  UNL     1     -35.658  13.910  -4.611  1.00 20.00     0.154 C 
HETATM    8  O9  UNL     1     -35.937  12.715  -4.551  1.00 20.00    -0.293 OA
BRANCH   7   9
HETATM    9  C2  UNL     1     -36.244  14.809  -5.642  1.00 20.00     0.040 C 
HETATM   10  C1  UNL     1     -35.803  14.782  -6.903  1.00 20.00     0.015 C 
ENDBRANCH   7   9
ENDBRANCH   5   7
TORSDOF 2
ENDMDL
MODEL 4
REMARK VINA RESULT:      -4.4     15.694     16.497
REMARK  2 active torsions:
REMARK  status: ('A' for Active; 'I' for Inactive)
REMARK    1  A    between atoms: C2_2  and  C3_3 
REMARK    2  A    between atoms: C3_3  and  C8_8 
ROOT
HETATM    1  C4  UNL     1     -24.025  16.611  11.484  1.00 20.00     0.027 C 
HETATM    2  C5  UNL     1     -24.221  17.138  10.067  1.00 20.00     0.017 C 
HETATM    3  C6  UNL     1     -23.074  17.508  12.266  1.00 20.00     0.167 C 
HETATM    4  C7  UNL     1     -21.980  18.250  10.300  1.00 20.00     0.180 C 
HETATM    5  C8  UNL     1     -22.871  17.397   9.400  1.00 20.00     0.083 C 
HETATM    6  O10 UNL     1     -21.828  17.641  11.583  1.00 20.00    -0.390 OA
ENDROOT
BRANCH   5   7
HETATM    7  C3  UNL     1     -23.079  18.075   8.082  1.00 20.00     0.154 C 
HETATM    8  O9  UNL     1     -22.339  17.850   7.128  1.00 20.00    -0.293 OA
BRANCH   7   9
HETATM    9  C2  UNL     1     -24.236  19.004   7.985  1.00 20.00     0.040 C 
HETATM   10  C1  UNL     1     -24.859  19.201   6.819  1.00 20.00     0.015 C 
ENDBRANCH   7   9
ENDBRANCH   5   7
TORSDOF 2
ENDMDL
MODEL 5
REMARK VINA RESULT:      -4.3     11.598     12.553
REMARK  2 active torsions:
REMARK  status: ('A' for Active; 'I' for Inactive)
REMARK    1  A    between atoms: C2_2  and  C3_3 
REMARK    2  A    between atoms: C3_3  and  C8_8 
ROOT
HETATM    1  C4  UNL     1     -37.899  16.049  -5.298  1.00 20.00     0.027 C 
HETATM    2  C5  UNL     1     -36.377  16.078  -5.392  1.00 20.00     0.017 C 
HETATM    3  C6  UNL     1     -38.355  15.054  -4.239  1.00 20.00     0.167 C 
HETATM    4  C7  UNL     1     -36.397  13.741  -4.470  1.00 20.00     0.180 C 
HETATM    5  C8  UNL     1     -35.823  14.663  -5.543  1.00 20.00     0.083 C 
HETATM    6  O10 UNL     1     -37.825  13.756  -4.503  1.00 20.00    -0.390 OA
ENDROOT
BRANCH   5   7
HETATM    7  C3  UNL     1     -34.329  14.692  -5.457  1.00 20.00     0.154 C 
HETATM    8  O9  UNL     1     -33.635  14.732  -6.469  1.00 20.00    -0.293 OA
BRANCH   7   9
HETATM    9  C2  UNL     1     -33.739  14.702  -4.091  1.00 20.00     0.040 C 
HETATM   10  C1  UNL     1     -33.218  15.820  -3.579  1.00 20.00     0.015 C 
ENDBRANCH   7   9
ENDBRANCH   5   7
TORSDOF 2
ENDMDL
MODEL 6
REMARK VINA RESULT:      -4.1      0.984      1.669
REMARK  2 active torsions:
REMARK  status: ('A' for Active; 'I' for Inactive)
REMARK    1  A    between atoms: C2_2  and  C3_3 
REMARK    2  A    between atoms: C3_3  and  C8_8 
ROOT
HETATM    1  C4  UNL     1     -34.441   4.251   3.752  1.00 20.00     0.027 C 
HETATM    2  C5  UNL     1     -33.639   5.206   2.874  1.00 20.00     0.017 C 
HETATM    3  C6  UNL     1     -35.309   5.024   4.736  1.00 20.00     0.167 C 
HETATM    4  C7  UNL     1     -33.854   6.893   4.722  1.00 20.00     0.180 C 
HETATM    5  C8  UNL     1     -32.900   6.231   3.732  1.00 20.00     0.083 C 
HETATM    6  O10 UNL     1     -34.514   5.911   5.522  1.00 20.00    -0.390 OA
ENDROOT
BRANCH   5   7
HETATM    7  C3  UNL     1     -32.264   7.262   2.855  1.00 20.00     0.154 C 
HETATM    8  O9  UNL     1     -31.325   7.946   3.255  1.00 20.00    -0.293 OA
BRANCH   7   9
HETATM    9  C2  UNL     1     -32.805   7.391   1.475  1.00 20.00     0.040 C 
HETATM   10  C1  UNL     1     -32.748   8.556   0.824  1.00 20.00     0.015 C 
ENDBRANCH   7   9
ENDBRANCH   5   7
TORSDOF 2
ENDMDL
MODEL 7
REMARK VINA RESULT:      -4.1     11.374     12.270
REMARK  2 active torsions:
REMARK  status: ('A' for Active; 'I' for Inactive)
REMARK    1  A    between atoms: C2_2  and  C3_3 
REMARK    2  A    between atoms: C3_3  and  C8_8 
ROOT
HETATM    1  C4  UNL     1     -34.410  17.439  -1.122  1.00 20.00     0.027 C 
HETATM    2  C5  UNL     1     -34.871  16.231  -1.931  1.00 20.00     0.017 C 
HETATM    3  C6  UNL     1     -33.890  18.537  -2.040  1.00 20.00     0.167 C 
HETATM    4  C7  UNL     1     -33.297  16.992  -3.735  1.00 20.00     0.180 C 
HETATM    5  C8  UNL     1     -33.786  15.800  -2.916  1.00 20.00     0.083 C 
HETATM    6  O10 UNL     1     -32.847  18.042  -2.879  1.00 20.00    -0.390 OA
ENDROOT
BRANCH   5   7
HETATM    7  C3  UNL     1     -34.317  14.732  -3.818  1.00 20.00     0.154 C 
HETATM    8  O9  UNL     1     -33.561  14.002  -4.454  1.00 20.00    -0.293 OA
BRANCH   7   9
HETATM    9  C2  UNL     1     -35.796  14.584  -3.880  1.00 20.00     0.040 C 
HETATM   10  C1  UNL     1     -36.362  13.705  -4.712  1.00 20.00     0.015 C 
ENDBRANCH   7   9
ENDBRANCH   5   7
TORSDOF 2
ENDMDL
MODEL 8
REMARK VINA RESULT:      -4.1     11.351     12.303
REMARK  2 active torsions:
REMARK  status: ('A' for Active; 'I' for Inactive)
REMARK    1  A    between atoms: C2_2  and  C3_3 
REMARK    2  A    between atoms: C3_3  and  C8_8 
ROOT
HETATM    1  C4  UNL     1     -34.584  15.173  -6.510  1.00 20.00     0.027 C 
HETATM    2  C5  UNL     1     -34.216  16.003  -5.285  1.00 20.00     0.017 C 
HETATM    3  C6  UNL     1     -35.825  14.333  -6.240  1.00 20.00     0.167 C 
HETATM    4  C7  UNL     1     -35.415  14.279  -3.907  1.00 20.00     0.180 C 
HETATM    5  C8  UNL     1     -34.149  15.121  -4.040  1.00 20.00     0.083 C 
HETATM    6  O10 UNL     1     -35.637  13.509  -5.089  1.00 20.00    -0.390 OA
ENDROOT
BRANCH   5   7
HETATM    7  C3  UNL     1     -33.962  15.973  -2.825  1.00 20.00     0.154 C 
HETATM    8  O9  UNL     1     -32.882  16.508  -2.583  1.00 20.00    -0.293 OA
BRANCH   7   9
HETATM    9  C2  UNL     1     -35.151  16.161  -1.951  1.00 20.00     0.040 C 
HETATM   10  C1  UNL     1     -35.093  16.956  -0.879  1.00 20.00     0.015 C 
ENDBRANCH   7   9
ENDBRANCH   5   7
TORSDOF 2
ENDMDL
MODEL 9
REMARK VINA RESULT:      -4.1     11.412     12.214
REMARK  2 active torsions:
REMARK  status: ('A' for Active; 'I' for Inactive)
REMARK    1  A    between atoms: C2_2  and  C3_3 
REMARK    2  A    between atoms: C3_3  and  C8_8 
ROOT
HETATM    1  C4  UNL     1     -35.168  16.651  -1.328  1.00 20.00     0.027 C 
HETATM    2  C5  UNL     1     -35.172  15.812  -2.602  1.00 20.00     0.017 C 
HETATM    3  C6  UNL     1     -34.268  17.869  -1.488  1.00 20.00     0.167 C 
HETATM    4  C7  UNL     1     -32.918  16.796  -3.112  1.00 20.00     0.180 C 
HETATM    5  C8  UNL     1     -33.742  15.513  -3.051  1.00 20.00     0.083 C 
HETATM    6  O10 UNL     1     -32.946  17.476  -1.857  1.00 20.00    -0.390 OA
ENDROOT
BRANCH   5   7
HETATM    7  C3  UNL     1     -33.762  14.843  -4.388  1.00 20.00     0.154 C 
HETATM    8  O9  UNL     1     -33.293  13.718  -4.543  1.00 20.00    -0.293 OA
BRANCH   7   9
HETATM    9  C2  UNL     1     -34.399  15.595  -5.503  1.00 20.00     0.040 C 
HETATM   10  C1  UNL     1     -34.337  15.140  -6.757  1.00 20.00     0.015 C 
ENDBRANCH   7   9
ENDBRANCH   5   7
TORSDOF 2
ENDMDL
