MODEL 1
REMARK VINA RESULT:      -5.1      0.000      0.000
REMARK  2 active torsions:
REMARK  status: ('A' for Active; 'I' for Inactive)
REMARK    1  A    between atoms: C3_3  and  C7_7 
REMARK    2  A    between atoms: C8_8  and  C10_10 
ROOT
HETATM    1  C1  UNL     1     -38.787  14.755  -4.207  1.00 20.00     0.021 C 
HETATM    2  C2  UNL     1     -37.637  14.416  -4.264  1.00 20.00    -0.039 C 
HETATM    3  C3  UNL     1     -36.253  14.007  -4.335  1.00 20.00     0.205 C 
HETATM    4  O11 UNL     1     -35.975  12.842  -4.582  1.00 20.00    -0.283 OA
ENDROOT
BRANCH   3   5
HETATM    5  C7  UNL     1     -35.218  15.091  -4.090  1.00 20.00     0.069 C 
HETATM    6  C4  UNL     1     -33.784  14.602  -4.259  1.00 20.00     0.013 C 
HETATM    7  C5  UNL     1     -32.947  15.668  -3.558  1.00 20.00     0.005 C 
HETATM    8  C8  UNL     1     -33.853  16.264  -2.480  1.00 20.00    -0.014 C 
HETATM    9  C6  UNL     1     -35.223  15.615  -2.655  1.00 20.00     0.017 C 
BRANCH   8  10
HETATM   10  C10 UNL     1     -33.990  17.759  -2.711  1.00 20.00     0.000 C 
HETATM   11  C9  UNL     1     -32.901  18.291  -3.589  1.00 20.00     0.005 C 
ENDBRANCH   8  10
ENDBRANCH   3   5
TORSDOF 2
ENDMDL
MODEL 2
REMARK VINA RESULT:      -5.1     11.309     12.248
REMARK  2 active torsions:
REMARK  status: ('A' for Active; 'I' for Inactive)
REMARK    1  A    between atoms: C3_3  and  C7_7 
REMARK    2  A    between atoms: C8_8  and  C10_10 
ROOT
HETATM    1  C1  UNL     1     -33.016   8.217   0.445  1.00 20.00     0.021 C 
HETATM    2  C2  UNL     1     -32.613   7.852   1.516  1.00 20.00    -0.039 C 
HETATM    3  C3  UNL     1     -32.128   7.415   2.805  1.00 20.00     0.205 C 
HETATM    4  O11 UNL     1     -31.163   7.971   3.312  1.00 20.00    -0.283 OA
ENDROOT
BRANCH   3   5
HETATM    5  C7  UNL     1     -32.878   6.263   3.450  1.00 20.00     0.069 C 
HETATM    6  C4  UNL     1     -33.148   5.109   2.491  1.00 20.00     0.013 C 
HETATM    7  C5  UNL     1     -34.248   4.308   3.182  1.00 20.00     0.005 C 
HETATM    8  C8  UNL     1     -35.019   5.313   4.038  1.00 20.00    -0.014 C 
HETATM    9  C6  UNL     1     -34.283   6.643   3.916  1.00 20.00     0.017 C 
BRANCH   8  10
HETATM   10  C10 UNL     1     -34.981   4.867   5.489  1.00 20.00     0.000 C 
HETATM   11  C9  UNL     1     -34.416   5.925   6.385  1.00 20.00     0.005 C 
ENDBRANCH   8  10
ENDBRANCH   3   5
TORSDOF 2
ENDMDL
MODEL 3
REMARK VINA RESULT:      -4.9     16.212     17.814
REMARK  2 active torsions:
REMARK  status: ('A' for Active; 'I' for Inactive)
REMARK    1  A    between atoms: C3_3  and  C7_7 
REMARK    2  A    between atoms: C8_8  and  C10_10 
ROOT
HETATM    1  C1  UNL     1     -25.588  19.263   6.621  1.00 20.00     0.021 C 
HETATM    2  C2  UNL     1     -24.603  18.905   7.206  1.00 20.00    -0.039 C 
HETATM    3  C3  UNL     1     -23.416  18.475   7.908  1.00 20.00     0.205 C 
HETATM    4  O11 UNL     1     -22.436  18.106   7.276  1.00 20.00    -0.283 OA
ENDROOT
BRANCH   3   5
HETATM    5  C7  UNL     1     -23.480  18.517   9.425  1.00 20.00     0.069 C 
HETATM    6  C4  UNL     1     -22.284  17.851  10.096  1.00 20.00     0.013 C 
HETATM    7  C5  UNL     1     -22.751  17.613  11.528  1.00 20.00     0.005 C 
HETATM    8  C8  UNL     1     -24.270  17.465  11.451  1.00 20.00    -0.014 C 
HETATM    9  C6  UNL     1     -24.660  17.734  10.000  1.00 20.00     0.017 C 
BRANCH   8  10
HETATM   10  C10 UNL     1     -24.922  18.516  12.332  1.00 20.00     0.000 C 
HETATM   11  C9  UNL     1     -26.272  18.913  11.824  1.00 20.00     0.005 C 
ENDBRANCH   8  10
ENDBRANCH   3   5
TORSDOF 2
ENDMDL
MODEL 4
REMARK VINA RESULT:      -4.7      1.631      2.532
REMARK  2 active torsions:
REMARK  status: ('A' for Active; 'I' for Inactive)
REMARK    1  A    between atoms: C3_3  and  C7_7 
REMARK    2  A    between atoms: C8_8  and  C10_10 
ROOT
HETATM    1  C1  UNL     1     -36.672  14.036  -4.497  1.00 20.00     0.021 C 
HETATM    2  C2  UNL     1     -35.514  14.283  -4.295  1.00 20.00    -0.039 C 
HETATM    3  C3  UNL     1     -34.121  14.579  -4.055  1.00 20.00     0.205 C 
HETATM    4  O11 UNL     1     -33.258  14.042  -4.736  1.00 20.00    -0.283 OA
ENDROOT
BRANCH   3   5
HETATM    5  C7  UNL     1     -33.825  15.566  -2.939  1.00 20.00     0.069 C 
HETATM    6  C4  UNL     1     -35.068  15.985  -2.162  1.00 20.00     0.013 C 
HETATM    7  C5  UNL     1     -34.636  17.254  -1.433  1.00 20.00     0.005 C 
HETATM    8  C8  UNL     1     -33.543  17.879  -2.300  1.00 20.00    -0.014 C 
HETATM    9  C6  UNL     1     -33.286  16.904  -3.446  1.00 20.00     0.017 C 
BRANCH   8  10
HETATM   10  C10 UNL     1     -32.271  18.013  -1.482  1.00 20.00     0.000 C 
HETATM   11  C9  UNL     1     -32.552  18.452  -0.079  1.00 20.00     0.005 C 
ENDBRANCH   8  10
ENDBRANCH   3   5
TORSDOF 2
ENDMDL
MODEL 5
REMARK VINA RESULT:      -4.5      2.600      4.669
REMARK  2 active torsions:
REMARK  status: ('A' for Active; 'I' for Inactive)
REMARK    1  A    between atoms: C3_3  and  C7_7 
REMARK    2  A    between atoms: C8_8  and  C10_10 
ROOT
HETATM    1  C1  UNL     1     -33.932  18.267   1.187  1.00 20.00     0.021 C 
HETATM    2  C2  UNL     1     -34.632  17.849   0.304  1.00 20.00    -0.039 C 
HETATM    3  C3  UNL     1     -35.474  17.350  -0.757  1.00 20.00     0.205 C 
HETATM    4  O11 UNL     1     -36.628  17.743  -0.854  1.00 20.00    -0.283 OA
ENDROOT
BRANCH   3   5
HETATM    5  C7  UNL     1     -34.840  16.343  -1.701  1.00 20.00     0.069 C 
HETATM    6  C4  UNL     1     -33.489  16.795  -2.245  1.00 20.00     0.013 C 
HETATM    7  C5  UNL     1     -33.261  15.897  -3.456  1.00 20.00     0.005 C 
HETATM    8  C8  UNL     1     -34.653  15.525  -3.967  1.00 20.00    -0.014 C 
HETATM    9  C6  UNL     1     -35.652  16.118  -2.977  1.00 20.00     0.017 C 
BRANCH   8  10
HETATM   10  C10 UNL     1     -34.802  14.014  -3.961  1.00 20.00     0.000 C 
HETATM   11  C9  UNL     1     -36.114  13.579  -4.535  1.00 20.00     0.005 C 
ENDBRANCH   8  10
ENDBRANCH   3   5
TORSDOF 2
ENDMDL
MODEL 6
REMARK VINA RESULT:      -4.5      1.083      1.225
REMARK  2 active torsions:
REMARK  status: ('A' for Active; 'I' for Inactive)
REMARK    1  A    between atoms: C3_3  and  C7_7 
REMARK    2  A    between atoms: C8_8  and  C10_10 
ROOT
HETATM    1  C1  UNL     1     -39.260  16.512  -4.198  1.00 20.00     0.021 C 
HETATM    2  C2  UNL     1     -38.336  15.746  -4.242  1.00 20.00    -0.039 C 
HETATM    3  C3  UNL     1     -37.226  14.824  -4.298  1.00 20.00     0.205 C 
HETATM    4  O11 UNL     1     -37.436  13.629  -4.458  1.00 20.00    -0.283 OA
ENDROOT
BRANCH   3   5
HETATM    5  C7  UNL     1     -35.841  15.429  -4.148  1.00 20.00     0.069 C 
HETATM    6  C4  UNL     1     -34.721  14.466  -4.525  1.00 20.00     0.013 C 
HETATM    7  C5  UNL     1     -33.476  15.087  -3.899  1.00 20.00     0.005 C 
HETATM    8  C8  UNL     1     -33.971  15.876  -2.687  1.00 20.00    -0.014 C 
HETATM    9  C6  UNL     1     -35.495  15.791  -2.705  1.00 20.00     0.017 C 
BRANCH   8  10
HETATM   10  C10 UNL     1     -33.564  17.331  -2.837  1.00 20.00     0.000 C 
HETATM   11  C9  UNL     1     -32.592  17.752  -1.779  1.00 20.00     0.005 C 
ENDBRANCH   8  10
ENDBRANCH   3   5
TORSDOF 2
ENDMDL
MODEL 7
REMARK VINA RESULT:      -4.5      2.673      4.644
REMARK  2 active torsions:
REMARK  status: ('A' for Active; 'I' for Inactive)
REMARK    1  A    between atoms: C3_3  and  C7_7 
REMARK    2  A    between atoms: C8_8  and  C10_10 
ROOT
HETATM    1  C1  UNL     1     -34.627  17.902   0.520  1.00 20.00     0.021 C 
HETATM    2  C2  UNL     1     -34.017  17.774  -0.507  1.00 20.00    -0.039 C 
HETATM    3  C3  UNL     1     -33.282  17.619  -1.741  1.00 20.00     0.205 C 
HETATM    4  O11 UNL     1     -32.188  18.152  -1.868  1.00 20.00    -0.283 OA
ENDROOT
BRANCH   3   5
HETATM    5  C7  UNL     1     -33.946  16.780  -2.819  1.00 20.00     0.069 C 
HETATM    6  C4  UNL     1     -35.041  15.866  -2.281  1.00 20.00     0.013 C 
HETATM    7  C5  UNL     1     -35.244  14.842  -3.393  1.00 20.00     0.005 C 
HETATM    8  C8  UNL     1     -33.902  14.745  -4.118  1.00 20.00    -0.014 C 
HETATM    9  C6  UNL     1     -32.990  15.793  -3.488  1.00 20.00     0.017 C 
BRANCH   8  10
HETATM   10  C10 UNL     1     -34.099  15.089  -5.584  1.00 20.00     0.000 C 
HETATM   11  C9  UNL     1     -35.468  14.726  -6.065  1.00 20.00     0.005 C 
ENDBRANCH   8  10
ENDBRANCH   3   5
TORSDOF 2
ENDMDL
MODEL 8
REMARK VINA RESULT:      -4.5      2.016      2.959
REMARK  2 active torsions:
REMARK  status: ('A' for Active; 'I' for Inactive)
REMARK    1  A    between atoms: C3_3  and  C7_7 
REMARK    2  A    between atoms: C8_8  and  C10_10 
ROOT
HETATM    1  C1  UNL     1     -33.985  15.149  -7.123  1.00 20.00     0.021 C 
HETATM    2  C2  UNL     1     -34.149  14.961  -5.949  1.00 20.00    -0.039 C 
HETATM    3  C3  UNL     1     -34.344  14.734  -4.536  1.00 20.00     0.205 C 
HETATM    4  O11 UNL     1     -34.495  13.593  -4.118  1.00 20.00    -0.283 OA
ENDROOT
BRANCH   3   5
HETATM    5  C7  UNL     1     -34.348  15.967  -3.650  1.00 20.00     0.069 C 
HETATM    6  C4  UNL     1     -32.959  16.358  -3.158  1.00 20.00     0.013 C 
HETATM    7  C5  UNL     1     -33.235  17.292  -1.983  1.00 20.00     0.005 C 
HETATM    8  C8  UNL     1     -34.589  16.860  -1.419  1.00 20.00    -0.014 C 
HETATM    9  C6  UNL     1     -35.119  15.769  -2.345  1.00 20.00     0.017 C 
BRANCH   8  10
HETATM   10  C10 UNL     1     -35.547  18.039  -1.459  1.00 20.00     0.000 C 
HETATM   11  C9  UNL     1     -36.628  17.915  -0.432  1.00 20.00     0.005 C 
ENDBRANCH   8  10
ENDBRANCH   3   5
TORSDOF 2
ENDMDL
MODEL 9
REMARK VINA RESULT:      -4.4      2.740      3.977
REMARK  2 active torsions:
REMARK  status: ('A' for Active; 'I' for Inactive)
REMARK    1  A    between atoms: C3_3  and  C7_7 
REMARK    2  A    between atoms: C8_8  and  C10_10 
ROOT
HETATM    1  C1  UNL     1     -34.751  14.067  -3.879  1.00 20.00     0.021 C 
HETATM    2  C2  UNL     1     -34.356  15.197  -3.784  1.00 20.00    -0.039 C 
HETATM    3  C3  UNL     1     -33.883  16.557  -3.671  1.00 20.00     0.205 C 
HETATM    4  O11 UNL     1     -33.962  17.310  -4.632  1.00 20.00    -0.283 OA
ENDROOT
BRANCH   3   5
HETATM    5  C7  UNL     1     -33.306  16.959  -2.325  1.00 20.00     0.069 C 
HETATM    6  C4  UNL     1     -34.373  17.292  -1.289  1.00 20.00     0.013 C 
HETATM    7  C5  UNL     1     -33.615  18.068  -0.216  1.00 20.00     0.005 C 
HETATM    8  C8  UNL     1     -32.446  18.739  -0.938  1.00 20.00    -0.014 C 
HETATM    9  C6  UNL     1     -32.486  18.247  -2.382  1.00 20.00     0.017 C 
BRANCH   8  10
HETATM   10  C10 UNL     1     -31.141  18.287  -0.306  1.00 20.00     0.000 C 
HETATM   11  C9  UNL     1     -31.207  18.309   1.189  1.00 20.00     0.005 C 
ENDBRANCH   8  10
ENDBRANCH   3   5
TORSDOF 2
ENDMDL
