MODEL 1
REMARK VINA RESULT:      -6.0      0.000      0.000
REMARK  4 active torsions:
REMARK  status: ('A' for Active; 'I' for Inactive)
REMARK    1  A    between atoms: C1_1  and  C5_5 
REMARK    2  A    between atoms: C1_1  and  C9_9 
REMARK    3  A    between atoms: C6_6  and  C10_10 
REMARK    4  A    between atoms: C9_9  and  C10_10 
ROOT
HETATM    1  C1  UNL     1     -33.439   5.250   3.143  1.00 20.00     0.131 C 
HETATM    2  O11 UNL     1     -32.880   4.525   2.322  1.00 20.00    -0.298 OA
ENDROOT
BRANCH   1   3
HETATM    3  C5  UNL     1     -34.509   4.707   4.055  1.00 20.00     0.059 A 
HETATM    4  C4  UNL     1     -35.724   5.536   4.281  1.00 20.00     0.017 A 
HETATM    5  C7  UNL     1     -34.729   5.333   5.389  1.00 20.00    -0.007 A 
HETATM    6  C8  UNL     1     -33.934   6.486   5.897  1.00 20.00     0.011 C 
ENDBRANCH   1   3
BRANCH   1   7
HETATM    7  C9  UNL     1     -33.106   6.722   3.306  1.00 20.00     0.079 C 
BRANCH   7   8
HETATM    8  C10 UNL     1     -32.374   7.294   2.095  1.00 20.00     0.012 C 
BRANCH   8   9
HETATM    9  C6  UNL     1     -33.297   8.145   1.238  1.00 20.00    -0.014 A 
HETATM   10  C2  UNL     1     -32.853   9.500   0.760  1.00 20.00     0.005 A 
HETATM   11  C3  UNL     1     -32.988   8.366  -0.217  1.00 20.00     0.005 A 
ENDBRANCH   8   9
ENDBRANCH   7   8
ENDBRANCH   1   7
TORSDOF 4
ENDMDL
MODEL 2
REMARK VINA RESULT:      -5.8      1.370      1.843
REMARK  4 active torsions:
REMARK  status: ('A' for Active; 'I' for Inactive)
REMARK    1  A    between atoms: C1_1  and  C5_5 
REMARK    2  A    between atoms: C1_1  and  C9_9 
REMARK    3  A    between atoms: C6_6  and  C10_10 
REMARK    4  A    between atoms: C9_9  and  C10_10 
ROOT
HETATM    1  C1  UNL     1     -33.278   6.820   4.117  1.00 20.00     0.131 C 
HETATM    2  O11 UNL     1     -32.509   7.522   4.772  1.00 20.00    -0.298 OA
ENDROOT
BRANCH   1   3
HETATM    3  C5  UNL     1     -34.620   6.415   4.670  1.00 20.00     0.059 A 
HETATM    4  C4  UNL     1     -34.649   5.636   5.939  1.00 20.00     0.017 A 
HETATM    5  C7  UNL     1     -35.028   4.982   4.640  1.00 20.00    -0.007 A 
HETATM    6  C8  UNL     1     -34.178   3.897   4.075  1.00 20.00     0.011 C 
ENDBRANCH   1   3
BRANCH   1   7
HETATM    7  C9  UNL     1     -32.948   6.312   2.725  1.00 20.00     0.079 C 
BRANCH   7   8
HETATM    8  C10 UNL     1     -32.260   7.368   1.864  1.00 20.00     0.012 C 
BRANCH   8   9
HETATM    9  C6  UNL     1     -33.270   8.288   1.199  1.00 20.00    -0.014 A 
HETATM   10  C2  UNL     1     -32.851   9.645   0.706  1.00 20.00     0.005 A 
HETATM   11  C3  UNL     1     -33.189   8.559  -0.278  1.00 20.00     0.005 A 
ENDBRANCH   8   9
ENDBRANCH   7   8
ENDBRANCH   1   7
TORSDOF 4
ENDMDL
MODEL 3
REMARK VINA RESULT:      -5.5     10.614     12.298
REMARK  4 active torsions:
REMARK  status: ('A' for Active; 'I' for Inactive)
REMARK    1  A    between atoms: C1_1  and  C5_5 
REMARK    2  A    between atoms: C1_1  and  C9_9 
REMARK    3  A    between atoms: C6_6  and  C10_10 
REMARK    4  A    between atoms: C9_9  and  C10_10 
ROOT
HETATM    1  C1  UNL     1     -36.138  13.988  -4.851  1.00 20.00     0.131 C 
HETATM    2  O11 UNL     1     -37.275  13.691  -4.489  1.00 20.00    -0.298 OA
ENDROOT
BRANCH   1   3
HETATM    3  C5  UNL     1     -35.850  14.353  -6.284  1.00 20.00     0.059 A 
HETATM    4  C4  UNL     1     -34.642  15.175  -6.569  1.00 20.00     0.017 A 
HETATM    5  C7  UNL     1     -36.015  15.764  -6.733  1.00 20.00    -0.007 A 
HETATM    6  C8  UNL     1     -36.466  16.865  -5.836  1.00 20.00     0.011 C 
ENDBRANCH   1   3
BRANCH   1   7
HETATM    7  C9  UNL     1     -34.950  14.011  -3.905  1.00 20.00     0.079 C 
BRANCH   7   8
HETATM    8  C10 UNL     1     -34.956  15.233  -2.989  1.00 20.00     0.012 C 
BRANCH   8   9
HETATM    9  C6  UNL     1     -33.606  15.930  -2.983  1.00 20.00    -0.014 A 
HETATM   10  C2  UNL     1     -33.444  17.277  -3.632  1.00 20.00     0.005 A 
HETATM   11  C3  UNL     1     -33.389  17.152  -2.134  1.00 20.00     0.005 A 
ENDBRANCH   8   9
ENDBRANCH   7   8
ENDBRANCH   1   7
TORSDOF 4
ENDMDL
MODEL 4
REMARK VINA RESULT:      -5.2      9.024     10.317
REMARK  4 active torsions:
REMARK  status: ('A' for Active; 'I' for Inactive)
REMARK    1  A    between atoms: C1_1  and  C5_5 
REMARK    2  A    between atoms: C1_1  and  C9_9 
REMARK    3  A    between atoms: C6_6  and  C10_10 
REMARK    4  A    between atoms: C9_9  and  C10_10 
ROOT
HETATM    1  C1  UNL     1     -41.700   5.564  -0.814  1.00 20.00     0.131 C 
HETATM    2  O11 UNL     1     -40.634   5.259  -1.347  1.00 20.00    -0.298 OA
ENDROOT
BRANCH   1   3
HETATM    3  C5  UNL     1     -41.733   6.156   0.571  1.00 20.00     0.059 A 
HETATM    4  C4  UNL     1     -42.922   6.965   0.959  1.00 20.00     0.017 A 
HETATM    5  C7  UNL     1     -41.590   7.629   0.747  1.00 20.00    -0.007 A 
HETATM    6  C8  UNL     1     -41.403   8.578  -0.387  1.00 20.00     0.011 C 
ENDBRANCH   1   3
BRANCH   1   7
HETATM    7  C9  UNL     1     -43.046   5.373  -1.491  1.00 20.00     0.079 C 
BRANCH   7   8
HETATM    8  C10 UNL     1     -43.414   3.901  -1.656  1.00 20.00     0.012 C 
BRANCH   8   9
HETATM    9  C6  UNL     1     -43.187   3.427  -3.081  1.00 20.00    -0.014 A 
HETATM   10  C2  UNL     1     -41.878   2.800  -3.473  1.00 20.00     0.005 A 
HETATM   11  C3  UNL     1     -43.119   1.956  -3.388  1.00 20.00     0.005 A 
ENDBRANCH   8   9
ENDBRANCH   7   8
ENDBRANCH   1   7
TORSDOF 4
ENDMDL
MODEL 5
REMARK VINA RESULT:      -5.1     10.775     11.683
REMARK  4 active torsions:
REMARK  status: ('A' for Active; 'I' for Inactive)
REMARK    1  A    between atoms: C1_1  and  C5_5 
REMARK    2  A    between atoms: C1_1  and  C9_9 
REMARK    3  A    between atoms: C6_6  and  C10_10 
REMARK    4  A    between atoms: C9_9  and  C10_10 
ROOT
HETATM    1  C1  UNL     1     -33.951  14.729  -4.598  1.00 20.00     0.131 C 
HETATM    2  O11 UNL     1     -33.804  14.551  -5.806  1.00 20.00    -0.298 OA
ENDROOT
BRANCH   1   3
HETATM    3  C5  UNL     1     -35.134  14.151  -3.867  1.00 20.00     0.059 A 
HETATM    4  C4  UNL     1     -36.204  13.498  -4.671  1.00 20.00     0.017 A 
HETATM    5  C7  UNL     1     -36.467  14.808  -3.983  1.00 20.00    -0.007 A 
HETATM    6  C8  UNL     1     -36.709  16.037  -4.788  1.00 20.00     0.011 C 
ENDBRANCH   1   3
BRANCH   1   7
HETATM    7  C9  UNL     1     -32.973  15.531  -3.757  1.00 20.00     0.079 C 
BRANCH   7   8
HETATM    8  C10 UNL     1     -33.548  16.871  -3.308  1.00 20.00     0.012 C 
BRANCH   8   9
HETATM    9  C6  UNL     1     -33.758  16.911  -1.804  1.00 20.00    -0.014 A 
HETATM   10  C2  UNL     1     -34.357  18.127  -1.153  1.00 20.00     0.005 A 
HETATM   11  C3  UNL     1     -35.149  16.851  -1.232  1.00 20.00     0.005 A 
ENDBRANCH   8   9
ENDBRANCH   7   8
ENDBRANCH   1   7
TORSDOF 4
ENDMDL
MODEL 6
REMARK VINA RESULT:      -5.0     10.562     12.052
REMARK  4 active torsions:
REMARK  status: ('A' for Active; 'I' for Inactive)
REMARK    1  A    between atoms: C1_1  and  C5_5 
REMARK    2  A    between atoms: C1_1  and  C9_9 
REMARK    3  A    between atoms: C6_6  and  C10_10 
REMARK    4  A    between atoms: C9_9  and  C10_10 
ROOT
HETATM    1  C1  UNL     1     -33.859  14.622  -4.541  1.00 20.00     0.131 C 
HETATM    2  O11 UNL     1     -33.501  14.516  -5.713  1.00 20.00    -0.298 OA
ENDROOT
BRANCH   1   3
HETATM    3  C5  UNL     1     -33.200  15.611  -3.615  1.00 20.00     0.059 A 
HETATM    4  C4  UNL     1     -34.009  16.174  -2.499  1.00 20.00     0.017 A 
HETATM    5  C7  UNL     1     -33.606  17.044  -3.656  1.00 20.00    -0.007 A 
HETATM    6  C8  UNL     1     -34.642  17.579  -4.583  1.00 20.00     0.011 C 
ENDBRANCH   1   3
BRANCH   1   7
HETATM    7  C9  UNL     1     -34.973  13.784  -3.939  1.00 20.00     0.079 C 
BRANCH   7   8
HETATM    8  C10 UNL     1     -36.278  13.894  -4.725  1.00 20.00     0.012 C 
BRANCH   8   9
HETATM    9  C6  UNL     1     -37.211  14.924  -4.111  1.00 20.00    -0.014 A 
HETATM   10  C2  UNL     1     -37.993  15.859  -4.991  1.00 20.00     0.005 A 
HETATM   11  C3  UNL     1     -38.702  14.766  -4.241  1.00 20.00     0.005 A 
ENDBRANCH   8   9
ENDBRANCH   7   8
ENDBRANCH   1   7
TORSDOF 4
ENDMDL
MODEL 7
REMARK VINA RESULT:      -4.9     10.880     12.366
REMARK  4 active torsions:
REMARK  status: ('A' for Active; 'I' for Inactive)
REMARK    1  A    between atoms: C1_1  and  C5_5 
REMARK    2  A    between atoms: C1_1  and  C9_9 
REMARK    3  A    between atoms: C6_6  and  C10_10 
REMARK    4  A    between atoms: C9_9  and  C10_10 
ROOT
HETATM    1  C1  UNL     1     -34.458  15.874  -2.516  1.00 20.00     0.131 C 
HETATM    2  O11 UNL     1     -35.146  16.222  -1.557  1.00 20.00    -0.298 OA
ENDROOT
BRANCH   1   3
HETATM    3  C5  UNL     1     -33.137  16.538  -2.805  1.00 20.00     0.059 A 
HETATM    4  C4  UNL     1     -32.733  17.693  -1.957  1.00 20.00     0.017 A 
HETATM    5  C7  UNL     1     -33.113  17.906  -3.396  1.00 20.00    -0.007 A 
HETATM    6  C8  UNL     1     -34.342  18.676  -3.736  1.00 20.00     0.011 C 
ENDBRANCH   1   3
BRANCH   1   7
HETATM    7  C9  UNL     1     -34.873  14.768  -3.470  1.00 20.00     0.079 C 
BRANCH   7   8
HETATM    8  C10 UNL     1     -33.927  14.637  -4.661  1.00 20.00     0.012 C 
BRANCH   8   9
HETATM    9  C6  UNL     1     -34.630  14.965  -5.968  1.00 20.00    -0.014 A 
HETATM   10  C2  UNL     1     -34.510  16.337  -6.570  1.00 20.00     0.005 A 
HETATM   11  C3  UNL     1     -33.832  15.167  -7.226  1.00 20.00     0.005 A 
ENDBRANCH   8   9
ENDBRANCH   7   8
ENDBRANCH   1   7
TORSDOF 4
ENDMDL
MODEL 8
REMARK VINA RESULT:      -4.9     10.953     11.957
REMARK  4 active torsions:
REMARK  status: ('A' for Active; 'I' for Inactive)
REMARK    1  A    between atoms: C1_1  and  C5_5 
REMARK    2  A    between atoms: C1_1  and  C9_9 
REMARK    3  A    between atoms: C6_6  and  C10_10 
REMARK    4  A    between atoms: C9_9  and  C10_10 
ROOT
HETATM    1  C1  UNL     1     -33.549  14.828  -4.708  1.00 20.00     0.131 C 
HETATM    2  O11 UNL     1     -32.941  13.781  -4.488  1.00 20.00    -0.298 OA
ENDROOT
BRANCH   1   3
HETATM    3  C5  UNL     1     -34.402  14.985  -5.939  1.00 20.00     0.059 A 
HETATM    4  C4  UNL     1     -35.506  15.984  -5.905  1.00 20.00     0.017 A 
HETATM    5  C7  UNL     1     -35.815  14.513  -5.924  1.00 20.00    -0.007 A 
HETATM    6  C8  UNL     1     -36.454  13.870  -4.742  1.00 20.00     0.011 C 
ENDBRANCH   1   3
BRANCH   1   7
HETATM    7  C9  UNL     1     -33.494  16.025  -3.775  1.00 20.00     0.079 C 
BRANCH   7   8
HETATM    8  C10 UNL     1     -34.252  15.787  -2.472  1.00 20.00     0.012 C 
BRANCH   8   9
HETATM    9  C6  UNL     1     -34.786  17.087  -1.894  1.00 20.00    -0.014 A 
HETATM   10  C2  UNL     1     -35.408  17.109  -0.525  1.00 20.00     0.005 A 
HETATM   11  C3  UNL     1     -34.071  17.758  -0.753  1.00 20.00     0.005 A 
ENDBRANCH   8   9
ENDBRANCH   7   8
ENDBRANCH   1   7
TORSDOF 4
ENDMDL
MODEL 9
REMARK VINA RESULT:      -4.9     11.502     12.631
REMARK  4 active torsions:
REMARK  status: ('A' for Active; 'I' for Inactive)
REMARK    1  A    between atoms: C1_1  and  C5_5 
REMARK    2  A    between atoms: C1_1  and  C9_9 
REMARK    3  A    between atoms: C6_6  and  C10_10 
REMARK    4  A    between atoms: C9_9  and  C10_10 
ROOT
HETATM    1  C1  UNL     1     -33.028  17.944  -3.258  1.00 20.00     0.131 C 
HETATM    2  O11 UNL     1     -33.428  18.211  -4.391  1.00 20.00    -0.298 OA
ENDROOT
BRANCH   1   3
HETATM    3  C5  UNL     1     -33.198  16.564  -2.680  1.00 20.00     0.059 A 
HETATM    4  C4  UNL     1     -33.998  15.574  -3.453  1.00 20.00     0.017 A 
HETATM    5  C7  UNL     1     -34.530  16.138  -2.165  1.00 20.00    -0.007 A 
HETATM    6  C8  UNL     1     -35.734  17.015  -2.176  1.00 20.00     0.011 C 
ENDBRANCH   1   3
BRANCH   1   7
HETATM    7  C9  UNL     1     -32.341  18.962  -2.365  1.00 20.00     0.079 C 
BRANCH   7   8
HETATM    8  C10 UNL     1     -31.844  18.352  -1.057  1.00 20.00     0.012 C 
BRANCH   8   9
HETATM    9  C6  UNL     1     -32.530  18.978   0.145  1.00 20.00    -0.014 A 
HETATM   10  C2  UNL     1     -33.664  18.264   0.828  1.00 20.00     0.005 A 
HETATM   11  C3  UNL     1     -32.334  18.393   1.517  1.00 20.00     0.005 A 
ENDBRANCH   8   9
ENDBRANCH   7   8
ENDBRANCH   1   7
TORSDOF 4
ENDMDL
