MODEL 1
REMARK VINA RESULT:      -4.6      0.000      0.000
REMARK  3 active torsions:
REMARK  status: ('A' for Active; 'I' for Inactive)
REMARK    1  A    between atoms: C6_6  and  C10_10 
REMARK    2  A    between atoms: C7_7  and  C11_11 
REMARK    3  A    between atoms: C11_11  and  N12_12 
ROOT
HETATM    1  C1  UNL     1     -36.408  13.517  -4.563  1.00 20.00     0.014 C 
HETATM    2  C2  UNL     1     -35.337  14.015  -4.348  1.00 20.00    -0.081 C 
HETATM    3  C11 UNL     1     -34.023  14.621  -4.085  1.00 20.00     0.301 C 
ENDROOT
BRANCH   3   4
HETATM    4  C7  UNL     1     -34.168  16.016  -3.498  1.00 20.00     0.031 C 
HETATM    5  C4  UNL     1     -35.265  16.111  -2.429  1.00 20.00     0.008 C 
HETATM    6  C3  UNL     1     -34.658  16.877  -1.251  1.00 20.00     0.005 C 
HETATM    7  C6  UNL     1     -33.383  17.527  -1.786  1.00 20.00    -0.014 C 
HETATM    8  C5  UNL     1     -32.892  16.503  -2.807  1.00 20.00     0.012 C 
BRANCH   7   9
HETATM    9  C10 UNL     1     -33.654  18.895  -2.409  1.00 20.00     0.000 C 
HETATM   10  C8  UNL     1     -32.620  19.261  -3.426  1.00 20.00     0.005 C 
ENDBRANCH   7   9
ENDBRANCH   3   4
BRANCH   3  11
HETATM   11  N12 UNL     1     -33.249  14.658  -5.301  1.00 20.00     0.095 N 
HETATM   12  C9  UNL     1     -34.007  15.254  -6.400  1.00 20.00     0.308 C 
HETATM   13  H31 UNL     1     -32.976  13.708  -5.571  1.00 20.00     0.317 HD
ENDBRANCH   3  11
TORSDOF 3
ENDMDL
MODEL 2
REMARK VINA RESULT:      -4.6      0.964      2.100
REMARK  3 active torsions:
REMARK  status: ('A' for Active; 'I' for Inactive)
REMARK    1  A    between atoms: C6_6  and  C10_10 
REMARK    2  A    between atoms: C7_7  and  C11_11 
REMARK    3  A    between atoms: C11_11  and  N12_12 
ROOT
HETATM    1  C1  UNL     1     -36.372  13.562  -4.537  1.00 20.00     0.014 C 
HETATM    2  C2  UNL     1     -35.356  14.159  -4.306  1.00 20.00    -0.081 C 
HETATM    3  C11 UNL     1     -34.109  14.886  -4.025  1.00 20.00     0.301 C 
ENDROOT
BRANCH   3   4
HETATM    4  C7  UNL     1     -34.205  15.661  -2.721  1.00 20.00     0.031 C 
HETATM    5  C4  UNL     1     -33.144  16.763  -2.593  1.00 20.00     0.008 C 
HETATM    6  C3  UNL     1     -33.877  18.017  -2.110  1.00 20.00     0.005 C 
HETATM    7  C6  UNL     1     -35.241  17.540  -1.613  1.00 20.00    -0.014 C 
HETATM    8  C5  UNL     1     -35.548  16.376  -2.553  1.00 20.00     0.012 C 
BRANCH   7   9
HETATM    9  C10 UNL     1     -35.201  17.117  -0.146  1.00 20.00     0.000 C 
HETATM   10  C8  UNL     1     -34.400  18.065   0.689  1.00 20.00     0.005 C 
ENDBRANCH   7   9
ENDBRANCH   3   4
BRANCH   3  11
HETATM   11  N12 UNL     1     -33.801  15.772  -5.121  1.00 20.00     0.095 N 
HETATM   12  C9  UNL     1     -33.825  15.066  -6.401  1.00 20.00     0.308 C 
HETATM   13  H31 UNL     1     -32.870  16.178  -4.990  1.00 20.00     0.317 HD
ENDBRANCH   3  11
TORSDOF 3
ENDMDL
MODEL 3
REMARK VINA RESULT:      -4.5      2.055      4.641
REMARK  3 active torsions:
REMARK  status: ('A' for Active; 'I' for Inactive)
REMARK    1  A    between atoms: C6_6  and  C10_10 
REMARK    2  A    between atoms: C7_7  and  C11_11 
REMARK    3  A    between atoms: C11_11  and  N12_12 
ROOT
HETATM    1  C1  UNL     1     -33.120  18.364  -0.746  1.00 20.00     0.014 C 
HETATM    2  C2  UNL     1     -33.921  17.549  -1.114  1.00 20.00    -0.081 C 
HETATM    3  C11 UNL     1     -34.903  16.550  -1.561  1.00 20.00     0.301 C 
ENDROOT
BRANCH   3   4
HETATM    4  C7  UNL     1     -34.706  16.201  -3.027  1.00 20.00     0.031 C 
HETATM    5  C4  UNL     1     -33.234  15.977  -3.402  1.00 20.00     0.008 C 
HETATM    6  C3  UNL     1     -33.187  14.690  -4.229  1.00 20.00     0.005 C 
HETATM    7  C6  UNL     1     -34.631  14.400  -4.634  1.00 20.00    -0.014 C 
HETATM    8  C5  UNL     1     -35.422  14.910  -3.431  1.00 20.00     0.012 C 
BRANCH   7   9
HETATM    9  C10 UNL     1     -35.016  15.105  -5.933  1.00 20.00     0.000 C 
HETATM   10  C8  UNL     1     -33.906  15.079  -6.935  1.00 20.00     0.005 C 
ENDBRANCH   7   9
ENDBRANCH   3   4
BRANCH   3  11
HETATM   11  N12 UNL     1     -36.240  17.040  -1.330  1.00 20.00     0.095 N 
HETATM   12  C9  UNL     1     -36.534  18.204  -2.165  1.00 20.00     0.308 C 
HETATM   13  H31 UNL     1     -36.349  17.308  -0.348  1.00 20.00     0.317 HD
ENDBRANCH   3  11
TORSDOF 3
ENDMDL
MODEL 4
REMARK VINA RESULT:      -4.4      2.086      4.912
REMARK  3 active torsions:
REMARK  status: ('A' for Active; 'I' for Inactive)
REMARK    1  A    between atoms: C6_6  and  C10_10 
REMARK    2  A    between atoms: C7_7  and  C11_11 
REMARK    3  A    between atoms: C11_11  and  N12_12 
ROOT
HETATM    1  C1  UNL     1     -34.695  17.838   0.988  1.00 20.00     0.014 C 
HETATM    2  C2  UNL     1     -34.180  18.006  -0.084  1.00 20.00    -0.081 C 
HETATM    3  C11 UNL     1     -33.548  18.216  -1.395  1.00 20.00     0.301 C 
ENDROOT
BRANCH   3   4
HETATM    4  C7  UNL     1     -34.199  17.354  -2.465  1.00 20.00     0.031 C 
HETATM    5  C4  UNL     1     -33.206  16.851  -3.523  1.00 20.00     0.008 C 
HETATM    6  C3  UNL     1     -33.489  15.359  -3.711  1.00 20.00     0.005 C 
HETATM    7  C6  UNL     1     -34.849  15.106  -3.062  1.00 20.00    -0.014 C 
HETATM    8  C5  UNL     1     -34.848  16.090  -1.895  1.00 20.00     0.012 C 
BRANCH   7   9
HETATM    9  C10 UNL     1     -36.003  15.348  -4.034  1.00 20.00     0.000 C 
HETATM   10  C8  UNL     1     -36.584  14.066  -4.541  1.00 20.00     0.005 C 
ENDBRANCH   7   9
ENDBRANCH   3   4
BRANCH   3  11
HETATM   11  N12 UNL     1     -32.135  17.938  -1.308  1.00 20.00     0.095 N 
HETATM   12  C9  UNL     1     -31.467  18.852  -0.383  1.00 20.00     0.308 C 
HETATM   13  H31 UNL     1     -31.703  18.035  -2.231  1.00 20.00     0.317 HD
ENDBRANCH   3  11
TORSDOF 3
ENDMDL
MODEL 5
REMARK VINA RESULT:      -4.3      1.870      3.133
REMARK  3 active torsions:
REMARK  status: ('A' for Active; 'I' for Inactive)
REMARK    1  A    between atoms: C6_6  and  C10_10 
REMARK    2  A    between atoms: C7_7  and  C11_11 
REMARK    3  A    between atoms: C11_11  and  N12_12 
ROOT
HETATM    1  C1  UNL     1     -33.131  14.401  -4.412  1.00 20.00     0.014 C 
HETATM    2  C2  UNL     1     -34.061  15.017  -3.965  1.00 20.00    -0.081 C 
HETATM    3  C11 UNL     1     -35.200  15.771  -3.422  1.00 20.00     0.301 C 
ENDROOT
BRANCH   3   4
HETATM    4  C7  UNL     1     -34.908  16.276  -2.019  1.00 20.00     0.031 C 
HETATM    5  C4  UNL     1     -33.558  16.999  -1.906  1.00 20.00     0.008 C 
HETATM    6  C3  UNL     1     -33.819  18.288  -1.124  1.00 20.00     0.005 C 
HETATM    7  C6  UNL     1     -35.196  18.119  -0.485  1.00 20.00    -0.014 C 
HETATM    8  C5  UNL     1     -35.945  17.288  -1.524  1.00 20.00     0.012 C 
BRANCH   7   9
HETATM    9  C10 UNL     1     -35.117  17.427   0.875  1.00 20.00     0.000 C 
HETATM   10  C8  UNL     1     -34.094  18.059   1.765  1.00 20.00     0.005 C 
ENDBRANCH   7   9
ENDBRANCH   3   4
BRANCH   3  11
HETATM   11  N12 UNL     1     -36.383  14.945  -3.430  1.00 20.00     0.095 N 
HETATM   12  C9  UNL     1     -37.330  15.377  -4.455  1.00 20.00     0.308 C 
HETATM   13  H31 UNL     1     -36.846  14.991  -2.517  1.00 20.00     0.317 HD
ENDBRANCH   3  11
TORSDOF 3
ENDMDL
MODEL 6
REMARK VINA RESULT:      -4.3      1.503      1.835
REMARK  3 active torsions:
REMARK  status: ('A' for Active; 'I' for Inactive)
REMARK    1  A    between atoms: C6_6  and  C10_10 
REMARK    2  A    between atoms: C7_7  and  C11_11 
REMARK    3  A    between atoms: C11_11  and  N12_12 
ROOT
HETATM    1  C1  UNL     1     -38.646  14.728  -4.212  1.00 20.00     0.014 C 
HETATM    2  C2  UNL     1     -37.469  14.577  -4.393  1.00 20.00    -0.081 C 
HETATM    3  C11 UNL     1     -36.028  14.388  -4.616  1.00 20.00     0.301 C 
ENDROOT
BRANCH   3   4
HETATM    4  C7  UNL     1     -35.230  15.574  -4.101  1.00 20.00     0.031 C 
HETATM    5  C4  UNL     1     -35.811  16.182  -2.816  1.00 20.00     0.008 C 
HETATM    6  C3  UNL     1     -34.635  16.383  -1.859  1.00 20.00     0.005 C 
HETATM    7  C6  UNL     1     -33.374  16.250  -2.711  1.00 20.00    -0.014 C 
HETATM    8  C5  UNL     1     -33.784  15.211  -3.752  1.00 20.00     0.012 C 
BRANCH   7   9
HETATM    9  C10 UNL     1     -32.963  17.580  -3.340  1.00 20.00     0.000 C 
HETATM   10  C8  UNL     1     -32.554  18.584  -2.308  1.00 20.00     0.005 C 
ENDBRANCH   7   9
ENDBRANCH   3   4
BRANCH   3  11
HETATM   11  N12 UNL     1     -35.773  14.175  -6.020  1.00 20.00     0.095 N 
HETATM   12  C9  UNL     1     -35.979  15.399  -6.792  1.00 20.00     0.308 C 
HETATM   13  H31 UNL     1     -36.400  13.451  -6.383  1.00 20.00     0.317 HD
ENDBRANCH   3  11
TORSDOF 3
ENDMDL
MODEL 7
REMARK VINA RESULT:      -4.3      1.623      2.529
REMARK  3 active torsions:
REMARK  status: ('A' for Active; 'I' for Inactive)
REMARK    1  A    between atoms: C6_6  and  C10_10 
REMARK    2  A    between atoms: C7_7  and  C11_11 
REMARK    3  A    between atoms: C11_11  and  N12_12 
ROOT
HETATM    1  C1  UNL     1     -36.776  17.087  -4.686  1.00 20.00     0.014 C 
HETATM    2  C2  UNL     1     -36.187  16.361  -3.932  1.00 20.00    -0.081 C 
HETATM    3  C11 UNL     1     -35.469  15.470  -3.009  1.00 20.00     0.301 C 
ENDROOT
BRANCH   3   4
HETATM    4  C7  UNL     1     -34.377  16.217  -2.259  1.00 20.00     0.031 C 
HETATM    5  C4  UNL     1     -33.148  16.521  -3.127  1.00 20.00     0.008 C 
HETATM    6  C3  UNL     1     -32.792  17.989  -2.876  1.00 20.00     0.005 C 
HETATM    7  C6  UNL     1     -33.560  18.398  -1.620  1.00 20.00    -0.014 C 
HETATM    8  C5  UNL     1     -34.843  17.577  -1.734  1.00 20.00     0.012 C 
BRANCH   7   9
HETATM    9  C10 UNL     1     -32.778  18.092  -0.344  1.00 20.00     0.000 C 
HETATM   10  C8  UNL     1     -31.323  18.406  -0.491  1.00 20.00     0.005 C 
ENDBRANCH   7   9
ENDBRANCH   3   4
BRANCH   3  11
HETATM   11  N12 UNL     1     -34.914  14.355  -3.737  1.00 20.00     0.095 N 
HETATM   12  C9  UNL     1     -35.955  13.596  -4.427  1.00 20.00     0.308 C 
HETATM   13  H31 UNL     1     -34.425  13.726  -3.093  1.00 20.00     0.317 HD
ENDBRANCH   3  11
TORSDOF 3
ENDMDL
MODEL 8
REMARK VINA RESULT:      -4.3      1.685      4.583
REMARK  3 active torsions:
REMARK  status: ('A' for Active; 'I' for Inactive)
REMARK    1  A    between atoms: C6_6  and  C10_10 
REMARK    2  A    between atoms: C7_7  and  C11_11 
REMARK    3  A    between atoms: C11_11  and  N12_12 
ROOT
HETATM    1  C1  UNL     1     -32.562  17.840  -2.031  1.00 20.00     0.014 C 
HETATM    2  C2  UNL     1     -33.387  16.980  -2.179  1.00 20.00    -0.081 C 
HETATM    3  C11 UNL     1     -34.397  15.927  -2.356  1.00 20.00     0.301 C 
ENDROOT
BRANCH   3   4
HETATM    4  C7  UNL     1     -34.400  15.400  -3.782  1.00 20.00     0.031 C 
HETATM    5  C4  UNL     1     -35.012  13.997  -3.907  1.00 20.00     0.008 C 
HETATM    6  C3  UNL     1     -35.974  14.047  -5.096  1.00 20.00     0.005 C 
HETATM    7  C6  UNL     1     -35.634  15.328  -5.857  1.00 20.00    -0.014 C 
HETATM    8  C5  UNL     1     -35.214  16.277  -4.737  1.00 20.00     0.012 C 
BRANCH   7   9
HETATM    9  C10 UNL     1     -34.528  15.107  -6.887  1.00 20.00     0.000 C 
HETATM   10  C8  UNL     1     -34.206  16.360  -7.639  1.00 20.00     0.005 C 
ENDBRANCH   7   9
ENDBRANCH   3   4
BRANCH   3  11
HETATM   11  N12 UNL     1     -35.700  16.432  -1.998  1.00 20.00     0.095 N 
HETATM   12  C9  UNL     1     -35.670  17.119  -0.708  1.00 20.00     0.308 C 
HETATM   13  H31 UNL     1     -36.370  15.660  -1.941  1.00 20.00     0.317 HD
ENDBRANCH   3  11
TORSDOF 3
ENDMDL
MODEL 9
REMARK VINA RESULT:      -4.3      2.021      2.805
REMARK  3 active torsions:
REMARK  status: ('A' for Active; 'I' for Inactive)
REMARK    1  A    between atoms: C6_6  and  C10_10 
REMARK    2  A    between atoms: C7_7  and  C11_11 
REMARK    3  A    between atoms: C11_11  and  N12_12 
ROOT
HETATM    1  C1  UNL     1     -35.574  14.786  -6.670  1.00 20.00     0.014 C 
HETATM    2  C2  UNL     1     -36.054  15.236  -5.666  1.00 20.00    -0.081 C 
HETATM    3  C11 UNL     1     -36.646  15.787  -4.438  1.00 20.00     0.301 C 
ENDROOT
BRANCH   3   4
HETATM    4  C7  UNL     1     -35.572  16.282  -3.482  1.00 20.00     0.031 C 
HETATM    5  C4  UNL     1     -34.517  15.215  -3.156  1.00 20.00     0.008 C 
HETATM    6  C3  UNL     1     -33.154  15.897  -3.291  1.00 20.00     0.005 C 
HETATM    7  C6  UNL     1     -33.437  17.398  -3.320  1.00 20.00    -0.014 C 
HETATM    8  C5  UNL     1     -34.782  17.468  -4.040  1.00 20.00     0.012 C 
BRANCH   7   9
HETATM    9  C10 UNL     1     -33.489  18.000  -1.917  1.00 20.00     0.000 C 
HETATM   10  C8  UNL     1     -32.129  18.114  -1.305  1.00 20.00     0.005 C 
ENDBRANCH   7   9
ENDBRANCH   3   4
BRANCH   3  11
HETATM   11  N12 UNL     1     -37.473  14.791  -3.802  1.00 20.00     0.095 N 
HETATM   12  C9  UNL     1     -38.874  14.929  -4.197  1.00 20.00     0.308 C 
HETATM   13  H31 UNL     1     -37.411  14.883  -2.784  1.00 20.00     0.317 HD
ENDBRANCH   3  11
TORSDOF 3
ENDMDL
