MODEL 1
REMARK VINA RESULT:      -5.1      0.000      0.000
REMARK  1 active torsions:
REMARK  status: ('A' for Active; 'I' for Inactive)
REMARK    1  A    between atoms: C3_3  and  C7_7 
ROOT
HETATM    1  C1  UNL     1     -26.884  19.263   7.198  1.00 20.00     0.021 C 
HETATM    2  C2  UNL     1     -25.715  19.102   7.419  1.00 20.00    -0.039 C 
HETATM    3  C3  UNL     1     -24.310  18.907   7.684  1.00 20.00     0.208 C 
HETATM    4  O10 UNL     1     -23.538  18.701   6.755  1.00 20.00    -0.283 OA
ENDROOT
BRANCH   3   5
HETATM    5  C7  UNL     1     -23.889  18.975   9.119  1.00 20.00     0.100 C 
HETATM    6  C6  UNL     1     -22.396  18.661   9.268  1.00 20.00     0.047 C 
HETATM    7  C8  UNL     1     -22.421  17.436  10.182  1.00 20.00     0.122 C 
HETATM    8  C4  UNL     1     -22.845  17.821  11.599  1.00 20.00     0.034 C 
HETATM    9  O11 UNL     1     -23.604  16.757   9.707  1.00 20.00    -0.380 OA
HETATM   10  C5  UNL     1     -24.342  18.089  11.425  1.00 20.00     0.035 C 
HETATM   11  C9  UNL     1     -24.535  17.846   9.929  1.00 20.00     0.134 C 
ENDBRANCH   3   5
TORSDOF 1
ENDMDL
MODEL 2
REMARK VINA RESULT:      -4.6     15.954     17.734
REMARK  1 active torsions:
REMARK  status: ('A' for Active; 'I' for Inactive)
REMARK    1  A    between atoms: C3_3  and  C7_7 
ROOT
HETATM    1  C1  UNL     1     -38.508  14.973  -4.346  1.00 20.00     0.021 C 
HETATM    2  C2  UNL     1     -37.428  14.450  -4.291  1.00 20.00    -0.039 C 
HETATM    3  C3  UNL     1     -36.131  13.821  -4.226  1.00 20.00     0.208 C 
HETATM    4  O10 UNL     1     -35.956  12.730  -4.754  1.00 20.00    -0.283 OA
ENDROOT
BRANCH   3   5
HETATM    5  C7  UNL     1     -35.063  14.575  -3.496  1.00 20.00     0.100 C 
HETATM    6  C6  UNL     1     -35.604  15.899  -2.947  1.00 20.00     0.047 C 
HETATM    7  C8  UNL     1     -34.707  16.921  -3.645  1.00 20.00     0.122 C 
HETATM    8  C4  UNL     1     -33.283  16.864  -3.093  1.00 20.00     0.034 C 
HETATM    9  O11 UNL     1     -34.534  16.302  -4.939  1.00 20.00    -0.380 OA
HETATM   10  C5  UNL     1     -32.759  15.555  -3.689  1.00 20.00     0.035 C 
HETATM   11  C9  UNL     1     -33.975  15.051  -4.465  1.00 20.00     0.134 C 
ENDBRANCH   3   5
TORSDOF 1
ENDMDL
MODEL 3
REMARK VINA RESULT:      -4.5     15.921     17.751
REMARK  1 active torsions:
REMARK  status: ('A' for Active; 'I' for Inactive)
REMARK    1  A    between atoms: C3_3  and  C7_7 
ROOT
HETATM    1  C1  UNL     1     -38.765  14.755  -4.193  1.00 20.00     0.021 C 
HETATM    2  C2  UNL     1     -37.621  14.422  -4.340  1.00 20.00    -0.039 C 
HETATM    3  C3  UNL     1     -36.245  14.021  -4.516  1.00 20.00     0.208 C 
HETATM    4  O10 UNL     1     -35.957  12.830  -4.546  1.00 20.00    -0.283 OA
ENDROOT
BRANCH   3   5
HETATM    5  C7  UNL     1     -35.244  15.125  -4.653  1.00 20.00     0.100 C 
HETATM    6  C6  UNL     1     -33.868  14.685  -4.140  1.00 20.00     0.047 C 
HETATM    7  C8  UNL     1     -33.611  15.694  -3.021  1.00 20.00     0.122 C 
HETATM    8  C4  UNL     1     -33.347  17.087  -3.592  1.00 20.00     0.034 C 
HETATM    9  O11 UNL     1     -34.941  15.857  -2.481  1.00 20.00    -0.380 OA
HETATM   10  C5  UNL     1     -34.741  17.512  -4.058  1.00 20.00     0.035 C 
HETATM   11  C9  UNL     1     -35.581  16.284  -3.709  1.00 20.00     0.134 C 
ENDBRANCH   3   5
TORSDOF 1
ENDMDL
MODEL 4
REMARK VINA RESULT:      -4.5      2.117      3.147
REMARK  1 active torsions:
REMARK  status: ('A' for Active; 'I' for Inactive)
REMARK    1  A    between atoms: C3_3  and  C7_7 
ROOT
HETATM    1  C1  UNL     1     -21.299  16.860   7.034  1.00 20.00     0.021 C 
HETATM    2  C2  UNL     1     -21.848  17.449   7.924  1.00 20.00    -0.039 C 
HETATM    3  C3  UNL     1     -22.507  18.158   8.995  1.00 20.00     0.208 C 
HETATM    4  O10 UNL     1     -22.101  19.263   9.334  1.00 20.00    -0.283 OA
ENDROOT
BRANCH   3   5
HETATM    5  C7  UNL     1     -23.676  17.468   9.628  1.00 20.00     0.100 C 
HETATM    6  C6  UNL     1     -24.718  18.484  10.109  1.00 20.00     0.047 C 
HETATM    7  C8  UNL     1     -24.775  18.191  11.608  1.00 20.00     0.122 C 
HETATM    8  C4  UNL     1     -25.443  16.843  11.876  1.00 20.00     0.034 C 
HETATM    9  O11 UNL     1     -23.391  17.880  11.885  1.00 20.00    -0.380 OA
HETATM   10  C5  UNL     1     -24.367  15.855  11.423  1.00 20.00     0.035 C 
HETATM   11  C9  UNL     1     -23.261  16.790  10.938  1.00 20.00     0.134 C 
ENDBRANCH   3   5
TORSDOF 1
ENDMDL
MODEL 5
REMARK VINA RESULT:      -4.4     15.017     17.277
REMARK  1 active torsions:
REMARK  status: ('A' for Active; 'I' for Inactive)
REMARK    1  A    between atoms: C3_3  and  C7_7 
ROOT
HETATM    1  C1  UNL     1     -35.551  17.254  -0.319  1.00 20.00     0.021 C 
HETATM    2  C2  UNL     1     -34.903  16.808  -1.226  1.00 20.00    -0.039 C 
HETATM    3  C3  UNL     1     -34.124  16.273  -2.317  1.00 20.00     0.208 C 
HETATM    4  O10 UNL     1     -33.015  16.734  -2.557  1.00 20.00    -0.283 OA
ENDROOT
BRANCH   3   5
HETATM    5  C7  UNL     1     -34.750  15.158  -3.097  1.00 20.00     0.100 C 
HETATM    6  C6  UNL     1     -33.904  14.803  -4.324  1.00 20.00     0.047 C 
HETATM    7  C8  UNL     1     -34.883  15.062  -5.469  1.00 20.00     0.122 C 
HETATM    8  C4  UNL     1     -35.992  14.010  -5.487  1.00 20.00     0.034 C 
HETATM    9  O11 UNL     1     -35.597  16.215  -4.971  1.00 20.00    -0.380 OA
HETATM   10  C5  UNL     1     -36.838  14.414  -4.278  1.00 20.00     0.035 C 
HETATM   11  C9  UNL     1     -36.065  15.616  -3.737  1.00 20.00     0.134 C 
ENDBRANCH   3   5
TORSDOF 1
ENDMDL
MODEL 6
REMARK VINA RESULT:      -4.4     15.869     16.947
REMARK  1 active torsions:
REMARK  status: ('A' for Active; 'I' for Inactive)
REMARK    1  A    between atoms: C3_3  and  C7_7 
ROOT
HETATM    1  C1  UNL     1     -32.465   8.006   1.501  1.00 20.00     0.021 C 
HETATM    2  C2  UNL     1     -32.736   6.904   1.892  1.00 20.00    -0.039 C 
HETATM    3  C3  UNL     1     -33.061   5.578   2.361  1.00 20.00     0.208 C 
HETATM    4  O10 UNL     1     -33.162   4.656   1.560  1.00 20.00    -0.283 OA
ENDROOT
BRANCH   3   5
HETATM    5  C7  UNL     1     -33.256   5.425   3.837  1.00 20.00     0.100 C 
HETATM    6  C6  UNL     1     -34.151   4.221   4.151  1.00 20.00     0.047 C 
HETATM    7  C8  UNL     1     -35.317   4.878   4.890  1.00 20.00     0.122 C 
HETATM    8  C4  UNL     1     -34.881   5.366   6.272  1.00 20.00     0.034 C 
HETATM    9  O11 UNL     1     -35.433   6.127   4.174  1.00 20.00    -0.380 OA
HETATM   10  C5  UNL     1     -34.025   6.586   5.927  1.00 20.00     0.035 C 
HETATM   11  C9  UNL     1     -34.078   6.590   4.400  1.00 20.00     0.134 C 
ENDBRANCH   3   5
TORSDOF 1
ENDMDL
MODEL 7
REMARK VINA RESULT:      -4.4     15.852     17.872
REMARK  1 active torsions:
REMARK  status: ('A' for Active; 'I' for Inactive)
REMARK    1  A    between atoms: C3_3  and  C7_7 
ROOT
HETATM    1  C1  UNL     1     -33.927  15.970  -7.918  1.00 20.00     0.021 C 
HETATM    2  C2  UNL     1     -34.453  15.365  -7.025  1.00 20.00    -0.039 C 
HETATM    3  C3  UNL     1     -35.088  14.636  -5.952  1.00 20.00     0.208 C 
HETATM    4  O10 UNL     1     -36.018  13.878  -6.197  1.00 20.00    -0.283 OA
ENDROOT
BRANCH   3   5
HETATM    5  C7  UNL     1     -34.543  14.870  -4.577  1.00 20.00     0.100 C 
HETATM    6  C6  UNL     1     -35.654  14.789  -3.525  1.00 20.00     0.047 C 
HETATM    7  C8  UNL     1     -35.598  16.183  -2.899  1.00 20.00     0.122 C 
HETATM    8  C4  UNL     1     -34.330  16.354  -2.062  1.00 20.00     0.034 C 
HETATM    9  O11 UNL     1     -35.288  16.995  -4.052  1.00 20.00    -0.380 OA
HETATM   10  C5  UNL     1     -33.249  16.471  -3.139  1.00 20.00     0.035 C 
HETATM   11  C9  UNL     1     -34.062  16.317  -4.423  1.00 20.00     0.134 C 
ENDBRANCH   3   5
TORSDOF 1
ENDMDL
MODEL 8
REMARK VINA RESULT:      -4.3     15.035     17.331
REMARK  1 active torsions:
REMARK  status: ('A' for Active; 'I' for Inactive)
REMARK    1  A    between atoms: C3_3  and  C7_7 
ROOT
HETATM    1  C1  UNL     1     -35.364  17.000  -0.543  1.00 20.00     0.021 C 
HETATM    2  C2  UNL     1     -34.742  16.737  -1.535  1.00 20.00    -0.039 C 
HETATM    3  C3  UNL     1     -33.994  16.421  -2.729  1.00 20.00     0.208 C 
HETATM    4  O10 UNL     1     -32.770  16.461  -2.709  1.00 20.00    -0.283 OA
ENDROOT
BRANCH   3   5
HETATM    5  C7  UNL     1     -34.797  16.057  -3.939  1.00 20.00     0.100 C 
HETATM    6  C6  UNL     1     -36.001  15.189  -3.558  1.00 20.00     0.047 C 
HETATM    7  C8  UNL     1     -35.736  13.912  -4.355  1.00 20.00     0.122 C 
HETATM    8  C4  UNL     1     -35.932  14.153  -5.852  1.00 20.00     0.034 C 
HETATM    9  O11 UNL     1     -34.296  13.824  -4.270  1.00 20.00    -0.380 OA
HETATM   10  C5  UNL     1     -34.699  14.985  -6.208  1.00 20.00     0.035 C 
HETATM   11  C9  UNL     1     -34.003  15.117  -4.854  1.00 20.00     0.134 C 
ENDBRANCH   3   5
TORSDOF 1
ENDMDL
MODEL 9
REMARK VINA RESULT:      -4.3     14.285     16.304
REMARK  1 active torsions:
REMARK  status: ('A' for Active; 'I' for Inactive)
REMARK    1  A    between atoms: C3_3  and  C7_7 
ROOT
HETATM    1  C1  UNL     1     -34.825  17.750   1.012  1.00 20.00     0.021 C 
HETATM    2  C2  UNL     1     -35.180  17.414  -0.085  1.00 20.00    -0.039 C 
HETATM    3  C3  UNL     1     -35.608  17.012  -1.404  1.00 20.00     0.208 C 
HETATM    4  O10 UNL     1     -36.585  17.543  -1.916  1.00 20.00    -0.283 OA
ENDROOT
BRANCH   3   5
HETATM    5  C7  UNL     1     -34.797  15.941  -2.066  1.00 20.00     0.100 C 
HETATM    6  C6  UNL     1     -33.459  16.496  -2.566  1.00 20.00     0.047 C 
HETATM    7  C8  UNL     1     -33.545  16.223  -4.068  1.00 20.00     0.122 C 
HETATM    8  C4  UNL     1     -33.439  14.726  -4.358  1.00 20.00     0.034 C 
HETATM    9  O11 UNL     1     -34.949  16.459  -4.315  1.00 20.00    -0.380 OA
HETATM   10  C5  UNL     1     -34.800  14.209  -3.885  1.00 20.00     0.035 C 
HETATM   11  C9  UNL     1     -35.462  15.486  -3.370  1.00 20.00     0.134 C 
ENDBRANCH   3   5
TORSDOF 1
ENDMDL
