MODEL 1
REMARK VINA RESULT:      -4.5      0.000      0.000
REMARK  3 active torsions:
REMARK  status: ('A' for Active; 'I' for Inactive)
REMARK    1  A    between atoms: C2_2  and  C8_8 
REMARK    2  A    between atoms: C6_6  and  C8_8 
REMARK    3  A    between atoms: C8_8  and  N9_9 
ROOT
HETATM    1  C8  UNL     1     -24.400  17.777  10.561  1.00 20.00     0.248 C 
ENDROOT
BRANCH   1   2
HETATM    2  C2  UNL     1     -23.947  16.650  11.447  1.00 20.00    -0.002 C 
HETATM    3  C1  UNL     1     -24.736  15.644  11.843  1.00 20.00     0.009 C 
ENDBRANCH   1   2
BRANCH   1   4
HETATM    4  C6  UNL     1     -23.350  18.135   9.527  1.00 20.00     0.048 C 
HETATM    5  C3  UNL     1     -22.441  16.988   9.143  1.00 20.00     0.035 C 
HETATM    6  C4  UNL     1     -21.881  17.471   7.821  1.00 20.00     0.168 C 
HETATM    7  O10 UNL     1     -22.899  18.275   7.208  1.00 20.00    -0.391 OA
HETATM    8  C5  UNL     1     -23.929  18.523   8.177  1.00 20.00     0.174 C 
ENDBRANCH   1   4
BRANCH   1   9
HETATM    9  N9  UNL     1     -24.701  18.908  11.408  1.00 20.00     0.087 N 
HETATM   10  C7  UNL     1     -26.143  19.117  11.525  1.00 20.00     0.307 C 
HETATM   11  H25 UNL     1     -24.278  19.755  11.019  1.00 20.00     0.316 HD
ENDBRANCH   1   9
TORSDOF 3
ENDMDL
MODEL 2
REMARK VINA RESULT:      -4.4      0.870      2.048
REMARK  3 active torsions:
REMARK  status: ('A' for Active; 'I' for Inactive)
REMARK    1  A    between atoms: C2_2  and  C8_8 
REMARK    2  A    between atoms: C6_6  and  C8_8 
REMARK    3  A    between atoms: C8_8  and  N9_9 
ROOT
HETATM    1  C8  UNL     1     -24.288  17.934  10.703  1.00 20.00     0.248 C 
ENDROOT
BRANCH   1   2
HETATM    2  C2  UNL     1     -25.460  18.875  10.653  1.00 20.00    -0.002 C 
HETATM    3  C1  UNL     1     -26.208  19.195  11.715  1.00 20.00     0.009 C 
ENDBRANCH   1   2
BRANCH   1   4
HETATM    4  C6  UNL     1     -23.284  18.230   9.606  1.00 20.00     0.048 C 
HETATM    5  C3  UNL     1     -22.396  17.059   9.244  1.00 20.00     0.035 C 
HETATM    6  C4  UNL     1     -21.893  17.468   7.875  1.00 20.00     0.168 C 
HETATM    7  O10 UNL     1     -22.934  18.244   7.265  1.00 20.00    -0.391 OA
HETATM    8  C5  UNL     1     -23.920  18.549   8.264  1.00 20.00     0.174 C 
ENDBRANCH   1   4
BRANCH   1   9
HETATM    9  N9  UNL     1     -24.800  16.588  10.588  1.00 20.00     0.087 N 
HETATM   10  C7  UNL     1     -24.627  15.844  11.834  1.00 20.00     0.307 C 
HETATM   11  H25 UNL     1     -24.308  16.092   9.839  1.00 20.00     0.316 HD
ENDBRANCH   1   9
TORSDOF 3
ENDMDL
MODEL 3
REMARK VINA RESULT:      -4.0     17.849     19.030
REMARK  3 active torsions:
REMARK  status: ('A' for Active; 'I' for Inactive)
REMARK    1  A    between atoms: C2_2  and  C8_8 
REMARK    2  A    between atoms: C6_6  and  C8_8 
REMARK    3  A    between atoms: C8_8  and  N9_9 
ROOT
HETATM    1  C8  UNL     1     -34.562  15.622  -4.534  1.00 20.00     0.248 C 
ENDROOT
BRANCH   1   2
HETATM    2  C2  UNL     1     -33.555  15.765  -3.427  1.00 20.00    -0.002 C 
HETATM    3  C1  UNL     1     -33.740  16.523  -2.340  1.00 20.00     0.009 C 
ENDBRANCH   1   2
BRANCH   1   4
HETATM    4  C6  UNL     1     -35.898  15.126  -4.016  1.00 20.00     0.048 C 
HETATM    5  C3  UNL     1     -37.088  15.928  -4.499  1.00 20.00     0.035 C 
HETATM    6  C4  UNL     1     -38.227  14.961  -4.258  1.00 20.00     0.168 C 
HETATM    7  O10 UNL     1     -37.694  13.640  -4.427  1.00 20.00    -0.391 OA
HETATM    8  C5  UNL     1     -36.262  13.732  -4.498  1.00 20.00     0.174 C 
ENDBRANCH   1   4
BRANCH   1   9
HETATM    9  N9  UNL     1     -34.014  14.710  -5.512  1.00 20.00     0.087 N 
HETATM   10  C7  UNL     1     -34.057  15.282  -6.856  1.00 20.00     0.307 C 
HETATM   11  H25 UNL     1     -34.548  13.837  -5.510  1.00 20.00     0.316 HD
ENDBRANCH   1   9
TORSDOF 3
ENDMDL
MODEL 4
REMARK VINA RESULT:      -3.9     17.068     18.117
REMARK  3 active torsions:
REMARK  status: ('A' for Active; 'I' for Inactive)
REMARK    1  A    between atoms: C2_2  and  C8_8 
REMARK    2  A    between atoms: C6_6  and  C8_8 
REMARK    3  A    between atoms: C8_8  and  N9_9 
ROOT
HETATM    1  C8  UNL     1     -34.798  15.438  -2.883  1.00 20.00     0.248 C 
ENDROOT
BRANCH   1   2
HETATM    2  C2  UNL     1     -33.460  16.103  -3.054  1.00 20.00    -0.002 C 
HETATM    3  C1  UNL     1     -33.012  17.093  -2.274  1.00 20.00     0.009 C 
ENDBRANCH   1   2
BRANCH   1   4
HETATM    4  C6  UNL     1     -35.503  15.246  -4.212  1.00 20.00     0.048 C 
HETATM    5  C3  UNL     1     -34.620  15.466  -5.421  1.00 20.00     0.035 C 
HETATM    6  C4  UNL     1     -35.401  14.752  -6.505  1.00 20.00     0.168 C 
HETATM    7  O10 UNL     1     -36.089  13.664  -5.873  1.00 20.00    -0.391 OA
HETATM    8  C5  UNL     1     -35.985  13.825  -4.449  1.00 20.00     0.174 C 
ENDBRANCH   1   4
BRANCH   1   9
HETATM    9  N9  UNL     1     -35.586  16.257  -1.991  1.00 20.00     0.087 N 
HETATM   10  C7  UNL     1     -36.553  17.068  -2.728  1.00 20.00     0.307 C 
HETATM   11  H25 UNL     1     -34.972  16.882  -1.461  1.00 20.00     0.316 HD
ENDBRANCH   1   9
TORSDOF 3
ENDMDL
MODEL 5
REMARK VINA RESULT:      -3.8     18.116     19.353
REMARK  3 active torsions:
REMARK  status: ('A' for Active; 'I' for Inactive)
REMARK    1  A    between atoms: C2_2  and  C8_8 
REMARK    2  A    between atoms: C6_6  and  C8_8 
REMARK    3  A    between atoms: C8_8  and  N9_9 
ROOT
HETATM    1  C8  UNL     1     -34.250  15.069  -5.178  1.00 20.00     0.248 C 
ENDROOT
BRANCH   1   2
HETATM    2  C2  UNL     1     -34.398  15.754  -6.508  1.00 20.00    -0.002 C 
HETATM    3  C1  UNL     1     -33.908  15.272  -7.656  1.00 20.00     0.009 C 
ENDBRANCH   1   2
BRANCH   1   4
HETATM    4  C6  UNL     1     -35.581  14.935  -4.464  1.00 20.00     0.048 C 
HETATM    5  C3  UNL     1     -36.680  15.808  -5.031  1.00 20.00     0.035 C 
HETATM    6  C4  UNL     1     -37.921  15.126  -4.492  1.00 20.00     0.168 C 
HETATM    7  O10 UNL     1     -37.616  13.728  -4.391  1.00 20.00    -0.391 OA
HETATM    8  C5  UNL     1     -36.203  13.555  -4.585  1.00 20.00     0.174 C 
ENDBRANCH   1   4
BRANCH   1   9
HETATM    9  N9  UNL     1     -33.314  15.838  -4.390  1.00 20.00     0.087 N 
HETATM   10  C7  UNL     1     -33.721  15.897  -2.987  1.00 20.00     0.307 C 
HETATM   11  H25 UNL     1     -33.255  16.793  -4.754  1.00 20.00     0.316 HD
ENDBRANCH   1   9
TORSDOF 3
ENDMDL
MODEL 6
REMARK VINA RESULT:      -3.8     16.579     17.784
REMARK  3 active torsions:
REMARK  status: ('A' for Active; 'I' for Inactive)
REMARK    1  A    between atoms: C2_2  and  C8_8 
REMARK    2  A    between atoms: C6_6  and  C8_8 
REMARK    3  A    between atoms: C8_8  and  N9_9 
ROOT
HETATM    1  C8  UNL     1     -34.183  14.741  -4.419  1.00 20.00     0.248 C 
ENDROOT
BRANCH   1   2
HETATM    2  C2  UNL     1     -35.500  14.468  -5.090  1.00 20.00    -0.002 C 
HETATM    3  C1  UNL     1     -36.419  13.617  -4.617  1.00 20.00     0.009 C 
ENDBRANCH   1   2
BRANCH   1   4
HETATM    4  C6  UNL     1     -34.229  16.011  -3.591  1.00 20.00     0.048 C 
HETATM    5  C3  UNL     1     -34.951  15.866  -2.269  1.00 20.00     0.035 C 
HETATM    6  C4  UNL     1     -34.423  17.058  -1.499  1.00 20.00     0.168 C 
HETATM    7  O10 UNL     1     -33.085  17.292  -1.962  1.00 20.00    -0.391 OA
HETATM    8  C5  UNL     1     -32.862  16.492  -3.134  1.00 20.00     0.174 C 
ENDBRANCH   1   4
BRANCH   1   9
HETATM    9  N9  UNL     1     -33.175  14.830  -5.450  1.00 20.00     0.087 N 
HETATM   10  C7  UNL     1     -33.776  15.024  -6.768  1.00 20.00     0.307 C 
HETATM   11  H25 UNL     1     -32.619  13.969  -5.467  1.00 20.00     0.316 HD
ENDBRANCH   1   9
TORSDOF 3
ENDMDL
MODEL 7
REMARK VINA RESULT:      -3.8     15.718     16.889
REMARK  3 active torsions:
REMARK  status: ('A' for Active; 'I' for Inactive)
REMARK    1  A    between atoms: C2_2  and  C8_8 
REMARK    2  A    between atoms: C6_6  and  C8_8 
REMARK    3  A    between atoms: C8_8  and  N9_9 
ROOT
HETATM    1  C8  UNL     1     -33.634  17.217  -3.012  1.00 20.00     0.248 C 
ENDROOT
BRANCH   1   2
HETATM    2  C2  UNL     1     -32.759  17.609  -1.854  1.00 20.00    -0.002 C 
HETATM    3  C1  UNL     1     -33.217  18.156  -0.722  1.00 20.00     0.009 C 
ENDBRANCH   1   2
BRANCH   1   4
HETATM    4  C6  UNL     1     -33.847  15.716  -3.071  1.00 20.00     0.048 C 
HETATM    5  C3  UNL     1     -35.260  15.303  -3.425  1.00 20.00     0.035 C 
HETATM    6  C4  UNL     1     -35.055  13.874  -3.882  1.00 20.00     0.168 C 
HETATM    7  O10 UNL     1     -33.747  13.809  -4.469  1.00 20.00    -0.391 OA
HETATM    8  C5  UNL     1     -33.051  15.028  -4.167  1.00 20.00     0.174 C 
ENDBRANCH   1   4
BRANCH   1   9
HETATM    9  N9  UNL     1     -33.007  17.700  -4.221  1.00 20.00     0.087 N 
HETATM   10  C7  UNL     1     -33.880  18.624  -4.941  1.00 20.00     0.307 C 
HETATM   11  H25 UNL     1     -32.786  16.912  -4.836  1.00 20.00     0.316 HD
ENDBRANCH   1   9
TORSDOF 3
ENDMDL
MODEL 8
REMARK VINA RESULT:      -3.8     16.682     17.777
REMARK  3 active torsions:
REMARK  status: ('A' for Active; 'I' for Inactive)
REMARK    1  A    between atoms: C2_2  and  C8_8 
REMARK    2  A    between atoms: C6_6  and  C8_8 
REMARK    3  A    between atoms: C8_8  and  N9_9 
ROOT
HETATM    1  C8  UNL     1     -34.352  16.605  -3.431  1.00 20.00     0.248 C 
ENDROOT
BRANCH   1   2
HETATM    2  C2  UNL     1     -34.121  16.630  -1.946  1.00 20.00    -0.002 C 
HETATM    3  C1  UNL     1     -35.056  16.961  -1.048  1.00 20.00     0.009 C 
ENDBRANCH   1   2
BRANCH   1   4
HETATM    4  C6  UNL     1     -34.707  15.214  -3.921  1.00 20.00     0.048 C 
HETATM    5  C3  UNL     1     -36.176  14.871  -3.804  1.00 20.00     0.035 C 
HETATM    6  C4  UNL     1     -36.298  13.713  -4.772  1.00 20.00     0.168 C 
HETATM    7  O10 UNL     1     -35.336  13.939  -5.813  1.00 20.00    -0.391 OA
HETATM    8  C5  UNL     1     -34.469  15.010  -5.407  1.00 20.00     0.174 C 
ENDBRANCH   1   4
BRANCH   1   9
HETATM    9  N9  UNL     1     -33.150  17.090  -4.071  1.00 20.00     0.087 N 
HETATM   10  C7  UNL     1     -32.947  18.514  -3.812  1.00 20.00     0.307 C 
HETATM   11  H25 UNL     1     -33.214  16.947  -5.083  1.00 20.00     0.316 HD
ENDBRANCH   1   9
TORSDOF 3
ENDMDL
MODEL 9
REMARK VINA RESULT:      -3.7     16.352     17.425
REMARK  3 active torsions:
REMARK  status: ('A' for Active; 'I' for Inactive)
REMARK    1  A    between atoms: C2_2  and  C8_8 
REMARK    2  A    between atoms: C6_6  and  C8_8 
REMARK    3  A    between atoms: C8_8  and  N9_9 
ROOT
HETATM    1  C8  UNL     1     -34.502  15.915  -2.339  1.00 20.00     0.248 C 
ENDROOT
BRANCH   1   2
HETATM    2  C2  UNL     1     -33.689  17.024  -2.945  1.00 20.00    -0.002 C 
HETATM    3  C1  UNL     1     -32.635  17.592  -2.348  1.00 20.00     0.009 C 
ENDBRANCH   1   2
BRANCH   1   4
HETATM    4  C6  UNL     1     -34.816  14.831  -3.352  1.00 20.00     0.048 C 
HETATM    5  C3  UNL     1     -36.240  14.854  -3.865  1.00 20.00     0.035 C 
HETATM    6  C4  UNL     1     -36.119  14.050  -5.142  1.00 20.00     0.168 C 
HETATM    7  O10 UNL     1     -34.798  14.281  -5.654  1.00 20.00    -0.391 OA
HETATM    8  C5  UNL     1     -34.031  14.957  -4.646  1.00 20.00     0.174 C 
ENDBRANCH   1   4
BRANCH   1   9
HETATM    9  N9  UNL     1     -35.714  16.497  -1.809  1.00 20.00     0.087 N 
HETATM   10  C7  UNL     1     -35.503  17.039  -0.468  1.00 20.00     0.307 C 
HETATM   11  H25 UNL     1     -36.450  15.786  -1.763  1.00 20.00     0.316 HD
ENDBRANCH   1   9
TORSDOF 3
ENDMDL
