MODEL 1
REMARK VINA RESULT:      -5.0      0.000      0.000
REMARK  2 active torsions:
REMARK  status: ('A' for Active; 'I' for Inactive)
REMARK    1  A    between atoms: C3_3  and  C7_7 
REMARK    2  A    between atoms: C8_8  and  C10_10 
ROOT
HETATM    1  C1  UNL     1     -35.475  15.052  -7.172  1.00 20.00     0.021 C 
HETATM    2  C2  UNL     1     -35.733  14.593  -6.093  1.00 20.00    -0.039 C 
HETATM    3  C3  UNL     1     -36.043  14.041  -4.796  1.00 20.00     0.205 C 
HETATM    4  O11 UNL     1     -37.167  13.611  -4.570  1.00 20.00    -0.283 OA
ENDROOT
BRANCH   3   5
HETATM    5  C7  UNL     1     -34.917  14.037  -3.779  1.00 20.00     0.069 C 
HETATM    6  C4  UNL     1     -33.613  14.438  -4.469  1.00 20.00     0.013 C 
HETATM    7  C5  UNL     1     -33.108  15.669  -3.721  1.00 20.00     0.005 C 
HETATM    8  C8  UNL     1     -34.380  16.316  -3.183  1.00 20.00    -0.014 C 
HETATM    9  C6  UNL     1     -35.200  15.109  -2.729  1.00 20.00     0.017 C 
BRANCH   8  10
HETATM   10  C10 UNL     1     -34.116  17.314  -2.069  1.00 20.00     0.000 C 
HETATM   11  C9  UNL     1     -35.005  17.084  -0.888  1.00 20.00     0.005 C 
ENDBRANCH   8  10
ENDBRANCH   3   5
TORSDOF 2
ENDMDL
MODEL 2
REMARK VINA RESULT:      -5.0      1.101      1.587
REMARK  2 active torsions:
REMARK  status: ('A' for Active; 'I' for Inactive)
REMARK    1  A    between atoms: C3_3  and  C7_7 
REMARK    2  A    between atoms: C8_8  and  C10_10 
ROOT
HETATM    1  C1  UNL     1     -38.455  14.761  -4.166  1.00 20.00     0.021 C 
HETATM    2  C2  UNL     1     -37.348  14.481  -4.536  1.00 20.00    -0.039 C 
HETATM    3  C3  UNL     1     -36.016  14.145  -4.981  1.00 20.00     0.205 C 
HETATM    4  O11 UNL     1     -35.803  13.948  -6.171  1.00 20.00    -0.283 OA
ENDROOT
BRANCH   3   5
HETATM    5  C7  UNL     1     -34.949  14.057  -3.906  1.00 20.00     0.069 C 
HETATM    6  C4  UNL     1     -33.594  14.427  -4.510  1.00 20.00     0.013 C 
HETATM    7  C5  UNL     1     -33.082  15.608  -3.690  1.00 20.00     0.005 C 
HETATM    8  C8  UNL     1     -34.354  16.288  -3.197  1.00 20.00    -0.014 C 
HETATM    9  C6  UNL     1     -35.246  15.101  -2.833  1.00 20.00     0.017 C 
BRANCH   8  10
HETATM   10  C10 UNL     1     -34.113  17.234  -2.032  1.00 20.00     0.000 C 
HETATM   11  C9  UNL     1     -35.084  17.008  -0.916  1.00 20.00     0.005 C 
ENDBRANCH   8  10
ENDBRANCH   3   5
TORSDOF 2
ENDMDL
MODEL 3
REMARK VINA RESULT:      -4.8      3.535      6.150
REMARK  2 active torsions:
REMARK  status: ('A' for Active; 'I' for Inactive)
REMARK    1  A    between atoms: C3_3  and  C7_7 
REMARK    2  A    between atoms: C8_8  and  C10_10 
ROOT
HETATM    1  C1  UNL     1     -32.327  18.327   2.252  1.00 20.00     0.021 C 
HETATM    2  C2  UNL     1     -32.076  18.375   1.079  1.00 20.00    -0.039 C 
HETATM    3  C3  UNL     1     -31.775  18.432  -0.332  1.00 20.00     0.205 C 
HETATM    4  O11 UNL     1     -30.619  18.300  -0.713  1.00 20.00    -0.283 OA
ENDROOT
BRANCH   3   5
HETATM    5  C7  UNL     1     -32.951  18.661  -1.263  1.00 20.00     0.069 C 
HETATM    6  C4  UNL     1     -32.439  18.799  -2.697  1.00 20.00     0.013 C 
HETATM    7  C5  UNL     1     -33.144  17.707  -3.496  1.00 20.00     0.005 C 
HETATM    8  C8  UNL     1     -33.418  16.619  -2.465  1.00 20.00    -0.014 C 
HETATM    9  C6  UNL     1     -33.845  17.424  -1.237  1.00 20.00     0.017 C 
BRANCH   8  10
HETATM   10  C10 UNL     1     -34.468  15.618  -2.917  1.00 20.00     0.000 C 
HETATM   11  C9  UNL     1     -33.947  14.699  -3.977  1.00 20.00     0.005 C 
ENDBRANCH   8  10
ENDBRANCH   3   5
TORSDOF 2
ENDMDL
MODEL 4
REMARK VINA RESULT:      -4.7      1.750      2.203
REMARK  2 active torsions:
REMARK  status: ('A' for Active; 'I' for Inactive)
REMARK    1  A    between atoms: C3_3  and  C7_7 
REMARK    2  A    between atoms: C8_8  and  C10_10 
ROOT
HETATM    1  C1  UNL     1     -34.019  15.272  -7.798  1.00 20.00     0.021 C 
HETATM    2  C2  UNL     1     -34.064  15.110  -6.609  1.00 20.00    -0.039 C 
HETATM    3  C3  UNL     1     -34.118  14.916  -5.179  1.00 20.00     0.205 C 
HETATM    4  O11 UNL     1     -33.614  13.917  -4.681  1.00 20.00    -0.283 OA
ENDROOT
BRANCH   3   5
HETATM    5  C7  UNL     1     -34.819  15.997  -4.378  1.00 20.00     0.069 C 
HETATM    6  C4  UNL     1     -35.389  15.387  -3.098  1.00 20.00     0.013 C 
HETATM    7  C5  UNL     1     -34.759  16.168  -1.949  1.00 20.00     0.005 C 
HETATM    8  C8  UNL     1     -33.421  16.633  -2.514  1.00 20.00    -0.014 C 
HETATM    9  C6  UNL     1     -33.786  17.033  -3.944  1.00 20.00     0.017 C 
BRANCH   8  10
HETATM   10  C10 UNL     1     -32.797  17.766  -1.716  1.00 20.00     0.000 C 
HETATM   11  C9  UNL     1     -33.596  18.098  -0.496  1.00 20.00     0.005 C 
ENDBRANCH   8  10
ENDBRANCH   3   5
TORSDOF 2
ENDMDL
MODEL 5
REMARK VINA RESULT:      -4.7      1.059      1.157
REMARK  2 active torsions:
REMARK  status: ('A' for Active; 'I' for Inactive)
REMARK    1  A    between atoms: C3_3  and  C7_7 
REMARK    2  A    between atoms: C8_8  and  C10_10 
ROOT
HETATM    1  C1  UNL     1     -34.377  16.483  -6.996  1.00 20.00     0.021 C 
HETATM    2  C2  UNL     1     -34.737  15.571  -6.302  1.00 20.00    -0.039 C 
HETATM    3  C3  UNL     1     -35.168  14.475  -5.467  1.00 20.00     0.205 C 
HETATM    4  O11 UNL     1     -36.075  13.743  -5.845  1.00 20.00    -0.283 OA
ENDROOT
BRANCH   3   5
HETATM    5  C7  UNL     1     -34.444  14.310  -4.144  1.00 20.00     0.069 C 
HETATM    6  C4  UNL     1     -33.140  15.108  -4.180  1.00 20.00     0.013 C 
HETATM    7  C5  UNL     1     -33.221  16.088  -3.013  1.00 20.00     0.005 C 
HETATM    8  C8  UNL     1     -34.718  16.321  -2.835  1.00 20.00    -0.014 C 
HETATM    9  C6  UNL     1     -35.298  14.922  -3.037  1.00 20.00     0.017 C 
BRANCH   8  10
HETATM   10  C10 UNL     1     -35.071  16.927  -1.488  1.00 20.00     0.000 C 
HETATM   11  C9  UNL     1     -33.960  17.767  -0.941  1.00 20.00     0.005 C 
ENDBRANCH   8  10
ENDBRANCH   3   5
TORSDOF 2
ENDMDL
MODEL 6
REMARK VINA RESULT:      -4.6      1.281      1.947
REMARK  2 active torsions:
REMARK  status: ('A' for Active; 'I' for Inactive)
REMARK    1  A    between atoms: C3_3  and  C7_7 
REMARK    2  A    between atoms: C8_8  and  C10_10 
ROOT
HETATM    1  C1  UNL     1     -33.881  15.442  -7.918  1.00 20.00     0.021 C 
HETATM    2  C2  UNL     1     -34.625  15.151  -7.021  1.00 20.00    -0.039 C 
HETATM    3  C3  UNL     1     -35.518  14.800  -5.943  1.00 20.00     0.205 C 
HETATM    4  O11 UNL     1     -36.025  13.686  -5.910  1.00 20.00    -0.283 OA
ENDROOT
BRANCH   3   5
HETATM    5  C7  UNL     1     -35.770  15.874  -4.900  1.00 20.00     0.069 C 
HETATM    6  C4  UNL     1     -36.160  15.212  -3.579  1.00 20.00     0.013 C 
HETATM    7  C5  UNL     1     -35.135  15.692  -2.555  1.00 20.00     0.005 C 
HETATM    8  C8  UNL     1     -33.888  15.967  -3.389  1.00 20.00    -0.014 C 
HETATM    9  C6  UNL     1     -34.465  16.623  -4.643  1.00 20.00     0.017 C 
BRANCH   8  10
HETATM   10  C10 UNL     1     -32.871  16.838  -2.672  1.00 20.00     0.000 C 
HETATM   11  C9  UNL     1     -33.487  17.610  -1.547  1.00 20.00     0.005 C 
ENDBRANCH   8  10
ENDBRANCH   3   5
TORSDOF 2
ENDMDL
MODEL 7
REMARK VINA RESULT:      -4.5      1.804      2.246
REMARK  2 active torsions:
REMARK  status: ('A' for Active; 'I' for Inactive)
REMARK    1  A    between atoms: C3_3  and  C7_7 
REMARK    2  A    between atoms: C8_8  and  C10_10 
ROOT
HETATM    1  C1  UNL     1     -37.490  14.409  -4.324  1.00 20.00     0.021 C 
HETATM    2  C2  UNL     1     -36.411  14.934  -4.351  1.00 20.00    -0.039 C 
HETATM    3  C3  UNL     1     -35.113  15.566  -4.383  1.00 20.00     0.205 C 
HETATM    4  O11 UNL     1     -34.753  16.167  -5.387  1.00 20.00    -0.283 OA
ENDROOT
BRANCH   3   5
HETATM    5  C7  UNL     1     -34.267  15.430  -3.131  1.00 20.00     0.069 C 
HETATM    6  C4  UNL     1     -32.984  16.245  -3.299  1.00 20.00     0.013 C 
HETATM    7  C5  UNL     1     -32.972  17.241  -2.142  1.00 20.00     0.005 C 
HETATM    8  C8  UNL     1     -34.448  17.457  -1.829  1.00 20.00    -0.014 C 
HETATM    9  C6  UNL     1     -35.024  16.046  -1.958  1.00 20.00     0.017 C 
BRANCH   8  10
HETATM   10  C10 UNL     1     -34.685  18.077  -0.463  1.00 20.00     0.000 C 
HETATM   11  C9  UNL     1     -35.451  17.164   0.443  1.00 20.00     0.005 C 
ENDBRANCH   8  10
ENDBRANCH   3   5
TORSDOF 2
ENDMDL
MODEL 8
REMARK VINA RESULT:      -4.5      2.160      4.747
REMARK  2 active torsions:
REMARK  status: ('A' for Active; 'I' for Inactive)
REMARK    1  A    between atoms: C3_3  and  C7_7 
REMARK    2  A    between atoms: C8_8  and  C10_10 
ROOT
HETATM    1  C1  UNL     1     -32.512  18.670   0.135  1.00 20.00     0.021 C 
HETATM    2  C2  UNL     1     -33.412  18.077  -0.396  1.00 20.00    -0.039 C 
HETATM    3  C3  UNL     1     -34.493  17.365  -1.034  1.00 20.00     0.205 C 
HETATM    4  O11 UNL     1     -35.385  16.875  -0.353  1.00 20.00    -0.283 OA
ENDROOT
BRANCH   3   5
HETATM    5  C7  UNL     1     -34.440  17.275  -2.548  1.00 20.00     0.069 C 
HETATM    6  C4  UNL     1     -33.064  16.763  -2.974  1.00 20.00     0.013 C 
HETATM    7  C5  UNL     1     -33.325  15.495  -3.782  1.00 20.00     0.005 C 
HETATM    8  C8  UNL     1     -34.633  14.960  -3.210  1.00 20.00    -0.014 C 
HETATM    9  C6  UNL     1     -35.455  16.234  -3.014  1.00 20.00     0.017 C 
BRANCH   8  10
HETATM   10  C10 UNL     1     -35.311  13.946  -4.116  1.00 20.00     0.000 C 
HETATM   11  C9  UNL     1     -36.753  14.273  -4.345  1.00 20.00     0.005 C 
ENDBRANCH   8  10
ENDBRANCH   3   5
TORSDOF 2
ENDMDL
MODEL 9
REMARK VINA RESULT:      -4.4      1.559      2.149
REMARK  2 active torsions:
REMARK  status: ('A' for Active; 'I' for Inactive)
REMARK    1  A    between atoms: C3_3  and  C7_7 
REMARK    2  A    between atoms: C8_8  and  C10_10 
ROOT
HETATM    1  C1  UNL     1     -37.667  17.179  -5.140  1.00 20.00     0.021 C 
HETATM    2  C2  UNL     1     -37.558  16.004  -4.920  1.00 20.00    -0.039 C 
HETATM    3  C3  UNL     1     -37.428  14.591  -4.656  1.00 20.00     0.205 C 
HETATM    4  O11 UNL     1     -38.401  13.948  -4.282  1.00 20.00    -0.283 OA
ENDROOT
BRANCH   3   5
HETATM    5  C7  UNL     1     -36.050  13.991  -4.868  1.00 20.00     0.069 C 
HETATM    6  C4  UNL     1     -35.429  14.588  -6.131  1.00 20.00     0.013 C 
HETATM    7  C5  UNL     1     -34.118  15.231  -5.684  1.00 20.00     0.005 C 
HETATM    8  C8  UNL     1     -34.374  15.609  -4.229  1.00 20.00    -0.014 C 
HETATM    9  C6  UNL     1     -35.151  14.401  -3.704  1.00 20.00     0.017 C 
BRANCH   8  10
HETATM   10  C10 UNL     1     -33.100  15.884  -3.450  1.00 20.00     0.000 C 
HETATM   11  C9  UNL     1     -33.315  16.880  -2.355  1.00 20.00     0.005 C 
ENDBRANCH   8  10
ENDBRANCH   3   5
TORSDOF 2
ENDMDL
