MODEL 1
REMARK VINA RESULT:      -4.8      0.000      0.000
REMARK  2 active torsions:
REMARK  status: ('A' for Active; 'I' for Inactive)
REMARK    1  A    between atoms: C3_3  and  C8_8 
REMARK    2  A    between atoms: C9_9  and  C12_12 
ROOT
HETATM    1  C1  UNL     1     -40.086  16.807  -3.241  1.00 20.00     0.021 C 
HETATM    2  C2  UNL     1     -39.308  16.049  -3.753  1.00 20.00    -0.039 C 
HETATM    3  C3  UNL     1     -38.373  15.138  -4.369  1.00 20.00     0.205 C 
HETATM    4  O13 UNL     1     -38.617  13.939  -4.392  1.00 20.00    -0.283 OA
ENDROOT
BRANCH   3   5
HETATM    5  C8  UNL     1     -37.117  15.759  -4.961  1.00 20.00     0.069 C 
HETATM    6  C4  UNL     1     -36.540  16.772  -3.980  1.00 20.00     0.013 C 
HETATM    7  C6  UNL     1     -35.813  16.136  -2.795  1.00 20.00     0.006 C 
HETATM    8  C9  UNL     1     -34.783  15.078  -3.213  1.00 20.00    -0.011 C 
HETATM    9  C7  UNL     1     -35.428  14.031  -4.130  1.00 20.00     0.006 C 
HETATM   10  C5  UNL     1     -36.146  14.644  -5.334  1.00 20.00     0.013 C 
BRANCH   8  11
HETATM   11  C12 UNL     1     -33.548  15.712  -3.856  1.00 20.00    -0.019 C 
HETATM   12  C10 UNL     1     -32.879  16.686  -2.889  1.00 20.00     0.010 C 
HETATM   13  C11 UNL     1     -32.562  14.634  -4.302  1.00 20.00     0.010 C 
ENDBRANCH   8  11
ENDBRANCH   3   5
TORSDOF 2
ENDMDL
MODEL 2
REMARK VINA RESULT:      -4.8      1.994      3.756
REMARK  2 active torsions:
REMARK  status: ('A' for Active; 'I' for Inactive)
REMARK    1  A    between atoms: C3_3  and  C8_8 
REMARK    2  A    between atoms: C9_9  and  C12_12 
ROOT
HETATM    1  C1  UNL     1     -33.644  15.156  -7.918  1.00 20.00     0.021 C 
HETATM    2  C2  UNL     1     -34.447  15.068  -7.030  1.00 20.00    -0.039 C 
HETATM    3  C3  UNL     1     -35.414  14.963  -5.963  1.00 20.00     0.205 C 
HETATM    4  O13 UNL     1     -35.998  13.904  -5.773  1.00 20.00    -0.283 OA
ENDROOT
BRANCH   3   5
HETATM    5  C8  UNL     1     -35.639  16.215  -5.130  1.00 20.00     0.069 C 
HETATM    6  C4  UNL     1     -36.361  15.845  -3.839  1.00 20.00     0.013 C 
HETATM    7  C6  UNL     1     -35.460  15.171  -2.803  1.00 20.00     0.006 C 
HETATM    8  C9  UNL     1     -34.157  15.937  -2.543  1.00 20.00    -0.011 C 
HETATM    9  C7  UNL     1     -33.422  16.213  -3.861  1.00 20.00     0.006 C 
HETATM   10  C5  UNL     1     -34.297  16.905  -4.907  1.00 20.00     0.013 C 
BRANCH   8  11
HETATM   11  C12 UNL     1     -34.404  17.223  -1.750  1.00 20.00    -0.019 C 
HETATM   12  C10 UNL     1     -35.273  16.941  -0.527  1.00 20.00     0.010 C 
HETATM   13  C11 UNL     1     -33.079  17.859  -1.334  1.00 20.00     0.010 C 
ENDBRANCH   8  11
ENDBRANCH   3   5
TORSDOF 2
ENDMDL
MODEL 3
REMARK VINA RESULT:      -4.7      2.496      4.337
REMARK  2 active torsions:
REMARK  status: ('A' for Active; 'I' for Inactive)
REMARK    1  A    between atoms: C3_3  and  C8_8 
REMARK    2  A    between atoms: C9_9  and  C12_12 
ROOT
HETATM    1  C1  UNL     1     -34.105  15.065  -6.491  1.00 20.00     0.021 C 
HETATM    2  C2  UNL     1     -34.637  15.374  -5.460  1.00 20.00    -0.039 C 
HETATM    3  C3  UNL     1     -35.276  15.746  -4.220  1.00 20.00     0.205 C 
HETATM    4  O13 UNL     1     -36.419  16.184  -4.232  1.00 20.00    -0.283 OA
ENDROOT
BRANCH   3   5
HETATM    5  C8  UNL     1     -34.455  15.557  -2.954  1.00 20.00     0.069 C 
HETATM    6  C4  UNL     1     -33.055  16.124  -3.168  1.00 20.00     0.013 C 
HETATM    7  C6  UNL     1     -32.997  17.652  -3.124  1.00 20.00     0.006 C 
HETATM    8  C9  UNL     1     -33.686  18.249  -1.890  1.00 20.00    -0.011 C 
HETATM    9  C7  UNL     1     -35.119  17.717  -1.762  1.00 20.00     0.006 C 
HETATM   10  C5  UNL     1     -35.201  16.190  -1.785  1.00 20.00     0.013 C 
BRANCH   8  11
HETATM   11  C12 UNL     1     -32.875  18.006  -0.615  1.00 20.00    -0.019 C 
HETATM   12  C10 UNL     1     -31.451  18.534  -0.775  1.00 20.00     0.010 C 
HETATM   13  C11 UNL     1     -33.558  18.655   0.588  1.00 20.00     0.010 C 
ENDBRANCH   8  11
ENDBRANCH   3   5
TORSDOF 2
ENDMDL
MODEL 4
REMARK VINA RESULT:      -4.6      3.153      5.088
REMARK  2 active torsions:
REMARK  status: ('A' for Active; 'I' for Inactive)
REMARK    1  A    between atoms: C3_3  and  C8_8 
REMARK    2  A    between atoms: C9_9  and  C12_12 
ROOT
HETATM    1  C1  UNL     1     -34.287  18.157   1.238  1.00 20.00     0.021 C 
HETATM    2  C2  UNL     1     -33.700  18.142   0.190  1.00 20.00    -0.039 C 
HETATM    3  C3  UNL     1     -32.995  18.125  -1.069  1.00 20.00     0.205 C 
HETATM    4  O13 UNL     1     -31.771  18.087  -1.081  1.00 20.00    -0.283 OA
ENDROOT
BRANCH   3   5
HETATM    5  C8  UNL     1     -33.853  18.156  -2.324  1.00 20.00     0.069 C 
HETATM    6  C4  UNL     1     -33.094  17.505  -3.475  1.00 20.00     0.013 C 
HETATM    7  C6  UNL     1     -33.049  15.979  -3.397  1.00 20.00     0.006 C 
HETATM    8  C9  UNL     1     -34.427  15.343  -3.174  1.00 20.00    -0.011 C 
HETATM    9  C7  UNL     1     -35.118  15.967  -1.955  1.00 20.00     0.006 C 
HETATM   10  C5  UNL     1     -35.192  17.493  -2.020  1.00 20.00     0.013 C 
BRANCH   8  11
HETATM   11  C12 UNL     1     -35.301  15.428  -4.428  1.00 20.00    -0.019 C 
HETATM   12  C10 UNL     1     -34.527  14.953  -5.655  1.00 20.00     0.010 C 
HETATM   13  C11 UNL     1     -36.579  14.611  -4.248  1.00 20.00     0.010 C 
ENDBRANCH   8  11
ENDBRANCH   3   5
TORSDOF 2
ENDMDL
MODEL 5
REMARK VINA RESULT:      -4.5      2.797      5.003
REMARK  2 active torsions:
REMARK  status: ('A' for Active; 'I' for Inactive)
REMARK    1  A    between atoms: C3_3  and  C8_8 
REMARK    2  A    between atoms: C9_9  and  C12_12 
ROOT
HETATM    1  C1  UNL     1     -31.306  18.501  -0.548  1.00 20.00     0.021 C 
HETATM    2  C2  UNL     1     -32.455  18.214  -0.749  1.00 20.00    -0.039 C 
HETATM    3  C3  UNL     1     -33.836  17.868  -0.990  1.00 20.00     0.205 C 
HETATM    4  O13 UNL     1     -34.550  17.529  -0.055  1.00 20.00    -0.283 OA
ENDROOT
BRANCH   3   5
HETATM    5  C8  UNL     1     -34.312  17.956  -2.431  1.00 20.00     0.069 C 
HETATM    6  C4  UNL     1     -33.209  17.463  -3.361  1.00 20.00     0.013 C 
HETATM    7  C6  UNL     1     -33.052  15.942  -3.378  1.00 20.00     0.006 C 
HETATM    8  C9  UNL     1     -34.377  15.199  -3.599  1.00 20.00    -0.011 C 
HETATM    9  C7  UNL     1     -35.431  15.665  -2.587  1.00 20.00     0.006 C 
HETATM   10  C5  UNL     1     -35.619  17.182  -2.566  1.00 20.00     0.013 C 
BRANCH   8  11
HETATM   11  C12 UNL     1     -34.872  15.340  -5.040  1.00 20.00    -0.019 C 
HETATM   12  C10 UNL     1     -33.795  14.889  -6.025  1.00 20.00     0.010 C 
HETATM   13  C11 UNL     1     -36.158  14.542  -5.246  1.00 20.00     0.010 C 
ENDBRANCH   8  11
ENDBRANCH   3   5
TORSDOF 2
ENDMDL
MODEL 6
REMARK VINA RESULT:      -4.3      2.405      5.058
REMARK  2 active torsions:
REMARK  status: ('A' for Active; 'I' for Inactive)
REMARK    1  A    between atoms: C3_3  and  C8_8 
REMARK    2  A    between atoms: C9_9  and  C12_12 
ROOT
HETATM    1  C1  UNL     1     -31.670  18.425  -0.475  1.00 20.00     0.021 C 
HETATM    2  C2  UNL     1     -32.230  18.005  -1.451  1.00 20.00    -0.039 C 
HETATM    3  C3  UNL     1     -32.904  17.501  -2.624  1.00 20.00     0.205 C 
HETATM    4  O13 UNL     1     -32.872  18.142  -3.667  1.00 20.00    -0.283 OA
ENDROOT
BRANCH   3   5
HETATM    5  C8  UNL     1     -33.624  16.171  -2.469  1.00 20.00     0.069 C 
HETATM    6  C4  UNL     1     -35.039  16.415  -1.957  1.00 20.00     0.013 C 
HETATM    7  C6  UNL     1     -35.996  16.947  -3.025  1.00 20.00     0.006 C 
HETATM    8  C9  UNL     1     -35.978  16.122  -4.319  1.00 20.00    -0.011 C 
HETATM    9  C7  UNL     1     -34.545  15.974  -4.844  1.00 20.00     0.006 C 
HETATM   10  C5  UNL     1     -33.573  15.425  -3.798  1.00 20.00     0.013 C 
BRANCH   8  11
HETATM   11  C12 UNL     1     -36.658  14.763  -4.134  1.00 20.00    -0.019 C 
HETATM   12  C10 UNL     1     -38.177  14.918  -4.137  1.00 20.00     0.010 C 
HETATM   13  C11 UNL     1     -36.215  13.789  -5.224  1.00 20.00     0.010 C 
ENDBRANCH   8  11
ENDBRANCH   3   5
TORSDOF 2
ENDMDL
MODEL 7
REMARK VINA RESULT:      -4.3      1.809      2.855
REMARK  2 active torsions:
REMARK  status: ('A' for Active; 'I' for Inactive)
REMARK    1  A    between atoms: C3_3  and  C8_8 
REMARK    2  A    between atoms: C9_9  and  C12_12 
ROOT
HETATM    1  C1  UNL     1     -38.432  14.487  -4.257  1.00 20.00     0.021 C 
HETATM    2  C2  UNL     1     -37.282  14.753  -4.477  1.00 20.00    -0.039 C 
HETATM    3  C3  UNL     1     -35.899  15.073  -4.741  1.00 20.00     0.205 C 
HETATM    4  O13 UNL     1     -35.138  14.200  -5.136  1.00 20.00    -0.283 OA
ENDROOT
BRANCH   3   5
HETATM    5  C8  UNL     1     -35.482  16.516  -4.502  1.00 20.00     0.069 C 
HETATM    6  C4  UNL     1     -36.123  17.023  -3.215  1.00 20.00     0.013 C 
HETATM    7  C6  UNL     1     -35.456  16.492  -1.945  1.00 20.00     0.006 C 
HETATM    8  C9  UNL     1     -33.931  16.664  -1.945  1.00 20.00    -0.011 C 
HETATM    9  C7  UNL     1     -33.321  16.063  -3.217  1.00 20.00     0.006 C 
HETATM   10  C5  UNL     1     -33.960  16.594  -4.501  1.00 20.00     0.013 C 
BRANCH   8  11
HETATM   11  C12 UNL     1     -33.526  18.128  -1.757  1.00 20.00    -0.019 C 
HETATM   12  C10 UNL     1     -34.286  18.750  -0.587  1.00 20.00     0.010 C 
HETATM   13  C11 UNL     1     -32.019  18.244  -1.541  1.00 20.00     0.010 C 
ENDBRANCH   8  11
ENDBRANCH   3   5
TORSDOF 2
ENDMDL
MODEL 8
REMARK VINA RESULT:      -4.2      2.459      4.596
REMARK  2 active torsions:
REMARK  status: ('A' for Active; 'I' for Inactive)
REMARK    1  A    between atoms: C3_3  and  C8_8 
REMARK    2  A    between atoms: C9_9  and  C12_12 
ROOT
HETATM    1  C1  UNL     1     -32.432  18.545  -0.742  1.00 20.00     0.021 C 
HETATM    2  C2  UNL     1     -33.346  17.871  -1.132  1.00 20.00    -0.039 C 
HETATM    3  C3  UNL     1     -34.444  17.060  -1.601  1.00 20.00     0.205 C 
HETATM    4  O13 UNL     1     -35.586  17.319  -1.246  1.00 20.00    -0.283 OA
ENDROOT
BRANCH   3   5
HETATM    5  C8  UNL     1     -34.086  15.911  -2.531  1.00 20.00     0.069 C 
HETATM    6  C4  UNL     1     -35.363  15.269  -3.061  1.00 20.00     0.013 C 
HETATM    7  C6  UNL     1     -36.060  16.090  -4.147  1.00 20.00     0.006 C 
HETATM    8  C9  UNL     1     -35.116  16.528  -5.274  1.00 20.00    -0.011 C 
HETATM    9  C7  UNL     1     -33.888  17.245  -4.701  1.00 20.00     0.006 C 
HETATM   10  C5  UNL     1     -33.163  16.434  -3.626  1.00 20.00     0.013 C 
BRANCH   8  11
HETATM   11  C12 UNL     1     -34.720  15.352  -6.171  1.00 20.00    -0.019 C 
HETATM   12  C10 UNL     1     -35.930  14.467  -6.461  1.00 20.00     0.010 C 
HETATM   13  C11 UNL     1     -34.097  15.855  -7.471  1.00 20.00     0.010 C 
ENDBRANCH   8  11
ENDBRANCH   3   5
TORSDOF 2
ENDMDL
MODEL 9
REMARK VINA RESULT:      -4.1      2.501      3.931
REMARK  2 active torsions:
REMARK  status: ('A' for Active; 'I' for Inactive)
REMARK    1  A    between atoms: C3_3  and  C8_8 
REMARK    2  A    between atoms: C9_9  and  C12_12 
ROOT
HETATM    1  C1  UNL     1     -36.101  15.029  -7.689  1.00 20.00     0.021 C 
HETATM    2  C2  UNL     1     -35.314  15.180  -6.796  1.00 20.00    -0.039 C 
HETATM    3  C3  UNL     1     -34.367  15.363  -5.720  1.00 20.00     0.205 C 
HETATM    4  O13 UNL     1     -33.589  14.462  -5.436  1.00 20.00    -0.283 OA
ENDROOT
BRANCH   3   5
HETATM    5  C8  UNL     1     -34.411  16.703  -5.003  1.00 20.00     0.069 C 
HETATM    6  C4  UNL     1     -35.828  16.967  -4.506  1.00 20.00     0.013 C 
HETATM    7  C6  UNL     1     -36.206  16.154  -3.267  1.00 20.00     0.006 C 
HETATM    8  C9  UNL     1     -35.167  16.245  -2.142  1.00 20.00    -0.011 C 
HETATM    9  C7  UNL     1     -33.771  15.888  -2.667  1.00 20.00     0.006 C 
HETATM   10  C5  UNL     1     -33.362  16.703  -3.896  1.00 20.00     0.013 C 
BRANCH   8  11
HETATM   11  C12 UNL     1     -35.184  17.617  -1.463  1.00 20.00    -0.019 C 
HETATM   12  C10 UNL     1     -36.474  17.806  -0.667  1.00 20.00     0.010 C 
HETATM   13  C11 UNL     1     -33.965  17.784  -0.559  1.00 20.00     0.010 C 
ENDBRANCH   8  11
ENDBRANCH   3   5
TORSDOF 2
ENDMDL
