MODEL 1
REMARK VINA RESULT:      -5.1      0.000      0.000
REMARK  2 active torsions:
REMARK  status: ('A' for Active; 'I' for Inactive)
REMARK    1  A    between atoms: C3_3  and  C7_7 
REMARK    2  A    between atoms: C8_8  and  C10_10 
ROOT
HETATM    1  C1  UNL     1     -26.742  19.211   6.931  1.00 20.00     0.021 C 
HETATM    2  C2  UNL     1     -25.574  19.079   7.176  1.00 20.00    -0.039 C 
HETATM    3  C3  UNL     1     -24.169  18.920   7.467  1.00 20.00     0.205 C 
HETATM    4  O11 UNL     1     -23.390  18.626   6.570  1.00 20.00    -0.283 OA
ENDROOT
BRANCH   3   5
HETATM    5  C7  UNL     1     -23.757  19.137   8.892  1.00 20.00     0.069 C 
HETATM    6  C4  UNL     1     -22.334  18.625   9.126  1.00 20.00     0.013 C 
HETATM    7  C5  UNL     1     -22.512  17.282   9.820  1.00 20.00     0.005 C 
HETATM    8  C8  UNL     1     -23.719  17.523  10.721  1.00 20.00    -0.014 C 
HETATM    9  C6  UNL     1     -24.665  18.337   9.834  1.00 20.00     0.017 C 
BRANCH   8  10
HETATM   10  C10 UNL     1     -24.341  16.240  11.243  1.00 20.00     0.000 C 
HETATM   11  C9  UNL     1     -25.517  16.507  12.129  1.00 20.00     0.005 C 
ENDBRANCH   8  10
ENDBRANCH   3   5
TORSDOF 2
ENDMDL
MODEL 2
REMARK VINA RESULT:      -4.8     15.327     17.552
REMARK  2 active torsions:
REMARK  status: ('A' for Active; 'I' for Inactive)
REMARK    1  A    between atoms: C3_3  and  C7_7 
REMARK    2  A    between atoms: C8_8  and  C10_10 
ROOT
HETATM    1  C1  UNL     1     -38.751  14.768  -4.176  1.00 20.00     0.021 C 
HETATM    2  C2  UNL     1     -37.623  14.436  -4.420  1.00 20.00    -0.039 C 
HETATM    3  C3  UNL     1     -36.268  14.035  -4.714  1.00 20.00     0.205 C 
HETATM    4  O11 UNL     1     -35.955  12.853  -4.648  1.00 20.00    -0.283 OA
ENDROOT
BRANCH   3   5
HETATM    5  C7  UNL     1     -35.318  15.131  -5.091  1.00 20.00     0.069 C 
HETATM    6  C4  UNL     1     -33.888  14.595  -5.187  1.00 20.00     0.013 C 
HETATM    7  C5  UNL     1     -33.220  15.032  -3.890  1.00 20.00     0.005 C 
HETATM    8  C8  UNL     1     -33.827  16.409  -3.645  1.00 20.00    -0.014 C 
HETATM    9  C6  UNL     1     -35.302  16.216  -4.008  1.00 20.00     0.017 C 
BRANCH   8  10
HETATM   10  C10 UNL     1     -33.619  16.910  -2.226  1.00 20.00     0.000 C 
HETATM   11  C9  UNL     1     -34.856  16.771  -1.395  1.00 20.00     0.005 C 
ENDBRANCH   8  10
ENDBRANCH   3   5
TORSDOF 2
ENDMDL
MODEL 3
REMARK VINA RESULT:      -4.6     10.546     13.765
REMARK  2 active torsions:
REMARK  status: ('A' for Active; 'I' for Inactive)
REMARK    1  A    between atoms: C3_3  and  C7_7 
REMARK    2  A    between atoms: C8_8  and  C10_10 
ROOT
HETATM    1  C1  UNL     1     -32.071  18.522   2.497  1.00 20.00     0.021 C 
HETATM    2  C2  UNL     1     -31.834  18.482   1.321  1.00 20.00    -0.039 C 
HETATM    3  C3  UNL     1     -31.548  18.434  -0.093  1.00 20.00     0.205 C 
HETATM    4  O11 UNL     1     -30.420  18.153  -0.477  1.00 20.00    -0.283 OA
ENDROOT
BRANCH   3   5
HETATM    5  C7  UNL     1     -32.691  18.738  -1.013  1.00 20.00     0.069 C 
HETATM    6  C4  UNL     1     -34.021  18.677  -0.258  1.00 20.00     0.013 C 
HETATM    7  C5  UNL     1     -34.622  17.330  -0.636  1.00 20.00     0.005 C 
HETATM    8  C8  UNL     1     -34.220  17.178  -2.099  1.00 20.00    -0.014 C 
HETATM    9  C6  UNL     1     -32.775  17.683  -2.122  1.00 20.00     0.017 C 
BRANCH   8  10
HETATM   10  C10 UNL     1     -34.368  15.756  -2.614  1.00 20.00     0.000 C 
HETATM   11  C9  UNL     1     -33.422  15.466  -3.737  1.00 20.00     0.005 C 
ENDBRANCH   8  10
ENDBRANCH   3   5
TORSDOF 2
ENDMDL
MODEL 4
REMARK VINA RESULT:      -4.6     15.287     17.421
REMARK  2 active torsions:
REMARK  status: ('A' for Active; 'I' for Inactive)
REMARK    1  A    between atoms: C3_3  and  C7_7 
REMARK    2  A    between atoms: C8_8  and  C10_10 
ROOT
HETATM    1  C1  UNL     1     -34.482  17.005  -6.736  1.00 20.00     0.021 C 
HETATM    2  C2  UNL     1     -34.862  15.962  -6.281  1.00 20.00    -0.039 C 
HETATM    3  C3  UNL     1     -35.319  14.705  -5.736  1.00 20.00     0.205 C 
HETATM    4  O11 UNL     1     -35.941  13.925  -6.444  1.00 20.00    -0.283 OA
ENDROOT
BRANCH   3   5
HETATM    5  C7  UNL     1     -34.984  14.444  -4.299  1.00 20.00     0.069 C 
HETATM    6  C4  UNL     1     -36.019  15.093  -3.377  1.00 20.00     0.013 C 
HETATM    7  C5  UNL     1     -35.347  16.362  -2.869  1.00 20.00     0.005 C 
HETATM    8  C8  UNL     1     -33.893  15.930  -2.701  1.00 20.00    -0.014 C 
HETATM    9  C6  UNL     1     -33.633  15.076  -3.945  1.00 20.00     0.017 C 
BRANCH   8  10
HETATM   10  C10 UNL     1     -32.935  17.101  -2.565  1.00 20.00     0.000 C 
HETATM   11  C9  UNL     1     -33.289  18.225  -3.488  1.00 20.00     0.005 C 
ENDBRANCH   8  10
ENDBRANCH   3   5
TORSDOF 2
ENDMDL
MODEL 5
REMARK VINA RESULT:      -4.4     14.921     17.241
REMARK  2 active torsions:
REMARK  status: ('A' for Active; 'I' for Inactive)
REMARK    1  A    between atoms: C3_3  and  C7_7 
REMARK    2  A    between atoms: C8_8  and  C10_10 
ROOT
HETATM    1  C1  UNL     1     -32.774  14.405  -4.425  1.00 20.00     0.021 C 
HETATM    2  C2  UNL     1     -33.950  14.194  -4.304  1.00 20.00    -0.039 C 
HETATM    3  C3  UNL     1     -35.363  13.937  -4.159  1.00 20.00     0.205 C 
HETATM    4  O11 UNL     1     -35.825  12.858  -4.506  1.00 20.00    -0.283 OA
ENDROOT
BRANCH   3   5
HETATM    5  C7  UNL     1     -36.183  15.047  -3.573  1.00 20.00     0.069 C 
HETATM    6  C4  UNL     1     -36.606  16.037  -4.661  1.00 20.00     0.013 C 
HETATM    7  C5  UNL     1     -35.657  17.217  -4.504  1.00 20.00     0.005 C 
HETATM    8  C8  UNL     1     -35.478  17.309  -2.993  1.00 20.00    -0.014 C 
HETATM    9  C6  UNL     1     -35.351  15.845  -2.562  1.00 20.00     0.017 C 
BRANCH   8  10
HETATM   10  C10 UNL     1     -34.289  18.160  -2.583  1.00 20.00     0.000 C 
HETATM   11  C9  UNL     1     -33.160  17.331  -2.056  1.00 20.00     0.005 C 
ENDBRANCH   8  10
ENDBRANCH   3   5
TORSDOF 2
ENDMDL
MODEL 6
REMARK VINA RESULT:      -4.4     16.479     18.151
REMARK  2 active torsions:
REMARK  status: ('A' for Active; 'I' for Inactive)
REMARK    1  A    between atoms: C3_3  and  C7_7 
REMARK    2  A    between atoms: C8_8  and  C10_10 
ROOT
HETATM    1  C1  UNL     1     -38.096  15.043  -4.364  1.00 20.00     0.021 C 
HETATM    2  C2  UNL     1     -37.050  14.454  -4.340  1.00 20.00    -0.039 C 
HETATM    3  C3  UNL     1     -35.792  13.745  -4.313  1.00 20.00     0.205 C 
HETATM    4  O11 UNL     1     -35.777  12.528  -4.446  1.00 20.00    -0.283 OA
ENDROOT
BRANCH   3   5
HETATM    5  C7  UNL     1     -34.563  14.579  -4.119  1.00 20.00     0.069 C 
HETATM    6  C4  UNL     1     -34.663  15.396  -2.829  1.00 20.00     0.013 C 
HETATM    7  C5  UNL     1     -35.037  16.800  -3.284  1.00 20.00     0.005 C 
HETATM    8  C8  UNL     1     -34.254  16.954  -4.584  1.00 20.00    -0.014 C 
HETATM    9  C6  UNL     1     -34.424  15.592  -5.262  1.00 20.00     0.017 C 
BRANCH   8  10
HETATM   10  C10 UNL     1     -34.736  18.114  -5.437  1.00 20.00     0.000 C 
HETATM   11  C9  UNL     1     -36.051  17.821  -6.091  1.00 20.00     0.005 C 
ENDBRANCH   8  10
ENDBRANCH   3   5
TORSDOF 2
ENDMDL
MODEL 7
REMARK VINA RESULT:      -4.4     15.837     18.161
REMARK  2 active torsions:
REMARK  status: ('A' for Active; 'I' for Inactive)
REMARK    1  A    between atoms: C3_3  and  C7_7 
REMARK    2  A    between atoms: C8_8  and  C10_10 
ROOT
HETATM    1  C1  UNL     1     -38.541  17.316  -3.331  1.00 20.00     0.021 C 
HETATM    2  C2  UNL     1     -38.236  16.268  -3.830  1.00 20.00    -0.039 C 
HETATM    3  C3  UNL     1     -37.871  15.007  -4.431  1.00 20.00     0.205 C 
HETATM    4  O11 UNL     1     -38.629  14.050  -4.344  1.00 20.00    -0.283 OA
ENDROOT
BRANCH   3   5
HETATM    5  C7  UNL     1     -36.551  14.967  -5.139  1.00 20.00     0.069 C 
HETATM    6  C4  UNL     1     -35.845  13.632  -4.887  1.00 20.00     0.013 C 
HETATM    7  C5  UNL     1     -34.795  13.940  -3.829  1.00 20.00     0.005 C 
HETATM    8  C8  UNL     1     -34.324  15.338  -4.216  1.00 20.00    -0.014 C 
HETATM    9  C6  UNL     1     -35.622  16.057  -4.593  1.00 20.00     0.017 C 
BRANCH   8  10
HETATM   10  C10 UNL     1     -33.550  16.035  -3.111  1.00 20.00     0.000 C 
HETATM   11  C9  UNL     1     -34.442  16.470  -1.990  1.00 20.00     0.005 C 
ENDBRANCH   8  10
ENDBRANCH   3   5
TORSDOF 2
ENDMDL
MODEL 8
REMARK VINA RESULT:      -4.4     22.187     24.169
REMARK  2 active torsions:
REMARK  status: ('A' for Active; 'I' for Inactive)
REMARK    1  A    between atoms: C3_3  and  C7_7 
REMARK    2  A    between atoms: C8_8  and  C10_10 
ROOT
HETATM    1  C1  UNL     1     -41.170   9.598   0.545  1.00 20.00     0.021 C 
HETATM    2  C2  UNL     1     -41.759   8.776  -0.101  1.00 20.00    -0.039 C 
HETATM    3  C3  UNL     1     -42.468   7.789  -0.880  1.00 20.00     0.205 C 
HETATM    4  O11 UNL     1     -43.009   8.115  -1.929  1.00 20.00    -0.283 OA
ENDROOT
BRANCH   3   5
HETATM    5  C7  UNL     1     -42.487   6.396  -0.328  1.00 20.00     0.069 C 
HETATM    6  C4  UNL     1     -41.096   5.764  -0.413  1.00 20.00     0.013 C 
HETATM    7  C5  UNL     1     -41.161   4.838  -1.621  1.00 20.00     0.005 C 
HETATM    8  C8  UNL     1     -42.580   4.284  -1.546  1.00 20.00    -0.014 C 
HETATM    9  C6  UNL     1     -43.417   5.507  -1.162  1.00 20.00     0.017 C 
BRANCH   8  10
HETATM   10  C10 UNL     1     -43.034   3.628  -2.838  1.00 20.00     0.000 C 
HETATM   11  C9  UNL     1     -41.960   2.778  -3.443  1.00 20.00     0.005 C 
ENDBRANCH   8  10
ENDBRANCH   3   5
TORSDOF 2
ENDMDL
MODEL 9
REMARK VINA RESULT:      -4.3     10.948     13.301
REMARK  2 active torsions:
REMARK  status: ('A' for Active; 'I' for Inactive)
REMARK    1  A    between atoms: C3_3  and  C7_7 
REMARK    2  A    between atoms: C8_8  and  C10_10 
ROOT
HETATM    1  C1  UNL     1     -33.242  15.757  -3.535  1.00 20.00     0.021 C 
HETATM    2  C2  UNL     1     -33.727  16.349  -2.610  1.00 20.00    -0.039 C 
HETATM    3  C3  UNL     1     -34.311  17.060  -1.498  1.00 20.00     0.205 C 
HETATM    4  O11 UNL     1     -35.270  16.582  -0.905  1.00 20.00    -0.283 OA
ENDROOT
BRANCH   3   5
HETATM    5  C7  UNL     1     -33.677  18.370  -1.140  1.00 20.00     0.069 C 
HETATM    6  C4  UNL     1     -32.256  18.452  -1.701  1.00 20.00     0.013 C 
HETATM    7  C5  UNL     1     -31.350  18.165  -0.511  1.00 20.00     0.005 C 
HETATM    8  C8  UNL     1     -32.081  18.845   0.642  1.00 20.00    -0.014 C 
HETATM    9  C6  UNL     1     -33.549  18.499   0.383  1.00 20.00     0.017 C 
BRANCH   8  10
HETATM   10  C10 UNL     1     -31.590  18.395   2.008  1.00 20.00     0.000 C 
HETATM   11  C9  UNL     1     -32.683  17.773   2.819  1.00 20.00     0.005 C 
ENDBRANCH   8  10
ENDBRANCH   3   5
TORSDOF 2
ENDMDL
