MODEL 1
REMARK VINA RESULT:      -5.1      0.000      0.000
REMARK  1 active torsions:
REMARK  status: ('A' for Active; 'I' for Inactive)
REMARK    1  A    between atoms: C3_3  and  C5_5 
ROOT
HETATM    1  C1  UNL     1     -32.423   7.645   2.000  1.00 20.00     0.021 C 
HETATM    2  C2  UNL     1     -32.897   6.626   2.424  1.00 20.00    -0.039 C 
HETATM    3  C3  UNL     1     -33.466   5.401   2.933  1.00 20.00     0.206 C 
HETATM    4  O8  UNL     1     -32.916   4.332   2.702  1.00 20.00    -0.283 OA
ENDROOT
BRANCH   3   5
HETATM    5  C5  UNL     1     -34.699   5.534   3.717  1.00 20.00     0.073 A 
HETATM    6  C4  UNL     1     -34.862   4.731   4.983  1.00 20.00     0.018 A 
HETATM    7  C6  UNL     1     -34.695   6.221   5.062  1.00 20.00    -0.006 A 
HETATM    8  C7  UNL     1     -33.456   6.804   5.650  1.00 20.00     0.011 C 
ENDBRANCH   3   5
TORSDOF 1
ENDMDL
MODEL 2
REMARK VINA RESULT:      -4.7      1.501      2.246
REMARK  1 active torsions:
REMARK  status: ('A' for Active; 'I' for Inactive)
REMARK    1  A    between atoms: C3_3  and  C5_5 
ROOT
HETATM    1  C1  UNL     1     -32.930   9.042   0.616  1.00 20.00     0.021 C 
HETATM    2  C2  UNL     1     -32.763   8.175   1.430  1.00 20.00    -0.039 C 
HETATM    3  C3  UNL     1     -32.561   7.133   2.408  1.00 20.00     0.206 C 
HETATM    4  O8  UNL     1     -31.771   7.306   3.328  1.00 20.00    -0.283 OA
ENDROOT
BRANCH   3   5
HETATM    5  C5  UNL     1     -33.344   5.906   2.223  1.00 20.00     0.073 A 
HETATM    6  C4  UNL     1     -32.959   4.661   2.980  1.00 20.00     0.018 A 
HETATM    7  C6  UNL     1     -34.233   5.378   3.323  1.00 20.00    -0.006 A 
HETATM    8  C7  UNL     1     -34.369   6.072   4.635  1.00 20.00     0.011 C 
ENDBRANCH   3   5
TORSDOF 1
ENDMDL
MODEL 3
REMARK VINA RESULT:      -4.6      1.562      1.678
REMARK  1 active torsions:
REMARK  status: ('A' for Active; 'I' for Inactive)
REMARK    1  A    between atoms: C3_3  and  C5_5 
ROOT
HETATM    1  C1  UNL     1     -32.259   7.630   1.514  1.00 20.00     0.021 C 
HETATM    2  C2  UNL     1     -32.759   7.179   2.508  1.00 20.00    -0.039 C 
HETATM    3  C3  UNL     1     -33.358   6.637   3.704  1.00 20.00     0.206 C 
HETATM    4  O8  UNL     1     -33.002   7.044   4.803  1.00 20.00    -0.283 OA
ENDROOT
BRANCH   3   5
HETATM    5  C5  UNL     1     -34.385   5.607   3.508  1.00 20.00     0.073 A 
HETATM    6  C4  UNL     1     -34.095   4.185   3.914  1.00 20.00     0.018 A 
HETATM    7  C6  UNL     1     -35.102   4.989   4.684  1.00 20.00    -0.006 A 
HETATM    8  C7  UNL     1     -34.815   5.396   6.089  1.00 20.00     0.011 C 
ENDBRANCH   3   5
TORSDOF 1
ENDMDL
MODEL 4
REMARK VINA RESULT:      -4.4     11.416     12.377
REMARK  1 active torsions:
REMARK  status: ('A' for Active; 'I' for Inactive)
REMARK    1  A    between atoms: C3_3  and  C5_5 
ROOT
HETATM    1  C1  UNL     1     -35.655  14.936  -7.232  1.00 20.00     0.021 C 
HETATM    2  C2  UNL     1     -35.850  14.516  -6.124  1.00 20.00    -0.039 C 
HETATM    3  C3  UNL     1     -36.085  14.011  -4.792  1.00 20.00     0.206 C 
HETATM    4  O8  UNL     1     -37.187  13.568  -4.495  1.00 20.00    -0.283 OA
ENDROOT
BRANCH   3   5
HETATM    5  C5  UNL     1     -34.949  14.066  -3.865  1.00 20.00     0.073 A 
HETATM    6  C4  UNL     1     -33.838  15.054  -4.115  1.00 20.00     0.018 A 
HETATM    7  C6  UNL     1     -34.756  15.246  -2.942  1.00 20.00    -0.006 A 
HETATM    8  C7  UNL     1     -35.704  16.396  -2.916  1.00 20.00     0.011 C 
ENDBRANCH   3   5
TORSDOF 1
ENDMDL
MODEL 5
REMARK VINA RESULT:      -4.3     11.499     12.483
REMARK  1 active torsions:
REMARK  status: ('A' for Active; 'I' for Inactive)
REMARK    1  A    between atoms: C3_3  and  C5_5 
ROOT
HETATM    1  C1  UNL     1     -38.409  14.822  -4.327  1.00 20.00     0.021 C 
HETATM    2  C2  UNL     1     -37.297  14.367  -4.327  1.00 20.00    -0.039 C 
HETATM    3  C3  UNL     1     -35.962  13.818  -4.326  1.00 20.00     0.206 C 
HETATM    4  O8  UNL     1     -35.794  12.626  -4.545  1.00 20.00    -0.283 OA
ENDROOT
BRANCH   3   5
HETATM    5  C5  UNL     1     -34.872  14.762  -4.056  1.00 20.00     0.073 A 
HETATM    6  C4  UNL     1     -33.447  14.338  -4.306  1.00 20.00     0.018 A 
HETATM    7  C6  UNL     1     -34.080  15.378  -5.184  1.00 20.00    -0.006 A 
HETATM    8  C7  UNL     1     -34.369  15.073  -6.614  1.00 20.00     0.011 C 
ENDBRANCH   3   5
TORSDOF 1
ENDMDL
MODEL 6
REMARK VINA RESULT:      -4.3     11.326     12.593
REMARK  1 active torsions:
REMARK  status: ('A' for Active; 'I' for Inactive)
REMARK    1  A    between atoms: C3_3  and  C5_5 
ROOT
HETATM    1  C1  UNL     1     -34.743  15.984  -2.365  1.00 20.00     0.021 C 
HETATM    2  C2  UNL     1     -34.891  15.085  -3.147  1.00 20.00    -0.039 C 
HETATM    3  C3  UNL     1     -35.068  14.004  -4.087  1.00 20.00     0.206 C 
HETATM    4  O8  UNL     1     -34.447  12.960  -3.938  1.00 20.00    -0.283 OA
ENDROOT
BRANCH   3   5
HETATM    5  C5  UNL     1     -36.011  14.245  -5.185  1.00 20.00     0.073 A 
HETATM    6  C4  UNL     1     -36.306  15.661  -5.610  1.00 20.00     0.018 A 
HETATM    7  C6  UNL     1     -35.532  14.755  -6.523  1.00 20.00    -0.006 A 
HETATM    8  C7  UNL     1     -34.092  15.025  -6.799  1.00 20.00     0.011 C 
ENDBRANCH   3   5
TORSDOF 1
ENDMDL
MODEL 7
REMARK VINA RESULT:      -4.3     11.681     12.508
REMARK  1 active torsions:
REMARK  status: ('A' for Active; 'I' for Inactive)
REMARK    1  A    between atoms: C3_3  and  C5_5 
ROOT
HETATM    1  C1  UNL     1     -34.399  15.384  -6.942  1.00 20.00     0.021 C 
HETATM    2  C2  UNL     1     -34.041  15.013  -5.857  1.00 20.00    -0.039 C 
HETATM    3  C3  UNL     1     -33.612  14.568  -4.553  1.00 20.00     0.206 C 
HETATM    4  O8  UNL     1     -33.765  13.397  -4.229  1.00 20.00    -0.283 OA
ENDROOT
BRANCH   3   5
HETATM    5  C5  UNL     1     -33.003  15.583  -3.687  1.00 20.00     0.073 A 
HETATM    6  C4  UNL     1     -33.447  17.019  -3.805  1.00 20.00     0.018 A 
HETATM    7  C6  UNL     1     -33.793  16.231  -2.575  1.00 20.00    -0.006 A 
HETATM    8  C7  UNL     1     -35.211  15.868  -2.295  1.00 20.00     0.011 C 
ENDBRANCH   3   5
TORSDOF 1
ENDMDL
MODEL 8
REMARK VINA RESULT:      -4.3      1.428      3.171
REMARK  1 active torsions:
REMARK  status: ('A' for Active; 'I' for Inactive)
REMARK    1  A    between atoms: C3_3  and  C5_5 
ROOT
HETATM    1  C1  UNL     1     -33.964   6.866   6.351  1.00 20.00     0.021 C 
HETATM    2  C2  UNL     1     -34.319   6.214   5.407  1.00 20.00    -0.039 C 
HETATM    3  C3  UNL     1     -34.746   5.430   4.272  1.00 20.00     0.206 C 
HETATM    4  O8  UNL     1     -35.934   5.383   3.977  1.00 20.00    -0.283 OA
ENDROOT
BRANCH   3   5
HETATM    5  C5  UNL     1     -33.691   4.728   3.533  1.00 20.00     0.073 A 
HETATM    6  C4  UNL     1     -33.784   4.624   2.032  1.00 20.00     0.018 A 
HETATM    7  C6  UNL     1     -32.722   5.484   2.656  1.00 20.00    -0.006 A 
HETATM    8  C7  UNL     1     -32.779   6.966   2.506  1.00 20.00     0.011 C 
ENDBRANCH   3   5
TORSDOF 1
ENDMDL
MODEL 9
REMARK VINA RESULT:      -4.1     11.420     12.203
REMARK  1 active torsions:
REMARK  status: ('A' for Active; 'I' for Inactive)
REMARK    1  A    between atoms: C3_3  and  C5_5 
ROOT
HETATM    1  C1  UNL     1     -34.008  16.464  -2.321  1.00 20.00     0.021 C 
HETATM    2  C2  UNL     1     -34.068  15.524  -3.066  1.00 20.00    -0.039 C 
HETATM    3  C3  UNL     1     -34.140  14.395  -3.963  1.00 20.00     0.206 C 
HETATM    4  O8  UNL     1     -33.124  13.992  -4.516  1.00 20.00    -0.283 OA
ENDROOT
BRANCH   3   5
HETATM    5  C5  UNL     1     -35.465  13.794  -4.147  1.00 20.00     0.073 A 
HETATM    6  C4  UNL     1     -36.689  14.673  -4.101  1.00 20.00     0.018 A 
HETATM    7  C6  UNL     1     -36.267  14.050  -5.401  1.00 20.00    -0.006 A 
HETATM    8  C7  UNL     1     -35.755  14.908  -6.507  1.00 20.00     0.011 C 
ENDBRANCH   3   5
TORSDOF 1
ENDMDL
