MODEL 1
REMARK VINA RESULT:      -4.2      0.000      0.000
REMARK  2 active torsions:
REMARK  status: ('A' for Active; 'I' for Inactive)
REMARK    1  A    between atoms: C5_5  and  C8_8 
REMARK    2  A    between atoms: C8_8  and  N9_9 
ROOT
HETATM    1  C1  UNL     1     -24.952  19.236   7.450  1.00 20.00     0.014 C 
HETATM    2  C2  UNL     1     -24.876  18.896   8.600  1.00 20.00    -0.081 C 
HETATM    3  C8  UNL     1     -24.812  18.482  10.020  1.00 20.00     0.301 C 
ENDROOT
BRANCH   3   4
HETATM    4  C5  UNL     1     -24.184  17.141  10.189  1.00 20.00     0.035 A 
HETATM    5  C3  UNL     1     -24.607  16.242  11.321  1.00 20.00     0.012 A 
HETATM    6  C4  UNL     1     -23.221  16.832  11.312  1.00 20.00    -0.011 A 
HETATM    7  C6  UNL     1     -22.830  17.846  12.331  1.00 20.00     0.010 C 
ENDBRANCH   3   4
BRANCH   3   8
HETATM    8  N9  UNL     1     -26.154  18.522  10.577  1.00 20.00     0.095 N 
HETATM    9  C7  UNL     1     -26.178  19.262  11.832  1.00 20.00     0.308 C 
HETATM   10  H22 UNL     1     -26.783  18.974   9.911  1.00 20.00     0.317 HD
ENDBRANCH   3   8
TORSDOF 2
ENDMDL
MODEL 2
REMARK VINA RESULT:      -4.1      2.010      2.896
REMARK  2 active torsions:
REMARK  status: ('A' for Active; 'I' for Inactive)
REMARK    1  A    between atoms: C5_5  and  C8_8 
REMARK    2  A    between atoms: C8_8  and  N9_9 
ROOT
HETATM    1  C1  UNL     1     -24.414  18.936   7.745  1.00 20.00     0.014 C 
HETATM    2  C2  UNL     1     -24.076  18.236   8.661  1.00 20.00    -0.081 C 
HETATM    3  C8  UNL     1     -23.637  17.363   9.773  1.00 20.00     0.301 C 
ENDROOT
BRANCH   3   4
HETATM    4  C5  UNL     1     -23.417  18.123  11.035  1.00 20.00     0.035 A 
HETATM    5  C3  UNL     1     -22.809  17.444  12.235  1.00 20.00     0.012 A 
HETATM    6  C4  UNL     1     -24.247  17.893  12.277  1.00 20.00    -0.011 A 
HETATM    7  C6  UNL     1     -25.346  16.889  12.329  1.00 20.00     0.010 C 
ENDBRANCH   3   4
BRANCH   3   8
HETATM    8  N9  UNL     1     -22.442  16.647   9.359  1.00 20.00     0.095 N 
HETATM    9  C7  UNL     1     -21.432  17.565   8.848  1.00 20.00     0.308 C 
HETATM   10  H22 UNL     1     -22.057  16.139  10.157  1.00 20.00     0.317 HD
ENDBRANCH   3   8
TORSDOF 2
ENDMDL
MODEL 3
REMARK VINA RESULT:      -3.9      1.608      3.790
REMARK  2 active torsions:
REMARK  status: ('A' for Active; 'I' for Inactive)
REMARK    1  A    between atoms: C5_5  and  C8_8 
REMARK    2  A    between atoms: C8_8  and  N9_9 
ROOT
HETATM    1  C1  UNL     1     -25.041  15.533  11.959  1.00 20.00     0.014 C 
HETATM    2  C2  UNL     1     -24.643  16.575  11.514  1.00 20.00    -0.081 C 
HETATM    3  C8  UNL     1     -24.138  17.865  10.990  1.00 20.00     0.301 C 
ENDROOT
BRANCH   3   4
HETATM    4  C5  UNL     1     -23.356  17.698   9.733  1.00 20.00     0.035 A 
HETATM    5  C3  UNL     1     -22.668  18.881   9.104  1.00 20.00     0.012 A 
HETATM    6  C4  UNL     1     -23.834  18.233   8.403  1.00 20.00    -0.011 A 
HETATM    7  C6  UNL     1     -25.122  18.966   8.252  1.00 20.00     0.010 C 
ENDBRANCH   3   4
BRANCH   3   8
HETATM    8  N9  UNL     1     -23.357  18.514  12.029  1.00 20.00     0.095 N 
HETATM    9  C7  UNL     1     -22.151  17.754  12.332  1.00 20.00     0.308 C 
HETATM   10  H22 UNL     1     -23.092  19.450  11.718  1.00 20.00     0.317 HD
ENDBRANCH   3   8
TORSDOF 2
ENDMDL
MODEL 4
REMARK VINA RESULT:      -3.9      2.168      3.630
REMARK  2 active torsions:
REMARK  status: ('A' for Active; 'I' for Inactive)
REMARK    1  A    between atoms: C5_5  and  C8_8 
REMARK    2  A    between atoms: C8_8  and  N9_9 
ROOT
HETATM    1  C1  UNL     1     -24.696  15.729  11.753  1.00 20.00     0.014 C 
HETATM    2  C2  UNL     1     -24.205  16.468  10.944  1.00 20.00    -0.081 C 
HETATM    3  C8  UNL     1     -23.615  17.402   9.958  1.00 20.00     0.301 C 
ENDROOT
BRANCH   3   4
HETATM    4  C5  UNL     1     -22.126  17.385   9.983  1.00 20.00     0.035 A 
HETATM    5  C3  UNL     1     -21.344  18.597   9.549  1.00 20.00     0.012 A 
HETATM    6  C4  UNL     1     -21.293  17.337   8.723  1.00 20.00    -0.011 A 
HETATM    7  C6  UNL     1     -21.901  17.305   7.364  1.00 20.00     0.010 C 
ENDBRANCH   3   4
BRANCH   3   8
HETATM    8  N9  UNL     1     -24.142  18.734  10.205  1.00 20.00     0.095 N 
HETATM    9  C7  UNL     1     -24.994  19.173   9.108  1.00 20.00     0.308 C 
HETATM   10  H22 UNL     1     -24.688  18.727  11.069  1.00 20.00     0.317 HD
ENDBRANCH   3   8
TORSDOF 2
ENDMDL
MODEL 5
REMARK VINA RESULT:      -3.9      2.151      2.692
REMARK  2 active torsions:
REMARK  status: ('A' for Active; 'I' for Inactive)
REMARK    1  A    between atoms: C5_5  and  C8_8 
REMARK    2  A    between atoms: C8_8  and  N9_9 
ROOT
HETATM    1  C1  UNL     1     -21.440  17.009   7.347  1.00 20.00     0.014 C 
HETATM    2  C2  UNL     1     -22.038  17.553   8.235  1.00 20.00    -0.081 C 
HETATM    3  C8  UNL     1     -22.788  18.242   9.310  1.00 20.00     0.301 C 
ENDROOT
BRANCH   3   4
HETATM    4  C5  UNL     1     -23.578  17.295  10.145  1.00 20.00     0.035 A 
HETATM    5  C3  UNL     1     -24.529  17.815  11.191  1.00 20.00     0.012 A 
HETATM    6  C4  UNL     1     -23.289  17.068  11.611  1.00 20.00    -0.011 A 
HETATM    7  C6  UNL     1     -22.192  17.777  12.328  1.00 20.00     0.010 C 
ENDBRANCH   3   4
BRANCH   3   8
HETATM    8  N9  UNL     1     -23.630  19.263   8.709  1.00 20.00     0.095 N 
HETATM    9  C7  UNL     1     -24.579  18.675   7.773  1.00 20.00     0.308 C 
HETATM   10  H22 UNL     1     -24.145  19.753   9.442  1.00 20.00     0.317 HD
ENDBRANCH   3   8
TORSDOF 2
ENDMDL
MODEL 6
REMARK VINA RESULT:      -3.8      1.661      2.708
REMARK  2 active torsions:
REMARK  status: ('A' for Active; 'I' for Inactive)
REMARK    1  A    between atoms: C5_5  and  C8_8 
REMARK    2  A    between atoms: C8_8  and  N9_9 
ROOT
HETATM    1  C1  UNL     1     -21.293  17.773   9.076  1.00 20.00     0.014 C 
HETATM    2  C2  UNL     1     -22.373  18.009   9.545  1.00 20.00    -0.081 C 
HETATM    3  C8  UNL     1     -23.718  18.290  10.098  1.00 20.00     0.301 C 
ENDROOT
BRANCH   3   4
HETATM    4  C5  UNL     1     -23.936  17.630  11.416  1.00 20.00     0.035 A 
HETATM    5  C3  UNL     1     -25.091  16.682  11.610  1.00 20.00     0.012 A 
HETATM    6  C4  UNL     1     -25.079  18.005  12.332  1.00 20.00    -0.011 A 
HETATM    7  C6  UNL     1     -26.070  19.060  11.982  1.00 20.00     0.010 C 
ENDBRANCH   3   4
BRANCH   3   8
HETATM    8  N9  UNL     1     -24.716  17.885   9.122  1.00 20.00     0.095 N 
HETATM    9  C7  UNL     1     -25.116  19.009   8.284  1.00 20.00     0.308 C 
HETATM   10  H22 UNL     1     -24.331  17.148   8.529  1.00 20.00     0.317 HD
ENDBRANCH   3   8
TORSDOF 2
ENDMDL
MODEL 7
REMARK VINA RESULT:      -3.8     16.569     18.154
REMARK  2 active torsions:
REMARK  status: ('A' for Active; 'I' for Inactive)
REMARK    1  A    between atoms: C5_5  and  C8_8 
REMARK    2  A    between atoms: C8_8  and  N9_9 
ROOT
HETATM    1  C1  UNL     1     -33.911  15.138  -7.166  1.00 20.00     0.014 C 
HETATM    2  C2  UNL     1     -34.432  15.407  -6.118  1.00 20.00    -0.081 C 
HETATM    3  C8  UNL     1     -35.098  15.724  -4.834  1.00 20.00     0.301 C 
ENDROOT
BRANCH   3   4
HETATM    4  C5  UNL     1     -34.276  15.325  -3.657  1.00 20.00     0.035 A 
HETATM    5  C3  UNL     1     -34.579  15.888  -2.293  1.00 20.00     0.012 A 
HETATM    6  C4  UNL     1     -33.299  16.268  -2.993  1.00 20.00    -0.011 A 
HETATM    7  C6  UNL     1     -33.088  17.664  -3.467  1.00 20.00     0.010 C 
ENDBRANCH   3   4
BRANCH   3   8
HETATM    8  N9  UNL     1     -36.405  15.087  -4.819  1.00 20.00     0.095 N 
HETATM    9  C7  UNL     1     -36.286  13.650  -4.614  1.00 20.00     0.308 C 
HETATM   10  H22 UNL     1     -36.967  15.486  -4.066  1.00 20.00     0.317 HD
ENDBRANCH   3   8
TORSDOF 2
ENDMDL
MODEL 8
REMARK VINA RESULT:      -3.8     14.338     16.666
REMARK  2 active torsions:
REMARK  status: ('A' for Active; 'I' for Inactive)
REMARK    1  A    between atoms: C5_5  and  C8_8 
REMARK    2  A    between atoms: C8_8  and  N9_9 
ROOT
HETATM    1  C1  UNL     1     -31.849  18.440  -1.080  1.00 20.00     0.014 C 
HETATM    2  C2  UNL     1     -32.541  17.974  -1.944  1.00 20.00    -0.081 C 
HETATM    3  C8  UNL     1     -33.378  17.414  -3.030  1.00 20.00     0.301 C 
ENDROOT
BRANCH   3   4
HETATM    4  C5  UNL     1     -33.385  15.924  -3.027  1.00 20.00     0.035 A 
HETATM    5  C3  UNL     1     -33.622  15.163  -4.305  1.00 20.00     0.012 A 
HETATM    6  C4  UNL     1     -34.652  15.119  -3.206  1.00 20.00    -0.011 A 
HETATM    7  C6  UNL     1     -35.984  15.756  -3.398  1.00 20.00     0.010 C 
ENDBRANCH   3   4
BRANCH   3   8
HETATM    8  N9  UNL     1     -32.912  17.948  -4.299  1.00 20.00     0.095 N 
HETATM    9  C7  UNL     1     -33.900  18.845  -4.885  1.00 20.00     0.308 C 
HETATM   10  H22 UNL     1     -32.042  18.462  -4.151  1.00 20.00     0.317 HD
ENDBRANCH   3   8
TORSDOF 2
ENDMDL
MODEL 9
REMARK VINA RESULT:      -3.7     15.904     17.571
REMARK  2 active torsions:
REMARK  status: ('A' for Active; 'I' for Inactive)
REMARK    1  A    between atoms: C5_5  and  C8_8 
REMARK    2  A    between atoms: C8_8  and  N9_9 
ROOT
HETATM    1  C1  UNL     1     -36.286  13.592  -4.591  1.00 20.00     0.014 C 
HETATM    2  C2  UNL     1     -36.060  14.650  -4.068  1.00 20.00    -0.081 C 
HETATM    3  C8  UNL     1     -35.811  15.956  -3.417  1.00 20.00     0.301 C 
ENDROOT
BRANCH   3   4
HETATM    4  C5  UNL     1     -34.774  15.868  -2.351  1.00 20.00     0.035 A 
HETATM    5  C3  UNL     1     -34.563  17.016  -1.399  1.00 20.00     0.012 A 
HETATM    6  C4  UNL     1     -33.491  16.666  -2.399  1.00 20.00    -0.011 A 
HETATM    7  C6  UNL     1     -33.171  17.599  -3.515  1.00 20.00     0.010 C 
ENDBRANCH   3   4
BRANCH   3   8
HETATM    8  N9  UNL     1     -37.070  16.467  -2.902  1.00 20.00     0.095 N 
HETATM    9  C7  UNL     1     -37.541  17.597  -3.693  1.00 20.00     0.308 C 
HETATM   10  H22 UNL     1     -37.772  15.726  -2.928  1.00 20.00     0.317 HD
ENDBRANCH   3   8
TORSDOF 2
ENDMDL
