MODEL 1
REMARK VINA RESULT:      -5.0      0.000      0.000
REMARK  1 active torsions:
REMARK  status: ('A' for Active; 'I' for Inactive)
REMARK    1  A    between atoms: C3_3  and  C5_5 
ROOT
HETATM    1  C1  UNL     1     -35.021   5.088   5.437  1.00 20.00     0.021 C 
HETATM    2  C2  UNL     1     -34.397   5.300   4.434  1.00 20.00    -0.039 C 
HETATM    3  C3  UNL     1     -33.645   5.553   3.228  1.00 20.00     0.206 C 
HETATM    4  O8  UNL     1     -33.322   4.621   2.505  1.00 20.00    -0.283 OA
ENDROOT
BRANCH   3   5
HETATM    5  C5  UNL     1     -33.315   6.956   2.950  1.00 20.00     0.073 A 
HETATM    6  C4  UNL     1     -31.901   7.437   3.158  1.00 20.00     0.018 A 
HETATM    7  C6  UNL     1     -32.443   7.285   1.765  1.00 20.00    -0.006 A 
HETATM    8  C7  UNL     1     -32.729   8.491   0.937  1.00 20.00     0.011 C 
ENDBRANCH   3   5
TORSDOF 1
ENDMDL
MODEL 2
REMARK VINA RESULT:      -4.9      1.395      4.036
REMARK  1 active torsions:
REMARK  status: ('A' for Active; 'I' for Inactive)
REMARK    1  A    between atoms: C3_3  and  C5_5 
ROOT
HETATM    1  C1  UNL     1     -32.736   8.757   0.300  1.00 20.00     0.021 C 
HETATM    2  C2  UNL     1     -32.680   8.057   1.273  1.00 20.00    -0.039 C 
HETATM    3  C3  UNL     1     -32.614   7.215   2.443  1.00 20.00     0.206 C 
HETATM    4  O8  UNL     1     -31.729   7.390   3.270  1.00 20.00    -0.283 OA
ENDROOT
BRANCH   3   5
HETATM    5  C5  UNL     1     -33.646   6.177   2.558  1.00 20.00     0.073 A 
HETATM    6  C4  UNL     1     -33.234   4.727   2.580  1.00 20.00     0.018 A 
HETATM    7  C6  UNL     1     -33.746   5.378   3.833  1.00 20.00    -0.006 A 
HETATM    8  C7  UNL     1     -35.082   5.006   4.379  1.00 20.00     0.011 C 
ENDBRANCH   3   5
TORSDOF 1
ENDMDL
MODEL 3
REMARK VINA RESULT:      -4.8      0.848      3.961
REMARK  1 active torsions:
REMARK  status: ('A' for Active; 'I' for Inactive)
REMARK    1  A    between atoms: C3_3  and  C5_5 
ROOT
HETATM    1  C1  UNL     1     -32.416   7.925   1.463  1.00 20.00     0.021 C 
HETATM    2  C2  UNL     1     -32.791   6.966   2.078  1.00 20.00    -0.039 C 
HETATM    3  C3  UNL     1     -33.242   5.811   2.818  1.00 20.00     0.206 C 
HETATM    4  O8  UNL     1     -32.884   4.692   2.478  1.00 20.00    -0.283 OA
ENDROOT
BRANCH   3   5
HETATM    5  C5  UNL     1     -34.125   6.075   3.961  1.00 20.00     0.073 A 
HETATM    6  C4  UNL     1     -35.565   5.632   3.898  1.00 20.00     0.018 A 
HETATM    7  C6  UNL     1     -34.602   4.919   4.804  1.00 20.00    -0.006 A 
HETATM    8  C7  UNL     1     -34.714   5.067   6.282  1.00 20.00     0.011 C 
ENDBRANCH   3   5
TORSDOF 1
ENDMDL
MODEL 4
REMARK VINA RESULT:      -4.3     10.575     11.322
REMARK  1 active torsions:
REMARK  status: ('A' for Active; 'I' for Inactive)
REMARK    1  A    between atoms: C3_3  and  C5_5 
ROOT
HETATM    1  C1  UNL     1     -37.774  15.448  -4.399  1.00 20.00     0.021 C 
HETATM    2  C2  UNL     1     -36.854  14.680  -4.326  1.00 20.00    -0.039 C 
HETATM    3  C3  UNL     1     -35.749  13.756  -4.239  1.00 20.00     0.206 C 
HETATM    4  O8  UNL     1     -35.873  12.616  -4.667  1.00 20.00    -0.283 OA
ENDROOT
BRANCH   3   5
HETATM    5  C5  UNL     1     -34.519  14.269  -3.623  1.00 20.00     0.073 A 
HETATM    6  C4  UNL     1     -33.386  14.724  -4.507  1.00 20.00     0.018 A 
HETATM    7  C6  UNL     1     -34.193  15.736  -3.743  1.00 20.00    -0.006 A 
HETATM    8  C7  UNL     1     -33.585  16.464  -2.593  1.00 20.00     0.011 C 
ENDBRANCH   3   5
TORSDOF 1
ENDMDL
MODEL 5
REMARK VINA RESULT:      -4.3     15.993     17.097
REMARK  1 active torsions:
REMARK  status: ('A' for Active; 'I' for Inactive)
REMARK    1  A    between atoms: C3_3  and  C5_5 
ROOT
HETATM    1  C1  UNL     1     -25.409  19.263   8.464  1.00 20.00     0.021 C 
HETATM    2  C2  UNL     1     -24.323  18.948   8.866  1.00 20.00    -0.039 C 
HETATM    3  C3  UNL     1     -23.017  18.570   9.350  1.00 20.00     0.206 C 
HETATM    4  O8  UNL     1     -22.025  19.172   8.959  1.00 20.00    -0.283 OA
ENDROOT
BRANCH   3   5
HETATM    5  C5  UNL     1     -22.973  17.457  10.305  1.00 20.00     0.073 A 
HETATM    6  C4  UNL     1     -22.805  17.751  11.774  1.00 20.00     0.018 A 
HETATM    7  C6  UNL     1     -24.126  17.258  11.256  1.00 20.00    -0.006 A 
HETATM    8  C7  UNL     1     -24.595  15.883  11.588  1.00 20.00     0.011 C 
ENDBRANCH   3   5
TORSDOF 1
ENDMDL
MODEL 6
REMARK VINA RESULT:      -4.1      8.878      9.174
REMARK  1 active torsions:
REMARK  status: ('A' for Active; 'I' for Inactive)
REMARK    1  A    between atoms: C3_3  and  C5_5 
ROOT
HETATM    1  C1  UNL     1     -42.827   5.176   1.332  1.00 20.00     0.021 C 
HETATM    2  C2  UNL     1     -42.118   5.502   0.420  1.00 20.00    -0.039 C 
HETATM    3  C3  UNL     1     -41.265   5.893  -0.676  1.00 20.00     0.206 C 
HETATM    4  O8  UNL     1     -40.691   5.038  -1.337  1.00 20.00    -0.283 OA
ENDROOT
BRANCH   3   5
HETATM    5  C5  UNL     1     -41.145   7.335  -0.925  1.00 20.00     0.073 A 
HETATM    6  C4  UNL     1     -42.316   8.082  -1.511  1.00 20.00     0.018 A 
HETATM    7  C6  UNL     1     -41.935   8.296  -0.073  1.00 20.00    -0.006 A 
HETATM    8  C7  UNL     1     -41.328   9.588   0.356  1.00 20.00     0.011 C 
ENDBRANCH   3   5
TORSDOF 1
ENDMDL
MODEL 7
REMARK VINA RESULT:      -4.0      9.335      9.698
REMARK  1 active torsions:
REMARK  status: ('A' for Active; 'I' for Inactive)
REMARK    1  A    between atoms: C3_3  and  C5_5 
ROOT
HETATM    1  C1  UNL     1     -43.337   3.871  -2.212  1.00 20.00     0.021 C 
HETATM    2  C2  UNL     1     -42.575   4.649  -1.707  1.00 20.00    -0.039 C 
HETATM    3  C3  UNL     1     -41.659   5.584  -1.100  1.00 20.00     0.206 C 
HETATM    4  O8  UNL     1     -40.462   5.330  -1.066  1.00 20.00    -0.283 OA
ENDROOT
BRANCH   3   5
HETATM    5  C5  UNL     1     -42.249   6.811  -0.551  1.00 20.00     0.073 A 
HETATM    6  C4  UNL     1     -42.518   6.901   0.930  1.00 20.00     0.018 A 
HETATM    7  C6  UNL     1     -41.406   7.707   0.321  1.00 20.00    -0.006 A 
HETATM    8  C7  UNL     1     -41.527   9.188   0.210  1.00 20.00     0.011 C 
ENDBRANCH   3   5
TORSDOF 1
ENDMDL
MODEL 8
REMARK VINA RESULT:      -3.8     11.094     11.459
REMARK  1 active torsions:
REMARK  status: ('A' for Active; 'I' for Inactive)
REMARK    1  A    between atoms: C3_3  and  C5_5 
ROOT
HETATM    1  C1  UNL     1     -36.711  14.001  -4.516  1.00 20.00     0.021 C 
HETATM    2  C2  UNL     1     -35.560  14.269  -4.307  1.00 20.00    -0.039 C 
HETATM    3  C3  UNL     1     -34.176  14.592  -4.055  1.00 20.00     0.206 C 
HETATM    4  O8  UNL     1     -33.298  14.093  -4.748  1.00 20.00    -0.283 OA
ENDROOT
BRANCH   3   5
HETATM    5  C5  UNL     1     -33.915  15.526  -2.953  1.00 20.00     0.073 A 
HETATM    6  C4  UNL     1     -33.780  16.998  -3.250  1.00 20.00     0.018 A 
HETATM    7  C6  UNL     1     -34.997  16.487  -2.532  1.00 20.00    -0.006 A 
HETATM    8  C7  UNL     1     -35.202  16.799  -1.089  1.00 20.00     0.011 C 
ENDBRANCH   3   5
TORSDOF 1
ENDMDL
MODEL 9
REMARK VINA RESULT:      -3.8     16.240     17.265
REMARK  1 active torsions:
REMARK  status: ('A' for Active; 'I' for Inactive)
REMARK    1  A    between atoms: C3_3  and  C5_5 
ROOT
HETATM    1  C1  UNL     1     -21.598  17.383   8.490  1.00 20.00     0.021 C 
HETATM    2  C2  UNL     1     -22.135  17.504   9.556  1.00 20.00    -0.039 C 
HETATM    3  C3  UNL     1     -22.780  17.650  10.839  1.00 20.00     0.206 C 
HETATM    4  O8  UNL     1     -22.102  17.775  11.851  1.00 20.00    -0.283 OA
ENDROOT
BRANCH   3   5
HETATM    5  C5  UNL     1     -24.248  17.638  10.835  1.00 20.00     0.073 A 
HETATM    6  C4  UNL     1     -24.979  16.575  11.614  1.00 20.00     0.018 A 
HETATM    7  C6  UNL     1     -24.990  17.997  12.098  1.00 20.00    -0.006 A 
HETATM    8  C7  UNL     1     -26.241  18.803  12.027  1.00 20.00     0.011 C 
ENDBRANCH   3   5
TORSDOF 1
ENDMDL
