MODEL 1
REMARK VINA RESULT:      -4.3      0.000      0.000
REMARK  5 active torsions:
REMARK  status: ('A' for Active; 'I' for Inactive)
REMARK    1  A    between atoms: C3_3  and  C5_5 
REMARK    2  A    between atoms: C5_5  and  C6_6 
REMARK    3  A    between atoms: C6_6  and  N9_9 
REMARK    4  A    between atoms: C7_7  and  C8_8 
REMARK    5  A    between atoms: C7_7  and  N9_9 
ROOT
HETATM    1  C6  UNL     1     -33.157   6.948   3.395  1.00 20.00     0.272 C 
ENDROOT
BRANCH   1   2
HETATM    2  C5  UNL     1     -32.516   7.271   2.050  1.00 20.00     0.034 C 
BRANCH   2   3
HETATM    3  C3  UNL     1     -33.329   8.268   1.236  1.00 20.00    -0.013 A 
HETATM    4  C1  UNL     1     -32.679   9.509   0.692  1.00 20.00     0.005 A 
HETATM    5  C2  UNL     1     -33.094   8.407  -0.242  1.00 20.00     0.005 A 
ENDBRANCH   2   3
ENDBRANCH   1   2
BRANCH   1   6
HETATM    6  N9  UNL     1     -33.419   5.544   3.552  1.00 20.00     0.085 N 
HETATM    7  C4  UNL     1     -33.205   4.814   2.293  1.00 20.00     0.309 C 
BRANCH   6   8
HETATM    8  C7  UNL     1     -34.789   5.302   4.033  1.00 20.00     0.286 C 
BRANCH   8   9
HETATM    9  C8  UNL     1     -34.863   5.175   5.545  1.00 20.00     0.144 C 
HETATM   10 CL10 UNL     1     -34.241   6.637   6.350  1.00 20.00    -0.129 Cl
ENDBRANCH   8   9
ENDBRANCH   6   8
ENDBRANCH   1   6
TORSDOF 5
ENDMDL
MODEL 2
REMARK VINA RESULT:      -4.0      1.109      1.340
REMARK  5 active torsions:
REMARK  status: ('A' for Active; 'I' for Inactive)
REMARK    1  A    between atoms: C3_3  and  C5_5 
REMARK    2  A    between atoms: C5_5  and  C6_6 
REMARK    3  A    between atoms: C6_6  and  N9_9 
REMARK    4  A    between atoms: C7_7  and  C8_8 
REMARK    5  A    between atoms: C7_7  and  N9_9 
ROOT
HETATM    1  C6  UNL     1     -32.886   6.150   2.156  1.00 20.00     0.272 C 
ENDROOT
BRANCH   1   2
HETATM    2  C5  UNL     1     -32.330   7.567   2.245  1.00 20.00     0.034 C 
BRANCH   2   3
HETATM    3  C3  UNL     1     -32.195   8.232   0.882  1.00 20.00    -0.013 A 
HETATM    4  C1  UNL     1     -33.355   8.244  -0.073  1.00 20.00     0.005 A 
HETATM    5  C2  UNL     1     -32.919   9.518   0.594  1.00 20.00     0.005 A 
ENDBRANCH   2   3
ENDBRANCH   1   2
BRANCH   1   6
HETATM    6  N9  UNL     1     -33.318   5.652   3.432  1.00 20.00     0.085 N 
HETATM    7  C4  UNL     1     -34.108   4.420   3.289  1.00 20.00     0.309 C 
BRANCH   6   8
HETATM    8  C7  UNL     1     -34.105   6.657   4.164  1.00 20.00     0.286 C 
BRANCH   8   9
HETATM    9  C8  UNL     1     -33.926   6.557   5.669  1.00 20.00     0.144 C 
HETATM   10 CL10 UNL     1     -34.896   5.227   6.350  1.00 20.00    -0.129 Cl
ENDBRANCH   8   9
ENDBRANCH   6   8
ENDBRANCH   1   6
TORSDOF 5
ENDMDL
MODEL 3
REMARK VINA RESULT:      -3.9      2.561      5.033
REMARK  5 active torsions:
REMARK  status: ('A' for Active; 'I' for Inactive)
REMARK    1  A    between atoms: C3_3  and  C5_5 
REMARK    2  A    between atoms: C5_5  and  C6_6 
REMARK    3  A    between atoms: C6_6  and  N9_9 
REMARK    4  A    between atoms: C7_7  and  C8_8 
REMARK    5  A    between atoms: C7_7  and  N9_9 
ROOT
HETATM    1  C6  UNL     1     -33.661   6.480   2.592  1.00 20.00     0.272 C 
ENDROOT
BRANCH   1   2
HETATM    2  C5  UNL     1     -33.894   5.338   3.575  1.00 20.00     0.034 C 
BRANCH   2   3
HETATM    3  C3  UNL     1     -34.829   5.724   4.714  1.00 20.00    -0.013 A 
HETATM    4  C1  UNL     1     -34.807   4.955   6.005  1.00 20.00     0.005 A 
HETATM    5  C2  UNL     1     -34.280   6.362   5.959  1.00 20.00     0.005 A 
ENDBRANCH   2   3
ENDBRANCH   1   2
BRANCH   1   6
HETATM    6  N9  UNL     1     -32.275   6.849   2.503  1.00 20.00     0.085 N 
HETATM    7  C4  UNL     1     -31.852   7.633   3.674  1.00 20.00     0.309 C 
BRANCH   6   8
HETATM    8  C7  UNL     1     -31.999   7.613   1.276  1.00 20.00     0.286 C 
BRANCH   8   9
HETATM    9  C8  UNL     1     -32.934   8.798   1.103  1.00 20.00     0.144 C 
HETATM   10 CL10 UNL     1     -33.614   8.853  -0.542  1.00 20.00    -0.129 Cl
ENDBRANCH   8   9
ENDBRANCH   6   8
ENDBRANCH   1   6
TORSDOF 5
ENDMDL
MODEL 4
REMARK VINA RESULT:      -3.8     11.104     11.787
REMARK  5 active torsions:
REMARK  status: ('A' for Active; 'I' for Inactive)
REMARK    1  A    between atoms: C3_3  and  C5_5 
REMARK    2  A    between atoms: C5_5  and  C6_6 
REMARK    3  A    between atoms: C6_6  and  N9_9 
REMARK    4  A    between atoms: C7_7  and  C8_8 
REMARK    5  A    between atoms: C7_7  and  N9_9 
ROOT
HETATM    1  C6  UNL     1     -33.886  14.703  -4.437  1.00 20.00     0.272 C 
ENDROOT
BRANCH   1   2
HETATM    2  C5  UNL     1     -33.627  15.902  -3.531  1.00 20.00     0.034 C 
BRANCH   2   3
HETATM    3  C3  UNL     1     -34.537  15.925  -2.311  1.00 20.00    -0.013 A 
HETATM    4  C1  UNL     1     -34.455  17.056  -1.326  1.00 20.00     0.005 A 
HETATM    5  C2  UNL     1     -35.655  16.926  -2.220  1.00 20.00     0.005 A 
ENDBRANCH   2   3
ENDBRANCH   1   2
BRANCH   1   6
HETATM    6  N9  UNL     1     -34.376  15.091  -5.730  1.00 20.00     0.085 N 
HETATM    7  C4  UNL     1     -34.547  16.549  -5.824  1.00 20.00     0.309 C 
BRANCH   6   8
HETATM    8  C7  UNL     1     -35.651  14.426  -6.044  1.00 20.00     0.286 C 
BRANCH   8   9
HETATM    9  C8  UNL     1     -36.270  13.749  -4.834  1.00 20.00     0.144 C 
HETATM   10 CL10 UNL     1     -37.670  14.667  -4.224  1.00 20.00    -0.129 Cl
ENDBRANCH   8   9
ENDBRANCH   6   8
ENDBRANCH   1   6
TORSDOF 5
ENDMDL
MODEL 5
REMARK VINA RESULT:      -3.8      1.164      1.720
REMARK  5 active torsions:
REMARK  status: ('A' for Active; 'I' for Inactive)
REMARK    1  A    between atoms: C3_3  and  C5_5 
REMARK    2  A    between atoms: C5_5  and  C6_6 
REMARK    3  A    between atoms: C6_6  and  N9_9 
REMARK    4  A    between atoms: C7_7  and  C8_8 
REMARK    5  A    between atoms: C7_7  and  N9_9 
ROOT
HETATM    1  C6  UNL     1     -32.304   7.142   3.047  1.00 20.00     0.272 C 
ENDROOT
BRANCH   1   2
HETATM    2  C5  UNL     1     -32.558   6.985   1.552  1.00 20.00     0.034 C 
BRANCH   2   3
HETATM    3  C3  UNL     1     -32.314   8.272   0.776  1.00 20.00    -0.013 A 
HETATM    4  C1  UNL     1     -33.270   8.699  -0.302  1.00 20.00     0.005 A 
HETATM    5  C2  UNL     1     -33.205   9.464   0.989  1.00 20.00     0.005 A 
ENDBRANCH   2   3
ENDBRANCH   1   2
BRANCH   1   6
HETATM    6  N9  UNL     1     -33.489   6.916   3.828  1.00 20.00     0.085 N 
HETATM    7  C4  UNL     1     -33.257   7.206   5.252  1.00 20.00     0.309 C 
BRANCH   6   8
HETATM    8  C7  UNL     1     -33.973   5.534   3.683  1.00 20.00     0.286 C 
BRANCH   8   9
HETATM    9  C8  UNL     1     -35.257   5.280   4.455  1.00 20.00     0.144 C 
HETATM   10 CL10 UNL     1     -34.918   4.808   6.139  1.00 20.00    -0.129 Cl
ENDBRANCH   8   9
ENDBRANCH   6   8
ENDBRANCH   1   6
TORSDOF 5
ENDMDL
MODEL 6
REMARK VINA RESULT:      -3.7     11.213     12.158
REMARK  5 active torsions:
REMARK  status: ('A' for Active; 'I' for Inactive)
REMARK    1  A    between atoms: C3_3  and  C5_5 
REMARK    2  A    between atoms: C5_5  and  C6_6 
REMARK    3  A    between atoms: C6_6  and  N9_9 
REMARK    4  A    between atoms: C7_7  and  C8_8 
REMARK    5  A    between atoms: C7_7  and  N9_9 
ROOT
HETATM    1  C6  UNL     1     -36.095  16.008  -3.498  1.00 20.00     0.272 C 
ENDROOT
BRANCH   1   2
HETATM    2  C5  UNL     1     -34.887  15.284  -2.915  1.00 20.00     0.034 C 
BRANCH   2   3
HETATM    3  C3  UNL     1     -33.569  15.958  -3.273  1.00 20.00    -0.013 A 
HETATM    4  C1  UNL     1     -33.551  17.384  -3.745  1.00 20.00     0.005 A 
HETATM    5  C2  UNL     1     -33.006  17.036  -2.389  1.00 20.00     0.005 A 
ENDBRANCH   2   3
ENDBRANCH   1   2
BRANCH   1   6
HETATM    6  N9  UNL     1     -36.708  15.272  -4.569  1.00 20.00     0.085 N 
HETATM    7  C4  UNL     1     -36.392  13.837  -4.484  1.00 20.00     0.309 C 
BRANCH   6   8
HETATM    8  C7  UNL     1     -36.295  15.788  -5.883  1.00 20.00     0.286 C 
BRANCH   8   9
HETATM    9  C8  UNL     1     -35.605  14.735  -6.735  1.00 20.00     0.144 C 
HETATM   10 CL10 UNL     1     -33.842  14.986  -6.774  1.00 20.00    -0.129 Cl
ENDBRANCH   8   9
ENDBRANCH   6   8
ENDBRANCH   1   6
TORSDOF 5
ENDMDL
MODEL 7
REMARK VINA RESULT:      -3.7     11.239     12.177
REMARK  5 active torsions:
REMARK  status: ('A' for Active; 'I' for Inactive)
REMARK    1  A    between atoms: C3_3  and  C5_5 
REMARK    2  A    between atoms: C5_5  and  C6_6 
REMARK    3  A    between atoms: C6_6  and  N9_9 
REMARK    4  A    between atoms: C7_7  and  C8_8 
REMARK    5  A    between atoms: C7_7  and  N9_9 
ROOT
HETATM    1  C6  UNL     1     -34.009  14.399  -4.175  1.00 20.00     0.272 C 
ENDROOT
BRANCH   1   2
HETATM    2  C5  UNL     1     -33.288  15.606  -3.587  1.00 20.00     0.034 C 
BRANCH   2   3
HETATM    3  C3  UNL     1     -34.241  16.607  -2.946  1.00 20.00    -0.013 A 
HETATM    4  C1  UNL     1     -35.010  16.235  -1.710  1.00 20.00     0.005 A 
HETATM    5  C2  UNL     1     -33.897  17.241  -1.628  1.00 20.00     0.005 A 
ENDBRANCH   2   3
ENDBRANCH   1   2
BRANCH   1   6
HETATM    6  N9  UNL     1     -35.213  14.766  -4.868  1.00 20.00     0.085 N 
HETATM    7  C4  UNL     1     -36.310  13.832  -4.571  1.00 20.00     0.309 C 
BRANCH   6   8
HETATM    8  C7  UNL     1     -34.999  14.825  -6.323  1.00 20.00     0.286 C 
BRANCH   8   9
HETATM    9  C8  UNL     1     -34.836  16.247  -6.832  1.00 20.00     0.144 C 
HETATM   10 CL10 UNL     1     -35.983  17.356  -6.039  1.00 20.00    -0.129 Cl
ENDBRANCH   8   9
ENDBRANCH   6   8
ENDBRANCH   1   6
TORSDOF 5
ENDMDL
MODEL 8
REMARK VINA RESULT:      -3.6     11.211     12.279
REMARK  5 active torsions:
REMARK  status: ('A' for Active; 'I' for Inactive)
REMARK    1  A    between atoms: C3_3  and  C5_5 
REMARK    2  A    between atoms: C5_5  and  C6_6 
REMARK    3  A    between atoms: C6_6  and  N9_9 
REMARK    4  A    between atoms: C7_7  and  C8_8 
REMARK    5  A    between atoms: C7_7  and  N9_9 
ROOT
HETATM    1  C6  UNL     1     -34.862  16.746  -6.038  1.00 20.00     0.272 C 
ENDROOT
BRANCH   1   2
HETATM    2  C5  UNL     1     -34.565  17.319  -4.657  1.00 20.00     0.034 C 
BRANCH   2   3
HETATM    3  C3  UNL     1     -33.800  16.347  -3.769  1.00 20.00    -0.013 A 
HETATM    4  C1  UNL     1     -33.194  16.818  -2.477  1.00 20.00     0.005 A 
HETATM    5  C2  UNL     1     -34.384  15.901  -2.458  1.00 20.00     0.005 A 
ENDBRANCH   2   3
ENDBRANCH   1   2
BRANCH   1   6
HETATM    6  N9  UNL     1     -34.586  15.338  -6.116  1.00 20.00     0.085 N 
HETATM    7  C4  UNL     1     -33.682  15.029  -7.234  1.00 20.00     0.309 C 
BRANCH   6   8
HETATM    8  C7  UNL     1     -35.824  14.554  -6.255  1.00 20.00     0.286 C 
BRANCH   8   9
HETATM    9  C8  UNL     1     -36.210  13.840  -4.971  1.00 20.00     0.144 C 
HETATM   10 CL10 UNL     1     -37.641  14.587  -4.219  1.00 20.00    -0.129 Cl
ENDBRANCH   8   9
ENDBRANCH   6   8
ENDBRANCH   1   6
TORSDOF 5
ENDMDL
MODEL 9
REMARK VINA RESULT:      -3.6      9.558     10.068
REMARK  5 active torsions:
REMARK  status: ('A' for Active; 'I' for Inactive)
REMARK    1  A    between atoms: C3_3  and  C5_5 
REMARK    2  A    between atoms: C5_5  and  C6_6 
REMARK    3  A    between atoms: C6_6  and  N9_9 
REMARK    4  A    between atoms: C7_7  and  C8_8 
REMARK    5  A    between atoms: C7_7  and  N9_9 
ROOT
HETATM    1  C6  UNL     1     -41.606   5.673  -0.324  1.00 20.00     0.272 C 
ENDROOT
BRANCH   1   2
HETATM    2  C5  UNL     1     -41.148   6.916   0.430  1.00 20.00     0.034 C 
BRANCH   2   3
HETATM    3  C3  UNL     1     -41.399   8.201  -0.346  1.00 20.00    -0.013 A 
HETATM    4  C1  UNL     1     -42.646   9.002  -0.101  1.00 20.00     0.005 A 
HETATM    5  C2  UNL     1     -41.314   9.532   0.348  1.00 20.00     0.005 A 
ENDBRANCH   2   3
ENDBRANCH   1   2
BRANCH   1   6
HETATM    6  N9  UNL     1     -43.016   5.437  -0.182  1.00 20.00     0.085 N 
HETATM    7  C4  UNL     1     -43.417   5.418   1.233  1.00 20.00     0.309 C 
BRANCH   6   8
HETATM    8  C7  UNL     1     -43.417   4.174  -0.823  1.00 20.00     0.286 C 
BRANCH   8   9
HETATM    9  C8  UNL     1     -43.376   4.251  -2.340  1.00 20.00     0.144 C 
HETATM   10 CL10 UNL     1     -42.297   3.008  -3.022  1.00 20.00    -0.129 Cl
ENDBRANCH   8   9
ENDBRANCH   6   8
ENDBRANCH   1   6
TORSDOF 5
ENDMDL
