MODEL 1
REMARK VINA RESULT:      -4.1      0.000      0.000
REMARK  2 active torsions:
REMARK  status: ('A' for Active; 'I' for Inactive)
REMARK    1  A    between atoms: C3_3  and  C7_7 
REMARK    2  A    between atoms: C7_7  and  C8_8 
ROOT
HETATM    1  C1  UNL     1     -38.482  15.118  -4.473  1.00 20.00     0.021 C 
HETATM    2  C2  UNL     1     -37.409  14.604  -4.313  1.00 20.00    -0.040 C 
HETATM    3  C3  UNL     1     -36.118  13.982  -4.123  1.00 20.00     0.202 C 
HETATM    4  O9  UNL     1     -35.884  12.906  -4.657  1.00 20.00    -0.283 OA
ENDROOT
BRANCH   3   5
HETATM    5  C7  UNL     1     -35.124  14.727  -3.257  1.00 20.00     0.101 C 
BRANCH   5   6
HETATM    6  C8  UNL     1     -33.970  15.406  -4.029  1.00 20.00    -0.044 C 
HETATM    7  C4  UNL     1     -32.897  14.384  -4.443  1.00 20.00     0.015 C 
HETATM    8  C5  UNL     1     -33.317  16.445  -3.096  1.00 20.00     0.015 C 
HETATM    9  C6  UNL     1     -34.489  16.134  -5.280  1.00 20.00     0.015 C 
ENDBRANCH   5   6
ENDBRANCH   3   5
TORSDOF 2
ENDMDL
MODEL 2
REMARK VINA RESULT:      -4.1      1.511      1.862
REMARK  2 active torsions:
REMARK  status: ('A' for Active; 'I' for Inactive)
REMARK    1  A    between atoms: C3_3  and  C7_7 
REMARK    2  A    between atoms: C7_7  and  C8_8 
ROOT
HETATM    1  C1  UNL     1     -35.785  14.906  -7.235  1.00 20.00     0.021 C 
HETATM    2  C2  UNL     1     -35.840  14.449  -6.127  1.00 20.00    -0.040 C 
HETATM    3  C3  UNL     1     -35.907  13.896  -4.793  1.00 20.00     0.202 C 
HETATM    4  O9  UNL     1     -35.823  12.684  -4.639  1.00 20.00    -0.283 OA
ENDROOT
BRANCH   3   5
HETATM    5  C7  UNL     1     -36.079  14.879  -3.654  1.00 20.00     0.101 C 
BRANCH   5   6
HETATM    6  C8  UNL     1     -34.879  15.827  -3.427  1.00 20.00    -0.044 C 
HETATM    7  C4  UNL     1     -33.549  15.138  -3.778  1.00 20.00     0.015 C 
HETATM    8  C5  UNL     1     -34.849  16.210  -1.934  1.00 20.00     0.015 C 
HETATM    9  C6  UNL     1     -35.021  17.114  -4.257  1.00 20.00     0.015 C 
ENDBRANCH   5   6
ENDBRANCH   3   5
TORSDOF 2
ENDMDL
MODEL 3
REMARK VINA RESULT:      -4.1      0.836      1.525
REMARK  2 active torsions:
REMARK  status: ('A' for Active; 'I' for Inactive)
REMARK    1  A    between atoms: C3_3  and  C7_7 
REMARK    2  A    between atoms: C7_7  and  C8_8 
ROOT
HETATM    1  C1  UNL     1     -38.774  14.771  -4.172  1.00 20.00     0.021 C 
HETATM    2  C2  UNL     1     -37.656  14.407  -4.414  1.00 20.00    -0.040 C 
HETATM    3  C3  UNL     1     -36.311  13.967  -4.707  1.00 20.00     0.202 C 
HETATM    4  O9  UNL     1     -36.008  12.795  -4.521  1.00 20.00    -0.283 OA
ENDROOT
BRANCH   3   5
HETATM    5  C7  UNL     1     -35.350  15.011  -5.235  1.00 20.00     0.101 C 
BRANCH   5   6
HETATM    6  C8  UNL     1     -34.306  15.512  -4.211  1.00 20.00    -0.044 C 
HETATM    7  C4  UNL     1     -34.861  15.462  -2.777  1.00 20.00     0.015 C 
HETATM    8  C5  UNL     1     -33.967  16.976  -4.551  1.00 20.00     0.015 C 
HETATM    9  C6  UNL     1     -33.013  14.683  -4.285  1.00 20.00     0.015 C 
ENDBRANCH   5   6
ENDBRANCH   3   5
TORSDOF 2
ENDMDL
MODEL 4
REMARK VINA RESULT:      -4.1     11.157     12.208
REMARK  2 active torsions:
REMARK  status: ('A' for Active; 'I' for Inactive)
REMARK    1  A    between atoms: C3_3  and  C7_7 
REMARK    2  A    between atoms: C7_7  and  C8_8 
ROOT
HETATM    1  C1  UNL     1     -32.567   8.368   1.105  1.00 20.00     0.021 C 
HETATM    2  C2  UNL     1     -32.751   7.410   1.805  1.00 20.00    -0.040 C 
HETATM    3  C3  UNL     1     -32.973   6.255   2.645  1.00 20.00     0.202 C 
HETATM    4  O9  UNL     1     -32.750   5.136   2.201  1.00 20.00    -0.283 OA
ENDROOT
BRANCH   3   5
HETATM    5  C7  UNL     1     -33.475   6.519   4.049  1.00 20.00     0.101 C 
BRANCH   5   6
HETATM    6  C8  UNL     1     -34.544   5.524   4.556  1.00 20.00    -0.044 C 
HETATM    7  C4  UNL     1     -35.908   5.785   3.895  1.00 20.00     0.015 C 
HETATM    8  C5  UNL     1     -34.695   5.718   6.077  1.00 20.00     0.015 C 
HETATM    9  C6  UNL     1     -34.119   4.070   4.291  1.00 20.00     0.015 C 
ENDBRANCH   5   6
ENDBRANCH   3   5
TORSDOF 2
ENDMDL
MODEL 5
REMARK VINA RESULT:      -3.9      1.850      3.001
REMARK  2 active torsions:
REMARK  status: ('A' for Active; 'I' for Inactive)
REMARK    1  A    between atoms: C3_3  and  C7_7 
REMARK    2  A    between atoms: C7_7  and  C8_8 
ROOT
HETATM    1  C1  UNL     1     -35.059  15.982  -2.188  1.00 20.00     0.021 C 
HETATM    2  C2  UNL     1     -34.765  15.198  -3.049  1.00 20.00    -0.040 C 
HETATM    3  C3  UNL     1     -34.413  14.253  -4.084  1.00 20.00     0.202 C 
HETATM    4  O9  UNL     1     -34.761  13.084  -3.975  1.00 20.00    -0.283 OA
ENDROOT
BRANCH   3   5
HETATM    5  C7  UNL     1     -33.622  14.790  -5.258  1.00 20.00     0.101 C 
BRANCH   5   6
HETATM    6  C8  UNL     1     -34.473  15.440  -6.373  1.00 20.00    -0.044 C 
HETATM    7  C4  UNL     1     -35.877  14.815  -6.441  1.00 20.00     0.015 C 
HETATM    8  C5  UNL     1     -33.765  15.193  -7.720  1.00 20.00     0.015 C 
HETATM    9  C6  UNL     1     -34.602  16.958  -6.162  1.00 20.00     0.015 C 
ENDBRANCH   5   6
ENDBRANCH   3   5
TORSDOF 2
ENDMDL
MODEL 6
REMARK VINA RESULT:      -3.9      2.241      3.053
REMARK  2 active torsions:
REMARK  status: ('A' for Active; 'I' for Inactive)
REMARK    1  A    between atoms: C3_3  and  C7_7 
REMARK    2  A    between atoms: C7_7  and  C8_8 
ROOT
HETATM    1  C1  UNL     1     -34.087  15.188  -7.105  1.00 20.00     0.021 C 
HETATM    2  C2  UNL     1     -33.880  14.877  -5.964  1.00 20.00    -0.040 C 
HETATM    3  C3  UNL     1     -33.632  14.500  -4.591  1.00 20.00     0.202 C 
HETATM    4  O9  UNL     1     -33.974  13.391  -4.200  1.00 20.00    -0.283 OA
ENDROOT
BRANCH   3   5
HETATM    5  C7  UNL     1     -32.950  15.529  -3.714  1.00 20.00     0.101 C 
BRANCH   5   6
HETATM    6  C8  UNL     1     -33.902  16.545  -3.042  1.00 20.00    -0.044 C 
HETATM    7  C4  UNL     1     -34.475  17.537  -4.069  1.00 20.00     0.015 C 
HETATM    8  C5  UNL     1     -33.094  17.339  -1.997  1.00 20.00     0.015 C 
HETATM    9  C6  UNL     1     -35.060  15.831  -2.323  1.00 20.00     0.015 C 
ENDBRANCH   5   6
ENDBRANCH   3   5
TORSDOF 2
ENDMDL
MODEL 7
REMARK VINA RESULT:      -3.9      1.831      2.890
REMARK  2 active torsions:
REMARK  status: ('A' for Active; 'I' for Inactive)
REMARK    1  A    between atoms: C3_3  and  C7_7 
REMARK    2  A    between atoms: C7_7  and  C8_8 
ROOT
HETATM    1  C1  UNL     1     -34.847  16.067  -2.174  1.00 20.00     0.021 C 
HETATM    2  C2  UNL     1     -34.630  15.265  -3.041  1.00 20.00    -0.040 C 
HETATM    3  C3  UNL     1     -34.370  14.297  -4.083  1.00 20.00     0.202 C 
HETATM    4  O9  UNL     1     -34.775  13.149  -3.953  1.00 20.00    -0.283 OA
ENDROOT
BRANCH   3   5
HETATM    5  C7  UNL     1     -33.597  14.786  -5.290  1.00 20.00     0.101 C 
BRANCH   5   6
HETATM    6  C8  UNL     1     -34.463  15.415  -6.405  1.00 20.00    -0.044 C 
HETATM    7  C4  UNL     1     -33.820  15.217  -7.789  1.00 20.00     0.015 C 
HETATM    8  C5  UNL     1     -34.571  16.928  -6.131  1.00 20.00     0.015 C 
HETATM    9  C6  UNL     1     -35.880  14.819  -6.412  1.00 20.00     0.015 C 
ENDBRANCH   5   6
ENDBRANCH   3   5
TORSDOF 2
ENDMDL
MODEL 8
REMARK VINA RESULT:      -3.6      1.866      3.115
REMARK  2 active torsions:
REMARK  status: ('A' for Active; 'I' for Inactive)
REMARK    1  A    between atoms: C3_3  and  C7_7 
REMARK    2  A    between atoms: C7_7  and  C8_8 
ROOT
HETATM    1  C1  UNL     1     -33.714  15.152  -7.709  1.00 20.00     0.021 C 
HETATM    2  C2  UNL     1     -34.589  15.287  -6.898  1.00 20.00    -0.040 C 
HETATM    3  C3  UNL     1     -35.643  15.449  -5.922  1.00 20.00     0.202 C 
HETATM    4  O9  UNL     1     -36.729  14.918  -6.117  1.00 20.00    -0.283 OA
ENDROOT
BRANCH   3   5
HETATM    5  C7  UNL     1     -35.320  16.282  -4.700  1.00 20.00     0.101 C 
BRANCH   5   6
HETATM    6  C8  UNL     1     -34.586  15.523  -3.571  1.00 20.00    -0.044 C 
HETATM    7  C4  UNL     1     -33.071  15.785  -3.615  1.00 20.00     0.015 C 
HETATM    8  C5  UNL     1     -34.825  14.014  -3.775  1.00 20.00     0.015 C 
HETATM    9  C6  UNL     1     -35.131  15.920  -2.189  1.00 20.00     0.015 C 
ENDBRANCH   5   6
ENDBRANCH   3   5
TORSDOF 2
ENDMDL
MODEL 9
REMARK VINA RESULT:      -3.6      2.252      3.646
REMARK  2 active torsions:
REMARK  status: ('A' for Active; 'I' for Inactive)
REMARK    1  A    between atoms: C3_3  and  C7_7 
REMARK    2  A    between atoms: C7_7  and  C8_8 
ROOT
HETATM    1  C1  UNL     1     -35.174  17.063  -0.768  1.00 20.00     0.021 C 
HETATM    2  C2  UNL     1     -34.609  16.609  -1.725  1.00 20.00    -0.040 C 
HETATM    3  C3  UNL     1     -33.928  16.065  -2.878  1.00 20.00     0.202 C 
HETATM    4  O9  UNL     1     -32.936  16.634  -3.314  1.00 20.00    -0.283 OA
ENDROOT
BRANCH   3   5
HETATM    5  C7  UNL     1     -34.503  14.798  -3.475  1.00 20.00     0.101 C 
BRANCH   5   6
HETATM    6  C8  UNL     1     -35.253  14.992  -4.812  1.00 20.00    -0.044 C 
HETATM    7  C4  UNL     1     -36.025  16.323  -4.832  1.00 20.00     0.015 C 
HETATM    8  C5  UNL     1     -36.267  13.840  -4.964  1.00 20.00     0.015 C 
HETATM    9  C6  UNL     1     -34.284  14.948  -6.006  1.00 20.00     0.015 C 
ENDBRANCH   5   6
ENDBRANCH   3   5
TORSDOF 2
ENDMDL
