MODEL 1
REMARK VINA RESULT:      -5.6      0.000      0.000
REMARK  2 active torsions:
REMARK  status: ('A' for Active; 'I' for Inactive)
REMARK    1  A    between atoms: C2_2  and  C3_3 
REMARK    2  A    between atoms: C3_3  and  C7_7 
ROOT
HETATM    1  C4  UNL     1     -34.897   5.608   6.043  1.00 20.00     0.002 C 
HETATM    2  C5  UNL     1     -34.835   4.842   4.704  1.00 20.00     0.012 C 
HETATM    3  C6  UNL     1     -33.782   6.518   5.485  1.00 20.00     0.012 C 
HETATM    4  C7  UNL     1     -34.290   6.147   4.069  1.00 20.00     0.059 C 
ENDROOT
BRANCH   4   5
HETATM    5  C3  UNL     1     -33.248   5.970   3.042  1.00 20.00     0.152 C 
HETATM    6  O8  UNL     1     -33.096   4.894   2.469  1.00 20.00    -0.293 OA
BRANCH   5   7
HETATM    7  C2  UNL     1     -32.419   7.163   2.721  1.00 20.00     0.040 C 
HETATM    8  C1  UNL     1     -32.551   7.790   1.548  1.00 20.00     0.015 C 
ENDBRANCH   5   7
ENDBRANCH   4   5
TORSDOF 2
ENDMDL
MODEL 2
REMARK VINA RESULT:      -4.7      1.356      1.462
REMARK  2 active torsions:
REMARK  status: ('A' for Active; 'I' for Inactive)
REMARK    1  A    between atoms: C2_2  and  C3_3 
REMARK    2  A    between atoms: C3_3  and  C7_7 
ROOT
HETATM    1  C4  UNL     1     -34.836   5.187   5.073  1.00 20.00     0.002 C 
HETATM    2  C5  UNL     1     -34.153   5.090   3.693  1.00 20.00     0.012 C 
HETATM    3  C6  UNL     1     -34.014   6.473   5.304  1.00 20.00     0.012 C 
HETATM    4  C7  UNL     1     -33.961   6.627   3.763  1.00 20.00     0.059 C 
ENDROOT
BRANCH   4   5
HETATM    5  C3  UNL     1     -32.692   7.138   3.217  1.00 20.00     0.152 C 
HETATM    6  O8  UNL     1     -31.771   7.478   3.957  1.00 20.00    -0.293 OA
BRANCH   5   7
HETATM    7  C2  UNL     1     -32.577   7.192   1.734  1.00 20.00     0.040 C 
HETATM    8  C1  UNL     1     -32.722   8.348   1.080  1.00 20.00     0.015 C 
ENDBRANCH   5   7
ENDBRANCH   4   5
TORSDOF 2
ENDMDL
MODEL 3
REMARK VINA RESULT:      -4.6      1.370      1.751
REMARK  2 active torsions:
REMARK  status: ('A' for Active; 'I' for Inactive)
REMARK    1  A    between atoms: C2_2  and  C3_3 
REMARK    2  A    between atoms: C3_3  and  C7_7 
ROOT
HETATM    1  C4  UNL     1     -34.906   5.668   6.255  1.00 20.00     0.002 C 
HETATM    2  C5  UNL     1     -34.848   5.141   4.805  1.00 20.00     0.012 C 
HETATM    3  C6  UNL     1     -33.767   6.635   5.868  1.00 20.00     0.012 C 
HETATM    4  C7  UNL     1     -34.269   6.523   4.406  1.00 20.00     0.059 C 
ENDROOT
BRANCH   4   5
HETATM    5  C3  UNL     1     -33.221   6.502   3.371  1.00 20.00     0.152 C 
HETATM    6  O8  UNL     1     -32.219   7.208   3.466  1.00 20.00    -0.293 OA
BRANCH   5   7
HETATM    7  C2  UNL     1     -33.425   5.567   2.232  1.00 20.00     0.040 C 
HETATM    8  C1  UNL     1     -32.927   4.328   2.268  1.00 20.00     0.015 C 
ENDBRANCH   5   7
ENDBRANCH   4   5
TORSDOF 2
ENDMDL
MODEL 4
REMARK VINA RESULT:      -4.5      1.145      3.505
REMARK  2 active torsions:
REMARK  status: ('A' for Active; 'I' for Inactive)
REMARK    1  A    between atoms: C2_2  and  C3_3 
REMARK    2  A    between atoms: C3_3  and  C7_7 
ROOT
HETATM    1  C4  UNL     1     -32.464   6.808   2.307  1.00 20.00     0.002 C 
HETATM    2  C5  UNL     1     -32.980   6.896   3.760  1.00 20.00     0.012 C 
HETATM    3  C6  UNL     1     -33.107   5.407   2.245  1.00 20.00     0.012 C 
HETATM    4  C7  UNL     1     -34.083   5.887   3.349  1.00 20.00     0.059 C 
ENDROOT
BRANCH   4   5
HETATM    5  C3  UNL     1     -34.441   4.883   4.365  1.00 20.00     0.152 C 
HETATM    6  O8  UNL     1     -34.313   3.681   4.145  1.00 20.00    -0.293 OA
BRANCH   5   7
HETATM    7  C2  UNL     1     -34.933   5.400   5.671  1.00 20.00     0.040 C 
HETATM    8  C1  UNL     1     -34.316   6.419   6.278  1.00 20.00     0.015 C 
ENDBRANCH   5   7
ENDBRANCH   4   5
TORSDOF 2
ENDMDL
MODEL 5
REMARK VINA RESULT:      -4.3     11.301     11.896
REMARK  2 active torsions:
REMARK  status: ('A' for Active; 'I' for Inactive)
REMARK    1  A    between atoms: C2_2  and  C3_3 
REMARK    2  A    between atoms: C3_3  and  C7_7 
ROOT
HETATM    1  C4  UNL     1     -33.387  16.492  -2.657  1.00 20.00     0.002 C 
HETATM    2  C5  UNL     1     -34.722  15.762  -2.396  1.00 20.00     0.012 C 
HETATM    3  C6  UNL     1     -33.151  15.490  -3.806  1.00 20.00     0.012 C 
HETATM    4  C7  UNL     1     -34.691  15.333  -3.885  1.00 20.00     0.059 C 
ENDROOT
BRANCH   4   5
HETATM    5  C3  UNL     1     -35.181  13.973  -4.168  1.00 20.00     0.152 C 
HETATM    6  O8  UNL     1     -34.510  12.983  -3.883  1.00 20.00    -0.293 OA
BRANCH   5   7
HETATM    7  C2  UNL     1     -36.531  13.864  -4.784  1.00 20.00     0.040 C 
HETATM    8  C1  UNL     1     -37.558  14.574  -4.308  1.00 20.00     0.015 C 
ENDBRANCH   5   7
ENDBRANCH   4   5
TORSDOF 2
ENDMDL
MODEL 6
REMARK VINA RESULT:      -4.1     11.221     12.126
REMARK  2 active torsions:
REMARK  status: ('A' for Active; 'I' for Inactive)
REMARK    1  A    between atoms: C2_2  and  C3_3 
REMARK    2  A    between atoms: C3_3  and  C7_7 
ROOT
HETATM    1  C4  UNL     1     -33.744  16.181  -2.711  1.00 20.00     0.002 C 
HETATM    2  C5  UNL     1     -33.503  15.275  -3.938  1.00 20.00     0.012 C 
HETATM    3  C6  UNL     1     -35.224  15.749  -2.779  1.00 20.00     0.012 C 
HETATM    4  C7  UNL     1     -34.737  14.456  -3.480  1.00 20.00     0.059 C 
ENDROOT
BRANCH   4   5
HETATM    5  C3  UNL     1     -35.604  13.950  -4.559  1.00 20.00     0.152 C 
HETATM    6  O8  UNL     1     -35.958  12.773  -4.592  1.00 20.00    -0.293 OA
BRANCH   5   7
HETATM    7  C2  UNL     1     -36.046  14.939  -5.579  1.00 20.00     0.040 C 
HETATM    8  C1  UNL     1     -35.696  14.799  -6.862  1.00 20.00     0.015 C 
ENDBRANCH   5   7
ENDBRANCH   4   5
TORSDOF 2
ENDMDL
MODEL 7
REMARK VINA RESULT:      -4.0     16.241     16.909
REMARK  2 active torsions:
REMARK  status: ('A' for Active; 'I' for Inactive)
REMARK    1  A    between atoms: C2_2  and  C3_3 
REMARK    2  A    between atoms: C3_3  and  C7_7 
ROOT
HETATM    1  C4  UNL     1     -25.802  16.791  12.322  1.00 20.00     0.002 C 
HETATM    2  C5  UNL     1     -24.575  16.057  11.738  1.00 20.00     0.012 C 
HETATM    3  C6  UNL     1     -24.937  18.069  12.332  1.00 20.00     0.012 C 
HETATM    4  C7  UNL     1     -24.112  17.430  11.186  1.00 20.00     0.059 C 
ENDROOT
BRANCH   4   5
HETATM    5  C3  UNL     1     -22.660  17.679  11.229  1.00 20.00     0.152 C 
HETATM    6  O8  UNL     1     -22.054  17.722  12.298  1.00 20.00    -0.293 OA
BRANCH   5   7
HETATM    7  C2  UNL     1     -21.971  17.844   9.921  1.00 20.00     0.040 C 
HETATM    8  C1  UNL     1     -22.528  17.390   8.794  1.00 20.00     0.015 C 
ENDBRANCH   5   7
ENDBRANCH   4   5
TORSDOF 2
ENDMDL
MODEL 8
REMARK VINA RESULT:      -4.0     16.559     17.562
REMARK  2 active torsions:
REMARK  status: ('A' for Active; 'I' for Inactive)
REMARK    1  A    between atoms: C2_2  and  C3_3 
REMARK    2  A    between atoms: C3_3  and  C7_7 
ROOT
HETATM    1  C4  UNL     1     -22.219  17.544   8.298  1.00 20.00     0.002 C 
HETATM    2  C5  UNL     1     -21.885  18.523   9.443  1.00 20.00     0.012 C 
HETATM    3  C6  UNL     1     -23.021  16.727   9.332  1.00 20.00     0.012 C 
HETATM    4  C7  UNL     1     -23.190  18.045  10.131  1.00 20.00     0.059 C 
ENDROOT
BRANCH   4   5
HETATM    5  C3  UNL     1     -23.128  17.915  11.597  1.00 20.00     0.152 C 
HETATM    6  O8  UNL     1     -22.055  17.761  12.178  1.00 20.00    -0.293 OA
BRANCH   5   7
HETATM    7  C2  UNL     1     -24.419  18.009  12.331  1.00 20.00     0.040 C 
HETATM    8  C1  UNL     1     -25.479  18.601  11.773  1.00 20.00     0.015 C 
ENDBRANCH   5   7
ENDBRANCH   4   5
TORSDOF 2
ENDMDL
MODEL 9
REMARK VINA RESULT:      -3.9     16.210     16.955
REMARK  2 active torsions:
REMARK  status: ('A' for Active; 'I' for Inactive)
REMARK    1  A    between atoms: C2_2  and  C3_3 
REMARK    2  A    between atoms: C3_3  and  C7_7 
ROOT
HETATM    1  C4  UNL     1     -23.942  16.457  11.787  1.00 20.00     0.002 C 
HETATM    2  C5  UNL     1     -23.308  17.864  11.758  1.00 20.00     0.012 C 
HETATM    3  C6  UNL     1     -23.992  16.531  10.246  1.00 20.00     0.012 C 
HETATM    4  C7  UNL     1     -22.808  17.527  10.329  1.00 20.00     0.059 C 
ENDROOT
BRANCH   4   5
HETATM    5  C3  UNL     1     -22.839  18.638   9.363  1.00 20.00     0.152 C 
HETATM    6  O8  UNL     1     -21.802  19.174   8.977  1.00 20.00    -0.293 OA
BRANCH   5   7
HETATM    7  C2  UNL     1     -24.177  19.051   8.862  1.00 20.00     0.040 C 
HETATM    8  C1  UNL     1     -24.454  19.028   7.554  1.00 20.00     0.015 C 
ENDBRANCH   5   7
ENDBRANCH   4   5
TORSDOF 2
ENDMDL
