MODEL 1
REMARK VINA RESULT:      -4.4      0.000      0.000
REMARK  3 active torsions:
REMARK  status: ('A' for Active; 'I' for Inactive)
REMARK    1  A    between atoms: C7_7  and  C9_9 
REMARK    2  A    between atoms: C9_9  and  C10_10 
REMARK    3  A    between atoms: C10_10  and  N11_11 
ROOT
HETATM    1  C1  UNL     1     -43.313   5.640   1.260  1.00 20.00     0.029 C 
HETATM    2  C4  UNL     1     -43.031   7.132   1.106  1.00 20.00     0.023 C 
HETATM    3  C5  UNL     1     -43.198   4.903  -0.066  1.00 20.00     0.235 C 
HETATM    4  C6  UNL     1     -41.569   6.628  -0.891  1.00 20.00     0.254 C 
HETATM    5  C8  UNL     1     -41.677   7.364   0.438  1.00 20.00     0.108 C 
HETATM    6  N11 UNL     1     -41.835   5.157  -0.667  1.00 20.00    -0.070 N 
HETATM    7 CL12 UNL     1     -41.426   9.113   0.175  1.00 20.00    -0.123 Cl
HETATM    8  H31 UNL     1     -41.136   4.820   0.011  1.00 20.00     0.279 HD
ENDROOT
BRANCH   6   9
HETATM    9  C10 UNL     1     -41.625   4.357  -1.923  1.00 20.00     0.235 C 
BRANCH   9  10
HETATM   10  C9  UNL     1     -42.930   3.676  -2.304  1.00 20.00     0.032 C 
BRANCH  10  11
HETATM   11  C7  UNL     1     -42.683   2.488  -3.219  1.00 20.00    -0.013 A 
HETATM   12  C2  UNL     1     -43.050   2.565  -4.675  1.00 20.00     0.005 A 
HETATM   13  C3  UNL     1     -41.604   2.548  -4.264  1.00 20.00     0.005 A 
ENDBRANCH  10  11
ENDBRANCH   9  10
ENDBRANCH   6   9
TORSDOF 3
ENDMDL
MODEL 2
REMARK VINA RESULT:      -4.3     13.512     15.508
REMARK  3 active torsions:
REMARK  status: ('A' for Active; 'I' for Inactive)
REMARK    1  A    between atoms: C7_7  and  C9_9 
REMARK    2  A    between atoms: C9_9  and  C10_10 
REMARK    3  A    between atoms: C10_10  and  N11_11 
ROOT
HETATM    1  C1  UNL     1     -31.042  18.639  -0.361  1.00 20.00     0.029 C 
HETATM    2  C4  UNL     1     -31.110  18.131   1.076  1.00 20.00     0.023 C 
HETATM    3  C5  UNL     1     -32.213  18.136  -1.194  1.00 20.00     0.235 C 
HETATM    4  C6  UNL     1     -33.622  17.965   0.878  1.00 20.00     0.254 C 
HETATM    5  C8  UNL     1     -32.455  18.474   1.713  1.00 20.00     0.108 C 
HETATM    6  N11 UNL     1     -33.511  18.521  -0.523  1.00 20.00    -0.070 N 
HETATM    7 CL12 UNL     1     -32.543  17.773   3.354  1.00 20.00    -0.123 Cl
HETATM    8  H31 UNL     1     -33.520  19.548  -0.446  1.00 20.00     0.279 HD
ENDROOT
BRANCH   6   9
HETATM    9  C10 UNL     1     -34.701  18.150  -1.364  1.00 20.00     0.235 C 
BRANCH   9  10
HETATM   10  C9  UNL     1     -34.733  16.640  -1.542  1.00 20.00     0.032 C 
BRANCH  10  11
HETATM   11  C7  UNL     1     -34.666  16.258  -3.011  1.00 20.00    -0.013 A 
HETATM   12  C2  UNL     1     -33.471  15.520  -3.548  1.00 20.00     0.005 A 
HETATM   13  C3  UNL     1     -34.794  14.818  -3.426  1.00 20.00     0.005 A 
ENDBRANCH  10  11
ENDBRANCH   9  10
ENDBRANCH   6   9
TORSDOF 3
ENDMDL
MODEL 3
REMARK VINA RESULT:      -4.3     13.767     16.277
REMARK  3 active torsions:
REMARK  status: ('A' for Active; 'I' for Inactive)
REMARK    1  A    between atoms: C7_7  and  C9_9 
REMARK    2  A    between atoms: C9_9  and  C10_10 
REMARK    3  A    between atoms: C10_10  and  N11_11 
ROOT
HETATM    1  C1  UNL     1     -35.505  16.664  -1.834  1.00 20.00     0.029 C 
HETATM    2  C4  UNL     1     -34.869  15.486  -2.568  1.00 20.00     0.023 C 
HETATM    3  C5  UNL     1     -34.455  17.575  -1.213  1.00 20.00     0.235 C 
HETATM    4  C6  UNL     1     -32.801  16.878  -2.970  1.00 20.00     0.254 C 
HETATM    5  C8  UNL     1     -33.851  15.971  -3.598  1.00 20.00     0.108 C 
HETATM    6  N11 UNL     1     -33.491  18.034  -2.281  1.00 20.00    -0.070 N 
HETATM    7 CL12 UNL     1     -33.049  14.569  -4.362  1.00 20.00    -0.123 Cl
HETATM    8  H31 UNL     1     -34.042  18.530  -2.996  1.00 20.00     0.279 HD
ENDROOT
BRANCH   6   9
HETATM    9  C10 UNL     1     -32.502  19.031  -1.744  1.00 20.00     0.235 C 
BRANCH   9  10
HETATM   10  C9  UNL     1     -31.544  18.322  -0.799  1.00 20.00     0.032 C 
BRANCH  10  11
HETATM   11  C7  UNL     1     -31.460  19.039   0.539  1.00 20.00    -0.013 A 
HETATM   12  C2  UNL     1     -31.654  18.277   1.820  1.00 20.00     0.005 A 
HETATM   13  C3  UNL     1     -30.293  18.799   1.455  1.00 20.00     0.005 A 
ENDBRANCH  10  11
ENDBRANCH   9  10
ENDBRANCH   6   9
TORSDOF 3
ENDMDL
MODEL 4
REMARK VINA RESULT:      -4.2     22.672     24.205
REMARK  3 active torsions:
REMARK  status: ('A' for Active; 'I' for Inactive)
REMARK    1  A    between atoms: C7_7  and  C9_9 
REMARK    2  A    between atoms: C9_9  and  C10_10 
REMARK    3  A    between atoms: C10_10  and  N11_11 
ROOT
HETATM    1  C1  UNL     1     -24.416  16.327  11.467  1.00 20.00     0.029 C 
HETATM    2  C4  UNL     1     -25.867  16.634  11.825  1.00 20.00     0.023 C 
HETATM    3  C5  UNL     1     -24.004  16.991  10.161  1.00 20.00     0.235 C 
HETATM    4  C6  UNL     1     -25.706  18.799  10.534  1.00 20.00     0.254 C 
HETATM    5  C8  UNL     1     -26.116  18.141  11.845  1.00 20.00     0.108 C 
HETATM    6  N11 UNL     1     -24.257  18.477  10.249  1.00 20.00    -0.070 N 
HETATM    7 CL12 UNL     1     -27.845  18.464  12.160  1.00 20.00    -0.123 Cl
HETATM    8  H31 UNL     1     -23.703  18.834  11.042  1.00 20.00     0.279 HD
ENDROOT
BRANCH   6   9
HETATM    9  C10 UNL     1     -23.757  19.198   9.028  1.00 20.00     0.235 C 
BRANCH   9  10
HETATM   10  C9  UNL     1     -24.280  18.494   7.786  1.00 20.00     0.032 C 
BRANCH  10  11
HETATM   11  C7  UNL     1     -25.436  19.261   7.164  1.00 20.00    -0.013 A 
HETATM   12  C2  UNL     1     -25.728  19.129   5.695  1.00 20.00     0.005 A 
HETATM   13  C3  UNL     1     -26.669  18.534   6.705  1.00 20.00     0.005 A 
ENDBRANCH  10  11
ENDBRANCH   9  10
ENDBRANCH   6   9
TORSDOF 3
ENDMDL
MODEL 5
REMARK VINA RESULT:      -4.2     14.059     15.926
REMARK  3 active torsions:
REMARK  status: ('A' for Active; 'I' for Inactive)
REMARK    1  A    between atoms: C7_7  and  C9_9 
REMARK    2  A    between atoms: C9_9  and  C10_10 
REMARK    3  A    between atoms: C10_10  and  N11_11 
ROOT
HETATM    1  C1  UNL     1     -33.831  18.184   0.969  1.00 20.00     0.029 C 
HETATM    2  C4  UNL     1     -32.612  18.682   1.740  1.00 20.00     0.023 C 
HETATM    3  C5  UNL     1     -33.811  18.646  -0.481  1.00 20.00     0.235 C 
HETATM    4  C6  UNL     1     -31.303  18.755  -0.419  1.00 20.00     0.254 C 
HETATM    5  C8  UNL     1     -31.319  18.286   1.030  1.00 20.00     0.108 C 
HETATM    6  N11 UNL     1     -32.519  18.209  -1.131  1.00 20.00    -0.070 N 
HETATM    7 CL12 UNL     1     -29.917  18.975   1.898  1.00 20.00    -0.123 Cl
HETATM    8  H31 UNL     1     -32.477  17.182  -1.065  1.00 20.00     0.279 HD
ENDROOT
BRANCH   6   9
HETATM    9  C10 UNL     1     -32.498  18.539  -2.598  1.00 20.00     0.235 C 
BRANCH   9  10
HETATM   10  C9  UNL     1     -33.542  17.695  -3.313  1.00 20.00     0.032 C 
BRANCH  10  11
HETATM   11  C7  UNL     1     -33.401  16.225  -2.952  1.00 20.00    -0.013 A 
HETATM   12  C2  UNL     1     -34.605  15.324  -2.966  1.00 20.00     0.005 A 
HETATM   13  C3  UNL     1     -33.538  15.169  -4.013  1.00 20.00     0.005 A 
ENDBRANCH  10  11
ENDBRANCH   9  10
ENDBRANCH   6   9
TORSDOF 3
ENDMDL
MODEL 6
REMARK VINA RESULT:      -4.1     12.902     15.471
REMARK  3 active torsions:
REMARK  status: ('A' for Active; 'I' for Inactive)
REMARK    1  A    between atoms: C7_7  and  C9_9 
REMARK    2  A    between atoms: C9_9  and  C10_10 
REMARK    3  A    between atoms: C10_10  and  N11_11 
ROOT
HETATM    1  C1  UNL     1     -32.940  15.450  -3.764  1.00 20.00     0.029 C 
HETATM    2  C4  UNL     1     -34.236  14.912  -4.364  1.00 20.00     0.023 C 
HETATM    3  C5  UNL     1     -33.133  16.827  -3.146  1.00 20.00     0.235 C 
HETATM    4  C6  UNL     1     -35.552  16.306  -2.719  1.00 20.00     0.254 C 
HETATM    5  C8  UNL     1     -35.361  14.924  -3.330  1.00 20.00     0.108 C 
HETATM    6  N11 UNL     1     -34.242  16.771  -2.123  1.00 20.00    -0.070 N 
HETATM    7 CL12 UNL     1     -36.887  14.392  -4.092  1.00 20.00    -0.123 Cl
HETATM    8  H31 UNL     1     -33.967  16.077  -1.413  1.00 20.00     0.279 HD
ENDROOT
BRANCH   6   9
HETATM    9  C10 UNL     1     -34.395  18.079  -1.398  1.00 20.00     0.235 C 
BRANCH   9  10
HETATM   10  C9  UNL     1     -33.704  17.983  -0.047  1.00 20.00     0.032 C 
BRANCH  10  11
HETATM   11  C7  UNL     1     -32.453  18.845  -0.008  1.00 20.00    -0.013 A 
HETATM   12  C2  UNL     1     -31.422  18.634   1.066  1.00 20.00     0.005 A 
HETATM   13  C3  UNL     1     -31.115  18.254  -0.355  1.00 20.00     0.005 A 
ENDBRANCH  10  11
ENDBRANCH   9  10
ENDBRANCH   6   9
TORSDOF 3
ENDMDL
MODEL 7
REMARK VINA RESULT:      -4.0     13.114     15.574
REMARK  3 active torsions:
REMARK  status: ('A' for Active; 'I' for Inactive)
REMARK    1  A    between atoms: C7_7  and  C9_9 
REMARK    2  A    between atoms: C9_9  and  C10_10 
REMARK    3  A    between atoms: C10_10  and  N11_11 
ROOT
HETATM    1  C1  UNL     1     -35.899  15.459  -3.346  1.00 20.00     0.029 C 
HETATM    2  C4  UNL     1     -34.702  14.559  -3.643  1.00 20.00     0.023 C 
HETATM    3  C5  UNL     1     -35.548  16.554  -2.348  1.00 20.00     0.235 C 
HETATM    4  C6  UNL     1     -33.151  16.475  -3.094  1.00 20.00     0.254 C 
HETATM    5  C8  UNL     1     -33.500  15.384  -4.098  1.00 20.00     0.108 C 
HETATM    6  N11 UNL     1     -34.367  17.343  -2.862  1.00 20.00    -0.070 N 
HETATM    7 CL12 UNL     1     -32.088  14.315  -4.334  1.00 20.00    -0.123 Cl
HETATM    8  H31 UNL     1     -34.638  17.740  -3.773  1.00 20.00     0.279 HD
ENDROOT
BRANCH   6   9
HETATM    9  C10 UNL     1     -34.052  18.513  -1.970  1.00 20.00     0.235 C 
BRANCH   9  10
HETATM   10  C9  UNL     1     -33.596  17.996  -0.614  1.00 20.00     0.032 C 
BRANCH  10  11
HETATM   11  C7  UNL     1     -32.432  18.813  -0.078  1.00 20.00    -0.013 A 
HETATM   12  C2  UNL     1     -31.648  18.325   1.109  1.00 20.00     0.005 A 
HETATM   13  C3  UNL     1     -31.020  18.328  -0.257  1.00 20.00     0.005 A 
ENDBRANCH  10  11
ENDBRANCH   9  10
ENDBRANCH   6   9
TORSDOF 3
ENDMDL
MODEL 8
REMARK VINA RESULT:      -4.0     13.778     16.019
REMARK  3 active torsions:
REMARK  status: ('A' for Active; 'I' for Inactive)
REMARK    1  A    between atoms: C7_7  and  C9_9 
REMARK    2  A    between atoms: C9_9  and  C10_10 
REMARK    3  A    between atoms: C10_10  and  N11_11 
ROOT
HETATM    1  C1  UNL     1     -34.617  16.919  -6.284  1.00 20.00     0.029 C 
HETATM    2  C4  UNL     1     -35.086  15.609  -5.656  1.00 20.00     0.023 C 
HETATM    3  C5  UNL     1     -34.264  17.956  -5.228  1.00 20.00     0.235 C 
HETATM    4  C6  UNL     1     -33.709  16.125  -3.602  1.00 20.00     0.254 C 
HETATM    5  C8  UNL     1     -34.055  15.084  -4.658  1.00 20.00     0.108 C 
HETATM    6  N11 UNL     1     -33.231  17.385  -4.286  1.00 20.00    -0.070 N 
HETATM    7 CL12 UNL     1     -34.680  13.610  -3.863  1.00 20.00    -0.123 Cl
HETATM    8  H31 UNL     1     -32.409  17.132  -4.852  1.00 20.00     0.279 HD
ENDROOT
BRANCH   6   9
HETATM    9  C10 UNL     1     -32.760  18.411  -3.292  1.00 20.00     0.235 C 
BRANCH   9  10
HETATM   10  C9  UNL     1     -32.670  17.768  -1.917  1.00 20.00     0.032 C 
BRANCH  10  11
HETATM   11  C7  UNL     1     -32.049  18.717  -0.906  1.00 20.00    -0.013 A 
HETATM   12  C2  UNL     1     -32.276  18.509   0.566  1.00 20.00     0.005 A 
HETATM   13  C3  UNL     1     -30.918  18.256  -0.028  1.00 20.00     0.005 A 
ENDBRANCH  10  11
ENDBRANCH   9  10
ENDBRANCH   6   9
TORSDOF 3
ENDMDL
MODEL 9
REMARK VINA RESULT:      -3.9     12.050     14.165
REMARK  3 active torsions:
REMARK  status: ('A' for Active; 'I' for Inactive)
REMARK    1  A    between atoms: C7_7  and  C9_9 
REMARK    2  A    between atoms: C9_9  and  C10_10 
REMARK    3  A    between atoms: C10_10  and  N11_11 
ROOT
HETATM    1  C1  UNL     1     -35.920  13.798  -4.513  1.00 20.00     0.029 C 
HETATM    2  C4  UNL     1     -36.096  14.463  -5.875  1.00 20.00     0.023 C 
HETATM    3  C5  UNL     1     -34.614  14.207  -3.849  1.00 20.00     0.235 C 
HETATM    4  C6  UNL     1     -34.651  16.384  -5.101  1.00 20.00     0.254 C 
HETATM    5  C8  UNL     1     -35.962  15.980  -5.762  1.00 20.00     0.108 C 
HETATM    6  N11 UNL     1     -34.549  15.713  -3.750  1.00 20.00    -0.070 N 
HETATM    7 CL12 UNL     1     -36.065  16.719  -7.386  1.00 20.00    -0.123 Cl
HETATM    8  H31 UNL     1     -35.362  16.017  -3.196  1.00 20.00     0.279 HD
ENDROOT
BRANCH   6   9
HETATM    9  C10 UNL     1     -33.330  16.167  -2.995  1.00 20.00     0.235 C 
BRANCH   9  10
HETATM   10  C9  UNL     1     -33.753  17.138  -1.905  1.00 20.00     0.032 C 
BRANCH  10  11
HETATM   11  C7  UNL     1     -35.076  16.724  -1.283  1.00 20.00    -0.013 A 
HETATM   12  C2  UNL     1     -35.422  17.153   0.116  1.00 20.00     0.005 A 
HETATM   13  C3  UNL     1     -36.158  17.743  -1.055  1.00 20.00     0.005 A 
ENDBRANCH  10  11
ENDBRANCH   9  10
ENDBRANCH   6   9
TORSDOF 3
ENDMDL
