MODEL 1
REMARK VINA RESULT:      -5.1      0.000      0.000
REMARK  1 active torsions:
REMARK  status: ('A' for Active; 'I' for Inactive)
REMARK    1  A    between atoms: C3_3  and  C9_9 
ROOT
HETATM    1  C1  UNL     1     -35.078  16.021  -1.936  1.00 20.00     0.016 A 
HETATM    2  C2  UNL     1     -34.675  17.097  -1.093  1.00 20.00     0.015 A 
HETATM    3  C3  UNL     1     -34.229  15.857  -3.007  1.00 20.00    -0.013 A 
HETATM    4  C4  UNL     1     -33.532  17.714  -1.553  1.00 20.00    -0.021 A 
HETATM    5  C10 UNL     1     -32.804  18.859  -0.964  1.00 20.00     0.056 C 
HETATM    6  S12 UNL     1     -32.951  16.997  -2.994  1.00 20.00    -0.099 SA
ENDROOT
BRANCH   3   7
HETATM    7  C9  UNL     1     -34.305  14.832  -4.127  1.00 20.00     0.033 C 
HETATM    8  C7  UNL     1     -35.292  13.671  -3.929  1.00 20.00     0.088 C 
HETATM    9  C5  UNL     1     -36.541  14.175  -4.611  1.00 20.00     0.127 C 
HETATM   10  C6  UNL     1     -36.285  15.416  -5.427  1.00 20.00     0.079 C 
HETATM   11  O11 UNL     1     -37.636  13.638  -4.512  1.00 20.00    -0.298 OA
HETATM   12  C8  UNL     1     -34.762  15.470  -5.448  1.00 20.00     0.018 C 
ENDBRANCH   3   7
TORSDOF 1
ENDMDL
MODEL 2
REMARK VINA RESULT:      -5.1      1.080      1.398
REMARK  1 active torsions:
REMARK  status: ('A' for Active; 'I' for Inactive)
REMARK    1  A    between atoms: C3_3  and  C9_9 
ROOT
HETATM    1  C1  UNL     1     -32.813  16.610  -3.179  1.00 20.00     0.016 A 
HETATM    2  C2  UNL     1     -32.994  17.548  -2.122  1.00 20.00     0.015 A 
HETATM    3  C3  UNL     1     -33.870  15.733  -3.279  1.00 20.00    -0.013 A 
HETATM    4  C4  UNL     1     -34.184  17.353  -1.456  1.00 20.00    -0.021 A 
HETATM    5  C10 UNL     1     -34.733  18.112  -0.311  1.00 20.00     0.056 C 
HETATM    6  S12 UNL     1     -35.075  16.043  -2.103  1.00 20.00    -0.099 SA
ENDROOT
BRANCH   3   7
HETATM    7  C9  UNL     1     -34.063  14.593  -4.265  1.00 20.00     0.033 C 
HETATM    8  C7  UNL     1     -35.156  13.567  -3.924  1.00 20.00     0.088 C 
HETATM    9  C5  UNL     1     -36.359  14.106  -4.659  1.00 20.00     0.127 C 
HETATM   10  C6  UNL     1     -35.996  15.207  -5.621  1.00 20.00     0.079 C 
HETATM   11  O11 UNL     1     -37.500  13.696  -4.492  1.00 20.00    -0.298 OA
HETATM   12  C8  UNL     1     -34.474  15.107  -5.653  1.00 20.00     0.018 C 
ENDBRANCH   3   7
TORSDOF 1
ENDMDL
MODEL 3
REMARK VINA RESULT:      -4.9      0.948      1.009
REMARK  1 active torsions:
REMARK  status: ('A' for Active; 'I' for Inactive)
REMARK    1  A    between atoms: C3_3  and  C9_9 
ROOT
HETATM    1  C1  UNL     1     -35.183  16.121  -1.886  1.00 20.00     0.016 A 
HETATM    2  C2  UNL     1     -35.132  16.999  -0.765  1.00 20.00     0.015 A 
HETATM    3  C3  UNL     1     -34.101  16.287  -2.723  1.00 20.00    -0.013 A 
HETATM    4  C4  UNL     1     -34.012  17.801  -0.787  1.00 20.00    -0.021 A 
HETATM    5  C10 UNL     1     -33.601  18.833   0.191  1.00 20.00     0.056 C 
HETATM    6  S12 UNL     1     -33.030  17.496  -2.155  1.00 20.00    -0.099 SA
ENDROOT
BRANCH   3   7
HETATM    7  C9  UNL     1     -33.783  15.553  -4.014  1.00 20.00     0.033 C 
HETATM    8  C7  UNL     1     -33.998  14.031  -4.010  1.00 20.00     0.088 C 
HETATM    9  C5  UNL     1     -35.404  13.892  -4.542  1.00 20.00     0.127 C 
HETATM   10  C6  UNL     1     -35.929  15.184  -5.114  1.00 20.00     0.079 C 
HETATM   11  O11 UNL     1     -36.045  12.850  -4.513  1.00 20.00    -0.298 OA
HETATM   12  C8  UNL     1     -34.667  16.037  -5.174  1.00 20.00     0.018 C 
ENDBRANCH   3   7
TORSDOF 1
ENDMDL
MODEL 4
REMARK VINA RESULT:      -4.7      1.836      2.329
REMARK  1 active torsions:
REMARK  status: ('A' for Active; 'I' for Inactive)
REMARK    1  A    between atoms: C3_3  and  C9_9 
ROOT
HETATM    1  C1  UNL     1     -34.847  16.272  -1.927  1.00 20.00     0.016 A 
HETATM    2  C2  UNL     1     -35.151  16.964  -0.719  1.00 20.00     0.015 A 
HETATM    3  C3  UNL     1     -35.709  16.608  -2.947  1.00 20.00    -0.013 A 
HETATM    4  C4  UNL     1     -36.235  17.803  -0.863  1.00 20.00    -0.021 A 
HETATM    5  C10 UNL     1     -36.856  18.685   0.150  1.00 20.00     0.056 C 
HETATM    6  S12 UNL     1     -36.879  17.754  -2.448  1.00 20.00    -0.099 SA
ENDROOT
BRANCH   3   7
HETATM    7  C9  UNL     1     -35.724  16.099  -4.379  1.00 20.00     0.033 C 
HETATM    8  C7  UNL     1     -34.968  14.789  -4.650  1.00 20.00     0.088 C 
HETATM    9  C5  UNL     1     -36.048  13.744  -4.505  1.00 20.00     0.127 C 
HETATM   10  C6  UNL     1     -37.426  14.352  -4.443  1.00 20.00     0.079 C 
HETATM   11  O11 UNL     1     -35.830  12.541  -4.445  1.00 20.00    -0.298 OA
HETATM   12  C8  UNL     1     -37.153  15.794  -4.856  1.00 20.00     0.018 C 
ENDBRANCH   3   7
TORSDOF 1
ENDMDL
MODEL 5
REMARK VINA RESULT:      -4.7     13.097     15.931
REMARK  1 active torsions:
REMARK  status: ('A' for Active; 'I' for Inactive)
REMARK    1  A    between atoms: C3_3  and  C9_9 
ROOT
HETATM    1  C1  UNL     1     -26.715  19.247   8.058  1.00 20.00     0.016 A 
HETATM    2  C2  UNL     1     -27.208  19.242   6.721  1.00 20.00     0.015 A 
HETATM    3  C3  UNL     1     -25.339  19.255   8.102  1.00 20.00    -0.013 A 
HETATM    4  C4  UNL     1     -26.188  19.248   5.794  1.00 20.00    -0.021 A 
HETATM    5  C10 UNL     1     -26.286  19.246   4.318  1.00 20.00     0.056 C 
HETATM    6  S12 UNL     1     -24.646  19.258   6.537  1.00 20.00    -0.099 SA
ENDROOT
BRANCH   3   7
HETATM    7  C9  UNL     1     -24.432  19.262   9.322  1.00 20.00     0.033 C 
HETATM    8  C7  UNL     1     -24.932  18.492  10.554  1.00 20.00     0.088 C 
HETATM    9  C5  UNL     1     -24.303  17.131  10.374  1.00 20.00     0.127 C 
HETATM   10  C6  UNL     1     -23.258  17.124   9.289  1.00 20.00     0.079 C 
HETATM   11  O11 UNL     1     -24.606  16.147  11.035  1.00 20.00    -0.298 OA
HETATM   12  C8  UNL     1     -23.072  18.613   9.020  1.00 20.00     0.018 C 
ENDBRANCH   3   7
TORSDOF 1
ENDMDL
MODEL 6
REMARK VINA RESULT:      -4.6      3.203      5.734
REMARK  1 active torsions:
REMARK  status: ('A' for Active; 'I' for Inactive)
REMARK    1  A    between atoms: C3_3  and  C9_9 
ROOT
HETATM    1  C1  UNL     1     -34.982  16.813  -1.380  1.00 20.00     0.016 A 
HETATM    2  C2  UNL     1     -35.045  15.721  -2.293  1.00 20.00     0.015 A 
HETATM    3  C3  UNL     1     -33.874  17.603  -1.594  1.00 20.00    -0.013 A 
HETATM    4  C4  UNL     1     -33.982  15.719  -3.171  1.00 20.00    -0.021 A 
HETATM    5  C10 UNL     1     -33.690  14.761  -4.260  1.00 20.00     0.056 C 
HETATM    6  S12 UNL     1     -32.916  17.029  -2.891  1.00 20.00    -0.099 SA
ENDROOT
BRANCH   3   7
HETATM    7  C9  UNL     1     -33.445  18.853  -0.843  1.00 20.00     0.033 C 
HETATM    8  C7  UNL     1     -33.567  18.811   0.688  1.00 20.00     0.088 C 
HETATM    9  C5  UNL     1     -32.194  18.354   1.119  1.00 20.00     0.127 C 
HETATM   10  C6  UNL     1     -31.199  18.390  -0.012  1.00 20.00     0.079 C 
HETATM   11  O11 UNL     1     -31.920  17.996   2.257  1.00 20.00    -0.298 OA
HETATM   12  C8  UNL     1     -31.960  19.172  -1.077  1.00 20.00     0.018 C 
ENDBRANCH   3   7
TORSDOF 1
ENDMDL
MODEL 7
REMARK VINA RESULT:      -4.5      1.786      2.176
REMARK  1 active torsions:
REMARK  status: ('A' for Active; 'I' for Inactive)
REMARK    1  A    between atoms: C3_3  and  C9_9 
ROOT
HETATM    1  C1  UNL     1     -33.970  16.428  -2.189  1.00 20.00     0.016 A 
HETATM    2  C2  UNL     1     -34.496  17.654  -1.687  1.00 20.00     0.015 A 
HETATM    3  C3  UNL     1     -34.873  15.767  -2.991  1.00 20.00    -0.013 A 
HETATM    4  C4  UNL     1     -35.782  17.883  -2.127  1.00 20.00    -0.021 A 
HETATM    5  C10 UNL     1     -36.665  19.033  -1.831  1.00 20.00     0.056 C 
HETATM    6  S12 UNL     1     -36.349  16.624  -3.138  1.00 20.00    -0.099 SA
ENDROOT
BRANCH   3   7
HETATM    7  C9  UNL     1     -34.703  14.441  -3.714  1.00 20.00     0.033 C 
HETATM    8  C7  UNL     1     -35.875  13.984  -4.597  1.00 20.00     0.088 C 
HETATM    9  C5  UNL     1     -35.495  14.517  -5.957  1.00 20.00     0.127 C 
HETATM   10  C6  UNL     1     -34.072  15.007  -6.001  1.00 20.00     0.079 C 
HETATM   11  O11 UNL     1     -36.257  14.546  -6.915  1.00 20.00    -0.298 OA
HETATM   12  C8  UNL     1     -33.514  14.474  -4.686  1.00 20.00     0.018 C 
ENDBRANCH   3   7
TORSDOF 1
ENDMDL
MODEL 8
REMARK VINA RESULT:      -4.4      2.522      3.678
REMARK  1 active torsions:
REMARK  status: ('A' for Active; 'I' for Inactive)
REMARK    1  A    between atoms: C3_3  and  C9_9 
ROOT
HETATM    1  C1  UNL     1     -33.912  18.200   0.368  1.00 20.00     0.016 A 
HETATM    2  C2  UNL     1     -32.931  18.382   1.384  1.00 20.00     0.015 A 
HETATM    3  C3  UNL     1     -33.361  18.222  -0.894  1.00 20.00    -0.013 A 
HETATM    4  C4  UNL     1     -31.666  18.535   0.860  1.00 20.00    -0.021 A 
HETATM    5  C10 UNL     1     -30.390  18.744   1.580  1.00 20.00     0.056 C 
HETATM    6  S12 UNL     1     -31.666  18.460  -0.850  1.00 20.00    -0.099 SA
ENDROOT
BRANCH   3   7
HETATM    7  C9  UNL     1     -34.059  18.065  -2.235  1.00 20.00     0.033 C 
HETATM    8  C7  UNL     1     -33.215  17.497  -3.387  1.00 20.00     0.088 C 
HETATM    9  C5  UNL     1     -33.508  16.018  -3.316  1.00 20.00     0.127 C 
HETATM   10  C6  UNL     1     -34.661  15.707  -2.398  1.00 20.00     0.079 C 
HETATM   11  O11 UNL     1     -32.880  15.168  -3.934  1.00 20.00    -0.298 OA
HETATM   12  C8  UNL     1     -35.245  17.092  -2.145  1.00 20.00     0.018 C 
ENDBRANCH   3   7
TORSDOF 1
ENDMDL
MODEL 9
REMARK VINA RESULT:      -4.4      1.473      1.676
REMARK  1 active torsions:
REMARK  status: ('A' for Active; 'I' for Inactive)
REMARK    1  A    between atoms: C3_3  and  C9_9 
ROOT
HETATM    1  C1  UNL     1     -33.803  15.542  -3.374  1.00 20.00     0.016 A 
HETATM    2  C2  UNL     1     -33.145  16.569  -2.637  1.00 20.00     0.015 A 
HETATM    3  C3  UNL     1     -34.368  16.019  -4.536  1.00 20.00    -0.013 A 
HETATM    4  C4  UNL     1     -33.231  17.792  -3.266  1.00 20.00    -0.021 A 
HETATM    5  C10 UNL     1     -32.682  19.093  -2.826  1.00 20.00     0.056 C 
HETATM    6  S12 UNL     1     -34.102  17.699  -4.736  1.00 20.00    -0.099 SA
ENDROOT
BRANCH   3   7
HETATM    7  C9  UNL     1     -35.150  15.254  -5.591  1.00 20.00     0.033 C 
HETATM    8  C7  UNL     1     -35.901  14.001  -5.115  1.00 20.00     0.088 C 
HETATM    9  C5  UNL     1     -37.278  14.536  -4.806  1.00 20.00     0.127 C 
HETATM   10  C6  UNL     1     -37.475  15.939  -5.319  1.00 20.00     0.079 C 
HETATM   11  O11 UNL     1     -38.137  13.903  -4.206  1.00 20.00    -0.298 OA
HETATM   12  C8  UNL     1     -36.255  16.121  -6.215  1.00 20.00     0.018 C 
ENDBRANCH   3   7
TORSDOF 1
ENDMDL
