MODEL 1
REMARK VINA RESULT:      -4.5      0.000      0.000
REMARK  1 active torsions:
REMARK  status: ('A' for Active; 'I' for Inactive)
REMARK    1  A    between atoms: C3_3  and  C8_8 
ROOT
HETATM    1  C1  UNL     1     -35.256  16.983  -0.584  1.00 20.00     0.016 A 
HETATM    2  C2  UNL     1     -34.850  17.677   0.592  1.00 20.00     0.015 A 
HETATM    3  C3  UNL     1     -34.345  17.122  -1.608  1.00 20.00    -0.012 A 
HETATM    4  C4  UNL     1     -33.644  18.321   0.421  1.00 20.00    -0.021 A 
HETATM    5  C10 UNL     1     -32.893  19.140   1.398  1.00 20.00     0.056 C 
HETATM    6  S11 UNL     1     -33.007  18.087  -1.151  1.00 20.00    -0.099 SA
ENDROOT
BRANCH   3   7
HETATM    7  C8  UNL     1     -34.403  16.545  -3.006  1.00 20.00     0.040 C 
HETATM    8  C6  UNL     1     -33.073  15.910  -3.447  1.00 20.00     0.011 C 
HETATM    9  C5  UNL     1     -33.493  14.856  -4.460  1.00 20.00     0.002 C 
HETATM   10  C7  UNL     1     -34.736  14.249  -3.826  1.00 20.00     0.016 C 
HETATM   11  C9  UNL     1     -35.456  15.430  -3.176  1.00 20.00     0.067 C 
HETATM   12 BR12 UNL     1     -36.899  16.050  -4.350  1.00 20.00    -0.090 Br
ENDBRANCH   3   7
TORSDOF 1
ENDMDL
MODEL 2
REMARK VINA RESULT:      -4.5      1.926      2.797
REMARK  1 active torsions:
REMARK  status: ('A' for Active; 'I' for Inactive)
REMARK    1  A    between atoms: C3_3  and  C8_8 
ROOT
HETATM    1  C1  UNL     1     -31.284  18.267  -0.442  1.00 20.00     0.016 A 
HETATM    2  C2  UNL     1     -30.754  18.592   0.840  1.00 20.00     0.015 A 
HETATM    3  C3  UNL     1     -32.660  18.200  -0.433  1.00 20.00    -0.012 A 
HETATM    4  C4  UNL     1     -31.746  18.760   1.782  1.00 20.00    -0.021 A 
HETATM    5  C10 UNL     1     -31.607  19.102   3.214  1.00 20.00     0.056 C 
HETATM    6  S11 UNL     1     -33.308  18.528   1.119  1.00 20.00    -0.099 SA
ENDROOT
BRANCH   3   7
HETATM    7  C8  UNL     1     -33.596  17.887  -1.579  1.00 20.00     0.040 C 
HETATM    8  C6  UNL     1     -32.946  17.001  -2.657  1.00 20.00     0.011 C 
HETATM    9  C5  UNL     1     -34.124  16.269  -3.282  1.00 20.00     0.002 C 
HETATM   10  C7  UNL     1     -34.986  15.919  -2.078  1.00 20.00     0.016 C 
HETATM   11  C9  UNL     1     -34.871  17.130  -1.153  1.00 20.00     0.067 C 
HETATM   12 BR12 UNL     1     -36.438  18.285  -1.381  1.00 20.00    -0.090 Br
ENDBRANCH   3   7
TORSDOF 1
ENDMDL
MODEL 3
REMARK VINA RESULT:      -4.4      1.516      2.045
REMARK  1 active torsions:
REMARK  status: ('A' for Active; 'I' for Inactive)
REMARK    1  A    between atoms: C3_3  and  C8_8 
ROOT
HETATM    1  C1  UNL     1     -35.101  16.682  -1.594  1.00 20.00     0.016 A 
HETATM    2  C2  UNL     1     -34.236  17.462  -0.774  1.00 20.00     0.015 A 
HETATM    3  C3  UNL     1     -34.559  16.441  -2.838  1.00 20.00    -0.012 A 
HETATM    4  C4  UNL     1     -33.064  17.788  -1.423  1.00 20.00    -0.021 A 
HETATM    5  C10 UNL     1     -31.921  18.577  -0.915  1.00 20.00     0.056 C 
HETATM    6  S11 UNL     1     -33.012  17.154  -3.013  1.00 20.00    -0.099 SA
ENDROOT
BRANCH   3   7
HETATM    7  C8  UNL     1     -35.153  15.660  -3.990  1.00 20.00     0.040 C 
HETATM    8  C6  UNL     1     -34.948  14.141  -3.852  1.00 20.00     0.011 C 
HETATM    9  C5  UNL     1     -36.115  13.547  -4.625  1.00 20.00     0.002 C 
HETATM   10  C7  UNL     1     -37.279  14.444  -4.230  1.00 20.00     0.016 C 
HETATM   11  C9  UNL     1     -36.677  15.846  -4.148  1.00 20.00     0.067 C 
HETATM   12 BR12 UNL     1     -37.059  16.827  -5.802  1.00 20.00    -0.090 Br
ENDBRANCH   3   7
TORSDOF 1
ENDMDL
MODEL 4
REMARK VINA RESULT:      -4.3      1.461      2.250
REMARK  1 active torsions:
REMARK  status: ('A' for Active; 'I' for Inactive)
REMARK    1  A    between atoms: C3_3  and  C8_8 
ROOT
HETATM    1  C1  UNL     1     -33.017  17.003  -2.890  1.00 20.00     0.016 A 
HETATM    2  C2  UNL     1     -32.774  17.702  -1.673  1.00 20.00     0.015 A 
HETATM    3  C3  UNL     1     -34.281  16.457  -2.931  1.00 20.00    -0.012 A 
HETATM    4  C4  UNL     1     -33.864  17.665  -0.829  1.00 20.00    -0.021 A 
HETATM    5  C10 UNL     1     -34.009  18.268   0.513  1.00 20.00     0.056 C 
HETATM    6  S11 UNL     1     -35.171  16.789  -1.506  1.00 20.00    -0.099 SA
ENDROOT
BRANCH   3   7
HETATM    7  C8  UNL     1     -34.922  15.648  -4.037  1.00 20.00     0.040 C 
HETATM    8  C6  UNL     1     -34.794  14.130  -3.819  1.00 20.00     0.011 C 
HETATM    9  C5  UNL     1     -35.995  13.555  -4.554  1.00 20.00     0.002 C 
HETATM   10  C7  UNL     1     -37.109  14.531  -4.203  1.00 20.00     0.016 C 
HETATM   11  C9  UNL     1     -36.435  15.902  -4.198  1.00 20.00     0.067 C 
HETATM   12 BR12 UNL     1     -36.779  16.812  -5.901  1.00 20.00    -0.090 Br
ENDBRANCH   3   7
TORSDOF 1
ENDMDL
MODEL 5
REMARK VINA RESULT:      -4.3     14.721     15.995
REMARK  1 active torsions:
REMARK  status: ('A' for Active; 'I' for Inactive)
REMARK    1  A    between atoms: C3_3  and  C8_8 
ROOT
HETATM    1  C1  UNL     1     -27.034  17.029  12.194  1.00 20.00     0.016 A 
HETATM    2  C2  UNL     1     -28.451  17.091  12.325  1.00 20.00     0.015 A 
HETATM    3  C3  UNL     1     -26.523  18.146  11.570  1.00 20.00    -0.012 A 
HETATM    4  C4  UNL     1     -28.970  18.252  11.796  1.00 20.00    -0.021 A 
HETATM    5  C10 UNL     1     -30.382  18.687  11.739  1.00 20.00     0.056 C 
HETATM    6  S11 UNL     1     -27.750  19.263  11.145  1.00 20.00    -0.099 SA
ENDROOT
BRANCH   3   7
HETATM    7  C8  UNL     1     -25.080  18.466  11.245  1.00 20.00     0.040 C 
HETATM    8  C6  UNL     1     -24.101  17.987  12.331  1.00 20.00     0.011 C 
HETATM    9  C5  UNL     1     -22.802  17.760  11.573  1.00 20.00     0.002 C 
HETATM   10  C7  UNL     1     -23.270  17.105  10.281  1.00 20.00     0.016 C 
HETATM   11  C9  UNL     1     -24.578  17.816   9.938  1.00 20.00     0.067 C 
HETATM   12 BR12 UNL     1     -24.242  19.202   8.593  1.00 20.00    -0.090 Br
ENDBRANCH   3   7
TORSDOF 1
ENDMDL
MODEL 6
REMARK VINA RESULT:      -4.1      1.831      2.306
REMARK  1 active torsions:
REMARK  status: ('A' for Active; 'I' for Inactive)
REMARK    1  A    between atoms: C3_3  and  C8_8 
ROOT
HETATM    1  C1  UNL     1     -35.070  17.012  -0.656  1.00 20.00     0.016 A 
HETATM    2  C2  UNL     1     -35.912  17.679   0.280  1.00 20.00     0.015 A 
HETATM    3  C3  UNL     1     -35.582  17.053  -1.934  1.00 20.00    -0.012 A 
HETATM    4  C4  UNL     1     -37.037  18.203  -0.318  1.00 20.00    -0.021 A 
HETATM    5  C10 UNL     1     -38.143  18.961   0.307  1.00 20.00     0.056 C 
HETATM    6  S11 UNL     1     -37.074  17.892  -2.002  1.00 20.00    -0.099 SA
ENDROOT
BRANCH   3   7
HETATM    7  C8  UNL     1     -34.999  16.469  -3.202  1.00 20.00     0.040 C 
HETATM    8  C6  UNL     1     -33.507  16.115  -3.067  1.00 20.00     0.011 C 
HETATM    9  C5  UNL     1     -33.309  14.993  -4.074  1.00 20.00     0.002 C 
HETATM   10  C7  UNL     1     -34.563  14.149  -3.897  1.00 20.00     0.016 C 
HETATM   11  C9  UNL     1     -35.681  15.163  -3.658  1.00 20.00     0.067 C 
HETATM   12 BR12 UNL     1     -36.660  15.471  -5.328  1.00 20.00    -0.090 Br
ENDBRANCH   3   7
TORSDOF 1
ENDMDL
MODEL 7
REMARK VINA RESULT:      -4.1      2.736      5.019
REMARK  1 active torsions:
REMARK  status: ('A' for Active; 'I' for Inactive)
REMARK    1  A    between atoms: C3_3  and  C8_8 
ROOT
HETATM    1  C1  UNL     1     -35.877  14.608  -3.766  1.00 20.00     0.016 A 
HETATM    2  C2  UNL     1     -37.024  14.552  -4.609  1.00 20.00     0.015 A 
HETATM    3  C3  UNL     1     -35.776  15.814  -3.107  1.00 20.00    -0.012 A 
HETATM    4  C4  UNL     1     -37.756  15.718  -4.564  1.00 20.00    -0.021 A 
HETATM    5  C10 UNL     1     -39.002  16.050  -5.288  1.00 20.00     0.056 C 
HETATM    6  S11 UNL     1     -37.061  16.873  -3.508  1.00 20.00    -0.099 SA
ENDROOT
BRANCH   3   7
HETATM    7  C8  UNL     1     -34.715  16.268  -2.130  1.00 20.00     0.040 C 
HETATM    8  C6  UNL     1     -33.345  16.491  -2.794  1.00 20.00     0.011 C 
HETATM    9  C5  UNL     1     -32.677  17.530  -1.908  1.00 20.00     0.002 C 
HETATM   10  C7  UNL     1     -33.813  18.495  -1.597  1.00 20.00     0.016 C 
HETATM   11  C9  UNL     1     -35.043  17.603  -1.430  1.00 20.00     0.067 C 
HETATM   12 BR12 UNL     1     -35.378  17.292   0.476  1.00 20.00    -0.090 Br
ENDBRANCH   3   7
TORSDOF 1
ENDMDL
MODEL 8
REMARK VINA RESULT:      -4.1      2.804      3.549
REMARK  1 active torsions:
REMARK  status: ('A' for Active; 'I' for Inactive)
REMARK    1  A    between atoms: C3_3  and  C8_8 
ROOT
HETATM    1  C1  UNL     1     -36.758  17.908  -1.560  1.00 20.00     0.016 A 
HETATM    2  C2  UNL     1     -37.813  18.329  -0.701  1.00 20.00     0.015 A 
HETATM    3  C3  UNL     1     -35.650  17.491  -0.856  1.00 20.00    -0.012 A 
HETATM    4  C4  UNL     1     -37.472  18.217   0.629  1.00 20.00    -0.021 A 
HETATM    5  C10 UNL     1     -38.286  18.548   1.819  1.00 20.00     0.056 C 
HETATM    6  S11 UNL     1     -35.885  17.608   0.837  1.00 20.00    -0.099 SA
ENDROOT
BRANCH   3   7
HETATM    7  C8  UNL     1     -34.333  16.973  -1.391  1.00 20.00     0.040 C 
HETATM    8  C6  UNL     1     -34.510  15.903  -2.482  1.00 20.00     0.011 C 
HETATM    9  C5  UNL     1     -33.246  16.027  -3.319  1.00 20.00     0.002 C 
HETATM   10  C7  UNL     1     -33.044  17.533  -3.411  1.00 20.00     0.016 C 
HETATM   11  C9  UNL     1     -33.453  18.063  -2.037  1.00 20.00     0.067 C 
HETATM   12 BR12 UNL     1     -31.853  18.362  -0.943  1.00 20.00    -0.090 Br
ENDBRANCH   3   7
TORSDOF 1
ENDMDL
MODEL 9
REMARK VINA RESULT:      -4.1      2.523      5.090
REMARK  1 active torsions:
REMARK  status: ('A' for Active; 'I' for Inactive)
REMARK    1  A    between atoms: C3_3  and  C8_8 
ROOT
HETATM    1  C1  UNL     1     -35.879  14.750  -3.498  1.00 20.00     0.016 A 
HETATM    2  C2  UNL     1     -36.310  14.392  -4.807  1.00 20.00     0.015 A 
HETATM    3  C3  UNL     1     -34.890  15.710  -3.522  1.00 20.00    -0.012 A 
HETATM    4  C4  UNL     1     -35.634  15.091  -5.784  1.00 20.00    -0.021 A 
HETATM    5  C10 UNL     1     -35.792  15.007  -7.252  1.00 20.00     0.056 C 
HETATM    6  S11 UNL     1     -34.485  16.174  -5.120  1.00 20.00    -0.099 SA
ENDROOT
BRANCH   3   7
HETATM    7  C8  UNL     1     -34.173  16.353  -2.355  1.00 20.00     0.040 C 
HETATM    8  C6  UNL     1     -32.757  16.836  -2.716  1.00 20.00     0.011 C 
HETATM    9  C5  UNL     1     -32.506  17.980  -1.746  1.00 20.00     0.002 C 
HETATM   10  C7  UNL     1     -33.842  18.709  -1.725  1.00 20.00     0.016 C 
HETATM   11  C9  UNL     1     -34.889  17.599  -1.794  1.00 20.00     0.067 C 
HETATM   12 BR12 UNL     1     -35.570  17.221   0.005  1.00 20.00    -0.090 Br
ENDBRANCH   3   7
TORSDOF 1
ENDMDL
