MODEL 1
REMARK VINA RESULT:      -4.0      0.000      0.000
REMARK  4 active torsions:
REMARK  status: ('A' for Active; 'I' for Inactive)
REMARK    1  A    between atoms: C1_1  and  C5_5 
REMARK       I    between atoms: C1_1  and  N8_8 
REMARK    2  A    between atoms: C5_5  and  S10_10 
REMARK    3  A    between atoms: C6_6  and  N8_8 
REMARK    4  A    between atoms: C7_7  and  N8_8 
ROOT
HETATM    1  C1  UNL     1     -24.689  18.663   9.266  1.00 20.00     0.229 C 
HETATM    2  N8  UNL     1     -23.893  17.741   9.960  1.00 20.00    -0.348 N 
HETATM    3  O9  UNL     1     -25.631  19.263   9.791  1.00 20.00    -0.273 OA
ENDROOT
BRANCH   2   4
HETATM    4  C6  UNL     1     -22.780  17.035   9.329  1.00 20.00     0.121 C 
HETATM    5  C2  UNL     1     -21.575  17.907   9.232  1.00 20.00     0.026 C 
ENDBRANCH   2   4
BRANCH   2   6
HETATM    6  C7  UNL     1     -24.114  17.417  11.365  1.00 20.00     0.079 C 
HETATM    7  C3  UNL     1     -22.861  17.761  12.157  1.00 20.00     0.032 C 
HETATM    8  C4  UNL     1     -24.467  15.942  11.481  1.00 20.00     0.032 C 
ENDBRANCH   2   6
BRANCH   1   9
HETATM    9  C5  UNL     1     -24.319  18.881   7.809  1.00 20.00     0.173 C 
BRANCH   9  10
HETATM   10  S10 UNL     1     -25.767  19.262   6.790  1.00 20.00    -0.173 SA
HETATM   11  H25 UNL     1     -26.116  17.990   6.549  1.00 20.00     0.102 HD
ENDBRANCH   9  10
ENDBRANCH   1   9
TORSDOF 4
ENDMDL
MODEL 2
REMARK VINA RESULT:      -3.6     16.496     17.934
REMARK  4 active torsions:
REMARK  status: ('A' for Active; 'I' for Inactive)
REMARK    1  A    between atoms: C1_1  and  C5_5 
REMARK       I    between atoms: C1_1  and  N8_8 
REMARK    2  A    between atoms: C5_5  and  S10_10 
REMARK    3  A    between atoms: C6_6  and  N8_8 
REMARK    4  A    between atoms: C7_7  and  N8_8 
ROOT
HETATM    1  C1  UNL     1     -34.365  14.823  -4.936  1.00 20.00     0.229 C 
HETATM    2  N8  UNL     1     -34.777  15.767  -3.985  1.00 20.00    -0.348 N 
HETATM    3  O9  UNL     1     -33.448  14.023  -4.731  1.00 20.00    -0.273 OA
ENDROOT
BRANCH   2   4
HETATM    4  C6  UNL     1     -35.864  16.710  -4.237  1.00 20.00     0.121 C 
HETATM    5  C2  UNL     1     -35.367  17.933  -4.931  1.00 20.00     0.026 C 
ENDBRANCH   2   4
BRANCH   2   6
HETATM    6  C7  UNL     1     -34.152  15.879  -2.672  1.00 20.00     0.079 C 
HETATM    7  C3  UNL     1     -35.187  16.368  -1.669  1.00 20.00     0.032 C 
HETATM    8  C4  UNL     1     -32.969  16.831  -2.769  1.00 20.00     0.032 C 
ENDBRANCH   2   6
BRANCH   1   9
HETATM    9  C5  UNL     1     -35.125  14.843  -6.251  1.00 20.00     0.173 C 
BRANCH   9  10
HETATM   10  S10 UNL     1     -34.102  15.446  -7.618  1.00 20.00    -0.173 SA
HETATM   11  H25 UNL     1     -32.934  15.000  -7.136  1.00 20.00     0.102 HD
ENDBRANCH   9  10
ENDBRANCH   1   9
TORSDOF 4
ENDMDL
MODEL 3
REMARK VINA RESULT:      -3.5     17.612     19.020
REMARK  4 active torsions:
REMARK  status: ('A' for Active; 'I' for Inactive)
REMARK    1  A    between atoms: C1_1  and  C5_5 
REMARK       I    between atoms: C1_1  and  N8_8 
REMARK    2  A    between atoms: C5_5  and  S10_10 
REMARK    3  A    between atoms: C6_6  and  N8_8 
REMARK    4  A    between atoms: C7_7  and  N8_8 
ROOT
HETATM    1  C1  UNL     1     -37.494  14.895  -4.372  1.00 20.00     0.229 C 
HETATM    2  N8  UNL     1     -36.405  15.629  -3.883  1.00 20.00    -0.348 N 
HETATM    3  O9  UNL     1     -37.508  13.661  -4.407  1.00 20.00    -0.273 OA
ENDROOT
BRANCH   2   4
HETATM    4  C6  UNL     1     -36.398  17.090  -3.847  1.00 20.00     0.121 C 
HETATM    5  C2  UNL     1     -35.950  17.658  -5.150  1.00 20.00     0.026 C 
ENDBRANCH   2   4
BRANCH   2   6
HETATM    6  C7  UNL     1     -35.197  14.991  -3.372  1.00 20.00     0.079 C 
HETATM    7  C3  UNL     1     -34.549  15.906  -2.343  1.00 20.00     0.032 C 
HETATM    8  C4  UNL     1     -34.262  14.702  -4.537  1.00 20.00     0.032 C 
ENDBRANCH   2   6
BRANCH   1   9
HETATM    9  C5  UNL     1     -38.671  15.718  -4.864  1.00 20.00     0.173 C 
BRANCH   9  10
HETATM   10  S10 UNL     1     -40.063  15.675  -3.706  1.00 20.00    -0.173 SA
HETATM   11  H25 UNL     1     -39.541  16.532  -2.818  1.00 20.00     0.102 HD
ENDBRANCH   9  10
ENDBRANCH   1   9
TORSDOF 4
ENDMDL
MODEL 4
REMARK VINA RESULT:      -3.4      1.452      2.700
REMARK  4 active torsions:
REMARK  status: ('A' for Active; 'I' for Inactive)
REMARK    1  A    between atoms: C1_1  and  C5_5 
REMARK       I    between atoms: C1_1  and  N8_8 
REMARK    2  A    between atoms: C5_5  and  S10_10 
REMARK    3  A    between atoms: C6_6  and  N8_8 
REMARK    4  A    between atoms: C7_7  and  N8_8 
ROOT
HETATM    1  C1  UNL     1     -24.180  18.943   8.355  1.00 20.00     0.229 C 
HETATM    2  N8  UNL     1     -23.380  18.396   9.367  1.00 20.00    -0.348 N 
HETATM    3  O9  UNL     1     -23.736  19.258   7.247  1.00 20.00    -0.273 OA
ENDROOT
BRANCH   2   4
HETATM    4  C6  UNL     1     -23.915  18.026  10.676  1.00 20.00     0.121 C 
HETATM    5  C2  UNL     1     -24.301  16.586  10.712  1.00 20.00     0.026 C 
ENDBRANCH   2   4
BRANCH   2   6
HETATM    6  C7  UNL     1     -21.953  18.153   9.191  1.00 20.00     0.079 C 
HETATM    7  C3  UNL     1     -21.761  16.869   8.397  1.00 20.00     0.032 C 
HETATM    8  C4  UNL     1     -21.294  18.072  10.560  1.00 20.00     0.032 C 
ENDBRANCH   2   6
BRANCH   1   9
HETATM    9  C5  UNL     1     -25.646  19.128   8.706  1.00 20.00     0.173 C 
BRANCH   9  10
HETATM   10  S10 UNL     1     -26.689  19.248   7.231  1.00 20.00    -0.173 SA
HETATM   11  H25 UNL     1     -25.695  19.143   6.339  1.00 20.00     0.102 HD
ENDBRANCH   9  10
ENDBRANCH   1   9
TORSDOF 4
ENDMDL
MODEL 5
REMARK VINA RESULT:      -3.2     12.447     14.260
REMARK  4 active torsions:
REMARK  status: ('A' for Active; 'I' for Inactive)
REMARK    1  A    between atoms: C1_1  and  C5_5 
REMARK       I    between atoms: C1_1  and  N8_8 
REMARK    2  A    between atoms: C5_5  and  S10_10 
REMARK    3  A    between atoms: C6_6  and  N8_8 
REMARK    4  A    between atoms: C7_7  and  N8_8 
ROOT
HETATM    1  C1  UNL     1     -31.817  18.427  -0.312  1.00 20.00     0.229 C 
HETATM    2  N8  UNL     1     -32.929  17.929  -1.003  1.00 20.00    -0.348 N 
HETATM    3  O9  UNL     1     -30.678  18.426  -0.788  1.00 20.00    -0.273 OA
ENDROOT
BRANCH   2   4
HETATM    4  C6  UNL     1     -34.274  17.934  -0.431  1.00 20.00     0.121 C 
HETATM    5  C2  UNL     1     -34.941  19.252  -0.636  1.00 20.00     0.026 C 
ENDBRANCH   2   4
BRANCH   2   6
HETATM    6  C7  UNL     1     -32.831  17.368  -2.346  1.00 20.00     0.079 C 
HETATM    7  C3  UNL     1     -32.971  18.490  -3.365  1.00 20.00     0.032 C 
HETATM    8  C4  UNL     1     -33.911  16.312  -2.520  1.00 20.00     0.032 C 
ENDBRANCH   2   6
BRANCH   1   9
HETATM    9  C5  UNL     1     -32.098  18.975   1.076  1.00 20.00     0.173 C 
BRANCH   9  10
HETATM   10  S10 UNL     1     -30.577  19.261   2.016  1.00 20.00    -0.173 SA
HETATM   11  H25 UNL     1     -29.791  19.495   0.956  1.00 20.00     0.102 HD
ENDBRANCH   9  10
ENDBRANCH   1   9
TORSDOF 4
ENDMDL
MODEL 6
REMARK VINA RESULT:      -3.2     16.469     17.841
REMARK  4 active torsions:
REMARK  status: ('A' for Active; 'I' for Inactive)
REMARK    1  A    between atoms: C1_1  and  C5_5 
REMARK       I    between atoms: C1_1  and  N8_8 
REMARK    2  A    between atoms: C5_5  and  S10_10 
REMARK    3  A    between atoms: C6_6  and  N8_8 
REMARK    4  A    between atoms: C7_7  and  N8_8 
ROOT
HETATM    1  C1  UNL     1     -34.883  16.944  -5.236  1.00 20.00     0.229 C 
HETATM    2  N8  UNL     1     -34.996  16.394  -3.953  1.00 20.00    -0.348 N 
HETATM    3  O9  UNL     1     -34.337  18.030  -5.454  1.00 20.00    -0.273 OA
ENDROOT
BRANCH   2   4
HETATM    4  C6  UNL     1     -35.645  15.108  -3.706  1.00 20.00     0.121 C 
HETATM    5  C2  UNL     1     -34.698  13.977  -3.919  1.00 20.00     0.026 C 
ENDBRANCH   2   4
BRANCH   2   6
HETATM    6  C7  UNL     1     -34.472  17.061  -2.766  1.00 20.00     0.079 C 
HETATM    7  C3  UNL     1     -32.981  16.777  -2.654  1.00 20.00     0.032 C 
HETATM    8  C4  UNL     1     -35.232  16.564  -1.546  1.00 20.00     0.032 C 
ENDBRANCH   2   6
BRANCH   1   9
HETATM    9  C5  UNL     1     -35.483  16.117  -6.360  1.00 20.00     0.173 C 
BRANCH   9  10
HETATM   10  S10 UNL     1     -34.213  15.441  -7.460  1.00 20.00    -0.173 SA
HETATM   11  H25 UNL     1     -34.287  16.410  -8.382  1.00 20.00     0.102 HD
ENDBRANCH   9  10
ENDBRANCH   1   9
TORSDOF 4
ENDMDL
MODEL 7
REMARK VINA RESULT:      -3.2     17.002     18.695
REMARK  4 active torsions:
REMARK  status: ('A' for Active; 'I' for Inactive)
REMARK    1  A    between atoms: C1_1  and  C5_5 
REMARK       I    between atoms: C1_1  and  N8_8 
REMARK    2  A    between atoms: C5_5  and  S10_10 
REMARK    3  A    between atoms: C6_6  and  N8_8 
REMARK    4  A    between atoms: C7_7  and  N8_8 
ROOT
HETATM    1  C1  UNL     1     -33.746  15.192  -4.308  1.00 20.00     0.229 C 
HETATM    2  N8  UNL     1     -34.132  15.843  -5.487  1.00 20.00    -0.348 N 
HETATM    3  O9  UNL     1     -33.592  13.969  -4.238  1.00 20.00    -0.273 OA
ENDROOT
BRANCH   2   4
HETATM    4  C6  UNL     1     -34.312  17.291  -5.560  1.00 20.00     0.121 C 
HETATM    5  C2  UNL     1     -35.725  17.673  -5.270  1.00 20.00     0.026 C 
ENDBRANCH   2   4
BRANCH   2   6
HETATM    6  C7  UNL     1     -34.382  15.125  -6.732  1.00 20.00     0.079 C 
HETATM    7  C3  UNL     1     -34.039  16.031  -7.906  1.00 20.00     0.032 C 
HETATM    8  C4  UNL     1     -35.839  14.689  -6.765  1.00 20.00     0.032 C 
ENDBRANCH   2   6
BRANCH   1   9
HETATM    9  C5  UNL     1     -33.526  16.091  -3.104  1.00 20.00     0.173 C 
BRANCH   9  10
HETATM   10  S10 UNL     1     -34.970  16.132  -2.012  1.00 20.00    -0.173 SA
HETATM   11  H25 UNL     1     -35.858  15.719  -2.926  1.00 20.00     0.102 HD
ENDBRANCH   9  10
ENDBRANCH   1   9
TORSDOF 4
ENDMDL
MODEL 8
REMARK VINA RESULT:      -3.2     16.128     17.677
REMARK  4 active torsions:
REMARK  status: ('A' for Active; 'I' for Inactive)
REMARK    1  A    between atoms: C1_1  and  C5_5 
REMARK       I    between atoms: C1_1  and  N8_8 
REMARK    2  A    between atoms: C5_5  and  S10_10 
REMARK    3  A    between atoms: C6_6  and  N8_8 
REMARK    4  A    between atoms: C7_7  and  N8_8 
ROOT
HETATM    1  C1  UNL     1     -34.459  16.064  -2.644  1.00 20.00     0.229 C 
HETATM    2  N8  UNL     1     -34.997  15.447  -3.781  1.00 20.00    -0.348 N 
HETATM    3  O9  UNL     1     -35.068  16.140  -1.572  1.00 20.00    -0.273 OA
ENDROOT
BRANCH   2   4
HETATM    4  C6  UNL     1     -34.269  15.363  -5.045  1.00 20.00     0.121 C 
HETATM    5  C2  UNL     1     -34.511  16.569  -5.888  1.00 20.00     0.026 C 
ENDBRANCH   2   4
BRANCH   2   6
HETATM    6  C7  UNL     1     -36.324  14.841  -3.790  1.00 20.00     0.079 C 
HETATM    7  C3  UNL     1     -36.320  13.648  -4.734  1.00 20.00     0.032 C 
HETATM    8  C4  UNL     1     -37.342  15.890  -4.212  1.00 20.00     0.032 C 
ENDBRANCH   2   6
BRANCH   1   9
HETATM    9  C5  UNL     1     -33.065  16.643  -2.809  1.00 20.00     0.173 C 
BRANCH   9  10
HETATM   10  S10 UNL     1     -32.741  17.984  -1.637  1.00 20.00    -0.173 SA
HETATM   11  H25 UNL     1     -31.536  17.548  -1.244  1.00 20.00     0.102 HD
ENDBRANCH   9  10
ENDBRANCH   1   9
TORSDOF 4
ENDMDL
MODEL 9
REMARK VINA RESULT:      -3.2     17.375     18.800
REMARK  4 active torsions:
REMARK  status: ('A' for Active; 'I' for Inactive)
REMARK    1  A    between atoms: C1_1  and  C5_5 
REMARK       I    between atoms: C1_1  and  N8_8 
REMARK    2  A    between atoms: C5_5  and  S10_10 
REMARK    3  A    between atoms: C6_6  and  N8_8 
REMARK    4  A    between atoms: C7_7  and  N8_8 
ROOT
HETATM    1  C1  UNL     1     -35.351  16.459  -5.955  1.00 20.00     0.229 C 
HETATM    2  N8  UNL     1     -35.228  15.856  -4.696  1.00 20.00    -0.348 N 
HETATM    3  O9  UNL     1     -34.446  17.121  -6.471  1.00 20.00    -0.273 OA
ENDROOT
BRANCH   2   4
HETATM    4  C6  UNL     1     -36.306  15.073  -4.093  1.00 20.00     0.121 C 
HETATM    5  C2  UNL     1     -36.265  13.656  -4.555  1.00 20.00     0.026 C 
ENDBRANCH   2   4
BRANCH   2   6
HETATM    6  C7  UNL     1     -34.016  15.962  -3.892  1.00 20.00     0.079 C 
HETATM    7  C3  UNL     1     -33.089  14.805  -4.235  1.00 20.00     0.032 C 
HETATM    8  C4  UNL     1     -34.400  15.957  -2.420  1.00 20.00     0.032 C 
ENDBRANCH   2   6
BRANCH   1   9
HETATM    9  C5  UNL     1     -36.681  16.247  -6.657  1.00 20.00     0.173 C 
BRANCH   9  10
HETATM   10  S10 UNL     1     -37.747  17.707  -6.550  1.00 20.00    -0.173 SA
HETATM   11  H25 UNL     1     -38.291  17.581  -7.768  1.00 20.00     0.102 HD
ENDBRANCH   9  10
ENDBRANCH   1   9
TORSDOF 4
ENDMDL
