MODEL 1
REMARK VINA RESULT:      -3.9      0.000      0.000
REMARK  5 active torsions:
REMARK  status: ('A' for Active; 'I' for Inactive)
REMARK    1  A    between atoms: C3_3  and  C5_5 
REMARK    2  A    between atoms: C3_3  and  C7_7 
REMARK    3  A    between atoms: C4_4  and  C6_6 
REMARK    4  A    between atoms: C4_4  and  C7_7 
REMARK    5  A    between atoms: C5_5  and  S8_8 
ROOT
HETATM    1  C1  UNL     1     -33.218   4.663   2.129  1.00 20.00     0.010 C 
HETATM    2  C7  UNL     1     -33.368   5.509   3.400  1.00 20.00    -0.017 C 
ENDROOT
BRANCH   2   3
HETATM    3  C3  UNL     1     -32.980   6.982   3.142  1.00 20.00     0.014 C 
BRANCH   3   4
HETATM    4  C5  UNL     1     -32.427   7.263   1.744  1.00 20.00     0.073 C 
BRANCH   4   5
HETATM    5  S8  UNL     1     -32.849   8.953   1.222  1.00 20.00    -0.173 SA
HETATM    6  C2  UNL     1     -33.399   8.576  -0.457  1.00 20.00     0.089 C 
ENDBRANCH   4   5
ENDBRANCH   3   4
ENDBRANCH   2   3
BRANCH   2   7
HETATM    7  C4  UNL     1     -34.784   5.317   3.983  1.00 20.00     0.019 C 
BRANCH   7   8
HETATM    8  C6  UNL     1     -34.872   5.234   5.506  1.00 20.00     0.115 C 
HETATM    9 CL9  UNL     1     -34.176   6.665   6.297  1.00 20.00    -0.130 Cl
ENDBRANCH   7   8
ENDBRANCH   2   7
TORSDOF 5
ENDMDL
MODEL 2
REMARK VINA RESULT:      -3.8      3.116      4.607
REMARK  5 active torsions:
REMARK  status: ('A' for Active; 'I' for Inactive)
REMARK    1  A    between atoms: C3_3  and  C5_5 
REMARK    2  A    between atoms: C3_3  and  C7_7 
REMARK    3  A    between atoms: C4_4  and  C6_6 
REMARK    4  A    between atoms: C4_4  and  C7_7 
REMARK    5  A    between atoms: C5_5  and  S8_8 
ROOT
HETATM    1  C1  UNL     1     -32.904   4.626   2.485  1.00 20.00     0.010 C 
HETATM    2  C7  UNL     1     -33.540   6.021   2.437  1.00 20.00    -0.017 C 
ENDROOT
BRANCH   2   3
HETATM    3  C3  UNL     1     -34.600   6.193   3.547  1.00 20.00     0.014 C 
BRANCH   3   4
HETATM    4  C5  UNL     1     -34.922   4.919   4.328  1.00 20.00     0.073 C 
BRANCH   4   5
HETATM    5  S8  UNL     1     -34.684   5.189   6.110  1.00 20.00    -0.173 SA
HETATM    6  C2  UNL     1     -33.909   6.820   6.024  1.00 20.00     0.089 C 
ENDBRANCH   4   5
ENDBRANCH   3   4
ENDBRANCH   2   3
BRANCH   2   7
HETATM    7  C4  UNL     1     -32.431   7.094   2.445  1.00 20.00     0.019 C 
BRANCH   7   8
HETATM    8  C6  UNL     1     -32.164   7.787   1.111  1.00 20.00     0.115 C 
HETATM    9 CL9  UNL     1     -33.166   9.240   0.897  1.00 20.00    -0.130 Cl
ENDBRANCH   7   8
ENDBRANCH   2   7
TORSDOF 5
ENDMDL
MODEL 3
REMARK VINA RESULT:      -3.5      3.367      4.922
REMARK  5 active torsions:
REMARK  status: ('A' for Active; 'I' for Inactive)
REMARK    1  A    between atoms: C3_3  and  C5_5 
REMARK    2  A    between atoms: C3_3  and  C7_7 
REMARK    3  A    between atoms: C4_4  and  C6_6 
REMARK    4  A    between atoms: C4_4  and  C7_7 
REMARK    5  A    between atoms: C5_5  and  S8_8 
ROOT
HETATM    1  C1  UNL     1     -31.733   7.687   3.648  1.00 20.00     0.010 C 
HETATM    2  C7  UNL     1     -32.602   6.684   2.879  1.00 20.00    -0.017 C 
ENDROOT
BRANCH   2   3
HETATM    3  C3  UNL     1     -34.005   6.555   3.513  1.00 20.00     0.014 C 
BRANCH   3   4
HETATM    4  C5  UNL     1     -34.402   5.132   3.906  1.00 20.00     0.073 C 
BRANCH   4   5
HETATM    5  S8  UNL     1     -34.788   5.047   5.680  1.00 20.00    -0.173 SA
HETATM    6  C2  UNL     1     -34.159   6.671   6.161  1.00 20.00     0.089 C 
ENDBRANCH   4   5
ENDBRANCH   3   4
ENDBRANCH   2   3
BRANCH   2   7
HETATM    7  C4  UNL     1     -32.613   7.054   1.381  1.00 20.00     0.019 C 
BRANCH   7   8
HETATM    8  C6  UNL     1     -32.640   8.548   1.063  1.00 20.00     0.115 C 
HETATM    9 CL9  UNL     1     -33.551   8.902  -0.421  1.00 20.00    -0.130 Cl
ENDBRANCH   7   8
ENDBRANCH   2   7
TORSDOF 5
ENDMDL
MODEL 4
REMARK VINA RESULT:      -3.5     15.984     16.630
REMARK  5 active torsions:
REMARK  status: ('A' for Active; 'I' for Inactive)
REMARK    1  A    between atoms: C3_3  and  C5_5 
REMARK    2  A    between atoms: C3_3  and  C7_7 
REMARK    3  A    between atoms: C4_4  and  C6_6 
REMARK    4  A    between atoms: C4_4  and  C7_7 
REMARK    5  A    between atoms: C5_5  and  S8_8 
ROOT
HETATM    1  C1  UNL     1     -24.607  15.923  11.751  1.00 20.00     0.010 C 
HETATM    2  C7  UNL     1     -24.201  17.368  11.434  1.00 20.00    -0.017 C 
ENDROOT
BRANCH   2   3
HETATM    3  C3  UNL     1     -24.282  17.654   9.918  1.00 20.00     0.014 C 
BRANCH   3   4
HETATM    4  C5  UNL     1     -23.307  18.719   9.414  1.00 20.00     0.073 C 
BRANCH   4   5
HETATM    5  S8  UNL     1     -21.605  18.081   9.436  1.00 20.00    -0.173 SA
HETATM    6  C2  UNL     1     -21.590  17.323   7.796  1.00 20.00     0.089 C 
ENDBRANCH   4   5
ENDBRANCH   3   4
ENDBRANCH   2   3
BRANCH   2   7
HETATM    7  C4  UNL     1     -25.021  18.338  12.309  1.00 20.00     0.019 C 
BRANCH   7   8
HETATM    8  C6  UNL     1     -26.315  18.862  11.690  1.00 20.00     0.115 C 
HETATM    9 CL9  UNL     1     -27.744  17.976  12.269  1.00 20.00    -0.130 Cl
ENDBRANCH   7   8
ENDBRANCH   2   7
TORSDOF 5
ENDMDL
MODEL 5
REMARK VINA RESULT:      -3.5     11.313     12.001
REMARK  5 active torsions:
REMARK  status: ('A' for Active; 'I' for Inactive)
REMARK    1  A    between atoms: C3_3  and  C5_5 
REMARK    2  A    between atoms: C3_3  and  C7_7 
REMARK    3  A    between atoms: C4_4  and  C6_6 
REMARK    4  A    between atoms: C4_4  and  C7_7 
REMARK    5  A    between atoms: C5_5  and  S8_8 
ROOT
HETATM    1  C1  UNL     1     -35.129  16.213  -1.996  1.00 20.00     0.010 C 
HETATM    2  C7  UNL     1     -33.765  15.957  -2.651  1.00 20.00    -0.017 C 
ENDROOT
BRANCH   2   3
HETATM    3  C3  UNL     1     -33.911  15.123  -3.943  1.00 20.00     0.014 C 
BRANCH   3   4
HETATM    4  C5  UNL     1     -34.578  15.857  -5.107  1.00 20.00     0.073 C 
BRANCH   4   5
HETATM    5  S8  UNL     1     -35.656  14.726  -6.036  1.00 20.00    -0.173 SA
HETATM    6  C2  UNL     1     -36.270  13.751  -4.644  1.00 20.00     0.089 C 
ENDBRANCH   4   5
ENDBRANCH   3   4
ENDBRANCH   2   3
BRANCH   2   7
HETATM    7  C4  UNL     1     -33.024  17.297  -2.838  1.00 20.00     0.019 C 
BRANCH   7   8
HETATM    8  C6  UNL     1     -33.009  18.226  -1.626  1.00 20.00     0.115 C 
HETATM    9 CL9  UNL     1     -31.444  18.208  -0.784  1.00 20.00    -0.130 Cl
ENDBRANCH   7   8
ENDBRANCH   2   7
TORSDOF 5
ENDMDL
MODEL 6
REMARK VINA RESULT:      -3.4     10.972     11.464
REMARK  5 active torsions:
REMARK  status: ('A' for Active; 'I' for Inactive)
REMARK    1  A    between atoms: C3_3  and  C5_5 
REMARK    2  A    between atoms: C3_3  and  C7_7 
REMARK    3  A    between atoms: C4_4  and  C6_6 
REMARK    4  A    between atoms: C4_4  and  C7_7 
REMARK    5  A    between atoms: C5_5  and  S8_8 
ROOT
HETATM    1  C1  UNL     1     -32.914  16.955  -2.668  1.00 20.00     0.010 C 
HETATM    2  C7  UNL     1     -34.215  16.251  -3.074  1.00 20.00    -0.017 C 
ENDROOT
BRANCH   2   3
HETATM    3  C3  UNL     1     -33.929  14.898  -3.761  1.00 20.00     0.014 C 
BRANCH   3   4
HETATM    4  C5  UNL     1     -33.936  14.942  -5.290  1.00 20.00     0.073 C 
BRANCH   4   5
HETATM    5  S8  UNL     1     -35.633  14.783  -5.922  1.00 20.00    -0.173 SA
HETATM    6  C2  UNL     1     -36.276  13.659  -4.661  1.00 20.00     0.089 C 
ENDBRANCH   4   5
ENDBRANCH   3   4
ENDBRANCH   2   3
BRANCH   2   7
HETATM    7  C4  UNL     1     -35.154  16.158  -1.853  1.00 20.00     0.019 C 
BRANCH   7   8
HETATM    8  C6  UNL     1     -35.282  17.428  -1.013  1.00 20.00     0.115 C 
HETATM    9 CL9  UNL     1     -35.489  17.070   0.716  1.00 20.00    -0.130 Cl
ENDBRANCH   7   8
ENDBRANCH   2   7
TORSDOF 5
ENDMDL
MODEL 7
REMARK VINA RESULT:      -3.3     11.181     11.956
REMARK  5 active torsions:
REMARK  status: ('A' for Active; 'I' for Inactive)
REMARK    1  A    between atoms: C3_3  and  C5_5 
REMARK    2  A    between atoms: C3_3  and  C7_7 
REMARK    3  A    between atoms: C4_4  and  C6_6 
REMARK    4  A    between atoms: C4_4  and  C7_7 
REMARK    5  A    between atoms: C5_5  and  S8_8 
ROOT
HETATM    1  C1  UNL     1     -35.157  16.252  -1.698  1.00 20.00     0.010 C 
HETATM    2  C7  UNL     1     -34.194  16.451  -2.875  1.00 20.00    -0.017 C 
ENDROOT
BRANCH   2   3
HETATM    3  C3  UNL     1     -32.915  17.196  -2.434  1.00 20.00     0.014 C 
BRANCH   3   4
HETATM    4  C5  UNL     1     -33.060  18.012  -1.148  1.00 20.00     0.073 C 
BRANCH   4   5
HETATM    5  S8  UNL     1     -31.424  18.447  -0.484  1.00 20.00    -0.173 SA
HETATM    6  C2  UNL     1     -31.845  18.430   1.273  1.00 20.00     0.089 C 
ENDBRANCH   4   5
ENDBRANCH   3   4
ENDBRANCH   2   3
BRANCH   2   7
HETATM    7  C4  UNL     1     -33.934  15.095  -3.564  1.00 20.00     0.019 C 
BRANCH   7   8
HETATM    8  C6  UNL     1     -34.803  14.789  -4.782  1.00 20.00     0.115 C 
HETATM    9 CL9  UNL     1     -36.059  13.583  -4.425  1.00 20.00    -0.130 Cl
ENDBRANCH   7   8
ENDBRANCH   2   7
TORSDOF 5
ENDMDL
MODEL 8
REMARK VINA RESULT:      -3.3     10.684     11.637
REMARK  5 active torsions:
REMARK  status: ('A' for Active; 'I' for Inactive)
REMARK    1  A    between atoms: C3_3  and  C5_5 
REMARK    2  A    between atoms: C3_3  and  C7_7 
REMARK    3  A    between atoms: C4_4  and  C6_6 
REMARK    4  A    between atoms: C4_4  and  C7_7 
REMARK    5  A    between atoms: C5_5  and  S8_8 
ROOT
HETATM    1  C1  UNL     1     -34.074  15.054  -5.838  1.00 20.00     0.010 C 
HETATM    2  C7  UNL     1     -33.756  14.592  -4.410  1.00 20.00    -0.017 C 
ENDROOT
BRANCH   2   3
HETATM    3  C3  UNL     1     -33.339  15.780  -3.515  1.00 20.00     0.014 C 
BRANCH   3   4
HETATM    4  C5  UNL     1     -34.330  16.121  -2.402  1.00 20.00     0.073 C 
BRANCH   4   5
HETATM    5  S8  UNL     1     -33.800  17.619  -1.517  1.00 20.00    -0.173 SA
HETATM    6  C2  UNL     1     -32.777  18.341  -2.820  1.00 20.00     0.089 C 
ENDBRANCH   4   5
ENDBRANCH   3   4
ENDBRANCH   2   3
BRANCH   2   7
HETATM    7  C4  UNL     1     -34.939  13.766  -3.861  1.00 20.00     0.019 C 
BRANCH   7   8
HETATM    8  C6  UNL     1     -36.171  13.687  -4.760  1.00 20.00     0.115 C 
HETATM    9 CL9  UNL     1     -37.496  14.717  -4.175  1.00 20.00    -0.130 Cl
ENDBRANCH   7   8
ENDBRANCH   2   7
TORSDOF 5
ENDMDL
MODEL 9
REMARK VINA RESULT:      -3.3     15.584     16.359
REMARK  5 active torsions:
REMARK  status: ('A' for Active; 'I' for Inactive)
REMARK    1  A    between atoms: C3_3  and  C5_5 
REMARK    2  A    between atoms: C3_3  and  C7_7 
REMARK    3  A    between atoms: C4_4  and  C6_6 
REMARK    4  A    between atoms: C4_4  and  C7_7 
REMARK    5  A    between atoms: C5_5  and  S8_8 
ROOT
HETATM    1  C1  UNL     1     -22.776  16.822   9.016  1.00 20.00     0.010 C 
HETATM    2  C7  UNL     1     -22.715  18.150   9.780  1.00 20.00    -0.017 C 
ENDROOT
BRANCH   2   3
HETATM    3  C3  UNL     1     -23.485  19.262   9.034  1.00 20.00     0.014 C 
BRANCH   3   4
HETATM    4  C5  UNL     1     -24.212  18.801   7.771  1.00 20.00     0.073 C 
BRANCH   4   5
HETATM    5  S8  UNL     1     -25.969  19.260   7.845  1.00 20.00    -0.173 SA
HETATM    6  C2  UNL     1     -26.406  18.897   6.130  1.00 20.00     0.089 C 
ENDBRANCH   4   5
ENDBRANCH   3   4
ENDBRANCH   2   3
BRANCH   2   7
HETATM    7  C4  UNL     1     -23.171  17.928  11.238  1.00 20.00     0.019 C 
BRANCH   7   8
HETATM    8  C6  UNL     1     -24.595  17.404  11.418  1.00 20.00     0.115 C 
HETATM    9 CL9  UNL     1     -25.747  18.705  11.790  1.00 20.00    -0.130 Cl
ENDBRANCH   7   8
ENDBRANCH   2   7
TORSDOF 5
ENDMDL
