MODEL 1
REMARK VINA RESULT:      -4.4      0.000      0.000
REMARK  1 active torsions:
REMARK  status: ('A' for Active; 'I' for Inactive)
REMARK    1  A    between atoms: C3_3  and  C8_8 
ROOT
HETATM    1  C1  UNL     1     -35.803  14.350  -3.893  1.00 20.00     0.016 A 
HETATM    2  C2  UNL     1     -36.171  14.047  -5.236  1.00 20.00     0.015 A 
HETATM    3  C3  UNL     1     -34.897  15.386  -3.827  1.00 20.00    -0.012 A 
HETATM    4  C4  UNL     1     -35.533  14.863  -6.144  1.00 20.00    -0.021 A 
HETATM    5  C10 UNL     1     -35.649  14.865  -7.619  1.00 20.00     0.056 C 
HETATM    6  S11 UNL     1     -34.495  15.988  -5.379  1.00 20.00    -0.099 SA
ENDROOT
BRANCH   3   7
HETATM    7  C8  UNL     1     -34.263  16.005  -2.601  1.00 20.00     0.040 C 
HETATM    8  C6  UNL     1     -33.171  17.067  -2.812  1.00 20.00     0.011 C 
HETATM    9  C5  UNL     1     -33.028  17.771  -1.461  1.00 20.00     0.002 C 
HETATM   10  C7  UNL     1     -34.264  17.399  -0.641  1.00 20.00     0.016 C 
HETATM   11  C9  UNL     1     -35.210  16.694  -1.606  1.00 20.00     0.067 C 
HETATM   12 BR12 UNL     1     -36.365  18.023  -2.467  1.00 20.00    -0.090 Br
ENDBRANCH   3   7
TORSDOF 1
ENDMDL
MODEL 2
REMARK VINA RESULT:      -4.3      1.643      5.065
REMARK  1 active torsions:
REMARK  status: ('A' for Active; 'I' for Inactive)
REMARK    1  A    between atoms: C3_3  and  C8_8 
ROOT
HETATM    1  C1  UNL     1     -32.901  16.912  -2.703  1.00 20.00     0.016 A 
HETATM    2  C2  UNL     1     -32.842  17.774  -1.569  1.00 20.00     0.015 A 
HETATM    3  C3  UNL     1     -34.103  16.244  -2.784  1.00 20.00    -0.012 A 
HETATM    4  C4  UNL     1     -34.002  17.731  -0.828  1.00 20.00    -0.021 A 
HETATM    5  C10 UNL     1     -34.331  18.474   0.409  1.00 20.00     0.056 C 
HETATM    6  S11 UNL     1     -35.155  16.657  -1.497  1.00 20.00    -0.099 SA
ENDROOT
BRANCH   3   7
HETATM    7  C8  UNL     1     -34.559  15.248  -3.828  1.00 20.00     0.040 C 
HETATM    8  C6  UNL     1     -35.940  14.596  -3.648  1.00 20.00     0.011 C 
HETATM    9  C5  UNL     1     -36.277  13.985  -5.009  1.00 20.00     0.002 C 
HETATM   10  C7  UNL     1     -35.316  14.613  -6.020  1.00 20.00     0.016 C 
HETATM   11  C9  UNL     1     -34.611  15.745  -5.281  1.00 20.00     0.067 C 
HETATM   12 BR12 UNL     1     -35.654  17.393  -5.473  1.00 20.00    -0.090 Br
ENDBRANCH   3   7
TORSDOF 1
ENDMDL
MODEL 3
REMARK VINA RESULT:      -4.3      1.480      4.926
REMARK  1 active torsions:
REMARK  status: ('A' for Active; 'I' for Inactive)
REMARK    1  A    between atoms: C3_3  and  C8_8 
ROOT
HETATM    1  C1  UNL     1     -35.172  16.487  -1.498  1.00 20.00     0.016 A 
HETATM    2  C2  UNL     1     -34.583  17.454  -0.632  1.00 20.00     0.015 A 
HETATM    3  C3  UNL     1     -34.391  16.241  -2.607  1.00 20.00    -0.012 A 
HETATM    4  C4  UNL     1     -33.375  17.910  -1.112  1.00 20.00    -0.021 A 
HETATM    5  C10 UNL     1     -32.463  18.906  -0.508  1.00 20.00     0.056 C 
HETATM    6  S11 UNL     1     -32.955  17.174  -2.599  1.00 20.00    -0.099 SA
ENDROOT
BRANCH   3   7
HETATM    7  C8  UNL     1     -34.657  15.293  -3.754  1.00 20.00     0.040 C 
HETATM    8  C6  UNL     1     -35.986  14.519  -3.758  1.00 20.00     0.011 C 
HETATM    9  C5  UNL     1     -36.137  13.987  -5.184  1.00 20.00     0.002 C 
HETATM   10  C7  UNL     1     -35.144  14.765  -6.049  1.00 20.00     0.016 C 
HETATM   11  C9  UNL     1     -34.615  15.891  -5.169  1.00 20.00     0.067 C 
HETATM   12 BR12 UNL     1     -35.776  17.459  -5.355  1.00 20.00    -0.090 Br
ENDBRANCH   3   7
TORSDOF 1
ENDMDL
MODEL 4
REMARK VINA RESULT:      -3.9      2.583      5.075
REMARK  1 active torsions:
REMARK  status: ('A' for Active; 'I' for Inactive)
REMARK    1  A    between atoms: C3_3  and  C8_8 
ROOT
HETATM    1  C1  UNL     1     -36.706  17.660  -2.000  1.00 20.00     0.016 A 
HETATM    2  C2  UNL     1     -37.256  18.534  -1.018  1.00 20.00     0.015 A 
HETATM    3  C3  UNL     1     -35.589  16.999  -1.537  1.00 20.00    -0.012 A 
HETATM    4  C4  UNL     1     -36.539  18.507   0.158  1.00 20.00    -0.021 A 
HETATM    5  C10 UNL     1     -36.788  19.263   1.406  1.00 20.00     0.056 C 
HETATM    6  S11 UNL     1     -35.209  17.432   0.076  1.00 20.00    -0.099 SA
ENDROOT
BRANCH   3   7
HETATM    7  C8  UNL     1     -34.722  15.994  -2.262  1.00 20.00     0.040 C 
HETATM    8  C6  UNL     1     -35.367  15.156  -3.378  1.00 20.00     0.011 C 
HETATM    9  C5  UNL     1     -34.197  14.562  -4.164  1.00 20.00     0.002 C 
HETATM   10  C7  UNL     1     -32.952  15.354  -3.760  1.00 20.00     0.016 C 
HETATM   11  C9  UNL     1     -33.456  16.538  -2.944  1.00 20.00     0.067 C 
HETATM   12 BR12 UNL     1     -33.837  18.038  -4.146  1.00 20.00    -0.090 Br
ENDBRANCH   3   7
TORSDOF 1
ENDMDL
MODEL 5
REMARK VINA RESULT:      -3.9      1.664      4.893
REMARK  1 active torsions:
REMARK  status: ('A' for Active; 'I' for Inactive)
REMARK    1  A    between atoms: C3_3  and  C8_8 
ROOT
HETATM    1  C1  UNL     1     -35.284  15.844  -2.708  1.00 20.00     0.016 A 
HETATM    2  C2  UNL     1     -34.930  16.508  -1.498  1.00 20.00     0.015 A 
HETATM    3  C3  UNL     1     -34.434  16.165  -3.743  1.00 20.00    -0.012 A 
HETATM    4  C4  UNL     1     -33.822  17.312  -1.654  1.00 20.00    -0.021 A 
HETATM    5  C10 UNL     1     -33.147  18.156  -0.643  1.00 20.00     0.056 C 
HETATM    6  S11 UNL     1     -33.214  17.263  -3.253  1.00 20.00    -0.099 SA
ENDROOT
BRANCH   3   7
HETATM    7  C8  UNL     1     -34.466  15.678  -5.174  1.00 20.00     0.040 C 
HETATM    8  C6  UNL     1     -35.586  14.706  -5.580  1.00 20.00     0.011 C 
HETATM    9  C5  UNL     1     -35.598  14.722  -7.110  1.00 20.00     0.002 C 
HETATM   10  C7  UNL     1     -34.796  15.952  -7.540  1.00 20.00     0.016 C 
HETATM   11  C9  UNL     1     -34.545  16.753  -6.269  1.00 20.00     0.067 C 
HETATM   12 BR12 UNL     1     -36.027  18.003  -5.987  1.00 20.00    -0.090 Br
ENDBRANCH   3   7
TORSDOF 1
ENDMDL
MODEL 6
REMARK VINA RESULT:      -3.8      2.159      4.842
REMARK  1 active torsions:
REMARK  status: ('A' for Active; 'I' for Inactive)
REMARK    1  A    between atoms: C3_3  and  C8_8 
ROOT
HETATM    1  C1  UNL     1     -34.588  16.261  -2.206  1.00 20.00     0.016 A 
HETATM    2  C2  UNL     1     -35.131  16.801  -1.004  1.00 20.00     0.015 A 
HETATM    3  C3  UNL     1     -35.286  16.674  -3.320  1.00 20.00    -0.012 A 
HETATM    4  C4  UNL     1     -36.223  17.606  -1.245  1.00 20.00    -0.021 A 
HETATM    5  C10 UNL     1     -37.055  18.345  -0.270  1.00 20.00     0.056 C 
HETATM    6  S11 UNL     1     -36.589  17.708  -2.914  1.00 20.00    -0.099 SA
ENDROOT
BRANCH   3   7
HETATM    7  C8  UNL     1     -35.034  16.328  -4.771  1.00 20.00     0.040 C 
HETATM    8  C6  UNL     1     -33.796  15.479  -5.105  1.00 20.00     0.011 C 
HETATM    9  C5  UNL     1     -34.030  14.970  -6.529  1.00 20.00     0.002 C 
HETATM   10  C7  UNL     1     -35.514  15.186  -6.832  1.00 20.00     0.016 C 
HETATM   11  C9  UNL     1     -36.158  15.584  -5.509  1.00 20.00     0.067 C 
HETATM   12 BR12 UNL     1     -36.739  13.971  -4.560  1.00 20.00    -0.090 Br
ENDBRANCH   3   7
TORSDOF 1
ENDMDL
MODEL 7
REMARK VINA RESULT:      -3.8      1.724      5.003
REMARK  1 active torsions:
REMARK  status: ('A' for Active; 'I' for Inactive)
REMARK    1  A    between atoms: C3_3  and  C8_8 
ROOT
HETATM    1  C1  UNL     1     -33.132  16.676  -3.270  1.00 20.00     0.016 A 
HETATM    2  C2  UNL     1     -33.392  17.080  -1.928  1.00 20.00     0.015 A 
HETATM    3  C3  UNL     1     -34.242  16.118  -3.866  1.00 20.00    -0.012 A 
HETATM    4  C4  UNL     1     -34.690  16.816  -1.551  1.00 20.00    -0.021 A 
HETATM    5  C10 UNL     1     -35.344  17.087  -0.251  1.00 20.00     0.056 C 
HETATM    6  S11 UNL     1     -35.590  16.084  -2.810  1.00 20.00    -0.099 SA
ENDROOT
BRANCH   3   7
HETATM    7  C8  UNL     1     -34.381  15.568  -5.269  1.00 20.00     0.040 C 
HETATM    8  C6  UNL     1     -35.667  14.800  -5.618  1.00 20.00     0.011 C 
HETATM    9  C5  UNL     1     -35.694  14.735  -7.146  1.00 20.00     0.002 C 
HETATM   10  C7  UNL     1     -34.685  15.770  -7.646  1.00 20.00     0.016 C 
HETATM   11  C9  UNL     1     -34.274  16.579  -6.421  1.00 20.00     0.067 C 
HETATM   12 BR12 UNL     1     -35.496  18.095  -6.205  1.00 20.00    -0.090 Br
ENDBRANCH   3   7
TORSDOF 1
ENDMDL
MODEL 8
REMARK VINA RESULT:      -3.7      3.706      6.211
REMARK  1 active torsions:
REMARK  status: ('A' for Active; 'I' for Inactive)
REMARK    1  A    between atoms: C3_3  and  C8_8 
ROOT
HETATM    1  C1  UNL     1     -31.382  18.489  -0.596  1.00 20.00     0.016 A 
HETATM    2  C2  UNL     1     -31.105  18.228   0.778  1.00 20.00     0.015 A 
HETATM    3  C3  UNL     1     -32.721  18.726  -0.817  1.00 20.00    -0.012 A 
HETATM    4  C4  UNL     1     -32.242  18.276   1.553  1.00 20.00    -0.021 A 
HETATM    5  C10 UNL     1     -32.371  18.065   3.012  1.00 20.00     0.056 C 
HETATM    6  S11 UNL     1     -33.637  18.635   0.627  1.00 20.00    -0.099 SA
ENDROOT
BRANCH   3   7
HETATM    7  C8  UNL     1     -33.419  19.040  -2.122  1.00 20.00     0.040 C 
HETATM    8  C6  UNL     1     -32.561  19.130  -3.395  1.00 20.00     0.011 C 
HETATM    9  C5  UNL     1     -33.554  19.049  -4.556  1.00 20.00     0.002 C 
HETATM   10  C7  UNL     1     -34.868  18.528  -3.972  1.00 20.00     0.016 C 
HETATM   11  C9  UNL     1     -34.548  18.089  -2.548  1.00 20.00     0.067 C 
HETATM   12 BR12 UNL     1     -33.984  16.212  -2.560  1.00 20.00    -0.090 Br
ENDBRANCH   3   7
TORSDOF 1
ENDMDL
MODEL 9
REMARK VINA RESULT:      -3.7      1.332      1.908
REMARK  1 active torsions:
REMARK  status: ('A' for Active; 'I' for Inactive)
REMARK    1  A    between atoms: C3_3  and  C8_8 
ROOT
HETATM    1  C1  UNL     1     -34.181  17.392  -4.232  1.00 20.00     0.016 A 
HETATM    2  C2  UNL     1     -34.564  16.801  -5.472  1.00 20.00     0.015 A 
HETATM    3  C3  UNL     1     -34.500  16.591  -3.157  1.00 20.00    -0.012 A 
HETATM    4  C4  UNL     1     -35.160  15.572  -5.296  1.00 20.00    -0.021 A 
HETATM    5  C10 UNL     1     -35.689  14.650  -6.326  1.00 20.00     0.056 C 
HETATM    6  S11 UNL     1     -35.257  15.134  -3.644  1.00 20.00    -0.099 SA
ENDROOT
BRANCH   3   7
HETATM    7  C8  UNL     1     -34.264  16.852  -1.686  1.00 20.00     0.040 C 
HETATM    8  C6  UNL     1     -33.356  18.030  -1.298  1.00 20.00     0.011 C 
HETATM    9  C5  UNL     1     -33.633  18.282   0.185  1.00 20.00     0.002 C 
HETATM   10  C7  UNL     1     -34.933  17.548   0.517  1.00 20.00     0.016 C 
HETATM   11  C9  UNL     1     -35.510  17.092  -0.819  1.00 20.00     0.067 C 
HETATM   12 BR12 UNL     1     -36.665  18.502  -1.539  1.00 20.00    -0.090 Br
ENDBRANCH   3   7
TORSDOF 1
ENDMDL
