MODEL 1
REMARK VINA RESULT:      -4.7      0.000      0.000
REMARK  1 active torsions:
REMARK  status: ('A' for Active; 'I' for Inactive)
REMARK    1  A    between atoms: C3_3  and  C8_8 
ROOT
HETATM    1  C1  UNL     1     -35.096  16.750  -1.193  1.00 20.00     0.016 A 
HETATM    2  C2  UNL     1     -35.162  15.860  -2.303  1.00 20.00     0.015 A 
HETATM    3  C3  UNL     1     -33.917  17.464  -1.172  1.00 20.00    -0.013 A 
HETATM    4  C4  UNL     1     -34.032  15.928  -3.089  1.00 20.00    -0.021 A 
HETATM    5  C10 UNL     1     -33.721  15.171  -4.321  1.00 20.00     0.056 C 
HETATM    6  S11 UNL     1     -32.898  17.061  -2.487  1.00 20.00    -0.099 SA
ENDROOT
BRANCH   3   7
HETATM    7  C8  UNL     1     -33.464  18.501  -0.169  1.00 20.00     0.027 C 
HETATM    8  C5  UNL     1     -33.868  18.143   1.274  1.00 20.00     0.011 C 
HETATM    9  C6  UNL     1     -32.704  18.619   2.133  1.00 20.00     0.016 C 
HETATM   10  C9  UNL     1     -31.502  18.305   1.263  1.00 20.00     0.058 C 
HETATM   11  C7  UNL     1     -31.937  18.732  -0.133  1.00 20.00     0.025 C 
HETATM   12 BR12 UNL     1     -29.930  19.263   1.852  1.00 20.00    -0.091 Br
ENDBRANCH   3   7
TORSDOF 1
ENDMDL
MODEL 2
REMARK VINA RESULT:      -4.6      2.754      4.124
REMARK  1 active torsions:
REMARK  status: ('A' for Active; 'I' for Inactive)
REMARK    1  A    between atoms: C3_3  and  C8_8 
ROOT
HETATM    1  C1  UNL     1     -35.672  14.118  -4.171  1.00 20.00     0.016 A 
HETATM    2  C2  UNL     1     -36.118  14.015  -5.521  1.00 20.00     0.015 A 
HETATM    3  C3  UNL     1     -34.831  15.193  -3.986  1.00 20.00    -0.013 A 
HETATM    4  C4  UNL     1     -35.600  15.015  -6.314  1.00 20.00    -0.021 A 
HETATM    5  C10 UNL     1     -35.822  15.253  -7.757  1.00 20.00     0.056 C 
HETATM    6  S11 UNL     1     -34.581  16.073  -5.433  1.00 20.00    -0.099 SA
ENDROOT
BRANCH   3   7
HETATM    7  C8  UNL     1     -34.150  15.646  -2.713  1.00 20.00     0.027 C 
HETATM    8  C5  UNL     1     -32.996  16.631  -2.980  1.00 20.00     0.011 C 
HETATM    9  C6  UNL     1     -33.051  17.618  -1.822  1.00 20.00     0.016 C 
HETATM   10  C9  UNL     1     -34.542  17.774  -1.593  1.00 20.00     0.058 C 
HETATM   11  C7  UNL     1     -35.083  16.356  -1.706  1.00 20.00     0.025 C 
HETATM   12 BR12 UNL     1     -34.917  18.553   0.135  1.00 20.00    -0.091 Br
ENDBRANCH   3   7
TORSDOF 1
ENDMDL
MODEL 3
REMARK VINA RESULT:      -4.6      3.339      5.686
REMARK  1 active torsions:
REMARK  status: ('A' for Active; 'I' for Inactive)
REMARK    1  A    between atoms: C3_3  and  C8_8 
ROOT
HETATM    1  C1  UNL     1     -32.782  18.045  -0.999  1.00 20.00     0.016 A 
HETATM    2  C2  UNL     1     -32.978  18.423   0.360  1.00 20.00     0.015 A 
HETATM    3  C3  UNL     1     -33.898  17.439  -1.533  1.00 20.00    -0.013 A 
HETATM    4  C4  UNL     1     -34.237  18.092   0.813  1.00 20.00    -0.021 A 
HETATM    5  C10 UNL     1     -34.822  18.317   2.152  1.00 20.00     0.056 C 
HETATM    6  S11 UNL     1     -35.176  17.329  -0.399  1.00 20.00    -0.099 SA
ENDROOT
BRANCH   3   7
HETATM    7  C8  UNL     1     -34.095  16.898  -2.932  1.00 20.00     0.027 C 
HETATM    8  C5  UNL     1     -32.964  15.943  -3.360  1.00 20.00     0.011 C 
HETATM    9  C6  UNL     1     -33.654  14.872  -4.195  1.00 20.00     0.016 C 
HETATM   10  C9  UNL     1     -34.975  14.691  -3.471  1.00 20.00     0.058 C 
HETATM   11  C7  UNL     1     -35.409  16.110  -3.134  1.00 20.00     0.025 C 
HETATM   12 BR12 UNL     1     -36.273  13.785  -4.580  1.00 20.00    -0.091 Br
ENDBRANCH   3   7
TORSDOF 1
ENDMDL
MODEL 4
REMARK VINA RESULT:      -4.5      2.954      5.494
REMARK  1 active torsions:
REMARK  status: ('A' for Active; 'I' for Inactive)
REMARK    1  A    between atoms: C3_3  and  C8_8 
ROOT
HETATM    1  C1  UNL     1     -31.145  18.448  -0.066  1.00 20.00     0.016 A 
HETATM    2  C2  UNL     1     -30.690  18.571   1.279  1.00 20.00     0.015 A 
HETATM    3  C3  UNL     1     -32.520  18.412  -0.145  1.00 20.00    -0.013 A 
HETATM    4  C4  UNL     1     -31.735  18.624   2.176  1.00 20.00    -0.021 A 
HETATM    5  C10 UNL     1     -31.678  18.751   3.648  1.00 20.00     0.056 C 
HETATM    6  S11 UNL     1     -33.256  18.526   1.397  1.00 20.00    -0.099 SA
ENDROOT
BRANCH   3   7
HETATM    7  C8  UNL     1     -33.388  18.290  -1.377  1.00 20.00     0.027 C 
HETATM    8  C5  UNL     1     -32.566  18.290  -2.680  1.00 20.00     0.011 C 
HETATM    9  C6  UNL     1     -33.294  17.319  -3.600  1.00 20.00     0.016 C 
HETATM   10  C9  UNL     1     -33.752  16.238  -2.640  1.00 20.00     0.058 C 
HETATM   11  C7  UNL     1     -34.253  17.011  -1.427  1.00 20.00     0.025 C 
HETATM   12 BR12 UNL     1     -35.140  15.141  -3.417  1.00 20.00    -0.091 Br
ENDBRANCH   3   7
TORSDOF 1
ENDMDL
MODEL 5
REMARK VINA RESULT:      -4.5      3.194      5.548
REMARK  1 active torsions:
REMARK  status: ('A' for Active; 'I' for Inactive)
REMARK    1  A    between atoms: C3_3  and  C8_8 
ROOT
HETATM    1  C1  UNL     1     -34.655  17.563  -0.516  1.00 20.00     0.016 A 
HETATM    2  C2  UNL     1     -34.060  18.163   0.632  1.00 20.00     0.015 A 
HETATM    3  C3  UNL     1     -33.783  17.511  -1.581  1.00 20.00    -0.013 A 
HETATM    4  C4  UNL     1     -32.757  18.545   0.400  1.00 20.00    -0.021 A 
HETATM    5  C10 UNL     1     -31.809  19.194   1.331  1.00 20.00     0.056 C 
HETATM    6  S11 UNL     1     -32.255  18.181  -1.196  1.00 20.00    -0.099 SA
ENDROOT
BRANCH   3   7
HETATM    7  C8  UNL     1     -34.023  16.955  -2.967  1.00 20.00     0.027 C 
HETATM    8  C5  UNL     1     -32.909  15.990  -3.418  1.00 20.00     0.011 C 
HETATM    9  C6  UNL     1     -33.628  14.913  -4.220  1.00 20.00     0.016 C 
HETATM   10  C9  UNL     1     -34.926  14.745  -3.455  1.00 20.00     0.058 C 
HETATM   11  C7  UNL     1     -35.345  16.170  -3.122  1.00 20.00     0.025 C 
HETATM   12 BR12 UNL     1     -36.260  13.832  -4.515  1.00 20.00    -0.091 Br
ENDBRANCH   3   7
TORSDOF 1
ENDMDL
MODEL 6
REMARK VINA RESULT:      -4.5      3.015      5.321
REMARK  1 active torsions:
REMARK  status: ('A' for Active; 'I' for Inactive)
REMARK    1  A    between atoms: C3_3  and  C8_8 
ROOT
HETATM    1  C1  UNL     1     -34.728  17.775   0.901  1.00 20.00     0.016 A 
HETATM    2  C2  UNL     1     -34.121  18.093   2.150  1.00 20.00     0.015 A 
HETATM    3  C3  UNL     1     -33.868  17.974  -0.156  1.00 20.00    -0.013 A 
HETATM    4  C4  UNL     1     -32.821  18.523   1.999  1.00 20.00    -0.021 A 
HETATM    5  C10 UNL     1     -31.863  18.942   3.045  1.00 20.00     0.056 C 
HETATM    6  S11 UNL     1     -32.337  18.542   0.357  1.00 20.00    -0.099 SA
ENDROOT
BRANCH   3   7
HETATM    7  C8  UNL     1     -34.125  17.754  -1.631  1.00 20.00     0.027 C 
HETATM    8  C5  UNL     1     -32.846  17.373  -2.402  1.00 20.00     0.011 C 
HETATM    9  C6  UNL     1     -33.308  16.369  -3.449  1.00 20.00     0.016 C 
HETATM   10  C9  UNL     1     -34.368  15.581  -2.704  1.00 20.00     0.058 C 
HETATM   11  C7  UNL     1     -35.150  16.642  -1.944  1.00 20.00     0.025 C 
HETATM   12 BR12 UNL     1     -35.496  14.586  -3.918  1.00 20.00    -0.091 Br
ENDBRANCH   3   7
TORSDOF 1
ENDMDL
MODEL 7
REMARK VINA RESULT:      -4.4      3.384      5.847
REMARK  1 active torsions:
REMARK  status: ('A' for Active; 'I' for Inactive)
REMARK    1  A    between atoms: C3_3  and  C8_8 
ROOT
HETATM    1  C1  UNL     1     -35.178  16.612  -1.160  1.00 20.00     0.016 A 
HETATM    2  C2  UNL     1     -34.688  17.681  -0.355  1.00 20.00     0.015 A 
HETATM    3  C3  UNL     1     -34.330  16.323  -2.206  1.00 20.00    -0.013 A 
HETATM    4  C4  UNL     1     -33.485  18.168  -0.818  1.00 20.00    -0.021 A 
HETATM    5  C10 UNL     1     -32.661  19.263  -0.263  1.00 20.00     0.056 C 
HETATM    6  S11 UNL     1     -32.950  17.336  -2.216  1.00 20.00    -0.099 SA
ENDROOT
BRANCH   3   7
HETATM    7  C8  UNL     1     -34.485  15.267  -3.278  1.00 20.00     0.027 C 
HETATM    8  C5  UNL     1     -35.949  15.094  -3.728  1.00 20.00     0.011 C 
HETATM    9  C6  UNL     1     -35.866  14.815  -5.223  1.00 20.00     0.016 C 
HETATM   10  C9  UNL     1     -34.724  15.711  -5.662  1.00 20.00     0.058 C 
HETATM   11  C7  UNL     1     -33.679  15.540  -4.568  1.00 20.00     0.025 C 
HETATM   12 BR12 UNL     1     -34.042  15.194  -7.395  1.00 20.00    -0.091 Br
ENDBRANCH   3   7
TORSDOF 1
ENDMDL
MODEL 8
REMARK VINA RESULT:      -4.4      3.275      5.534
REMARK  1 active torsions:
REMARK  status: ('A' for Active; 'I' for Inactive)
REMARK    1  A    between atoms: C3_3  and  C8_8 
ROOT
HETATM    1  C1  UNL     1     -33.356  18.208   0.103  1.00 20.00     0.016 A 
HETATM    2  C2  UNL     1     -33.760  18.482   1.442  1.00 20.00     0.015 A 
HETATM    3  C3  UNL     1     -34.411  17.800  -0.682  1.00 20.00    -0.013 A 
HETATM    4  C4  UNL     1     -35.110  18.273   1.627  1.00 20.00    -0.021 A 
HETATM    5  C10 UNL     1     -35.906  18.446   2.861  1.00 20.00     0.056 C 
HETATM    6  S11 UNL     1     -35.882  17.749   0.192  1.00 20.00    -0.099 SA
ENDROOT
BRANCH   3   7
HETATM    7  C8  UNL     1     -34.401  17.418  -2.146  1.00 20.00     0.027 C 
HETATM    8  C5  UNL     1     -33.054  16.817  -2.590  1.00 20.00     0.011 C 
HETATM    9  C6  UNL     1     -33.423  15.736  -3.597  1.00 20.00     0.016 C 
HETATM   10  C9  UNL     1     -34.695  15.158  -3.009  1.00 20.00     0.058 C 
HETATM   11  C7  UNL     1     -35.475  16.381  -2.544  1.00 20.00     0.025 C 
HETATM   12 BR12 UNL     1     -35.679  14.131  -4.317  1.00 20.00    -0.091 Br
ENDBRANCH   3   7
TORSDOF 1
ENDMDL
MODEL 9
REMARK VINA RESULT:      -4.3      2.756      4.016
REMARK  1 active torsions:
REMARK  status: ('A' for Active; 'I' for Inactive)
REMARK    1  A    between atoms: C3_3  and  C8_8 
ROOT
HETATM    1  C1  UNL     1     -35.896  14.414  -3.976  1.00 20.00     0.016 A 
HETATM    2  C2  UNL     1     -37.049  14.510  -4.808  1.00 20.00     0.015 A 
HETATM    3  C3  UNL     1     -35.670  15.575  -3.270  1.00 20.00    -0.013 A 
HETATM    4  C4  UNL     1     -37.660  15.741  -4.705  1.00 20.00    -0.021 A 
HETATM    5  C10 UNL     1     -38.871  16.228  -5.399  1.00 20.00     0.056 C 
HETATM    6  S11 UNL     1     -36.844  16.774  -3.609  1.00 20.00    -0.099 SA
ENDROOT
BRANCH   3   7
HETATM    7  C8  UNL     1     -34.560  15.877  -2.287  1.00 20.00     0.027 C 
HETATM    8  C5  UNL     1     -33.327  16.506  -2.964  1.00 20.00     0.011 C 
HETATM    9  C6  UNL     1     -32.800  17.515  -1.953  1.00 20.00     0.016 C 
HETATM   10  C9  UNL     1     -34.075  18.073  -1.350  1.00 20.00     0.058 C 
HETATM   11  C7  UNL     1     -34.957  16.848  -1.153  1.00 20.00     0.025 C 
HETATM   12 BR12 UNL     1     -33.730  18.989   0.316  1.00 20.00    -0.091 Br
ENDBRANCH   3   7
TORSDOF 1
ENDMDL
