MODEL 1
REMARK VINA RESULT:      -4.9      0.000      0.000
REMARK  4 active torsions:
REMARK  status: ('A' for Active; 'I' for Inactive)
REMARK    1  A    between atoms: C1_1  and  C8_8 
REMARK    2  A    between atoms: C1_1  and  O11_11 
REMARK    3  A    between atoms: C4_4  and  C8_8 
REMARK    4  A    between atoms: C8_8  and  N9_9 
ROOT
HETATM    1  C8  UNL     1     -35.817  15.090  -4.307  1.00 20.00     0.324 C 
ENDROOT
BRANCH   1   2
HETATM    2  C1  UNL     1     -36.456  13.719  -4.479  1.00 20.00     0.292 C 
HETATM    3  O10 UNL     1     -35.798  12.685  -4.534  1.00 20.00    -0.263 OA
BRANCH   2   4
HETATM    4  O11 UNL     1     -37.814  13.788  -4.556  1.00 20.00    -0.325 OA
HETATM    5  C7  UNL     1     -38.400  15.022  -4.125  1.00 20.00     0.213 C 
ENDBRANCH   2   4
ENDBRANCH   1   2
BRANCH   1   6
HETATM    6  C4  UNL     1     -34.759  15.046  -3.216  1.00 20.00     0.029 A 
HETATM    7  C2  UNL     1     -33.678  16.090  -3.167  1.00 20.00     0.008 A 
HETATM    8  C3  UNL     1     -34.757  16.076  -2.121  1.00 20.00     0.008 A 
ENDBRANCH   1   6
BRANCH   1   9
HETATM    9  N9  UNL     1     -35.249  15.576  -5.537  1.00 20.00     0.094 N 
HETATM   10  C5  UNL     1     -35.724  16.933  -5.844  1.00 20.00     0.310 C 
HETATM   11  C6  UNL     1     -35.561  14.680  -6.660  1.00 20.00     0.310 C 
ENDBRANCH   1   9
TORSDOF 4
ENDMDL
MODEL 2
REMARK VINA RESULT:      -4.9      0.820      1.118
REMARK  4 active torsions:
REMARK  status: ('A' for Active; 'I' for Inactive)
REMARK    1  A    between atoms: C1_1  and  C8_8 
REMARK    2  A    between atoms: C1_1  and  O11_11 
REMARK    3  A    between atoms: C4_4  and  C8_8 
REMARK    4  A    between atoms: C8_8  and  N9_9 
ROOT
HETATM    1  C8  UNL     1     -35.758  14.984  -4.919  1.00 20.00     0.324 C 
ENDROOT
BRANCH   1   2
HETATM    2  C1  UNL     1     -36.390  13.638  -4.597  1.00 20.00     0.292 C 
HETATM    3  O10 UNL     1     -35.732  12.610  -4.474  1.00 20.00    -0.263 OA
BRANCH   2   4
HETATM    4  O11 UNL     1     -37.743  13.723  -4.461  1.00 20.00    -0.325 OA
HETATM    5  C7  UNL     1     -38.265  15.037  -4.234  1.00 20.00     0.213 C 
ENDBRANCH   2   4
ENDBRANCH   1   2
BRANCH   1   6
HETATM    6  C4  UNL     1     -34.548  15.225  -4.030  1.00 20.00     0.029 A 
HETATM    7  C2  UNL     1     -34.211  16.617  -3.571  1.00 20.00     0.008 A 
HETATM    8  C3  UNL     1     -34.733  15.607  -2.587  1.00 20.00     0.008 A 
ENDBRANCH   1   6
BRANCH   1   9
HETATM    9  N9  UNL     1     -35.387  15.085  -6.307  1.00 20.00     0.094 N 
HETATM   10  C5  UNL     1     -33.934  14.942  -6.482  1.00 20.00     0.310 C 
HETATM   11  C6  UNL     1     -35.829  16.362  -6.886  1.00 20.00     0.310 C 
ENDBRANCH   1   9
TORSDOF 4
ENDMDL
MODEL 3
REMARK VINA RESULT:      -4.1      1.420      2.464
REMARK  4 active torsions:
REMARK  status: ('A' for Active; 'I' for Inactive)
REMARK    1  A    between atoms: C1_1  and  C8_8 
REMARK    2  A    between atoms: C1_1  and  O11_11 
REMARK    3  A    between atoms: C4_4  and  C8_8 
REMARK    4  A    between atoms: C8_8  and  N9_9 
ROOT
HETATM    1  C8  UNL     1     -36.707  14.901  -3.900  1.00 20.00     0.324 C 
ENDROOT
BRANCH   1   2
HETATM    2  C1  UNL     1     -36.257  13.855  -4.908  1.00 20.00     0.292 C 
HETATM    3  O10 UNL     1     -35.859  12.743  -4.575  1.00 20.00    -0.263 OA
BRANCH   2   4
HETATM    4  O11 UNL     1     -36.358  14.298  -6.193  1.00 20.00    -0.325 OA
HETATM    5  C7  UNL     1     -35.147  14.789  -6.778  1.00 20.00     0.213 C 
ENDBRANCH   2   4
ENDBRANCH   1   2
BRANCH   1   6
HETATM    6  C4  UNL     1     -35.562  15.846  -3.571  1.00 20.00     0.029 A 
HETATM    7  C2  UNL     1     -35.060  15.965  -2.159  1.00 20.00     0.008 A 
HETATM    8  C3  UNL     1     -34.211  15.298  -3.204  1.00 20.00     0.008 A 
ENDBRANCH   1   6
BRANCH   1   9
HETATM    9  N9  UNL     1     -37.849  15.643  -4.370  1.00 20.00     0.094 N 
HETATM   10  C5  UNL     1     -37.929  16.962  -3.725  1.00 20.00     0.310 C 
HETATM   11  C6  UNL     1     -39.098  14.905  -4.137  1.00 20.00     0.310 C 
ENDBRANCH   1   9
TORSDOF 4
ENDMDL
MODEL 4
REMARK VINA RESULT:      -3.9      1.351      3.001
REMARK  4 active torsions:
REMARK  status: ('A' for Active; 'I' for Inactive)
REMARK    1  A    between atoms: C1_1  and  C8_8 
REMARK    2  A    between atoms: C1_1  and  O11_11 
REMARK    3  A    between atoms: C4_4  and  C8_8 
REMARK    4  A    between atoms: C8_8  and  N9_9 
ROOT
HETATM    1  C8  UNL     1     -35.689  15.133  -4.349  1.00 20.00     0.324 C 
ENDROOT
BRANCH   1   2
HETATM    2  C1  UNL     1     -35.949  13.785  -5.006  1.00 20.00     0.292 C 
HETATM    3  O10 UNL     1     -36.102  12.753  -4.359  1.00 20.00    -0.263 OA
BRANCH   2   4
HETATM    4  O11 UNL     1     -35.996  13.872  -6.364  1.00 20.00    -0.325 OA
HETATM    5  C7  UNL     1     -35.311  14.990  -6.940  1.00 20.00     0.213 C 
ENDBRANCH   2   4
ENDBRANCH   1   2
BRANCH   1   6
HETATM    6  C4  UNL     1     -36.980  15.700  -3.779  1.00 20.00     0.029 A 
HETATM    7  C2  UNL     1     -37.501  17.027  -4.258  1.00 20.00     0.008 A 
HETATM    8  C3  UNL     1     -38.220  15.760  -4.627  1.00 20.00     0.008 A 
ENDBRANCH   1   6
BRANCH   1   9
HETATM    9  N9  UNL     1     -34.684  15.045  -3.322  1.00 20.00     0.094 N 
HETATM   10  C5  UNL     1     -34.995  15.936  -2.194  1.00 20.00     0.310 C 
HETATM   11  C6  UNL     1     -33.351  15.368  -3.851  1.00 20.00     0.310 C 
ENDBRANCH   1   9
TORSDOF 4
ENDMDL
MODEL 5
REMARK VINA RESULT:      -3.8      1.110      1.171
REMARK  4 active torsions:
REMARK  status: ('A' for Active; 'I' for Inactive)
REMARK    1  A    between atoms: C1_1  and  C8_8 
REMARK    2  A    between atoms: C1_1  and  O11_11 
REMARK    3  A    between atoms: C4_4  and  C8_8 
REMARK    4  A    between atoms: C8_8  and  N9_9 
ROOT
HETATM    1  C8  UNL     1     -35.748  15.879  -3.781  1.00 20.00     0.324 C 
ENDROOT
BRANCH   1   2
HETATM    2  C1  UNL     1     -35.989  14.532  -4.446  1.00 20.00     0.292 C 
HETATM    3  O10 UNL     1     -35.164  13.624  -4.419  1.00 20.00    -0.263 OA
BRANCH   2   4
HETATM    4  O11 UNL     1     -37.208  14.465  -5.050  1.00 20.00    -0.325 OA
HETATM    5  C7  UNL     1     -38.319  14.906  -4.261  1.00 20.00     0.213 C 
ENDBRANCH   2   4
ENDBRANCH   1   2
BRANCH   1   6
HETATM    6  C4  UNL     1     -34.863  15.713  -2.557  1.00 20.00     0.029 A 
HETATM    7  C2  UNL     1     -33.870  16.782  -2.189  1.00 20.00     0.008 A 
HETATM    8  C3  UNL     1     -35.089  16.564  -1.338  1.00 20.00     0.008 A 
ENDBRANCH   1   6
BRANCH   1   9
HETATM    9  N9  UNL     1     -35.168  16.831  -4.693  1.00 20.00     0.094 N 
HETATM   10  C5  UNL     1     -36.105  17.926  -4.987  1.00 20.00     0.310 C 
HETATM   11  C6  UNL     1     -34.758  16.186  -5.948  1.00 20.00     0.310 C 
ENDBRANCH   1   9
TORSDOF 4
ENDMDL
MODEL 6
REMARK VINA RESULT:      -3.8      1.261      2.773
REMARK  4 active torsions:
REMARK  status: ('A' for Active; 'I' for Inactive)
REMARK    1  A    between atoms: C1_1  and  C8_8 
REMARK    2  A    between atoms: C1_1  and  O11_11 
REMARK    3  A    between atoms: C4_4  and  C8_8 
REMARK    4  A    between atoms: C8_8  and  N9_9 
ROOT
HETATM    1  C8  UNL     1     -34.996  14.810  -5.177  1.00 20.00     0.324 C 
ENDROOT
BRANCH   1   2
HETATM    2  C1  UNL     1     -36.150  13.844  -4.952  1.00 20.00     0.292 C 
HETATM    3  O10 UNL     1     -35.987  12.710  -4.513  1.00 20.00    -0.263 OA
BRANCH   2   4
HETATM    4  O11 UNL     1     -37.352  14.390  -5.285  1.00 20.00    -0.325 OA
HETATM    5  C7  UNL     1     -38.233  14.671  -4.192  1.00 20.00     0.213 C 
ENDBRANCH   2   4
ENDBRANCH   1   2
BRANCH   1   6
HETATM    6  C4  UNL     1     -35.293  15.723  -6.355  1.00 20.00     0.029 A 
HETATM    7  C2  UNL     1     -34.194  16.120  -7.302  1.00 20.00     0.008 A 
HETATM    8  C3  UNL     1     -35.275  15.180  -7.757  1.00 20.00     0.008 A 
ENDBRANCH   1   6
BRANCH   1   9
HETATM    9  N9  UNL     1     -34.711  15.589  -3.999  1.00 20.00     0.094 N 
HETATM   10  C5  UNL     1     -35.239  16.956  -4.124  1.00 20.00     0.310 C 
HETATM   11  C6  UNL     1     -33.267  15.642  -3.731  1.00 20.00     0.310 C 
ENDBRANCH   1   9
TORSDOF 4
ENDMDL
MODEL 7
REMARK VINA RESULT:      -3.8      1.359      1.873
REMARK  4 active torsions:
REMARK  status: ('A' for Active; 'I' for Inactive)
REMARK    1  A    between atoms: C1_1  and  C8_8 
REMARK    2  A    between atoms: C1_1  and  O11_11 
REMARK    3  A    between atoms: C4_4  and  C8_8 
REMARK    4  A    between atoms: C8_8  and  N9_9 
ROOT
HETATM    1  C8  UNL     1     -35.706  15.556  -4.659  1.00 20.00     0.324 C 
ENDROOT
BRANCH   1   2
HETATM    2  C1  UNL     1     -36.354  14.331  -5.288  1.00 20.00     0.292 C 
HETATM    3  O10 UNL     1     -36.033  13.907  -6.394  1.00 20.00    -0.263 OA
BRANCH   2   4
HETATM    4  O11 UNL     1     -37.303  13.778  -4.483  1.00 20.00    -0.325 OA
HETATM    5  C7  UNL     1     -38.475  14.573  -4.265  1.00 20.00     0.213 C 
ENDBRANCH   2   4
ENDBRANCH   1   2
BRANCH   1   6
HETATM    6  C4  UNL     1     -34.194  15.482  -4.794  1.00 20.00     0.029 A 
HETATM    7  C2  UNL     1     -33.313  15.764  -3.609  1.00 20.00     0.008 A 
HETATM    8  C3  UNL     1     -33.429  14.364  -4.141  1.00 20.00     0.008 A 
ENDBRANCH   1   6
BRANCH   1   9
HETATM    9  N9  UNL     1     -36.201  16.780  -5.235  1.00 20.00     0.094 N 
HETATM   10  C5  UNL     1     -35.268  17.310  -6.241  1.00 20.00     0.310 C 
HETATM   11  C6  UNL     1     -36.441  17.797  -4.202  1.00 20.00     0.310 C 
ENDBRANCH   1   9
TORSDOF 4
ENDMDL
MODEL 8
REMARK VINA RESULT:      -3.7      2.049      2.999
REMARK  4 active torsions:
REMARK  status: ('A' for Active; 'I' for Inactive)
REMARK    1  A    between atoms: C1_1  and  C8_8 
REMARK    2  A    between atoms: C1_1  and  O11_11 
REMARK    3  A    between atoms: C4_4  and  C8_8 
REMARK    4  A    between atoms: C8_8  and  N9_9 
ROOT
HETATM    1  C8  UNL     1     -34.852  15.033  -3.383  1.00 20.00     0.324 C 
ENDROOT
BRANCH   1   2
HETATM    2  C1  UNL     1     -33.930  14.724  -4.554  1.00 20.00     0.292 C 
HETATM    3  O10 UNL     1     -33.213  13.729  -4.586  1.00 20.00    -0.263 OA
BRANCH   2   4
HETATM    4  O11 UNL     1     -34.009  15.665  -5.536  1.00 20.00    -0.325 OA
HETATM    5  C7  UNL     1     -33.985  15.167  -6.878  1.00 20.00     0.213 C 
ENDBRANCH   2   4
ENDBRANCH   1   2
BRANCH   1   6
HETATM    6  C4  UNL     1     -34.680  16.478  -2.943  1.00 20.00     0.029 A 
HETATM    7  C2  UNL     1     -34.805  16.847  -1.490  1.00 20.00     0.008 A 
HETATM    8  C3  UNL     1     -33.462  16.892  -2.164  1.00 20.00     0.008 A 
ENDBRANCH   1   6
BRANCH   1   9
HETATM    9  N9  UNL     1     -36.231  14.768  -3.702  1.00 20.00     0.094 N 
HETATM   10  C5  UNL     1     -36.359  13.595  -4.580  1.00 20.00     0.310 C 
HETATM   11  C6  UNL     1     -36.865  15.931  -4.339  1.00 20.00     0.310 C 
ENDBRANCH   1   9
TORSDOF 4
ENDMDL
MODEL 9
REMARK VINA RESULT:      -3.6      1.457      2.348
REMARK  4 active torsions:
REMARK  status: ('A' for Active; 'I' for Inactive)
REMARK    1  A    between atoms: C1_1  and  C8_8 
REMARK    2  A    between atoms: C1_1  and  O11_11 
REMARK    3  A    between atoms: C4_4  and  C8_8 
REMARK    4  A    between atoms: C8_8  and  N9_9 
ROOT
HETATM    1  C8  UNL     1     -35.587  15.277  -4.136  1.00 20.00     0.324 C 
ENDROOT
BRANCH   1   2
HETATM    2  C1  UNL     1     -36.091  14.134  -5.006  1.00 20.00     0.292 C 
HETATM    3  O10 UNL     1     -36.006  12.958  -4.668  1.00 20.00    -0.263 OA
BRANCH   2   4
HETATM    4  O11 UNL     1     -36.640  14.576  -6.172  1.00 20.00    -0.325 OA
HETATM    5  C7  UNL     1     -35.755  14.624  -7.297  1.00 20.00     0.213 C 
ENDBRANCH   2   4
ENDBRANCH   1   2
BRANCH   1   6
HETATM    6  C4  UNL     1     -34.153  15.625  -4.501  1.00 20.00     0.029 A 
HETATM    7  C2  UNL     1     -33.135  15.869  -3.422  1.00 20.00     0.008 A 
HETATM    8  C3  UNL     1     -33.049  14.631  -4.269  1.00 20.00     0.008 A 
ENDBRANCH   1   6
BRANCH   1   9
HETATM    9  N9  UNL     1     -36.428  16.441  -4.240  1.00 20.00     0.094 N 
HETATM   10  C5  UNL     1     -35.767  17.508  -5.007  1.00 20.00     0.310 C 
HETATM   11  C6  UNL     1     -36.802  16.949  -2.913  1.00 20.00     0.310 C 
ENDBRANCH   1   9
TORSDOF 4
ENDMDL
