MODEL 1
REMARK VINA RESULT:      -4.8      0.000      0.000
REMARK  0 active torsions:
REMARK  status: ('A' for Active; 'I' for Inactive)
ROOT
HETATM    1  C1  UNL     1     -34.139  15.811  -2.712  1.00 20.00     0.002 C 
HETATM    2  C2  UNL     1     -33.886  14.772  -3.833  1.00 20.00     0.015 C 
HETATM    3  C3  UNL     1     -35.654  15.673  -3.006  1.00 20.00     0.015 C 
HETATM    4  C4  UNL     1     -35.896  15.174  -7.601  1.00 20.00     0.036 C 
HETATM    5  C5  UNL     1     -34.382  15.317  -7.508  1.00 20.00     0.168 C 
HETATM    6  C6  UNL     1     -36.402  15.283  -6.166  1.00 20.00     0.050 C 
HETATM    7  C7  UNL     1     -36.046  14.141  -5.160  1.00 20.00     0.178 C 
HETATM    8  C8  UNL     1     -35.297  16.164  -5.522  1.00 20.00     0.139 C 
HETATM    9  C9  UNL     1     -35.247  15.159  -4.379  1.00 20.00     0.016 C 
HETATM   10  O10 UNL     1     -37.185  13.630  -4.519  1.00 20.00    -0.234 OA
HETATM   11  O11 UNL     1     -34.170  16.236  -6.431  1.00 20.00    -0.385 OA
ENDROOT
TORSDOF 0
ENDMDL
MODEL 2
REMARK VINA RESULT:      -4.7      1.201      1.322
REMARK  0 active torsions:
REMARK  status: ('A' for Active; 'I' for Inactive)
ROOT
HETATM    1  C1  UNL     1     -33.873  16.764  -2.217  1.00 20.00     0.002 C 
HETATM    2  C2  UNL     1     -33.130  16.153  -3.432  1.00 20.00     0.015 C 
HETATM    3  C3  UNL     1     -34.939  15.651  -2.383  1.00 20.00     0.015 C 
HETATM    4  C4  UNL     1     -35.327  15.102  -6.962  1.00 20.00     0.036 C 
HETATM    5  C5  UNL     1     -34.289  16.217  -6.995  1.00 20.00     0.168 C 
HETATM    6  C6  UNL     1     -35.605  14.850  -5.483  1.00 20.00     0.050 C 
HETATM    7  C7  UNL     1     -34.468  14.239  -4.602  1.00 20.00     0.178 C 
HETATM    8  C8  UNL     1     -35.294  16.246  -4.877  1.00 20.00     0.139 C 
HETATM    9  C9  UNL     1     -34.459  15.534  -3.822  1.00 20.00     0.016 C 
HETATM   10  O10 UNL     1     -34.898  13.102  -3.902  1.00 20.00    -0.234 OA
HETATM   11  O11 UNL     1     -34.615  17.047  -5.875  1.00 20.00    -0.385 OA
ENDROOT
TORSDOF 0
ENDMDL
MODEL 3
REMARK VINA RESULT:      -4.6      1.669      3.769
REMARK  0 active torsions:
REMARK  status: ('A' for Active; 'I' for Inactive)
ROOT
HETATM    1  C1  UNL     1     -35.476  15.274  -7.250  1.00 20.00     0.002 C 
HETATM    2  C2  UNL     1     -36.005  14.805  -5.872  1.00 20.00     0.015 C 
HETATM    3  C3  UNL     1     -34.044  14.984  -6.734  1.00 20.00     0.015 C 
HETATM    4  C4  UNL     1     -34.150  16.236  -2.279  1.00 20.00     0.036 C 
HETATM    5  C5  UNL     1     -35.590  16.607  -2.612  1.00 20.00     0.168 C 
HETATM    6  C6  UNL     1     -33.560  15.696  -3.578  1.00 20.00     0.050 C 
HETATM    7  C7  UNL     1     -34.104  14.343  -4.140  1.00 20.00     0.178 C 
HETATM    8  C8  UNL     1     -34.413  16.452  -4.634  1.00 20.00     0.139 C 
HETATM    9  C9  UNL     1     -34.622  15.115  -5.332  1.00 20.00     0.016 C 
HETATM   10  O10 UNL     1     -33.074  13.428  -4.401  1.00 20.00    -0.234 OA
HETATM   11  O11 UNL     1     -35.541  17.069  -3.966  1.00 20.00    -0.385 OA
ENDROOT
TORSDOF 0
ENDMDL
MODEL 4
REMARK VINA RESULT:      -4.5      1.285      3.520
REMARK  0 active torsions:
REMARK  status: ('A' for Active; 'I' for Inactive)
ROOT
HETATM    1  C1  UNL     1     -36.399  15.893  -7.389  1.00 20.00     0.002 C 
HETATM    2  C2  UNL     1     -37.116  15.914  -6.016  1.00 20.00     0.015 C 
HETATM    3  C3  UNL     1     -35.572  14.688  -6.873  1.00 20.00     0.015 C 
HETATM    4  C4  UNL     1     -34.815  15.638  -2.407  1.00 20.00     0.036 C 
HETATM    5  C5  UNL     1     -35.593  16.905  -2.738  1.00 20.00     0.168 C 
HETATM    6  C6  UNL     1     -34.754  14.847  -3.710  1.00 20.00     0.050 C 
HETATM    7  C7  UNL     1     -36.081  14.253  -4.286  1.00 20.00     0.178 C 
HETATM    8  C8  UNL     1     -34.836  15.989  -4.759  1.00 20.00     0.139 C 
HETATM    9  C9  UNL     1     -35.908  15.175  -5.471  1.00 20.00     0.016 C 
HETATM   10  O10 UNL     1     -35.970  12.881  -4.554  1.00 20.00    -0.234 OA
HETATM   11  O11 UNL     1     -35.227  17.212  -4.088  1.00 20.00    -0.385 OA
ENDROOT
TORSDOF 0
ENDMDL
MODEL 5
REMARK VINA RESULT:      -4.4      1.991      3.017
REMARK  0 active torsions:
REMARK  status: ('A' for Active; 'I' for Inactive)
ROOT
HETATM    1  C1  UNL     1     -33.551  17.852  -3.069  1.00 20.00     0.002 C 
HETATM    2  C2  UNL     1     -34.090  17.327  -4.424  1.00 20.00     0.015 C 
HETATM    3  C3  UNL     1     -33.051  16.414  -2.778  1.00 20.00     0.015 C 
HETATM    4  C4  UNL     1     -36.331  13.672  -4.551  1.00 20.00     0.036 C 
HETATM    5  C5  UNL     1     -36.990  15.001  -4.899  1.00 20.00     0.168 C 
HETATM    6  C6  UNL     1     -35.029  14.038  -3.846  1.00 20.00     0.050 C 
HETATM    7  C7  UNL     1     -33.900  14.734  -4.674  1.00 20.00     0.178 C 
HETATM    8  C8  UNL     1     -35.396  15.416  -3.230  1.00 20.00     0.139 C 
HETATM    9  C9  UNL     1     -34.085  15.948  -3.792  1.00 20.00     0.016 C 
HETATM   10  O10 UNL     1     -32.672  14.068  -4.554  1.00 20.00    -0.234 OA
HETATM   11  O11 UNL     1     -36.638  15.873  -3.819  1.00 20.00    -0.385 OA
ENDROOT
TORSDOF 0
ENDMDL
MODEL 6
REMARK VINA RESULT:      -4.2      1.822      2.506
REMARK  0 active torsions:
REMARK  status: ('A' for Active; 'I' for Inactive)
ROOT
HETATM    1  C1  UNL     1     -33.568  16.097  -3.932  1.00 20.00     0.002 C 
HETATM    2  C2  UNL     1     -34.439  15.922  -5.202  1.00 20.00     0.015 C 
HETATM    3  C3  UNL     1     -34.304  14.872  -3.330  1.00 20.00     0.015 C 
HETATM    4  C4  UNL     1     -38.666  15.302  -4.817  1.00 20.00     0.036 C 
HETATM    5  C5  UNL     1     -38.121  16.568  -5.467  1.00 20.00     0.168 C 
HETATM    6  C6  UNL     1     -37.480  14.678  -4.088  1.00 20.00     0.050 C 
HETATM    7  C7  UNL     1     -36.298  14.106  -4.936  1.00 20.00     0.178 C 
HETATM    8  C8  UNL     1     -36.621  15.935  -3.780  1.00 20.00     0.139 C 
HETATM    9  C9  UNL     1     -35.420  15.171  -4.320  1.00 20.00     0.016 C 
HETATM   10  O10 UNL     1     -35.993  12.781  -4.588  1.00 20.00    -0.234 OA
HETATM   11  O11 UNL     1     -37.135  17.051  -4.547  1.00 20.00    -0.385 OA
ENDROOT
TORSDOF 0
ENDMDL
MODEL 7
REMARK VINA RESULT:      -4.2      1.453      3.556
REMARK  0 active torsions:
REMARK  status: ('A' for Active; 'I' for Inactive)
ROOT
HETATM    1  C1  UNL     1     -34.382  15.138  -7.031  1.00 20.00     0.002 C 
HETATM    2  C2  UNL     1     -34.417  16.449  -6.204  1.00 20.00     0.015 C 
HETATM    3  C3  UNL     1     -35.513  14.600  -6.116  1.00 20.00     0.015 C 
HETATM    4  C4  UNL     1     -34.489  16.263  -1.919  1.00 20.00     0.036 C 
HETATM    5  C5  UNL     1     -33.292  16.856  -2.653  1.00 20.00     0.168 C 
HETATM    6  C6  UNL     1     -35.276  15.499  -2.980  1.00 20.00     0.050 C 
HETATM    7  C7  UNL     1     -35.981  16.309  -4.116  1.00 20.00     0.178 C 
HETATM    8  C8  UNL     1     -34.148  15.122  -3.979  1.00 20.00     0.139 C 
HETATM    9  C9  UNL     1     -35.051  15.630  -5.095  1.00 20.00     0.016 C 
HETATM   10  O10 UNL     1     -37.340  15.983  -4.231  1.00 20.00    -0.234 OA
HETATM   11  O11 UNL     1     -32.960  15.883  -3.649  1.00 20.00    -0.385 OA
ENDROOT
TORSDOF 0
ENDMDL
MODEL 8
REMARK VINA RESULT:      -4.2      1.659      2.693
REMARK  0 active torsions:
REMARK  status: ('A' for Active; 'I' for Inactive)
ROOT
HETATM    1  C1  UNL     1     -33.071  16.803  -2.326  1.00 20.00     0.002 C 
HETATM    2  C2  UNL     1     -34.517  16.245  -2.314  1.00 20.00     0.015 C 
HETATM    3  C3  UNL     1     -33.376  17.401  -3.723  1.00 20.00     0.015 C 
HETATM    4  C4  UNL     1     -36.050  14.231  -5.777  1.00 20.00     0.036 C 
HETATM    5  C5  UNL     1     -35.839  13.478  -4.468  1.00 20.00     0.168 C 
HETATM    6  C6  UNL     1     -35.272  15.534  -5.624  1.00 20.00     0.050 C 
HETATM    7  C7  UNL     1     -35.772  16.585  -4.580  1.00 20.00     0.178 C 
HETATM    8  C8  UNL     1     -34.160  15.106  -4.629  1.00 20.00     0.139 C 
HETATM    9  C9  UNL     1     -34.481  16.360  -3.826  1.00 20.00     0.016 C 
HETATM   10  O10 UNL     1     -35.938  17.856  -5.150  1.00 20.00    -0.234 OA
HETATM   11  O11 UNL     1     -34.507  13.817  -4.067  1.00 20.00    -0.385 OA
ENDROOT
TORSDOF 0
ENDMDL
MODEL 9
REMARK VINA RESULT:      -4.1      1.130      1.130
REMARK  0 active torsions:
REMARK  status: ('A' for Active; 'I' for Inactive)
ROOT
HETATM    1  C1  UNL     1     -34.156  15.833  -2.661  1.00 20.00     0.002 C 
HETATM    2  C2  UNL     1     -33.535  15.512  -4.044  1.00 20.00     0.015 C 
HETATM    3  C3  UNL     1     -35.494  15.259  -3.195  1.00 20.00     0.015 C 
HETATM    4  C4  UNL     1     -35.634  16.590  -7.625  1.00 20.00     0.036 C 
HETATM    5  C5  UNL     1     -34.305  17.248  -7.274  1.00 20.00     0.168 C 
HETATM    6  C6  UNL     1     -36.103  15.913  -6.341  1.00 20.00     0.050 C 
HETATM    7  C7  UNL     1     -35.289  14.694  -5.799  1.00 20.00     0.178 C 
HETATM    8  C8  UNL     1     -35.432  16.811  -5.265  1.00 20.00     0.139 C 
HETATM    9  C9  UNL     1     -34.950  15.535  -4.589  1.00 20.00     0.016 C 
HETATM   10  O10 UNL     1     -36.105  13.578  -5.563  1.00 20.00    -0.234 OA
HETATM   11  O11 UNL     1     -34.456  17.664  -5.912  1.00 20.00    -0.385 OA
ENDROOT
TORSDOF 0
ENDMDL
