MODEL 1
REMARK VINA RESULT:      -4.4      0.000      0.000
REMARK  1 active torsions:
REMARK  status: ('A' for Active; 'I' for Inactive)
REMARK    1  A    between atoms: C3_3  and  C6_6 
ROOT
HETATM    1  C1  UNL     1     -35.297  13.767  -4.126  1.00 20.00     0.087 C 
HETATM    2  C5  UNL     1     -34.528  14.848  -3.614  1.00 20.00     0.095 C 
HETATM    3  C6  UNL     1     -34.953  15.661  -2.586  1.00 20.00     0.032 C 
HETATM    4  N8  UNL     1     -35.921  12.884  -4.547  1.00 20.00    -0.192 NA
ENDROOT
BRANCH   3   5
HETATM    5  C3  UNL     1     -34.264  16.755  -2.024  1.00 20.00     0.031 A 
HETATM    6  C4  UNL     1     -34.474  17.428  -0.838  1.00 20.00     0.048 A 
HETATM    7  C7  UNL     1     -35.524  17.134   0.161  1.00 20.00     0.072 C 
HETATM    8  N9  UNL     1     -33.610  18.472  -0.574  1.00 20.00    -0.258 NA
HETATM    9  C2  UNL     1     -32.755  18.577  -1.568  1.00 20.00     0.167 A 
HETATM   10  S10 UNL     1     -32.933  17.452  -2.852  1.00 20.00    -0.081 SA
ENDBRANCH   3   5
TORSDOF 1
ENDMDL
MODEL 2
REMARK VINA RESULT:      -4.3     14.420     16.133
REMARK  1 active torsions:
REMARK  status: ('A' for Active; 'I' for Inactive)
REMARK    1  A    between atoms: C3_3  and  C6_6 
ROOT
HETATM    1  C1  UNL     1     -25.563  19.098   6.705  1.00 20.00     0.087 C 
HETATM    2  C5  UNL     1     -25.198  19.062   8.079  1.00 20.00     0.095 C 
HETATM    3  C6  UNL     1     -24.245  18.206   8.588  1.00 20.00     0.032 C 
HETATM    4  N8  UNL     1     -25.864  19.132   5.585  1.00 20.00    -0.192 NA
ENDROOT
BRANCH   3   5
HETATM    5  C3  UNL     1     -23.828  18.096   9.930  1.00 20.00     0.031 A 
HETATM    6  C4  UNL     1     -22.563  17.967  10.464  1.00 20.00     0.048 A 
HETATM    7  C7  UNL     1     -21.294  17.915   9.706  1.00 20.00     0.072 C 
HETATM    8  N9  UNL     1     -22.493  17.882  11.840  1.00 20.00    -0.258 NA
HETATM    9  C2  UNL     1     -23.711  17.945  12.332  1.00 20.00     0.167 A 
HETATM   10  S10 UNL     1     -24.987  18.108  11.195  1.00 20.00    -0.081 SA
ENDBRANCH   3   5
TORSDOF 1
ENDMDL
MODEL 3
REMARK VINA RESULT:      -4.2     14.285     15.905
REMARK  1 active torsions:
REMARK  status: ('A' for Active; 'I' for Inactive)
REMARK    1  A    between atoms: C3_3  and  C6_6 
ROOT
HETATM    1  C1  UNL     1     -25.415  19.257   6.685  1.00 20.00     0.087 C 
HETATM    2  C5  UNL     1     -24.768  19.258   7.952  1.00 20.00     0.095 C 
HETATM    3  C6  UNL     1     -24.644  18.135   8.741  1.00 20.00     0.032 C 
HETATM    4  N8  UNL     1     -25.941  19.261   5.651  1.00 20.00    -0.192 NA
ENDROOT
BRANCH   3   5
HETATM    5  C3  UNL     1     -24.030  18.046  10.007  1.00 20.00     0.031 A 
HETATM    6  C4  UNL     1     -24.562  18.205  11.269  1.00 20.00     0.048 A 
HETATM    7  C7  UNL     1     -25.970  18.520  11.592  1.00 20.00     0.072 C 
HETATM    8  N9  UNL     1     -23.680  18.050  12.320  1.00 20.00    -0.258 NA
HETATM    9  C2  UNL     1     -22.488  17.777  11.838  1.00 20.00     0.167 A 
HETATM   10  S10 UNL     1     -22.356  17.691  10.128  1.00 20.00    -0.081 SA
ENDBRANCH   3   5
TORSDOF 1
ENDMDL
MODEL 4
REMARK VINA RESULT:      -4.1      2.568      5.275
REMARK  1 active torsions:
REMARK  status: ('A' for Active; 'I' for Inactive)
REMARK    1  A    between atoms: C3_3  and  C6_6 
ROOT
HETATM    1  C1  UNL     1     -33.539  17.002  -2.160  1.00 20.00     0.087 C 
HETATM    2  C5  UNL     1     -34.723  16.251  -2.396  1.00 20.00     0.095 C 
HETATM    3  C6  UNL     1     -35.510  16.408  -3.517  1.00 20.00     0.032 C 
HETATM    4  N8  UNL     1     -32.572  17.612  -1.963  1.00 20.00    -0.192 NA
ENDROOT
BRANCH   3   5
HETATM    5  C3  UNL     1     -36.699  15.717  -3.828  1.00 20.00     0.031 A 
HETATM    6  C4  UNL     1     -36.893  14.411  -4.226  1.00 20.00     0.048 A 
HETATM    7  C7  UNL     1     -35.841  13.391  -4.425  1.00 20.00     0.072 C 
HETATM    8  N9  UNL     1     -38.203  14.038  -4.455  1.00 20.00    -0.258 NA
HETATM    9  C2  UNL     1     -38.984  15.071  -4.229  1.00 20.00     0.167 A 
HETATM   10  S10 UNL     1     -38.211  16.522  -3.737  1.00 20.00    -0.081 SA
ENDBRANCH   3   5
TORSDOF 1
ENDMDL
MODEL 5
REMARK VINA RESULT:      -3.9      1.499      2.083
REMARK  1 active torsions:
REMARK  status: ('A' for Active; 'I' for Inactive)
REMARK    1  A    between atoms: C3_3  and  C6_6 
ROOT
HETATM    1  C1  UNL     1     -35.743  13.943  -4.145  1.00 20.00     0.087 C 
HETATM    2  C5  UNL     1     -35.623  15.247  -3.592  1.00 20.00     0.095 C 
HETATM    3  C6  UNL     1     -34.755  15.559  -2.567  1.00 20.00     0.032 C 
HETATM    4  N8  UNL     1     -35.846  12.880  -4.600  1.00 20.00    -0.192 NA
ENDROOT
BRANCH   3   5
HETATM    5  C3  UNL     1     -34.576  16.816  -1.954  1.00 20.00     0.031 A 
HETATM    6  C4  UNL     1     -33.823  17.901  -2.348  1.00 20.00     0.048 A 
HETATM    7  C7  UNL     1     -32.991  17.993  -3.567  1.00 20.00     0.072 C 
HETATM    8  N9  UNL     1     -33.862  18.999  -1.512  1.00 20.00    -0.258 NA
HETATM    9  C2  UNL     1     -34.646  18.729  -0.492  1.00 20.00     0.167 A 
HETATM   10  S10 UNL     1     -35.369  17.172  -0.475  1.00 20.00    -0.081 SA
ENDBRANCH   3   5
TORSDOF 1
ENDMDL
MODEL 6
REMARK VINA RESULT:      -3.9      2.027      5.013
REMARK  1 active torsions:
REMARK  status: ('A' for Active; 'I' for Inactive)
REMARK    1  A    between atoms: C3_3  and  C6_6 
ROOT
HETATM    1  C1  UNL     1     -31.676  18.199  -0.900  1.00 20.00     0.087 C 
HETATM    2  C5  UNL     1     -32.926  17.806  -1.453  1.00 20.00     0.095 C 
HETATM    3  C6  UNL     1     -33.060  16.793  -2.378  1.00 20.00     0.032 C 
HETATM    4  N8  UNL     1     -30.659  18.524  -0.445  1.00 20.00    -0.192 NA
ENDROOT
BRANCH   3   5
HETATM    5  C3  UNL     1     -34.251  16.344  -2.984  1.00 20.00     0.031 A 
HETATM    6  C4  UNL     1     -34.461  15.330  -3.896  1.00 20.00     0.048 A 
HETATM    7  C7  UNL     1     -33.428  14.442  -4.470  1.00 20.00     0.072 C 
HETATM    8  N9  UNL     1     -35.768  15.141  -4.298  1.00 20.00    -0.258 NA
HETATM    9  C2  UNL     1     -36.532  16.018  -3.685  1.00 20.00     0.167 A 
HETATM   10  S10 UNL     1     -35.744  17.100  -2.610  1.00 20.00    -0.081 SA
ENDBRANCH   3   5
TORSDOF 1
ENDMDL
MODEL 7
REMARK VINA RESULT:      -3.9      2.081      5.072
REMARK  1 active torsions:
REMARK  status: ('A' for Active; 'I' for Inactive)
REMARK    1  A    between atoms: C3_3  and  C6_6 
ROOT
HETATM    1  C1  UNL     1     -35.133  17.269  -0.326  1.00 20.00     0.087 C 
HETATM    2  C5  UNL     1     -35.474  16.787  -1.619  1.00 20.00     0.095 C 
HETATM    3  C6  UNL     1     -34.792  15.771  -2.253  1.00 20.00     0.032 C 
HETATM    4  N8  UNL     1     -34.859  17.667   0.730  1.00 20.00    -0.192 NA
ENDROOT
BRANCH   3   5
HETATM    5  C3  UNL     1     -35.053  15.237  -3.532  1.00 20.00     0.031 A 
HETATM    6  C4  UNL     1     -34.191  14.724  -4.478  1.00 20.00     0.048 A 
HETATM    7  C7  UNL     1     -32.721  14.612  -4.353  1.00 20.00     0.072 C 
HETATM    8  N9  UNL     1     -34.773  14.274  -5.646  1.00 20.00    -0.258 NA
HETATM    9  C2  UNL     1     -36.073  14.455  -5.570  1.00 20.00     0.167 A 
HETATM   10  S10 UNL     1     -36.663  15.161  -4.121  1.00 20.00    -0.081 SA
ENDBRANCH   3   5
TORSDOF 1
ENDMDL
MODEL 8
REMARK VINA RESULT:      -3.9     15.966     16.509
REMARK  1 active torsions:
REMARK  status: ('A' for Active; 'I' for Inactive)
REMARK    1  A    between atoms: C3_3  and  C6_6 
ROOT
HETATM    1  C1  UNL     1     -22.026  17.048   7.658  1.00 20.00     0.087 C 
HETATM    2  C5  UNL     1     -22.924  17.176   8.753  1.00 20.00     0.095 C 
HETATM    3  C6  UNL     1     -23.514  18.369   9.113  1.00 20.00     0.032 C 
HETATM    4  N8  UNL     1     -21.293  16.938   6.765  1.00 20.00    -0.192 NA
ENDROOT
BRANCH   3   5
HETATM    5  C3  UNL     1     -24.405  18.590  10.184  1.00 20.00     0.031 A 
HETATM    6  C4  UNL     1     -24.244  18.377  11.537  1.00 20.00     0.048 A 
HETATM    7  C7  UNL     1     -23.037  17.841  12.201  1.00 20.00     0.072 C 
HETATM    8  N9  UNL     1     -25.325  18.702  12.332  1.00 20.00    -0.258 NA
HETATM    9  C2  UNL     1     -26.293  19.157  11.568  1.00 20.00     0.167 A 
HETATM   10  S10 UNL     1     -25.971  19.221   9.883  1.00 20.00    -0.081 SA
ENDBRANCH   3   5
TORSDOF 1
ENDMDL
MODEL 9
REMARK VINA RESULT:      -3.9      1.731      2.423
REMARK  1 active torsions:
REMARK  status: ('A' for Active; 'I' for Inactive)
REMARK    1  A    between atoms: C3_3  and  C6_6 
ROOT
HETATM    1  C1  UNL     1     -33.883  14.924  -4.263  1.00 20.00     0.087 C 
HETATM    2  C5  UNL     1     -34.213  15.576  -3.044  1.00 20.00     0.095 C 
HETATM    3  C6  UNL     1     -33.544  16.685  -2.572  1.00 20.00     0.032 C 
HETATM    4  N8  UNL     1     -33.617  14.387  -5.258  1.00 20.00    -0.192 NA
ENDROOT
BRANCH   3   5
HETATM    5  C3  UNL     1     -33.796  17.388  -1.376  1.00 20.00     0.031 A 
HETATM    6  C4  UNL     1     -32.949  18.137  -0.587  1.00 20.00     0.048 A 
HETATM    7  C7  UNL     1     -31.512  18.383  -0.833  1.00 20.00     0.072 C 
HETATM    8  N9  UNL     1     -33.515  18.706   0.537  1.00 20.00    -0.258 NA
HETATM    9  C2  UNL     1     -34.787  18.376   0.584  1.00 20.00     0.167 A 
HETATM   10  S10 UNL     1     -35.368  17.386  -0.692  1.00 20.00    -0.081 SA
ENDBRANCH   3   5
TORSDOF 1
ENDMDL
