MODEL 1
REMARK VINA RESULT:      -4.5      0.000      0.000
REMARK  5 active torsions:
REMARK  status: ('A' for Active; 'I' for Inactive)
REMARK    1  A    between atoms: C1_1  and  C9_9 
REMARK    2  A    between atoms: C6_6  and  C7_7 
REMARK    3  A    between atoms: C6_6  and  C8_8 
REMARK    4  A    between atoms: C7_7  and  C9_9 
REMARK    5  A    between atoms: C8_8  and  C10_10 
ROOT
HETATM    1  C6  UNL     1     -33.470  15.711  -3.450  1.00 20.00     0.001 C 
ENDROOT
BRANCH   1   2
HETATM    2  C7  UNL     1     -33.870  14.570  -4.392  1.00 20.00     0.011 C 
BRANCH   2   3
HETATM    3  C9  UNL     1     -35.219  14.801  -5.091  1.00 20.00     0.043 C 
HETATM    4  C2  UNL     1     -35.093  14.912  -6.608  1.00 20.00     0.017 C 
BRANCH   3   5
HETATM    5  C1  UNL     1     -36.158  13.672  -4.703  1.00 20.00     0.235 C 
HETATM    6  O11 UNL     1     -35.805  12.526  -4.444  1.00 20.00    -0.306 OA
ENDBRANCH   3   5
ENDBRANCH   2   3
ENDBRANCH   1   2
BRANCH   1   7
HETATM    7  C8  UNL     1     -34.526  15.919  -2.357  1.00 20.00     0.008 C 
BRANCH   7   8
HETATM    8  C10 UNL     1     -34.487  17.291  -1.632  1.00 20.00    -0.051 C 
HETATM    9  C3  UNL     1     -35.227  18.319  -2.511  1.00 20.00     0.014 C 
HETATM   10  C4  UNL     1     -35.192  17.220  -0.268  1.00 20.00     0.014 C 
HETATM   11  C5  UNL     1     -33.042  17.772  -1.431  1.00 20.00     0.014 C 
ENDBRANCH   7   8
ENDBRANCH   1   7
TORSDOF 5
ENDMDL
MODEL 2
REMARK VINA RESULT:      -4.5      0.178      1.323
REMARK  5 active torsions:
REMARK  status: ('A' for Active; 'I' for Inactive)
REMARK    1  A    between atoms: C1_1  and  C9_9 
REMARK    2  A    between atoms: C6_6  and  C7_7 
REMARK    3  A    between atoms: C6_6  and  C8_8 
REMARK    4  A    between atoms: C7_7  and  C9_9 
REMARK    5  A    between atoms: C8_8  and  C10_10 
ROOT
HETATM    1  C6  UNL     1     -33.537  15.691  -3.292  1.00 20.00     0.001 C 
ENDROOT
BRANCH   1   2
HETATM    2  C7  UNL     1     -33.879  14.582  -4.293  1.00 20.00     0.011 C 
BRANCH   2   3
HETATM    3  C9  UNL     1     -35.176  14.843  -5.075  1.00 20.00     0.043 C 
HETATM    4  C2  UNL     1     -34.957  14.935  -6.582  1.00 20.00     0.017 C 
BRANCH   3   5
HETATM    5  C1  UNL     1     -36.169  13.745  -4.734  1.00 20.00     0.235 C 
HETATM    6  O11 UNL     1     -35.868  12.582  -4.484  1.00 20.00    -0.306 OA
ENDBRANCH   3   5
ENDBRANCH   2   3
ENDBRANCH   1   2
BRANCH   1   7
HETATM    7  C8  UNL     1     -34.662  15.869  -2.263  1.00 20.00     0.008 C 
BRANCH   7   8
HETATM    8  C10 UNL     1     -34.705  17.241  -1.540  1.00 20.00    -0.051 C 
HETATM    9  C3  UNL     1     -33.254  17.702  -1.299  1.00 20.00     0.014 C 
HETATM   10  C4  UNL     1     -35.417  18.301  -2.397  1.00 20.00     0.014 C 
HETATM   11  C5  UNL     1     -35.413  17.130  -0.180  1.00 20.00     0.014 C 
ENDBRANCH   7   8
ENDBRANCH   1   7
TORSDOF 5
ENDMDL
MODEL 3
REMARK VINA RESULT:      -4.5      0.135      1.305
REMARK  5 active torsions:
REMARK  status: ('A' for Active; 'I' for Inactive)
REMARK    1  A    between atoms: C1_1  and  C9_9 
REMARK    2  A    between atoms: C6_6  and  C7_7 
REMARK    3  A    between atoms: C6_6  and  C8_8 
REMARK    4  A    between atoms: C7_7  and  C9_9 
REMARK    5  A    between atoms: C8_8  and  C10_10 
ROOT
HETATM    1  C6  UNL     1     -33.424  15.610  -3.500  1.00 20.00     0.001 C 
ENDROOT
BRANCH   1   2
HETATM    2  C7  UNL     1     -33.884  14.559  -4.517  1.00 20.00     0.011 C 
BRANCH   2   3
HETATM    3  C9  UNL     1     -35.293  14.823  -5.071  1.00 20.00     0.043 C 
HETATM    4  C2  UNL     1     -35.305  15.067  -6.577  1.00 20.00     0.017 C 
BRANCH   3   5
HETATM    5  C1  UNL     1     -36.180  13.646  -4.702  1.00 20.00     0.235 C 
HETATM    6  O11 UNL     1     -35.774  12.519  -4.441  1.00 20.00    -0.306 OA
ENDBRANCH   3   5
ENDBRANCH   2   3
ENDBRANCH   1   2
BRANCH   1   7
HETATM    7  C8  UNL     1     -34.504  15.859  -2.440  1.00 20.00     0.008 C 
BRANCH   7   8
HETATM    8  C10 UNL     1     -34.490  17.264  -1.778  1.00 20.00    -0.051 C 
HETATM    9  C3  UNL     1     -35.224  17.164  -0.426  1.00 20.00     0.014 C 
HETATM   10  C4  UNL     1     -33.052  17.743  -1.517  1.00 20.00     0.014 C 
HETATM   11  C5  UNL     1     -35.218  18.297  -2.652  1.00 20.00     0.014 C 
ENDBRANCH   7   8
ENDBRANCH   1   7
TORSDOF 5
ENDMDL
MODEL 4
REMARK VINA RESULT:      -4.4      2.920      5.199
REMARK  5 active torsions:
REMARK  status: ('A' for Active; 'I' for Inactive)
REMARK    1  A    between atoms: C1_1  and  C9_9 
REMARK    2  A    between atoms: C6_6  and  C7_7 
REMARK    3  A    between atoms: C6_6  and  C8_8 
REMARK    4  A    between atoms: C7_7  and  C9_9 
REMARK    5  A    between atoms: C8_8  and  C10_10 
ROOT
HETATM    1  C6  UNL     1     -34.951  17.213  -2.029  1.00 20.00     0.001 C 
ENDROOT
BRANCH   1   2
HETATM    2  C7  UNL     1     -33.890  17.677  -1.024  1.00 20.00     0.011 C 
BRANCH   2   3
HETATM    3  C9  UNL     1     -32.506  17.895  -1.654  1.00 20.00     0.043 C 
HETATM    4  C2  UNL     1     -32.561  18.689  -2.956  1.00 20.00     0.017 C 
BRANCH   3   5
HETATM    5  C1  UNL     1     -31.617  18.583  -0.632  1.00 20.00     0.235 C 
HETATM    6  O11 UNL     1     -30.433  18.325  -0.449  1.00 20.00    -0.306 OA
ENDBRANCH   3   5
ENDBRANCH   2   3
ENDBRANCH   1   2
BRANCH   1   7
HETATM    7  C8  UNL     1     -34.828  15.708  -2.301  1.00 20.00     0.008 C 
BRANCH   7   8
HETATM    8  C10 UNL     1     -34.623  15.306  -3.787  1.00 20.00    -0.051 C 
HETATM    9  C3  UNL     1     -35.095  16.478  -4.670  1.00 20.00     0.014 C 
HETATM   10  C4  UNL     1     -33.141  15.034  -4.091  1.00 20.00     0.014 C 
HETATM   11  C5  UNL     1     -35.450  14.061  -4.144  1.00 20.00     0.014 C 
ENDBRANCH   7   8
ENDBRANCH   1   7
TORSDOF 5
ENDMDL
MODEL 5
REMARK VINA RESULT:      -4.4      2.931      5.195
REMARK  5 active torsions:
REMARK  status: ('A' for Active; 'I' for Inactive)
REMARK    1  A    between atoms: C1_1  and  C9_9 
REMARK    2  A    between atoms: C6_6  and  C7_7 
REMARK    3  A    between atoms: C6_6  and  C8_8 
REMARK    4  A    between atoms: C7_7  and  C9_9 
REMARK    5  A    between atoms: C8_8  and  C10_10 
ROOT
HETATM    1  C6  UNL     1     -34.908  17.310  -1.975  1.00 20.00     0.001 C 
ENDROOT
BRANCH   1   2
HETATM    2  C7  UNL     1     -33.815  17.722  -0.982  1.00 20.00     0.011 C 
BRANCH   2   3
HETATM    3  C9  UNL     1     -32.456  17.990  -1.647  1.00 20.00     0.043 C 
HETATM    4  C2  UNL     1     -32.561  18.872  -2.887  1.00 20.00     0.017 C 
BRANCH   3   5
HETATM    5  C1  UNL     1     -31.532  18.609  -0.612  1.00 20.00     0.235 C 
HETATM    6  O11 UNL     1     -30.373  18.262  -0.412  1.00 20.00    -0.306 OA
ENDBRANCH   3   5
ENDBRANCH   2   3
ENDBRANCH   1   2
BRANCH   1   7
HETATM    7  C8  UNL     1     -34.835  15.808  -2.280  1.00 20.00     0.008 C 
BRANCH   7   8
HETATM    8  C10 UNL     1     -34.557  15.432  -3.761  1.00 20.00    -0.051 C 
HETATM    9  C3  UNL     1     -35.344  14.146  -4.084  1.00 20.00     0.014 C 
HETATM   10  C4  UNL     1     -35.025  16.543  -4.715  1.00 20.00     0.014 C 
HETATM   11  C5  UNL     1     -33.063  15.160  -3.994  1.00 20.00     0.014 C 
ENDBRANCH   7   8
ENDBRANCH   1   7
TORSDOF 5
ENDMDL
MODEL 6
REMARK VINA RESULT:      -4.2      2.922      5.624
REMARK  5 active torsions:
REMARK  status: ('A' for Active; 'I' for Inactive)
REMARK    1  A    between atoms: C1_1  and  C9_9 
REMARK    2  A    between atoms: C6_6  and  C7_7 
REMARK    3  A    between atoms: C6_6  and  C8_8 
REMARK    4  A    between atoms: C7_7  and  C9_9 
REMARK    5  A    between atoms: C8_8  and  C10_10 
ROOT
HETATM    1  C6  UNL     1     -33.682  16.847  -2.155  1.00 20.00     0.001 C 
ENDROOT
BRANCH   1   2
HETATM    2  C7  UNL     1     -34.128  17.617  -0.907  1.00 20.00     0.011 C 
BRANCH   2   3
HETATM    3  C9  UNL     1     -33.050  18.564  -0.357  1.00 20.00     0.043 C 
HETATM    4  C2  UNL     1     -32.881  18.461   1.156  1.00 20.00     0.017 C 
BRANCH   3   5
HETATM    5  C1  UNL     1     -31.744  18.270  -1.074  1.00 20.00     0.235 C 
HETATM    6  O11 UNL     1     -30.630  18.394  -0.577  1.00 20.00    -0.306 OA
ENDBRANCH   3   5
ENDBRANCH   2   3
ENDBRANCH   1   2
BRANCH   1   7
HETATM    7  C8  UNL     1     -34.693  15.750  -2.514  1.00 20.00     0.008 C 
BRANCH   7   8
HETATM    8  C10 UNL     1     -34.595  15.187  -3.958  1.00 20.00    -0.051 C 
HETATM    9  C3  UNL     1     -33.126  14.799  -4.221  1.00 20.00     0.014 C 
HETATM   10  C4  UNL     1     -35.468  13.933  -4.128  1.00 20.00     0.014 C 
HETATM   11  C5  UNL     1     -35.014  16.241  -4.995  1.00 20.00     0.014 C 
ENDBRANCH   7   8
ENDBRANCH   1   7
TORSDOF 5
ENDMDL
MODEL 7
REMARK VINA RESULT:      -4.2      1.190      2.118
REMARK  5 active torsions:
REMARK  status: ('A' for Active; 'I' for Inactive)
REMARK    1  A    between atoms: C1_1  and  C9_9 
REMARK    2  A    between atoms: C6_6  and  C7_7 
REMARK    3  A    between atoms: C6_6  and  C8_8 
REMARK    4  A    between atoms: C7_7  and  C9_9 
REMARK    5  A    between atoms: C8_8  and  C10_10 
ROOT
HETATM    1  C6  UNL     1     -35.048  17.096  -5.121  1.00 20.00     0.001 C 
ENDROOT
BRANCH   1   2
HETATM    2  C7  UNL     1     -36.404  16.381  -5.096  1.00 20.00     0.011 C 
BRANCH   2   3
HETATM    3  C9  UNL     1     -36.356  14.960  -5.678  1.00 20.00     0.043 C 
HETATM    4  C2  UNL     1     -35.174  14.740  -6.617  1.00 20.00     0.017 C 
BRANCH   3   5
HETATM    5  C1  UNL     1     -36.328  13.971  -4.525  1.00 20.00     0.235 C 
HETATM    6  O11 UNL     1     -35.995  12.795  -4.620  1.00 20.00    -0.306 OA
ENDBRANCH   3   5
ENDBRANCH   2   3
ENDBRANCH   1   2
BRANCH   1   7
HETATM    7  C8  UNL     1     -34.721  17.704  -3.751  1.00 20.00     0.008 C 
BRANCH   7   8
HETATM    8  C10 UNL     1     -33.922  16.792  -2.782  1.00 20.00    -0.051 C 
HETATM    9  C3  UNL     1     -34.923  16.121  -1.820  1.00 20.00     0.014 C 
HETATM   10  C4  UNL     1     -33.168  15.691  -3.546  1.00 20.00     0.014 C 
HETATM   11  C5  UNL     1     -32.919  17.608  -1.950  1.00 20.00     0.014 C 
ENDBRANCH   7   8
ENDBRANCH   1   7
TORSDOF 5
ENDMDL
MODEL 8
REMARK VINA RESULT:      -4.2      1.206      2.030
REMARK  5 active torsions:
REMARK  status: ('A' for Active; 'I' for Inactive)
REMARK    1  A    between atoms: C1_1  and  C9_9 
REMARK    2  A    between atoms: C6_6  and  C7_7 
REMARK    3  A    between atoms: C6_6  and  C8_8 
REMARK    4  A    between atoms: C7_7  and  C9_9 
REMARK    5  A    between atoms: C8_8  and  C10_10 
ROOT
HETATM    1  C6  UNL     1     -35.047  17.130  -5.119  1.00 20.00     0.001 C 
ENDROOT
BRANCH   1   2
HETATM    2  C7  UNL     1     -36.400  16.414  -5.038  1.00 20.00     0.011 C 
BRANCH   2   3
HETATM    3  C9  UNL     1     -36.380  15.000  -5.640  1.00 20.00     0.043 C 
HETATM    4  C2  UNL     1     -35.221  14.779  -6.607  1.00 20.00     0.017 C 
BRANCH   3   5
HETATM    5  C1  UNL     1     -36.339  13.996  -4.501  1.00 20.00     0.235 C 
HETATM    6  O11 UNL     1     -36.020  12.818  -4.618  1.00 20.00    -0.306 OA
ENDBRANCH   3   5
ENDBRANCH   2   3
ENDBRANCH   1   2
BRANCH   1   7
HETATM    7  C8  UNL     1     -34.664  17.736  -3.762  1.00 20.00     0.008 C 
BRANCH   7   8
HETATM    8  C10 UNL     1     -33.930  16.784  -2.780  1.00 20.00    -0.051 C 
HETATM    9  C3  UNL     1     -32.901  17.614  -1.987  1.00 20.00     0.014 C 
HETATM   10  C4  UNL     1     -34.912  16.146  -1.784  1.00 20.00     0.014 C 
HETATM   11  C5  UNL     1     -33.183  15.674  -3.536  1.00 20.00     0.014 C 
ENDBRANCH   7   8
ENDBRANCH   1   7
TORSDOF 5
ENDMDL
MODEL 9
REMARK VINA RESULT:      -4.1      1.606      2.419
REMARK  5 active torsions:
REMARK  status: ('A' for Active; 'I' for Inactive)
REMARK    1  A    between atoms: C1_1  and  C9_9 
REMARK    2  A    between atoms: C6_6  and  C7_7 
REMARK    3  A    between atoms: C6_6  and  C8_8 
REMARK    4  A    between atoms: C7_7  and  C9_9 
REMARK    5  A    between atoms: C8_8  and  C10_10 
ROOT
HETATM    1  C6  UNL     1     -33.763  14.749  -4.039  1.00 20.00     0.001 C 
ENDROOT
BRANCH   1   2
HETATM    2  C7  UNL     1     -34.206  14.922  -5.496  1.00 20.00     0.011 C 
BRANCH   2   3
HETATM    3  C9  UNL     1     -35.673  14.532  -5.738  1.00 20.00     0.043 C 
HETATM    4  C2  UNL     1     -36.281  13.748  -4.579  1.00 20.00     0.017 C 
BRANCH   3   5
HETATM    5  C1  UNL     1     -36.464  15.798  -6.017  1.00 20.00     0.235 C 
HETATM    6  O11 UNL     1     -37.502  15.844  -6.668  1.00 20.00    -0.306 OA
ENDBRANCH   3   5
ENDBRANCH   2   3
ENDBRANCH   1   2
BRANCH   1   7
HETATM    7  C8  UNL     1     -33.101  16.028  -3.510  1.00 20.00     0.008 C 
BRANCH   7   8
HETATM    8  C10 UNL     1     -34.001  16.945  -2.639  1.00 20.00    -0.051 C 
HETATM    9  C3  UNL     1     -33.104  17.653  -1.604  1.00 20.00     0.014 C 
HETATM   10  C4  UNL     1     -34.699  18.015  -3.493  1.00 20.00     0.014 C 
HETATM   11  C5  UNL     1     -35.062  16.127  -1.886  1.00 20.00     0.014 C 
ENDBRANCH   7   8
ENDBRANCH   1   7
TORSDOF 5
ENDMDL
