MODEL 1
REMARK VINA RESULT:      -3.8      0.000      0.000
REMARK  3 active torsions:
REMARK  status: ('A' for Active; 'I' for Inactive)
REMARK    1  A    between atoms: C4_4  and  C9_9 
REMARK    2  A    between atoms: C7_7  and  C8_8 
REMARK    3  A    between atoms: C7_7  and  N10_10 
ROOT
HETATM    1  C1  UNL     1     -38.231  16.696  -3.767  1.00 20.00     0.032 C 
HETATM    2  C2  UNL     1     -36.927  17.114  -3.096  1.00 20.00     0.038 C 
HETATM    3  C3  UNL     1     -37.874  15.480  -4.606  1.00 20.00     0.273 C 
HETATM    4  C4  UNL     1     -35.882  16.105  -3.578  1.00 20.00     0.226 C 
HETATM    5  N10 UNL     1     -36.699  14.933  -3.922  1.00 20.00     0.094 N 
ENDROOT
BRANCH   4   6
HETATM    6  C9  UNL     1     -34.836  15.821  -2.509  1.00 20.00     0.011 C 
HETATM    7  C5  UNL     1     -33.432  16.119  -3.033  1.00 20.00     0.011 C 
HETATM    8  C6  UNL     1     -35.117  16.636  -1.247  1.00 20.00     0.011 C 
ENDBRANCH   4   6
BRANCH   5   9
HETATM    9  C7  UNL     1     -35.998  13.966  -4.759  1.00 20.00     0.287 C 
BRANCH   9  10
HETATM   10  C8  UNL     1     -35.740  14.487  -6.163  1.00 20.00     0.144 C 
HETATM   11 CL11 UNL     1     -34.023  14.902  -6.394  1.00 20.00    -0.129 Cl
ENDBRANCH   9  10
ENDBRANCH   5   9
TORSDOF 3
ENDMDL
MODEL 2
REMARK VINA RESULT:      -3.8     17.305     18.765
REMARK  3 active torsions:
REMARK  status: ('A' for Active; 'I' for Inactive)
REMARK    1  A    between atoms: C4_4  and  C9_9 
REMARK    2  A    between atoms: C7_7  and  C8_8 
REMARK    3  A    between atoms: C7_7  and  N10_10 
ROOT
HETATM    1  C1  UNL     1     -24.451  15.810  11.578  1.00 20.00     0.032 C 
HETATM    2  C2  UNL     1     -23.543  16.695  10.731  1.00 20.00     0.038 C 
HETATM    3  C3  UNL     1     -25.465  16.757  12.197  1.00 20.00     0.273 C 
HETATM    4  C4  UNL     1     -24.091  18.114  10.899  1.00 20.00     0.226 C 
HETATM    5  N10 UNL     1     -25.497  17.878  11.254  1.00 20.00     0.094 N 
ENDROOT
BRANCH   4   6
HETATM    6  C9  UNL     1     -23.917  18.940   9.631  1.00 20.00     0.011 C 
HETATM    7  C5  UNL     1     -22.521  18.741   9.043  1.00 20.00     0.011 C 
HETATM    8  C6  UNL     1     -24.986  18.579   8.600  1.00 20.00     0.011 C 
ENDBRANCH   4   6
BRANCH   5   9
HETATM    9  C7  UNL     1     -26.150  19.045  11.835  1.00 20.00     0.287 C 
BRANCH   9  10
HETATM   10  C8  UNL     1     -27.551  19.263  11.290  1.00 20.00     0.144 C 
HETATM   11 CL11 UNL     1     -28.713  18.124  12.017  1.00 20.00    -0.129 Cl
ENDBRANCH   9  10
ENDBRANCH   5   9
TORSDOF 3
ENDMDL
MODEL 3
REMARK VINA RESULT:      -3.7      3.722      5.158
REMARK  3 active torsions:
REMARK  status: ('A' for Active; 'I' for Inactive)
REMARK    1  A    between atoms: C4_4  and  C9_9 
REMARK    2  A    between atoms: C7_7  and  C8_8 
REMARK    3  A    between atoms: C7_7  and  N10_10 
ROOT
HETATM    1  C1  UNL     1     -35.438  17.050  -0.809  1.00 20.00     0.032 C 
HETATM    2  C2  UNL     1     -35.043  16.128  -1.958  1.00 20.00     0.038 C 
HETATM    3  C3  UNL     1     -34.205  17.895  -0.535  1.00 20.00     0.273 C 
HETATM    4  C4  UNL     1     -33.597  16.498  -2.295  1.00 20.00     0.226 C 
HETATM    5  N10 UNL     1     -33.499  17.885  -1.819  1.00 20.00     0.094 N 
ENDROOT
BRANCH   4   6
HETATM    6  C9  UNL     1     -33.307  16.347  -3.782  1.00 20.00     0.011 C 
HETATM    7  C5  UNL     1     -33.347  14.876  -4.194  1.00 20.00     0.011 C 
HETATM    8  C6  UNL     1     -34.300  17.161  -4.612  1.00 20.00     0.011 C 
ENDBRANCH   4   6
BRANCH   5   9
HETATM    9  C7  UNL     1     -32.125  18.351  -1.675  1.00 20.00     0.287 C 
BRANCH   9  10
HETATM   10  C8  UNL     1     -31.882  19.054  -0.350  1.00 20.00     0.144 C 
HETATM   11 CL11 UNL     1     -30.711  18.160   0.652  1.00 20.00    -0.129 Cl
ENDBRANCH   9  10
ENDBRANCH   5   9
TORSDOF 3
ENDMDL
MODEL 4
REMARK VINA RESULT:      -3.7     11.611     12.497
REMARK  3 active torsions:
REMARK  status: ('A' for Active; 'I' for Inactive)
REMARK    1  A    between atoms: C4_4  and  C9_9 
REMARK    2  A    between atoms: C7_7  and  C8_8 
REMARK    3  A    between atoms: C7_7  and  N10_10 
ROOT
HETATM    1  C1  UNL     1     -33.449   4.012   2.689  1.00 20.00     0.032 C 
HETATM    2  C2  UNL     1     -34.397   4.400   3.818  1.00 20.00     0.038 C 
HETATM    3  C3  UNL     1     -32.918   5.328   2.145  1.00 20.00     0.273 C 
HETATM    4  C4  UNL     1     -34.355   5.929   3.874  1.00 20.00     0.226 C 
HETATM    5  N10 UNL     1     -33.044   6.238   3.286  1.00 20.00     0.094 N 
ENDROOT
BRANCH   4   6
HETATM    6  C9  UNL     1     -34.518   6.447   5.296  1.00 20.00     0.011 C 
HETATM    7  C5  UNL     1     -34.868   5.306   6.251  1.00 20.00     0.011 C 
HETATM    8  C6  UNL     1     -33.248   7.160   5.761  1.00 20.00     0.011 C 
ENDBRANCH   4   6
BRANCH   5   9
HETATM    9  C7  UNL     1     -32.909   7.630   2.875  1.00 20.00     0.287 C 
BRANCH   9  10
HETATM   10  C8  UNL     1     -32.456   7.772   1.431  1.00 20.00     0.144 C 
HETATM   11 CL11 UNL     1     -32.977   9.328   0.739  1.00 20.00    -0.129 Cl
ENDBRANCH   9  10
ENDBRANCH   5   9
TORSDOF 3
ENDMDL
MODEL 5
REMARK VINA RESULT:      -3.5      1.552      2.896
REMARK  3 active torsions:
REMARK  status: ('A' for Active; 'I' for Inactive)
REMARK    1  A    between atoms: C4_4  and  C9_9 
REMARK    2  A    between atoms: C7_7  and  C8_8 
REMARK    3  A    between atoms: C7_7  and  N10_10 
ROOT
HETATM    1  C1  UNL     1     -36.119  13.611  -4.591  1.00 20.00     0.032 C 
HETATM    2  C2  UNL     1     -34.973  14.164  -3.752  1.00 20.00     0.038 C 
HETATM    3  C3  UNL     1     -37.260  14.598  -4.406  1.00 20.00     0.273 C 
HETATM    4  C4  UNL     1     -35.512  15.455  -3.131  1.00 20.00     0.226 C 
HETATM    5  N10 UNL     1     -36.572  15.847  -4.070  1.00 20.00     0.094 N 
ENDROOT
BRANCH   4   6
HETATM    6  C9  UNL     1     -34.422  16.507  -2.977  1.00 20.00     0.011 C 
HETATM    7  C5  UNL     1     -34.342  16.995  -1.531  1.00 20.00     0.011 C 
HETATM    8  C6  UNL     1     -33.070  15.954  -3.428  1.00 20.00     0.011 C 
ENDBRANCH   4   6
BRANCH   5   9
HETATM    9  C7  UNL     1     -37.496  16.832  -3.520  1.00 20.00     0.287 C 
BRANCH   9  10
HETATM   10  C8  UNL     1     -37.552  18.106  -4.347  1.00 20.00     0.144 C 
HETATM   11 CL11 UNL     1     -36.346  18.081  -5.658  1.00 20.00    -0.129 Cl
ENDBRANCH   9  10
ENDBRANCH   5   9
TORSDOF 3
ENDMDL
MODEL 6
REMARK VINA RESULT:      -3.5      2.635      4.047
REMARK  3 active torsions:
REMARK  status: ('A' for Active; 'I' for Inactive)
REMARK    1  A    between atoms: C4_4  and  C9_9 
REMARK    2  A    between atoms: C7_7  and  C8_8 
REMARK    3  A    between atoms: C7_7  and  N10_10 
ROOT
HETATM    1  C1  UNL     1     -36.182  13.684  -4.836  1.00 20.00     0.032 C 
HETATM    2  C2  UNL     1     -35.872  14.511  -6.078  1.00 20.00     0.038 C 
HETATM    3  C3  UNL     1     -35.008  13.916  -3.899  1.00 20.00     0.273 C 
HETATM    4  C4  UNL     1     -34.532  15.190  -5.787  1.00 20.00     0.226 C 
HETATM    5  N10 UNL     1     -34.498  15.224  -4.319  1.00 20.00     0.094 N 
ENDROOT
BRANCH   4   6
HETATM    6  C9  UNL     1     -34.447  16.570  -6.426  1.00 20.00     0.011 C 
HETATM    7  C5  UNL     1     -34.130  16.457  -7.917  1.00 20.00     0.011 C 
HETATM    8  C6  UNL     1     -35.748  17.344  -6.215  1.00 20.00     0.011 C 
ENDBRANCH   4   6
BRANCH   5   9
HETATM    9  C7  UNL     1     -33.168  15.476  -3.777  1.00 20.00     0.287 C 
BRANCH   9  10
HETATM   10  C8  UNL     1     -33.142  16.651  -2.814  1.00 20.00     0.144 C 
HETATM   11 CL11 UNL     1     -34.536  16.609  -1.704  1.00 20.00    -0.129 Cl
ENDBRANCH   9  10
ENDBRANCH   5   9
TORSDOF 3
ENDMDL
MODEL 7
REMARK VINA RESULT:      -3.5      2.141      2.427
REMARK  3 active torsions:
REMARK  status: ('A' for Active; 'I' for Inactive)
REMARK    1  A    between atoms: C4_4  and  C9_9 
REMARK    2  A    between atoms: C7_7  and  C8_8 
REMARK    3  A    between atoms: C7_7  and  N10_10 
ROOT
HETATM    1  C1  UNL     1     -35.515  18.237  -5.554  1.00 20.00     0.032 C 
HETATM    2  C2  UNL     1     -34.489  18.107  -4.433  1.00 20.00     0.038 C 
HETATM    3  C3  UNL     1     -35.731  16.820  -6.061  1.00 20.00     0.273 C 
HETATM    4  C4  UNL     1     -34.173  16.612  -4.345  1.00 20.00     0.226 C 
HETATM    5  N10 UNL     1     -35.383  15.992  -4.903  1.00 20.00     0.094 N 
ENDROOT
BRANCH   4   6
HETATM    6  C9  UNL     1     -33.878  16.181  -2.914  1.00 20.00     0.011 C 
HETATM    7  C5  UNL     1     -32.870  17.126  -2.262  1.00 20.00     0.011 C 
HETATM    8  C6  UNL     1     -35.164  16.122  -2.091  1.00 20.00     0.011 C 
ENDBRANCH   4   6
BRANCH   5   9
HETATM    9  C7  UNL     1     -35.195  14.598  -5.283  1.00 20.00     0.287 C 
BRANCH   9  10
HETATM   10  C8  UNL     1     -36.209  13.672  -4.632  1.00 20.00     0.144 C 
HETATM   11 CL11 UNL     1     -37.720  14.535  -4.247  1.00 20.00    -0.129 Cl
ENDBRANCH   9  10
ENDBRANCH   5   9
TORSDOF 3
ENDMDL
MODEL 8
REMARK VINA RESULT:      -3.5      2.139      3.270
REMARK  3 active torsions:
REMARK  status: ('A' for Active; 'I' for Inactive)
REMARK    1  A    between atoms: C4_4  and  C9_9 
REMARK    2  A    between atoms: C7_7  and  C8_8 
REMARK    3  A    between atoms: C7_7  and  N10_10 
ROOT
HETATM    1  C1  UNL     1     -33.561  14.763  -5.238  1.00 20.00     0.032 C 
HETATM    2  C2  UNL     1     -33.292  15.285  -3.831  1.00 20.00     0.038 C 
HETATM    3  C3  UNL     1     -35.059  14.921  -5.442  1.00 20.00     0.273 C 
HETATM    4  C4  UNL     1     -34.656  15.728  -3.297  1.00 20.00     0.226 C 
HETATM    5  N10 UNL     1     -35.409  16.010  -4.526  1.00 20.00     0.094 N 
ENDROOT
BRANCH   4   6
HETATM    6  C9  UNL     1     -34.536  16.932  -2.372  1.00 20.00     0.011 C 
HETATM    7  C5  UNL     1     -35.168  16.634  -1.012  1.00 20.00     0.011 C 
HETATM    8  C6  UNL     1     -33.072  17.339  -2.201  1.00 20.00     0.011 C 
ENDBRANCH   4   6
BRANCH   5   9
HETATM    9  C7  UNL     1     -36.850  16.087  -4.317  1.00 20.00     0.287 C 
BRANCH   9  10
HETATM   10  C8  UNL     1     -37.492  14.719  -4.165  1.00 20.00     0.144 C 
HETATM   11 CL11 UNL     1     -39.269  14.825  -4.242  1.00 20.00    -0.129 Cl
ENDBRANCH   9  10
ENDBRANCH   5   9
TORSDOF 3
ENDMDL
MODEL 9
REMARK VINA RESULT:      -3.4      1.994      3.097
REMARK  3 active torsions:
REMARK  status: ('A' for Active; 'I' for Inactive)
REMARK    1  A    between atoms: C4_4  and  C9_9 
REMARK    2  A    between atoms: C7_7  and  C8_8 
REMARK    3  A    between atoms: C7_7  and  N10_10 
ROOT
HETATM    1  C1  UNL     1     -35.412  16.780  -1.507  1.00 20.00     0.032 C 
HETATM    2  C2  UNL     1     -34.373  16.001  -2.306  1.00 20.00     0.038 C 
HETATM    3  C3  UNL     1     -36.380  17.329  -2.542  1.00 20.00     0.273 C 
HETATM    4  C4  UNL     1     -34.803  16.135  -3.768  1.00 20.00     0.226 C 
HETATM    5  N10 UNL     1     -36.246  16.390  -3.659  1.00 20.00     0.094 N 
ENDROOT
BRANCH   4   6
HETATM    6  C9  UNL     1     -34.469  14.885  -4.572  1.00 20.00     0.011 C 
HETATM    7  C5  UNL     1     -32.980  14.559  -4.470  1.00 20.00     0.011 C 
HETATM    8  C6  UNL     1     -35.308  13.698  -4.099  1.00 20.00     0.011 C 
ENDBRANCH   4   6
BRANCH   5   9
HETATM    9  C7  UNL     1     -36.832  16.928  -4.880  1.00 20.00     0.287 C 
BRANCH   9  10
HETATM   10  C8  UNL     1     -38.010  16.106  -5.375  1.00 20.00     0.144 C 
HETATM   11 CL11 UNL     1     -38.576  14.968  -4.126  1.00 20.00    -0.129 Cl
ENDBRANCH   9  10
ENDBRANCH   5   9
TORSDOF 3
ENDMDL
