MODEL 1
REMARK VINA RESULT:      -4.5      0.000      0.000
REMARK  2 active torsions:
REMARK  status: ('A' for Active; 'I' for Inactive)
REMARK    1  A    between atoms: C6_6  and  C7_7 
REMARK    2  A    between atoms: C7_7  and  N8_8 
ROOT
HETATM    1  C1  UNL     1     -32.647   8.046   1.074  1.00 20.00     0.157 C 
HETATM    2  N8  UNL     1     -32.286   7.145   1.741  1.00 20.00    -0.274 NA
HETATM    3  S9  UNL     1     -33.134   9.251   0.154  1.00 20.00    -0.055 SA
ENDROOT
BRANCH   2   4
HETATM    4  C7  UNL     1     -32.153   7.442   3.163  1.00 20.00     0.165 C 
BRANCH   4   5
HETATM    5  C6  UNL     1     -33.394   6.925   3.887  1.00 20.00     0.067 C 
HETATM    6  C4  UNL     1     -33.197   6.961   5.405  1.00 20.00     0.017 C 
HETATM    7  C2  UNL     1     -34.429   6.498   6.181  1.00 20.00     0.002 C 
HETATM    8  C3  UNL     1     -34.831   5.063   5.855  1.00 20.00     0.010 C 
HETATM    9  C5  UNL     1     -35.165   4.858   4.383  1.00 20.00     0.074 C 
HETATM   10  S10 UNL     1     -33.747   5.227   3.313  1.00 20.00    -0.163 SA
ENDBRANCH   4   5
ENDBRANCH   2   4
TORSDOF 2
ENDMDL
MODEL 2
REMARK VINA RESULT:      -4.0     11.451     12.205
REMARK  2 active torsions:
REMARK  status: ('A' for Active; 'I' for Inactive)
REMARK    1  A    between atoms: C6_6  and  C7_7 
REMARK    2  A    between atoms: C7_7  and  N8_8 
ROOT
HETATM    1  C1  UNL     1     -38.901  14.764  -4.254  1.00 20.00     0.157 C 
HETATM    2  N8  UNL     1     -37.949  14.071  -4.274  1.00 20.00    -0.274 NA
HETATM    3  S9  UNL     1     -40.198  15.687  -4.213  1.00 20.00    -0.055 SA
ENDROOT
BRANCH   2   4
HETATM    4  C7  UNL     1     -36.847  14.557  -5.096  1.00 20.00     0.165 C 
BRANCH   4   5
HETATM    5  C6  UNL     1     -35.605  14.691  -4.218  1.00 20.00     0.067 C 
HETATM    6  C4  UNL     1     -35.772  15.825  -3.204  1.00 20.00     0.017 C 
HETATM    7  C2  UNL     1     -34.574  15.972  -2.266  1.00 20.00     0.002 C 
HETATM    8  C3  UNL     1     -33.275  16.273  -3.006  1.00 20.00     0.010 C 
HETATM    9  C5  UNL     1     -32.892  15.187  -4.003  1.00 20.00     0.074 C 
HETATM   10  S10 UNL     1     -34.154  14.979  -5.290  1.00 20.00    -0.163 SA
ENDBRANCH   4   5
ENDBRANCH   2   4
TORSDOF 2
ENDMDL
MODEL 3
REMARK VINA RESULT:      -3.9     11.794     12.409
REMARK  2 active torsions:
REMARK  status: ('A' for Active; 'I' for Inactive)
REMARK    1  A    between atoms: C6_6  and  C7_7 
REMARK    2  A    between atoms: C7_7  and  N8_8 
ROOT
HETATM    1  C1  UNL     1     -31.044  18.563   0.561  1.00 20.00     0.157 C 
HETATM    2  N8  UNL     1     -30.752  18.519  -0.579  1.00 20.00    -0.274 NA
HETATM    3  S9  UNL     1     -31.416  18.618   2.108  1.00 20.00    -0.055 SA
ENDROOT
BRANCH   2   4
HETATM    4  C7  UNL     1     -31.833  18.832  -1.507  1.00 20.00     0.165 C 
BRANCH   4   5
HETATM    5  C6  UNL     1     -32.881  17.725  -1.426  1.00 20.00     0.067 C 
HETATM    6  C4  UNL     1     -33.018  17.001  -2.767  1.00 20.00     0.017 C 
HETATM    7  C2  UNL     1     -34.023  15.850  -2.728  1.00 20.00     0.002 C 
HETATM    8  C3  UNL     1     -35.432  16.305  -2.364  1.00 20.00     0.010 C 
HETATM    9  C5  UNL     1     -35.508  16.970  -0.996  1.00 20.00     0.074 C 
HETATM   10  S10 UNL     1     -34.474  18.459  -0.912  1.00 20.00    -0.163 SA
ENDBRANCH   4   5
ENDBRANCH   2   4
TORSDOF 2
ENDMDL
MODEL 4
REMARK VINA RESULT:      -3.6     11.595     12.087
REMARK  2 active torsions:
REMARK  status: ('A' for Active; 'I' for Inactive)
REMARK    1  A    between atoms: C6_6  and  C7_7 
REMARK    2  A    between atoms: C7_7  and  N8_8 
ROOT
HETATM    1  C1  UNL     1     -31.868  18.182  -0.901  1.00 20.00     0.157 C 
HETATM    2  N8  UNL     1     -32.472  17.802  -1.839  1.00 20.00    -0.274 NA
HETATM    3  S9  UNL     1     -31.034  18.699   0.353  1.00 20.00    -0.055 SA
ENDROOT
BRANCH   2   4
HETATM    4  C7  UNL     1     -33.863  17.452  -1.578  1.00 20.00     0.165 C 
BRANCH   4   5
HETATM    5  C6  UNL     1     -34.202  16.186  -2.361  1.00 20.00     0.067 C 
HETATM    6  C4  UNL     1     -33.178  15.938  -3.471  1.00 20.00     0.017 C 
HETATM    7  C2  UNL     1     -33.443  14.655  -4.257  1.00 20.00     0.002 C 
HETATM    8  C3  UNL     1     -34.804  14.652  -4.948  1.00 20.00     0.010 C 
HETATM    9  C5  UNL     1     -35.966  14.792  -3.974  1.00 20.00     0.074 C 
HETATM   10  S10 UNL     1     -35.886  16.351  -3.048  1.00 20.00    -0.163 SA
ENDBRANCH   4   5
ENDBRANCH   2   4
TORSDOF 2
ENDMDL
MODEL 5
REMARK VINA RESULT:      -3.6     15.075     16.108
REMARK  2 active torsions:
REMARK  status: ('A' for Active; 'I' for Inactive)
REMARK    1  A    between atoms: C6_6  and  C7_7 
REMARK    2  A    between atoms: C7_7  and  N8_8 
ROOT
HETATM    1  C1  UNL     1     -28.658  17.653  12.122  1.00 20.00     0.157 C 
HETATM    2  N8  UNL     1     -27.504  17.760  12.331  1.00 20.00    -0.274 NA
HETATM    3  S9  UNL     1     -30.218  17.491  11.853  1.00 20.00    -0.055 SA
ENDROOT
BRANCH   2   4
HETATM    4  C7  UNL     1     -26.855  18.883  11.664  1.00 20.00     0.165 C 
BRANCH   4   5
HETATM    5  C6  UNL     1     -25.382  18.543  11.456  1.00 20.00     0.067 C 
HETATM    6  C4  UNL     1     -24.991  18.681   9.983  1.00 20.00     0.017 C 
HETATM    7  C2  UNL     1     -23.511  18.397   9.726  1.00 20.00     0.002 C 
HETATM    8  C3  UNL     1     -23.100  16.984  10.127  1.00 20.00     0.010 C 
HETATM    9  C5  UNL     1     -23.328  16.694  11.604  1.00 20.00     0.074 C 
HETATM   10  S10 UNL     1     -25.079  16.844  12.058  1.00 20.00    -0.163 SA
ENDBRANCH   4   5
ENDBRANCH   2   4
TORSDOF 2
ENDMDL
MODEL 6
REMARK VINA RESULT:      -3.6     11.473     12.272
REMARK  2 active torsions:
REMARK  status: ('A' for Active; 'I' for Inactive)
REMARK    1  A    between atoms: C6_6  and  C7_7 
REMARK    2  A    between atoms: C7_7  and  N8_8 
ROOT
HETATM    1  C1  UNL     1     -33.654  18.009   2.164  1.00 20.00     0.157 C 
HETATM    2  N8  UNL     1     -34.401  17.792   1.279  1.00 20.00    -0.274 NA
HETATM    3  S9  UNL     1     -32.650  18.282   3.369  1.00 20.00    -0.055 SA
ENDROOT
BRANCH   2   4
HETATM    4  C7  UNL     1     -34.441  18.813   0.238  1.00 20.00     0.165 C 
BRANCH   4   5
HETATM    5  C6  UNL     1     -34.457  18.121  -1.122  1.00 20.00     0.067 C 
HETATM    6  C4  UNL     1     -35.141  16.755  -1.034  1.00 20.00     0.017 C 
HETATM    7  C2  UNL     1     -35.227  16.038  -2.381  1.00 20.00     0.002 C 
HETATM    8  C3  UNL     1     -33.859  15.771  -3.000  1.00 20.00     0.010 C 
HETATM    9  C5  UNL     1     -33.063  17.044  -3.255  1.00 20.00     0.074 C 
HETATM   10  S10 UNL     1     -32.739  17.956  -1.720  1.00 20.00    -0.163 SA
ENDBRANCH   4   5
ENDBRANCH   2   4
TORSDOF 2
ENDMDL
MODEL 7
REMARK VINA RESULT:      -3.5     11.625     12.639
REMARK  2 active torsions:
REMARK  status: ('A' for Active; 'I' for Inactive)
REMARK    1  A    between atoms: C6_6  and  C7_7 
REMARK    2  A    between atoms: C7_7  and  N8_8 
ROOT
HETATM    1  C1  UNL     1     -38.139  14.545  -4.216  1.00 20.00     0.157 C 
HETATM    2  N8  UNL     1     -37.092  14.008  -4.157  1.00 20.00    -0.274 NA
HETATM    3  S9  UNL     1     -39.559  15.262  -4.275  1.00 20.00    -0.055 SA
ENDROOT
BRANCH   2   4
HETATM    4  C7  UNL     1     -36.215  14.235  -5.299  1.00 20.00     0.165 C 
BRANCH   4   5
HETATM    5  C6  UNL     1     -35.085  15.167  -4.869  1.00 20.00     0.067 C 
HETATM    6  C4  UNL     1     -34.824  15.053  -3.365  1.00 20.00     0.017 C 
HETATM    7  C2  UNL     1     -33.669  15.931  -2.888  1.00 20.00     0.002 C 
HETATM    8  C3  UNL     1     -33.903  17.416  -3.151  1.00 20.00     0.010 C 
HETATM    9  C5  UNL     1     -34.088  17.736  -4.628  1.00 20.00     0.074 C 
HETATM   10  S10 UNL     1     -35.525  16.879  -5.329  1.00 20.00    -0.163 SA
ENDBRANCH   4   5
ENDBRANCH   2   4
TORSDOF 2
ENDMDL
MODEL 8
REMARK VINA RESULT:      -3.5      9.881     10.912
REMARK  2 active torsions:
REMARK  status: ('A' for Active; 'I' for Inactive)
REMARK    1  A    between atoms: C6_6  and  C7_7 
REMARK    2  A    between atoms: C7_7  and  N8_8 
ROOT
HETATM    1  C1  UNL     1     -42.291   2.722  -3.341  1.00 20.00     0.157 C 
HETATM    2  N8  UNL     1     -42.155   3.673  -2.660  1.00 20.00    -0.274 NA
HETATM    3  S9  UNL     1     -42.452   1.439  -4.269  1.00 20.00    -0.055 SA
ENDROOT
BRANCH   2   4
HETATM    4  C7  UNL     1     -43.336   4.061  -1.897  1.00 20.00     0.165 C 
BRANCH   4   5
HETATM    5  C6  UNL     1     -43.065   5.406  -1.227  1.00 20.00     0.067 C 
HETATM    6  C4  UNL     1     -41.621   5.854  -1.466  1.00 20.00     0.017 C 
HETATM    7  C2  UNL     1     -41.308   7.220  -0.855  1.00 20.00     0.002 C 
HETATM    8  C3  UNL     1     -41.502   7.252   0.657  1.00 20.00     0.010 C 
HETATM    9  C5  UNL     1     -42.927   6.923   1.082  1.00 20.00     0.074 C 
HETATM   10  S10 UNL     1     -43.417   5.256   0.559  1.00 20.00    -0.163 SA
ENDBRANCH   4   5
ENDBRANCH   2   4
TORSDOF 2
ENDMDL
MODEL 9
REMARK VINA RESULT:      -3.5     11.593     12.552
REMARK  2 active torsions:
REMARK  status: ('A' for Active; 'I' for Inactive)
REMARK    1  A    between atoms: C6_6  and  C7_7 
REMARK    2  A    between atoms: C7_7  and  N8_8 
ROOT
HETATM    1  C1  UNL     1     -35.839  15.235  -7.089  1.00 20.00     0.157 C 
HETATM    2  N8  UNL     1     -35.863  14.221  -6.491  1.00 20.00    -0.274 NA
HETATM    3  S9  UNL     1     -35.801  16.594  -7.917  1.00 20.00    -0.055 SA
ENDROOT
BRANCH   2   4
HETATM    4  C7  UNL     1     -36.318  14.328  -5.110  1.00 20.00     0.165 C 
BRANCH   4   5
HETATM    5  C6  UNL     1     -35.542  15.451  -4.426  1.00 20.00     0.067 C 
HETATM    6  C4  UNL     1     -34.418  14.887  -3.554  1.00 20.00     0.017 C 
HETATM    7  C2  UNL     1     -33.578  15.972  -2.881  1.00 20.00     0.002 C 
HETATM    8  C3  UNL     1     -34.396  16.872  -1.961  1.00 20.00     0.010 C 
HETATM    9  C5  UNL     1     -35.517  17.603  -2.687  1.00 20.00     0.074 C 
HETATM   10  S10 UNL     1     -36.704  16.450  -3.431  1.00 20.00    -0.163 SA
ENDBRANCH   4   5
ENDBRANCH   2   4
TORSDOF 2
ENDMDL
