MODEL 1
REMARK VINA RESULT:      -4.0      0.000      0.000
REMARK  2 active torsions:
REMARK  status: ('A' for Active; 'I' for Inactive)
REMARK    1  A    between atoms: C6_6  and  C7_7 
REMARK    2  A    between atoms: C7_7  and  N8_8 
ROOT
HETATM    1  C1  UNL     1     -38.471  14.700  -4.275  1.00 20.00     0.157 C 
HETATM    2  N8  UNL     1     -37.633  13.878  -4.360  1.00 20.00    -0.274 NA
HETATM    3  S9  UNL     1     -39.617  15.798  -4.147  1.00 20.00    -0.055 SA
ENDROOT
BRANCH   2   4
HETATM    4  C7  UNL     1     -36.449  14.275  -5.116  1.00 20.00     0.165 C 
BRANCH   4   5
HETATM    5  C6  UNL     1     -35.760  15.419  -4.379  1.00 20.00     0.067 C 
HETATM    6  C4  UNL     1     -34.856  14.884  -3.265  1.00 20.00     0.017 C 
HETATM    7  C2  UNL     1     -34.174  15.991  -2.462  1.00 20.00     0.002 C 
HETATM    8  C3  UNL     1     -33.283  16.884  -3.320  1.00 20.00     0.010 C 
HETATM    9  C5  UNL     1     -34.043  17.587  -4.437  1.00 20.00     0.074 C 
HETATM   10  S10 UNL     1     -34.803  16.404  -5.583  1.00 20.00    -0.163 SA
ENDBRANCH   4   5
ENDBRANCH   2   4
TORSDOF 2
ENDMDL
MODEL 2
REMARK VINA RESULT:      -3.9      1.250      1.545
REMARK  2 active torsions:
REMARK  status: ('A' for Active; 'I' for Inactive)
REMARK    1  A    between atoms: C6_6  and  C7_7 
REMARK    2  A    between atoms: C7_7  and  N8_8 
ROOT
HETATM    1  C1  UNL     1     -38.930  14.748  -4.192  1.00 20.00     0.157 C 
HETATM    2  N8  UNL     1     -37.970  14.084  -4.339  1.00 20.00    -0.274 NA
HETATM    3  S9  UNL     1     -40.241  15.627  -3.980  1.00 20.00    -0.055 SA
ENDROOT
BRANCH   2   4
HETATM    4  C7  UNL     1     -36.885  14.721  -5.081  1.00 20.00     0.165 C 
BRANCH   4   5
HETATM    5  C6  UNL     1     -35.668  14.831  -4.168  1.00 20.00     0.067 C 
HETATM    6  C4  UNL     1     -34.373  14.855  -4.984  1.00 20.00     0.017 C 
HETATM    7  C2  UNL     1     -33.117  14.918  -4.116  1.00 20.00     0.002 C 
HETATM    8  C3  UNL     1     -33.068  16.161  -3.233  1.00 20.00     0.010 C 
HETATM    9  C5  UNL     1     -34.244  16.255  -2.272  1.00 20.00     0.074 C 
HETATM   10  S10 UNL     1     -35.829  16.339  -3.151  1.00 20.00    -0.163 SA
ENDBRANCH   4   5
ENDBRANCH   2   4
TORSDOF 2
ENDMDL
MODEL 3
REMARK VINA RESULT:      -3.8     16.285     17.877
REMARK  2 active torsions:
REMARK  status: ('A' for Active; 'I' for Inactive)
REMARK    1  A    between atoms: C6_6  and  C7_7 
REMARK    2  A    between atoms: C7_7  and  N8_8 
ROOT
HETATM    1  C1  UNL     1     -25.905  19.033   6.678  1.00 20.00     0.157 C 
HETATM    2  N8  UNL     1     -25.733  18.895   7.834  1.00 20.00    -0.274 NA
HETATM    3  S9  UNL     1     -26.162  19.218   5.117  1.00 20.00    -0.055 SA
ENDROOT
BRANCH   2   4
HETATM    4  C7  UNL     1     -24.335  18.876   8.254  1.00 20.00     0.165 C 
BRANCH   4   5
HETATM    5  C6  UNL     1     -24.280  18.604   9.755  1.00 20.00     0.067 C 
HETATM    6  C4  UNL     1     -25.614  18.950  10.422  1.00 20.00     0.017 C 
HETATM    7  C2  UNL     1     -25.600  18.739  11.935  1.00 20.00     0.002 C 
HETATM    8  C3  UNL     1     -25.306  17.295  12.331  1.00 20.00     0.010 C 
HETATM    9  C5  UNL     1     -23.956  16.804  11.830  1.00 20.00     0.074 C 
HETATM   10  S10 UNL     1     -23.852  16.848  10.019  1.00 20.00    -0.163 SA
ENDBRANCH   4   5
ENDBRANCH   2   4
TORSDOF 2
ENDMDL
MODEL 4
REMARK VINA RESULT:      -3.7     11.545     12.596
REMARK  2 active torsions:
REMARK  status: ('A' for Active; 'I' for Inactive)
REMARK    1  A    between atoms: C6_6  and  C7_7 
REMARK    2  A    between atoms: C7_7  and  N8_8 
ROOT
HETATM    1  C1  UNL     1     -32.643   8.075   1.126  1.00 20.00     0.157 C 
HETATM    2  N8  UNL     1     -32.234   7.246   1.854  1.00 20.00    -0.274 NA
HETATM    3  S9  UNL     1     -33.193   9.183   0.122  1.00 20.00    -0.055 SA
ENDROOT
BRANCH   2   4
HETATM    4  C7  UNL     1     -32.194   7.623   3.263  1.00 20.00     0.165 C 
BRANCH   4   5
HETATM    5  C6  UNL     1     -32.825   6.504   4.087  1.00 20.00     0.067 C 
HETATM    6  C4  UNL     1     -33.794   7.073   5.127  1.00 20.00     0.017 C 
HETATM    7  C2  UNL     1     -34.422   5.997   6.012  1.00 20.00     0.002 C 
HETATM    8  C3  UNL     1     -35.226   4.971   5.220  1.00 20.00     0.010 C 
HETATM    9  C5  UNL     1     -34.390   4.226   4.190  1.00 20.00     0.074 C 
HETATM   10  S10 UNL     1     -33.679   5.351   2.957  1.00 20.00    -0.163 SA
ENDBRANCH   4   5
ENDBRANCH   2   4
TORSDOF 2
ENDMDL
MODEL 5
REMARK VINA RESULT:      -3.7      4.763      6.535
REMARK  2 active torsions:
REMARK  status: ('A' for Active; 'I' for Inactive)
REMARK    1  A    between atoms: C6_6  and  C7_7 
REMARK    2  A    between atoms: C7_7  and  N8_8 
ROOT
HETATM    1  C1  UNL     1     -30.862  18.756   0.605  1.00 20.00     0.157 C 
HETATM    2  N8  UNL     1     -30.770  18.481  -0.535  1.00 20.00    -0.274 NA
HETATM    3  S9  UNL     1     -30.966  19.120   2.153  1.00 20.00    -0.055 SA
ENDROOT
BRANCH   2   4
HETATM    4  C7  UNL     1     -31.924  18.836  -1.354  1.00 20.00     0.165 C 
BRANCH   4   5
HETATM    5  C6  UNL     1     -32.879  17.647  -1.394  1.00 20.00     0.067 C 
HETATM    6  C4  UNL     1     -34.259  18.036  -0.857  1.00 20.00     0.017 C 
HETATM    7  C2  UNL     1     -35.244  16.869  -0.831  1.00 20.00     0.002 C 
HETATM    8  C3  UNL     1     -35.496  16.273  -2.213  1.00 20.00     0.010 C 
HETATM    9  C5  UNL     1     -34.231  15.737  -2.869  1.00 20.00     0.074 C 
HETATM   10  S10 UNL     1     -32.993  17.041  -3.113  1.00 20.00    -0.163 SA
ENDBRANCH   4   5
ENDBRANCH   2   4
TORSDOF 2
ENDMDL
MODEL 6
REMARK VINA RESULT:      -3.7     11.095     12.466
REMARK  2 active torsions:
REMARK  status: ('A' for Active; 'I' for Inactive)
REMARK    1  A    between atoms: C6_6  and  C7_7 
REMARK    2  A    between atoms: C7_7  and  N8_8 
ROOT
HETATM    1  C1  UNL     1     -42.279   3.400  -2.794  1.00 20.00     0.157 C 
HETATM    2  N8  UNL     1     -42.411   4.273  -2.015  1.00 20.00    -0.274 NA
HETATM    3  S9  UNL     1     -42.125   2.219  -3.850  1.00 20.00    -0.055 SA
ENDROOT
BRANCH   2   4
HETATM    4  C7  UNL     1     -41.169   4.808  -1.468  1.00 20.00     0.165 C 
BRANCH   4   5
HETATM    5  C6  UNL     1     -41.508   5.937  -0.498  1.00 20.00     0.067 C 
HETATM    6  C4  UNL     1     -41.243   7.303  -1.136  1.00 20.00     0.017 C 
HETATM    7  C2  UNL     1     -41.523   8.471  -0.192  1.00 20.00     0.002 C 
HETATM    8  C3  UNL     1     -42.971   8.515   0.285  1.00 20.00     0.010 C 
HETATM    9  C5  UNL     1     -43.389   7.260   1.038  1.00 20.00     0.074 C 
HETATM   10  S10 UNL     1     -43.257   5.776   0.003  1.00 20.00    -0.163 SA
ENDBRANCH   4   5
ENDBRANCH   2   4
TORSDOF 2
ENDMDL
MODEL 7
REMARK VINA RESULT:      -3.6      4.614      6.419
REMARK  2 active torsions:
REMARK  status: ('A' for Active; 'I' for Inactive)
REMARK    1  A    between atoms: C6_6  and  C7_7 
REMARK    2  A    between atoms: C7_7  and  N8_8 
ROOT
HETATM    1  C1  UNL     1     -30.957  18.672   0.091  1.00 20.00     0.157 C 
HETATM    2  N8  UNL     1     -31.214  18.392  -1.023  1.00 20.00    -0.274 NA
HETATM    3  S9  UNL     1     -30.592  19.032   1.599  1.00 20.00    -0.055 SA
ENDROOT
BRANCH   2   4
HETATM    4  C7  UNL     1     -32.207  19.250  -1.663  1.00 20.00     0.165 C 
BRANCH   4   5
HETATM    5  C6  UNL     1     -33.318  18.371  -2.231  1.00 20.00     0.067 C 
HETATM    6  C4  UNL     1     -32.788  16.976  -2.576  1.00 20.00     0.017 C 
HETATM    7  C2  UNL     1     -33.850  16.067  -3.192  1.00 20.00     0.002 C 
HETATM    8  C3  UNL     1     -35.042  15.836  -2.269  1.00 20.00     0.010 C 
HETATM    9  C5  UNL     1     -35.763  17.122  -1.893  1.00 20.00     0.074 C 
HETATM   10  S10 UNL     1     -34.672  18.273  -1.010  1.00 20.00    -0.163 SA
ENDBRANCH   4   5
ENDBRANCH   2   4
TORSDOF 2
ENDMDL
MODEL 8
REMARK VINA RESULT:      -3.6     18.150     19.090
REMARK  2 active torsions:
REMARK  status: ('A' for Active; 'I' for Inactive)
REMARK    1  A    between atoms: C6_6  and  C7_7 
REMARK    2  A    between atoms: C7_7  and  N8_8 
ROOT
HETATM    1  C1  UNL     1     -27.932  18.350  11.850  1.00 20.00     0.157 C 
HETATM    2  N8  UNL     1     -26.814  18.713  11.917  1.00 20.00    -0.274 NA
HETATM    3  S9  UNL     1     -29.452  17.882  11.758  1.00 20.00    -0.055 SA
ENDROOT
BRANCH   2   4
HETATM    4  C7  UNL     1     -25.824  17.648  12.050  1.00 20.00     0.165 C 
BRANCH   4   5
HETATM    5  C6  UNL     1     -24.487  18.156  11.517  1.00 20.00     0.067 C 
HETATM    6  C4  UNL     1     -23.335  17.271  12.002  1.00 20.00     0.017 C 
HETATM    7  C2  UNL     1     -21.966  17.761  11.535  1.00 20.00     0.002 C 
HETATM    8  C3  UNL     1     -21.837  17.805  10.016  1.00 20.00     0.010 C 
HETATM    9  C5  UNL     1     -22.855  18.727   9.359  1.00 20.00     0.074 C 
HETATM   10  S10 UNL     1     -24.558  18.198   9.693  1.00 20.00    -0.163 SA
ENDBRANCH   4   5
ENDBRANCH   2   4
TORSDOF 2
ENDMDL
MODEL 9
REMARK VINA RESULT:      -3.5      2.475      2.590
REMARK  2 active torsions:
REMARK  status: ('A' for Active; 'I' for Inactive)
REMARK    1  A    between atoms: C6_6  and  C7_7 
REMARK    2  A    between atoms: C7_7  and  N8_8 
ROOT
HETATM    1  C1  UNL     1     -35.679  14.568  -6.416  1.00 20.00     0.157 C 
HETATM    2  N8  UNL     1     -36.136  13.954  -5.523  1.00 20.00    -0.274 NA
HETATM    3  S9  UNL     1     -35.081  15.396  -7.638  1.00 20.00    -0.055 SA
ENDROOT
BRANCH   2   4
HETATM    4  C7  UNL     1     -35.280  13.841  -4.346  1.00 20.00     0.165 C 
BRANCH   4   5
HETATM    5  C6  UNL     1     -34.905  15.244  -3.878  1.00 20.00     0.067 C 
HETATM    6  C4  UNL     1     -35.432  15.507  -2.464  1.00 20.00     0.017 C 
HETATM    7  C2  UNL     1     -35.125  16.917  -1.962  1.00 20.00     0.002 C 
HETATM    8  C3  UNL     1     -33.630  17.214  -1.905  1.00 20.00     0.010 C 
HETATM    9  C5  UNL     1     -32.946  17.096  -3.260  1.00 20.00     0.074 C 
HETATM   10  S10 UNL     1     -33.089  15.422  -3.943  1.00 20.00    -0.163 SA
ENDBRANCH   4   5
ENDBRANCH   2   4
TORSDOF 2
ENDMDL
