MODEL 1
REMARK VINA RESULT:      -4.8      0.000      0.000
REMARK  2 active torsions:
REMARK  status: ('A' for Active; 'I' for Inactive)
REMARK    1  A    between atoms: C1_1  and  C7_7 
REMARK    2  A    between atoms: C3_3  and  C7_7 
ROOT
HETATM    1  C2  UNL     1     -35.159  15.726  -2.321  1.00 20.00     0.015 A 
HETATM    2  C3  UNL     1     -34.494  15.170  -3.552  1.00 20.00     0.004 A 
HETATM    3  C4  UNL     1     -34.282  16.625  -3.166  1.00 20.00    -0.043 A 
HETATM    4  C5  UNL     1     -32.929  17.000  -2.622  1.00 20.00     0.015 C 
HETATM    5  C6  UNL     1     -34.947  17.720  -3.956  1.00 20.00     0.015 C 
ENDROOT
BRANCH   2   6
HETATM    6  C7  UNL     1     -35.311  14.761  -4.729  1.00 20.00     0.118 C 
BRANCH   6   7
HETATM    7  C1  UNL     1     -36.280  13.581  -4.509  1.00 20.00     0.172 C 
HETATM    8  O8  UNL     1     -37.506  13.876  -4.480  1.00 20.00    -0.648 OA
HETATM    9  O9  UNL     1     -35.725  12.451  -4.385  1.00 20.00    -0.648 OA
ENDBRANCH   6   7
ENDBRANCH   2   6
TORSDOF 2
ENDMDL
MODEL 2
REMARK VINA RESULT:      -4.6      1.175      1.559
REMARK  2 active torsions:
REMARK  status: ('A' for Active; 'I' for Inactive)
REMARK    1  A    between atoms: C1_1  and  C7_7 
REMARK    2  A    between atoms: C3_3  and  C7_7 
ROOT
HETATM    1  C2  UNL     1     -35.532  16.826  -3.667  1.00 20.00     0.015 A 
HETATM    2  C3  UNL     1     -35.539  15.443  -3.070  1.00 20.00     0.004 A 
HETATM    3  C4  UNL     1     -34.471  16.442  -2.657  1.00 20.00    -0.043 A 
HETATM    4  C5  UNL     1     -34.575  17.025  -1.272  1.00 20.00     0.015 C 
HETATM    5  C6  UNL     1     -33.056  16.280  -3.146  1.00 20.00     0.015 C 
ENDROOT
BRANCH   2   6
HETATM    6  C7  UNL     1     -35.245  14.255  -3.920  1.00 20.00     0.118 C 
BRANCH   6   7
HETATM    7  C1  UNL     1     -36.337  13.854  -4.933  1.00 20.00     0.172 C 
HETATM    8  O8  UNL     1     -37.481  13.636  -4.449  1.00 20.00    -0.648 OA
HETATM    9  O9  UNL     1     -35.950  13.794  -6.136  1.00 20.00    -0.648 OA
ENDBRANCH   6   7
ENDBRANCH   2   6
TORSDOF 2
ENDMDL
MODEL 3
REMARK VINA RESULT:      -4.6      1.178      1.719
REMARK  2 active torsions:
REMARK  status: ('A' for Active; 'I' for Inactive)
REMARK    1  A    between atoms: C1_1  and  C7_7 
REMARK    2  A    between atoms: C3_3  and  C7_7 
ROOT
HETATM    1  C2  UNL     1     -35.522  16.823  -3.677  1.00 20.00     0.015 A 
HETATM    2  C3  UNL     1     -35.536  15.443  -3.076  1.00 20.00     0.004 A 
HETATM    3  C4  UNL     1     -34.465  16.439  -2.664  1.00 20.00    -0.043 A 
HETATM    4  C5  UNL     1     -34.570  17.027  -1.281  1.00 20.00     0.015 C 
HETATM    5  C6  UNL     1     -33.050  16.270  -3.150  1.00 20.00     0.015 C 
ENDROOT
BRANCH   2   6
HETATM    6  C7  UNL     1     -35.245  14.251  -3.921  1.00 20.00     0.118 C 
BRANCH   6   7
HETATM    7  C1  UNL     1     -36.331  13.858  -4.944  1.00 20.00     0.172 C 
HETATM    8  O8  UNL     1     -35.954  13.797  -6.147  1.00 20.00    -0.648 OA
HETATM    9  O9  UNL     1     -37.475  13.642  -4.450  1.00 20.00    -0.648 OA
ENDBRANCH   6   7
ENDBRANCH   2   6
TORSDOF 2
ENDMDL
MODEL 4
REMARK VINA RESULT:      -4.6     18.125     18.929
REMARK  2 active torsions:
REMARK  status: ('A' for Active; 'I' for Inactive)
REMARK    1  A    between atoms: C1_1  and  C7_7 
REMARK    2  A    between atoms: C3_3  and  C7_7 
ROOT
HETATM    1  C2  UNL     1     -22.942  17.763  12.193  1.00 20.00     0.015 A 
HETATM    2  C3  UNL     1     -23.416  17.921  10.773  1.00 20.00     0.004 A 
HETATM    3  C4  UNL     1     -24.380  17.442  11.845  1.00 20.00    -0.043 A 
HETATM    4  C5  UNL     1     -25.445  18.409  12.293  1.00 20.00     0.015 C 
HETATM    5  C6  UNL     1     -24.811  16.000  11.882  1.00 20.00     0.015 C 
ENDROOT
BRANCH   2   6
HETATM    6  C7  UNL     1     -22.894  17.027   9.701  1.00 20.00     0.118 C 
BRANCH   6   7
HETATM    7  C1  UNL     1     -22.081  17.708   8.581  1.00 20.00     0.172 C 
HETATM    8  O8  UNL     1     -21.658  18.869   8.838  1.00 20.00    -0.648 OA
HETATM    9  O9  UNL     1     -21.934  17.015   7.533  1.00 20.00    -0.648 OA
ENDBRANCH   6   7
ENDBRANCH   2   6
TORSDOF 2
ENDMDL
MODEL 5
REMARK VINA RESULT:      -4.5      1.078      1.599
REMARK  2 active torsions:
REMARK  status: ('A' for Active; 'I' for Inactive)
REMARK    1  A    between atoms: C1_1  and  C7_7 
REMARK    2  A    between atoms: C3_3  and  C7_7 
ROOT
HETATM    1  C2  UNL     1     -33.090  15.604  -3.590  1.00 20.00     0.015 A 
HETATM    2  C3  UNL     1     -34.442  15.405  -4.223  1.00 20.00     0.004 A 
HETATM    3  C4  UNL     1     -34.239  16.511  -3.201  1.00 20.00    -0.043 A 
HETATM    4  C5  UNL     1     -34.223  17.926  -3.714  1.00 20.00     0.015 C 
HETATM    5  C6  UNL     1     -34.810  16.371  -1.814  1.00 20.00     0.015 C 
ENDROOT
BRANCH   2   6
HETATM    6  C7  UNL     1     -35.234  14.177  -3.935  1.00 20.00     0.118 C 
BRANCH   6   7
HETATM    7  C1  UNL     1     -36.358  13.839  -4.937  1.00 20.00     0.172 C 
HETATM    8  O8  UNL     1     -37.490  13.606  -4.432  1.00 20.00    -0.648 OA
HETATM    9  O9  UNL     1     -36.006  13.839  -6.151  1.00 20.00    -0.648 OA
ENDBRANCH   6   7
ENDBRANCH   2   6
TORSDOF 2
ENDMDL
MODEL 6
REMARK VINA RESULT:      -4.5     11.313     12.086
REMARK  2 active torsions:
REMARK  status: ('A' for Active; 'I' for Inactive)
REMARK    1  A    between atoms: C1_1  and  C7_7 
REMARK    2  A    between atoms: C3_3  and  C7_7 
ROOT
HETATM    1  C2  UNL     1     -32.886   5.631   2.581  1.00 20.00     0.015 A 
HETATM    2  C3  UNL     1     -33.894   6.570   3.188  1.00 20.00     0.004 A 
HETATM    3  C4  UNL     1     -32.590   7.115   2.629  1.00 20.00    -0.043 A 
HETATM    4  C5  UNL     1     -32.665   7.890   1.340  1.00 20.00     0.015 C 
HETATM    5  C6  UNL     1     -31.509   7.590   3.564  1.00 20.00     0.015 C 
ENDROOT
BRANCH   2   6
HETATM    6  C7  UNL     1     -34.187   6.520   4.648  1.00 20.00     0.118 C 
BRANCH   6   7
HETATM    7  C1  UNL     1     -34.777   5.198   5.181  1.00 20.00     0.172 C 
HETATM    8  O8  UNL     1     -35.454   4.528   4.354  1.00 20.00    -0.648 OA
HETATM    9  O9  UNL     1     -34.507   4.944   6.390  1.00 20.00    -0.648 OA
ENDBRANCH   6   7
ENDBRANCH   2   6
TORSDOF 2
ENDMDL
MODEL 7
REMARK VINA RESULT:      -4.3     16.255     17.865
REMARK  2 active torsions:
REMARK  status: ('A' for Active; 'I' for Inactive)
REMARK    1  A    between atoms: C1_1  and  C7_7 
REMARK    2  A    between atoms: C3_3  and  C7_7 
ROOT
HETATM    1  C2  UNL     1     -23.901  16.746  10.255  1.00 20.00     0.015 A 
HETATM    2  C3  UNL     1     -23.526  18.154   9.874  1.00 20.00     0.004 A 
HETATM    3  C4  UNL     1     -23.759  17.799  11.333  1.00 20.00    -0.043 A 
HETATM    4  C5  UNL     1     -22.549  17.734  12.226  1.00 20.00     0.015 C 
HETATM    5  C6  UNL     1     -25.009  18.267  12.032  1.00 20.00     0.015 C 
ENDROOT
BRANCH   2   6
HETATM    6  C7  UNL     1     -24.469  18.998   9.089  1.00 20.00     0.118 C 
BRANCH   6   7
HETATM    7  C1  UNL     1     -24.365  18.890   7.553  1.00 20.00     0.172 C 
HETATM    8  O8  UNL     1     -25.383  19.263   6.907  1.00 20.00    -0.648 OA
HETATM    9  O9  UNL     1     -23.264  18.439   7.125  1.00 20.00    -0.648 OA
ENDBRANCH   6   7
ENDBRANCH   2   6
TORSDOF 2
ENDMDL
MODEL 8
REMARK VINA RESULT:      -4.3     10.037     12.005
REMARK  2 active torsions:
REMARK  status: ('A' for Active; 'I' for Inactive)
REMARK    1  A    between atoms: C1_1  and  C7_7 
REMARK    2  A    between atoms: C3_3  and  C7_7 
ROOT
HETATM    1  C2  UNL     1     -42.328   5.387   1.116  1.00 20.00     0.015 A 
HETATM    2  C3  UNL     1     -42.575   6.728   0.478  1.00 20.00     0.004 A 
HETATM    3  C4  UNL     1     -42.270   5.519  -0.391  1.00 20.00    -0.043 A 
HETATM    4  C5  UNL     1     -43.409   4.945  -1.192  1.00 20.00     0.015 C 
HETATM    5  C6  UNL     1     -40.927   5.390  -1.059  1.00 20.00     0.015 C 
ENDROOT
BRANCH   2   6
HETATM    6  C7  UNL     1     -41.607   7.844   0.674  1.00 20.00     0.118 C 
BRANCH   6   7
HETATM    7  C1  UNL     1     -42.073   9.240   0.211  1.00 20.00     0.172 C 
HETATM    8  O8  UNL     1     -41.250  10.180   0.390  1.00 20.00    -0.648 OA
HETATM    9  O9  UNL     1     -43.231   9.274  -0.296  1.00 20.00    -0.648 OA
ENDBRANCH   6   7
ENDBRANCH   2   6
TORSDOF 2
ENDMDL
MODEL 9
REMARK VINA RESULT:      -4.2     11.347     12.340
REMARK  2 active torsions:
REMARK  status: ('A' for Active; 'I' for Inactive)
REMARK    1  A    between atoms: C1_1  and  C7_7 
REMARK    2  A    between atoms: C3_3  and  C7_7 
ROOT
HETATM    1  C2  UNL     1     -34.134   3.949   3.912  1.00 20.00     0.015 A 
HETATM    2  C3  UNL     1     -33.408   5.260   3.765  1.00 20.00     0.004 A 
HETATM    3  C4  UNL     1     -34.732   5.206   4.509  1.00 20.00    -0.043 A 
HETATM    4  C5  UNL     1     -34.686   5.365   6.006  1.00 20.00     0.015 C 
HETATM    5  C6  UNL     1     -35.977   5.766   3.874  1.00 20.00     0.015 C 
ENDROOT
BRANCH   2   6
HETATM    6  C7  UNL     1     -33.262   5.893   2.424  1.00 20.00     0.118 C 
BRANCH   6   7
HETATM    7  C1  UNL     1     -32.468   7.215   2.378  1.00 20.00     0.172 C 
HETATM    8  O8  UNL     1     -32.594   7.893   1.321  1.00 20.00    -0.648 OA
HETATM    9  O9  UNL     1     -31.782   7.461   3.412  1.00 20.00    -0.648 OA
ENDBRANCH   6   7
ENDBRANCH   2   6
TORSDOF 2
ENDMDL
