MODEL 1
REMARK VINA RESULT:      -4.3      0.000      0.000
REMARK  2 active torsions:
REMARK  status: ('A' for Active; 'I' for Inactive)
REMARK    1  A    between atoms: C4_4  and  C8_8 
REMARK    2  A    between atoms: C5_5  and  C9_9 
ROOT
HETATM    1  C1  UNL     1     -23.081  16.997  12.157  1.00 20.00     0.032 C 
HETATM    2  C2  UNL     1     -23.811  16.731   9.763  1.00 20.00     0.043 C 
HETATM    3  C3  UNL     1     -22.129  18.077  11.669  1.00 20.00     0.169 C 
HETATM    4  C4  UNL     1     -24.281  16.826  11.222  1.00 20.00     0.004 C 
HETATM    5  C5  UNL     1     -22.701  17.724   9.351  1.00 20.00     0.057 C 
HETATM    6  C6  UNL     1     -22.010  17.185   8.086  1.00 20.00     0.046 C 
HETATM    7  O10 UNL     1     -21.675  17.798  10.348  1.00 20.00    -0.381 OA
ENDROOT
BRANCH   5   8
HETATM    8  C9  UNL     1     -23.235  19.123   9.018  1.00 20.00     0.033 C 
HETATM    9  C7  UNL     1     -24.306  19.064   7.982  1.00 20.00     0.008 C 
ENDBRANCH   5   8
BRANCH   4  10
HETATM   10  C8  UNL     1     -25.344  17.900  11.450  1.00 20.00     0.119 C 
HETATM   11 CL11 UNL     1     -26.722  17.217  12.331  1.00 20.00    -0.130 Cl
ENDBRANCH   4  10
TORSDOF 2
ENDMDL
MODEL 2
REMARK VINA RESULT:      -4.1      2.673      4.197
REMARK  2 active torsions:
REMARK  status: ('A' for Active; 'I' for Inactive)
REMARK    1  A    between atoms: C4_4  and  C8_8 
REMARK    2  A    between atoms: C5_5  and  C9_9 
ROOT
HETATM    1  C1  UNL     1     -25.096  18.626   8.814  1.00 20.00     0.032 C 
HETATM    2  C2  UNL     1     -24.133  16.759  10.201  1.00 20.00     0.043 C 
HETATM    3  C3  UNL     1     -25.547  19.263  10.118  1.00 20.00     0.169 C 
HETATM    4  C4  UNL     1     -23.892  17.703   9.013  1.00 20.00     0.004 C 
HETATM    5  C5  UNL     1     -24.771  17.406  11.451  1.00 20.00     0.057 C 
HETATM    6  C6  UNL     1     -25.396  16.292  12.310  1.00 20.00     0.046 C 
HETATM    7  O10 UNL     1     -25.856  18.269  11.092  1.00 20.00    -0.381 OA
ENDROOT
BRANCH   5   8
HETATM    8  C9  UNL     1     -23.757  18.147  12.332  1.00 20.00     0.033 C 
HETATM    9  C7  UNL     1     -22.418  17.492  12.289  1.00 20.00     0.008 C 
ENDBRANCH   5   8
BRANCH   4  10
HETATM   10  C8  UNL     1     -22.581  18.483   9.112  1.00 20.00     0.119 C 
HETATM   11 CL11 UNL     1     -21.326  17.693   8.142  1.00 20.00    -0.130 Cl
ENDBRANCH   4  10
TORSDOF 2
ENDMDL
MODEL 3
REMARK VINA RESULT:      -4.1     17.203     18.736
REMARK  2 active torsions:
REMARK  status: ('A' for Active; 'I' for Inactive)
REMARK    1  A    between atoms: C4_4  and  C8_8 
REMARK    2  A    between atoms: C5_5  and  C9_9 
ROOT
HETATM    1  C1  UNL     1     -33.032  14.696  -4.384  1.00 20.00     0.032 C 
HETATM    2  C2  UNL     1     -35.197  15.244  -3.222  1.00 20.00     0.043 C 
HETATM    3  C3  UNL     1     -33.805  14.761  -5.692  1.00 20.00     0.169 C 
HETATM    4  C4  UNL     1     -33.690  15.537  -3.288  1.00 20.00     0.004 C 
HETATM    5  C5  UNL     1     -35.917  15.130  -4.583  1.00 20.00     0.057 C 
HETATM    6  C6  UNL     1     -37.234  14.359  -4.375  1.00 20.00     0.046 C 
HETATM    7  O10 UNL     1     -35.155  14.345  -5.509  1.00 20.00    -0.381 OA
ENDROOT
BRANCH   5   8
HETATM    8  C9  UNL     1     -36.277  16.490  -5.194  1.00 20.00     0.033 C 
HETATM    9  C7  UNL     1     -37.025  17.341  -4.224  1.00 20.00     0.008 C 
ENDBRANCH   5   8
BRANCH   4  10
HETATM   10  C8  UNL     1     -33.365  17.024  -3.433  1.00 20.00     0.119 C 
HETATM   11 CL11 UNL     1     -32.619  17.633  -1.945  1.00 20.00    -0.130 Cl
ENDBRANCH   4  10
TORSDOF 2
ENDMDL
MODEL 4
REMARK VINA RESULT:      -3.9     17.402     19.030
REMARK  2 active torsions:
REMARK  status: ('A' for Active; 'I' for Inactive)
REMARK    1  A    between atoms: C4_4  and  C8_8 
REMARK    2  A    between atoms: C5_5  and  C9_9 
ROOT
HETATM    1  C1  UNL     1     -36.353  14.306  -5.766  1.00 20.00     0.032 C 
HETATM    2  C2  UNL     1     -34.297  15.723  -5.445  1.00 20.00     0.043 C 
HETATM    3  C3  UNL     1     -36.011  13.641  -4.442  1.00 20.00     0.169 C 
HETATM    4  C4  UNL     1     -35.775  15.719  -5.864  1.00 20.00     0.004 C 
HETATM    5  C5  UNL     1     -33.953  14.879  -4.198  1.00 20.00     0.057 C 
HETATM    6  C6  UNL     1     -32.443  14.577  -4.216  1.00 20.00     0.046 C 
HETATM    7  O10 UNL     1     -34.601  13.602  -4.240  1.00 20.00    -0.381 OA
ENDROOT
BRANCH   5   8
HETATM    8  C9  UNL     1     -34.258  15.599  -2.878  1.00 20.00     0.033 C 
HETATM    9  C7  UNL     1     -33.274  16.687  -2.612  1.00 20.00     0.008 C 
ENDBRANCH   5   8
BRANCH   4  10
HETATM   10  C8  UNL     1     -36.624  16.740  -5.106  1.00 20.00     0.119 C 
HETATM   11 CL11 UNL     1     -35.735  18.263  -4.932  1.00 20.00    -0.130 Cl
ENDBRANCH   4  10
TORSDOF 2
ENDMDL
MODEL 5
REMARK VINA RESULT:      -3.9     17.015     18.407
REMARK  2 active torsions:
REMARK  status: ('A' for Active; 'I' for Inactive)
REMARK    1  A    between atoms: C4_4  and  C8_8 
REMARK    2  A    between atoms: C5_5  and  C9_9 
ROOT
HETATM    1  C1  UNL     1     -33.415  17.540  -3.421  1.00 20.00     0.032 C 
HETATM    2  C2  UNL     1     -33.653  15.178  -4.261  1.00 20.00     0.043 C 
HETATM    3  C3  UNL     1     -34.349  17.954  -4.547  1.00 20.00     0.169 C 
HETATM    4  C4  UNL     1     -33.619  16.078  -3.016  1.00 20.00     0.004 C 
HETATM    5  C5  UNL     1     -34.461  15.723  -5.459  1.00 20.00     0.057 C 
HETATM    6  C6  UNL     1     -33.991  14.998  -6.734  1.00 20.00     0.046 C 
HETATM    7  O10 UNL     1     -34.186  17.111  -5.683  1.00 20.00    -0.381 OA
ENDROOT
BRANCH   5   8
HETATM    8  C9  UNL     1     -35.971  15.484  -5.329  1.00 20.00     0.033 C 
HETATM    9  C7  UNL     1     -36.270  14.059  -5.004  1.00 20.00     0.008 C 
ENDBRANCH   5   8
BRANCH   4  10
HETATM   10  C8  UNL     1     -34.834  15.900  -2.105  1.00 20.00     0.119 C 
HETATM   11 CL11 UNL     1     -34.826  17.132  -0.831  1.00 20.00    -0.130 Cl
ENDBRANCH   4  10
TORSDOF 2
ENDMDL
MODEL 6
REMARK VINA RESULT:      -3.9     16.655     18.370
REMARK  2 active torsions:
REMARK  status: ('A' for Active; 'I' for Inactive)
REMARK    1  A    between atoms: C4_4  and  C8_8 
REMARK    2  A    between atoms: C5_5  and  C9_9 
ROOT
HETATM    1  C1  UNL     1     -33.967  15.122  -5.914  1.00 20.00     0.032 C 
HETATM    2  C2  UNL     1     -34.489  17.123  -4.479  1.00 20.00     0.043 C 
HETATM    3  C3  UNL     1     -33.467  14.440  -4.651  1.00 20.00     0.169 C 
HETATM    4  C4  UNL     1     -34.995  16.213  -5.608  1.00 20.00     0.004 C 
HETATM    5  C5  UNL     1     -33.814  16.404  -3.291  1.00 20.00     0.057 C 
HETATM    6  C6  UNL     1     -32.942  17.423  -2.535  1.00 20.00     0.046 C 
HETATM    7  O10 UNL     1     -32.911  15.387  -3.744  1.00 20.00    -0.381 OA
ENDROOT
BRANCH   5   8
HETATM    8  C9  UNL     1     -34.817  15.827  -2.284  1.00 20.00     0.033 C 
HETATM    9  C7  UNL     1     -35.181  16.831  -1.243  1.00 20.00     0.008 C 
ENDBRANCH   5   8
BRANCH   4  10
HETATM   10  C8  UNL     1     -36.385  15.633  -5.344  1.00 20.00     0.119 C 
HETATM   11 CL11 UNL     1     -37.427  16.860  -4.604  1.00 20.00    -0.130 Cl
ENDBRANCH   4  10
TORSDOF 2
ENDMDL
MODEL 7
REMARK VINA RESULT:      -3.8     16.412     17.772
REMARK  2 active torsions:
REMARK  status: ('A' for Active; 'I' for Inactive)
REMARK    1  A    between atoms: C4_4  and  C8_8 
REMARK    2  A    between atoms: C5_5  and  C9_9 
ROOT
HETATM    1  C1  UNL     1     -34.135  17.147  -1.506  1.00 20.00     0.032 C 
HETATM    2  C2  UNL     1     -34.880  15.256  -2.991  1.00 20.00     0.043 C 
HETATM    3  C3  UNL     1     -33.165  17.534  -2.611  1.00 20.00     0.169 C 
HETATM    4  C4  UNL     1     -35.341  16.376  -2.046  1.00 20.00     0.004 C 
HETATM    5  C5  UNL     1     -33.755  15.635  -3.979  1.00 20.00     0.057 C 
HETATM    6  C6  UNL     1     -33.080  14.341  -4.468  1.00 20.00     0.046 C 
HETATM    7  O10 UNL     1     -32.723  16.385  -3.328  1.00 20.00    -0.381 OA
ENDROOT
BRANCH   5   8
HETATM    8  C9  UNL     1     -34.265  16.380  -5.220  1.00 20.00     0.033 C 
HETATM    9  C7  UNL     1     -34.495  15.445  -6.359  1.00 20.00     0.008 C 
ENDBRANCH   5   8
BRANCH   4  10
HETATM   10  C8  UNL     1     -36.385  17.305  -2.668  1.00 20.00     0.119 C 
HETATM   11 CL11 UNL     1     -37.468  16.384  -3.725  1.00 20.00    -0.130 Cl
ENDBRANCH   4  10
TORSDOF 2
ENDMDL
MODEL 8
REMARK VINA RESULT:      -3.8     16.661     18.391
REMARK  2 active torsions:
REMARK  status: ('A' for Active; 'I' for Inactive)
REMARK    1  A    between atoms: C4_4  and  C8_8 
REMARK    2  A    between atoms: C5_5  and  C9_9 
ROOT
HETATM    1  C1  UNL     1     -35.694  16.307  -5.450  1.00 20.00     0.032 C 
HETATM    2  C2  UNL     1     -35.045  15.153  -3.309  1.00 20.00     0.043 C 
HETATM    3  C3  UNL     1     -35.095  17.574  -4.861  1.00 20.00     0.169 C 
HETATM    4  C4  UNL     1     -35.079  15.045  -4.841  1.00 20.00     0.004 C 
HETATM    5  C5  UNL     1     -34.610  16.523  -2.743  1.00 20.00     0.057 C 
HETATM    6  C6  UNL     1     -35.104  16.629  -1.289  1.00 20.00     0.046 C 
HETATM    7  O10 UNL     1     -35.244  17.599  -3.444  1.00 20.00    -0.381 OA
ENDROOT
BRANCH   5   8
HETATM    8  C9  UNL     1     -33.087  16.712  -2.722  1.00 20.00     0.033 C 
HETATM    9  C7  UNL     1     -32.684  17.769  -1.751  1.00 20.00     0.008 C 
ENDBRANCH   5   8
BRANCH   4  10
HETATM   10  C8  UNL     1     -33.718  14.716  -5.457  1.00 20.00     0.119 C 
HETATM   11 CL11 UNL     1     -33.737  15.063  -7.195  1.00 20.00    -0.130 Cl
ENDBRANCH   4  10
TORSDOF 2
ENDMDL
MODEL 9
REMARK VINA RESULT:      -3.8     18.374     19.529
REMARK  2 active torsions:
REMARK  status: ('A' for Active; 'I' for Inactive)
REMARK    1  A    between atoms: C4_4  and  C8_8 
REMARK    2  A    between atoms: C5_5  and  C9_9 
ROOT
HETATM    1  C1  UNL     1     -34.571  14.137  -3.863  1.00 20.00     0.032 C 
HETATM    2  C2  UNL     1     -36.351  14.952  -5.446  1.00 20.00     0.043 C 
HETATM    3  C3  UNL     1     -33.550  14.696  -4.841  1.00 20.00     0.169 C 
HETATM    4  C4  UNL     1     -35.921  14.849  -3.975  1.00 20.00     0.004 C 
HETATM    5  C5  UNL     1     -35.236  15.341  -6.443  1.00 20.00     0.057 C 
HETATM    6  C6  UNL     1     -35.675  14.913  -7.856  1.00 20.00     0.046 C 
HETATM    7  O10 UNL     1     -34.029  14.616  -6.180  1.00 20.00    -0.381 OA
ENDROOT
BRANCH   5   8
HETATM    8  C9  UNL     1     -34.964  16.850  -6.488  1.00 20.00     0.033 C 
HETATM    9  C7  UNL     1     -34.157  17.222  -7.685  1.00 20.00     0.008 C 
ENDBRANCH   5   8
BRANCH   4  10
HETATM   10  C8  UNL     1     -35.924  16.193  -3.246  1.00 20.00     0.119 C 
HETATM   11 CL11 UNL     1     -34.960  16.083  -1.762  1.00 20.00    -0.130 Cl
ENDBRANCH   4  10
TORSDOF 2
ENDMDL
