MODEL 1
REMARK VINA RESULT:      -4.4      0.000      0.000
REMARK  2 active torsions:
REMARK  status: ('A' for Active; 'I' for Inactive)
REMARK    1  A    between atoms: C5_5  and  C8_8 
REMARK    2  A    between atoms: C6_6  and  C9_9 
ROOT
HETATM    1  C1  UNL     1     -35.809  15.108  -3.216  1.00 20.00     0.001 C 
HETATM    2  C2  UNL     1     -34.945  15.955  -2.288  1.00 20.00     0.005 C 
HETATM    3  C3  UNL     1     -34.985  14.050  -3.947  1.00 20.00     0.005 C 
HETATM    4  C4  UNL     1     -32.936  15.520  -3.760  1.00 20.00     0.010 C 
HETATM    5  C5  UNL     1     -33.762  16.590  -3.029  1.00 20.00    -0.014 C 
HETATM    6  C6  UNL     1     -33.780  14.637  -4.694  1.00 20.00    -0.000 C 
ENDROOT
BRANCH   5   7
HETATM    7  C8  UNL     1     -32.880  17.377  -2.059  1.00 20.00     0.000 C 
HETATM    8  C7  UNL     1     -33.670  17.917  -0.913  1.00 20.00     0.005 C 
ENDBRANCH   5   7
BRANCH   6   9
HETATM    9  C9  UNL     1     -34.208  15.393  -5.955  1.00 20.00     0.119 C 
HETATM   10 CL10 UNL     1     -35.596  14.585  -6.703  1.00 20.00    -0.130 Cl
ENDBRANCH   6   9
TORSDOF 2
ENDMDL
MODEL 2
REMARK VINA RESULT:      -4.4     11.020     11.851
REMARK  2 active torsions:
REMARK  status: ('A' for Active; 'I' for Inactive)
REMARK    1  A    between atoms: C5_5  and  C8_8 
REMARK    2  A    between atoms: C6_6  and  C9_9 
ROOT
HETATM    1  C1  UNL     1     -33.801   5.157   2.272  1.00 20.00     0.001 C 
HETATM    2  C2  UNL     1     -34.130   5.138   3.761  1.00 20.00     0.005 C 
HETATM    3  C3  UNL     1     -32.447   5.810   2.002  1.00 20.00     0.005 C 
HETATM    4  C4  UNL     1     -32.694   7.189   4.107  1.00 20.00     0.010 C 
HETATM    5  C5  UNL     1     -34.058   6.539   4.381  1.00 20.00    -0.014 C 
HETATM    6  C6  UNL     1     -32.323   7.211   2.615  1.00 20.00    -0.000 C 
ENDROOT
BRANCH   5   7
HETATM    7  C8  UNL     1     -34.329   6.475   5.885  1.00 20.00     0.000 C 
HETATM    8  C7  UNL     1     -34.801   5.122   6.302  1.00 20.00     0.005 C 
ENDBRANCH   5   7
BRANCH   6   9
HETATM    9  C9  UNL     1     -33.146   8.244   1.841  1.00 20.00     0.119 C 
HETATM   10 CL10 UNL     1     -32.503   8.424   0.200  1.00 20.00    -0.130 Cl
ENDBRANCH   6   9
TORSDOF 2
ENDMDL
MODEL 3
REMARK VINA RESULT:      -4.2     11.614     12.607
REMARK  2 active torsions:
REMARK  status: ('A' for Active; 'I' for Inactive)
REMARK    1  A    between atoms: C5_5  and  C8_8 
REMARK    2  A    between atoms: C6_6  and  C9_9 
ROOT
HETATM    1  C1  UNL     1     -33.953   4.045   3.480  1.00 20.00     0.001 C 
HETATM    2  C2  UNL     1     -33.156   4.948   2.543  1.00 20.00     0.005 C 
HETATM    3  C3  UNL     1     -35.225   4.729   3.977  1.00 20.00     0.005 C 
HETATM    4  C4  UNL     1     -34.125   6.987   3.683  1.00 20.00     0.010 C 
HETATM    5  C5  UNL     1     -32.840   6.304   3.187  1.00 20.00    -0.014 C 
HETATM    6  C6  UNL     1     -34.960   6.098   4.618  1.00 20.00    -0.000 C 
ENDROOT
BRANCH   5   7
HETATM    7  C8  UNL     1     -32.100   7.207   2.199  1.00 20.00     0.000 C 
HETATM    8  C7  UNL     1     -33.048   8.002   1.364  1.00 20.00     0.005 C 
ENDBRANCH   5   7
BRANCH   6   9
HETATM    9  C9  UNL     1     -34.313   5.961   5.999  1.00 20.00     0.119 C 
HETATM   10 CL10 UNL     1     -33.369   7.413   6.371  1.00 20.00    -0.130 Cl
ENDBRANCH   6   9
TORSDOF 2
ENDMDL
MODEL 4
REMARK VINA RESULT:      -4.2      3.022      4.597
REMARK  2 active torsions:
REMARK  status: ('A' for Active; 'I' for Inactive)
REMARK    1  A    between atoms: C5_5  and  C8_8 
REMARK    2  A    between atoms: C6_6  and  C9_9 
ROOT
HETATM    1  C1  UNL     1     -35.019  16.999  -1.007  1.00 20.00     0.001 C 
HETATM    2  C2  UNL     1     -34.991  16.021  -2.177  1.00 20.00     0.005 C 
HETATM    3  C3  UNL     1     -34.544  18.390  -1.422  1.00 20.00     0.005 C 
HETATM    4  C4  UNL     1     -33.138  17.361  -3.255  1.00 20.00     0.010 C 
HETATM    5  C5  UNL     1     -33.609  15.959  -2.838  1.00 20.00    -0.014 C 
HETATM    6  C6  UNL     1     -33.168  18.377  -2.101  1.00 20.00    -0.000 C 
ENDROOT
BRANCH   5   7
HETATM    7  C8  UNL     1     -33.632  15.021  -4.046  1.00 20.00     0.000 C 
HETATM    8  C7  UNL     1     -34.822  14.120  -4.019  1.00 20.00     0.005 C 
ENDBRANCH   5   7
BRANCH   6   9
HETATM    9  C9  UNL     1     -32.042  18.127  -1.095  1.00 20.00     0.119 C 
HETATM   10 CL10 UNL     1     -32.384  18.978   0.420  1.00 20.00    -0.130 Cl
ENDBRANCH   6   9
TORSDOF 2
ENDMDL
MODEL 5
REMARK VINA RESULT:      -4.1      1.539      2.381
REMARK  2 active torsions:
REMARK  status: ('A' for Active; 'I' for Inactive)
REMARK    1  A    between atoms: C5_5  and  C8_8 
REMARK    2  A    between atoms: C6_6  and  C9_9 
ROOT
HETATM    1  C1  UNL     1     -33.395  14.619  -4.581  1.00 20.00     0.001 C 
HETATM    2  C2  UNL     1     -33.319  15.579  -3.398  1.00 20.00     0.005 C 
HETATM    3  C3  UNL     1     -34.410  15.086  -5.624  1.00 20.00     0.005 C 
HETATM    4  C4  UNL     1     -35.710  16.286  -3.818  1.00 20.00     0.010 C 
HETATM    5  C5  UNL     1     -34.695  15.815  -2.764  1.00 20.00    -0.014 C 
HETATM    6  C6  UNL     1     -35.801  15.348  -5.032  1.00 20.00    -0.000 C 
ENDROOT
BRANCH   5   7
HETATM    7  C8  UNL     1     -34.595  16.830  -1.625  1.00 20.00     0.000 C 
HETATM    8  C7  UNL     1     -33.297  17.567  -1.658  1.00 20.00     0.005 C 
ENDBRANCH   5   7
BRANCH   6   9
HETATM    9  C9  UNL     1     -36.526  14.044  -4.690  1.00 20.00     0.119 C 
HETATM   10 CL10 UNL     1     -38.200  14.386  -4.225  1.00 20.00    -0.130 Cl
ENDBRANCH   6   9
TORSDOF 2
ENDMDL
MODEL 6
REMARK VINA RESULT:      -4.1      1.973      4.099
REMARK  2 active torsions:
REMARK  status: ('A' for Active; 'I' for Inactive)
REMARK    1  A    between atoms: C5_5  and  C8_8 
REMARK    2  A    between atoms: C6_6  and  C9_9 
ROOT
HETATM    1  C1  UNL     1     -32.867  17.353  -2.816  1.00 20.00     0.001 C 
HETATM    2  C2  UNL     1     -33.030  15.941  -3.368  1.00 20.00     0.005 C 
HETATM    3  C3  UNL     1     -33.624  17.538  -1.502  1.00 20.00     0.005 C 
HETATM    4  C4  UNL     1     -35.260  15.739  -2.195  1.00 20.00     0.010 C 
HETATM    5  C5  UNL     1     -34.506  15.553  -3.521  1.00 20.00    -0.014 C 
HETATM    6  C6  UNL     1     -35.104  17.149  -1.602  1.00 20.00    -0.000 C 
ENDROOT
BRANCH   5   7
HETATM    7  C8  UNL     1     -34.634  14.111  -4.013  1.00 20.00     0.000 C 
HETATM    8  C7  UNL     1     -36.041  13.782  -4.388  1.00 20.00     0.005 C 
ENDBRANCH   5   7
BRANCH   6   9
HETATM    9  C9  UNL     1     -35.911  18.187  -2.387  1.00 20.00     0.119 C 
HETATM   10 CL10 UNL     1     -37.447  17.484  -2.919  1.00 20.00    -0.130 Cl
ENDBRANCH   6   9
TORSDOF 2
ENDMDL
MODEL 7
REMARK VINA RESULT:      -3.9      1.518      2.111
REMARK  2 active torsions:
REMARK  status: ('A' for Active; 'I' for Inactive)
REMARK    1  A    between atoms: C5_5  and  C8_8 
REMARK    2  A    between atoms: C6_6  and  C9_9 
ROOT
HETATM    1  C1  UNL     1     -35.527  16.336  -1.946  1.00 20.00     0.001 C 
HETATM    2  C2  UNL     1     -34.753  17.079  -0.861  1.00 20.00     0.005 C 
HETATM    3  C3  UNL     1     -34.597  15.533  -2.854  1.00 20.00     0.005 C 
HETATM    4  C4  UNL     1     -32.720  17.155  -2.362  1.00 20.00     0.010 C 
HETATM    5  C5  UNL     1     -33.652  17.969  -1.451  1.00 20.00    -0.014 C 
HETATM    6  C6  UNL     1     -33.469  16.380  -3.458  1.00 20.00    -0.000 C 
ENDROOT
BRANCH   5   7
HETATM    7  C8  UNL     1     -32.855  18.647  -0.336  1.00 20.00     0.000 C 
HETATM    8  C7  UNL     1     -31.390  18.398  -0.478  1.00 20.00     0.005 C 
ENDBRANCH   5   7
BRANCH   6   9
HETATM    9  C9  UNL     1     -33.987  17.312  -4.558  1.00 20.00     0.119 C 
HETATM   10 CL10 UNL     1     -34.523  16.362  -5.953  1.00 20.00    -0.130 Cl
ENDBRANCH   6   9
TORSDOF 2
ENDMDL
MODEL 8
REMARK VINA RESULT:      -3.8     11.996     13.818
REMARK  2 active torsions:
REMARK  status: ('A' for Active; 'I' for Inactive)
REMARK    1  A    between atoms: C5_5  and  C8_8 
REMARK    2  A    between atoms: C6_6  and  C9_9 
ROOT
HETATM    1  C1  UNL     1     -40.728   6.263  -0.765  1.00 20.00     0.001 C 
HETATM    2  C2  UNL     1     -41.322   5.012  -1.403  1.00 20.00     0.005 C 
HETATM    3  C3  UNL     1     -41.273   6.492   0.644  1.00 20.00     0.005 C 
HETATM    4  C4  UNL     1     -43.396   5.269   0.019  1.00 20.00     0.010 C 
HETATM    5  C5  UNL     1     -42.855   5.041  -1.401  1.00 20.00    -0.014 C 
HETATM    6  C6  UNL     1     -42.806   6.516   0.698  1.00 20.00    -0.000 C 
ENDROOT
BRANCH   5   7
HETATM    7  C8  UNL     1     -43.417   3.745  -1.988  1.00 20.00     0.000 C 
HETATM    8  C7  UNL     1     -42.474   3.130  -2.967  1.00 20.00     0.005 C 
ENDBRANCH   5   7
BRANCH   6   9
HETATM    9  C9  UNL     1     -43.374   7.808   0.105  1.00 20.00     0.119 C 
HETATM   10 CL10 UNL     1     -42.205   9.125   0.293  1.00 20.00    -0.130 Cl
ENDBRANCH   6   9
TORSDOF 2
ENDMDL
MODEL 9
REMARK VINA RESULT:      -3.8      1.461      2.277
REMARK  2 active torsions:
REMARK  status: ('A' for Active; 'I' for Inactive)
REMARK    1  A    between atoms: C5_5  and  C8_8 
REMARK    2  A    between atoms: C6_6  and  C9_9 
ROOT
HETATM    1  C1  UNL     1     -34.614  17.452  -4.763  1.00 20.00     0.001 C 
HETATM    2  C2  UNL     1     -33.738  18.111  -3.702  1.00 20.00     0.005 C 
HETATM    3  C3  UNL     1     -35.784  16.693  -4.138  1.00 20.00     0.005 C 
HETATM    4  C4  UNL     1     -34.429  16.344  -2.031  1.00 20.00     0.010 C 
HETATM    5  C5  UNL     1     -33.248  17.102  -2.657  1.00 20.00    -0.014 C 
HETATM    6  C6  UNL     1     -35.342  15.679  -3.075  1.00 20.00    -0.000 C 
ENDROOT
BRANCH   5   7
HETATM    7  C8  UNL     1     -32.429  17.805  -1.574  1.00 20.00     0.000 C 
HETATM    8  C7  UNL     1     -33.284  18.231  -0.427  1.00 20.00     0.005 C 
ENDBRANCH   5   7
BRANCH   6   9
HETATM    9  C9  UNL     1     -34.683  14.449  -3.704  1.00 20.00     0.119 C 
HETATM   10 CL10 UNL     1     -35.920  13.394  -4.408  1.00 20.00    -0.130 Cl
ENDBRANCH   6   9
TORSDOF 2
ENDMDL
