MODEL 1
REMARK VINA RESULT:      -4.9      0.000      0.000
REMARK  2 active torsions:
REMARK  status: ('A' for Active; 'I' for Inactive)
REMARK    1  A    between atoms: C1_1  and  C7_7 
REMARK    2  A    between atoms: C8_8  and  C12_12 
ROOT
HETATM    1  C2  UNL     1     -32.883  15.310  -4.166  1.00 20.00     0.001 C 
HETATM    2  C3  UNL     1     -33.978  14.258  -3.999  1.00 20.00     0.011 C 
HETATM    3  C4  UNL     1     -36.068  15.482  -3.118  1.00 20.00     0.012 C 
HETATM    4  C5  UNL     1     -32.821  16.372  -3.072  1.00 20.00     0.005 C 
HETATM    5  C6  UNL     1     -35.198  16.299  -2.164  1.00 20.00     0.006 C 
HETATM    6  C7  UNL     1     -35.369  14.812  -4.303  1.00 20.00     0.047 C 
HETATM    7  C8  UNL     1     -34.120  17.162  -2.838  1.00 20.00    -0.007 C 
ENDROOT
BRANCH   7   8
HETATM    8  C12 UNL     1     -33.807  18.369  -1.943  1.00 20.00    -0.048 C 
HETATM    9  C9  UNL     1     -35.051  19.263  -1.833  1.00 20.00     0.015 C 
HETATM   10  C10 UNL     1     -32.651  19.175  -2.555  1.00 20.00     0.015 C 
HETATM   11  C11 UNL     1     -33.403  17.879  -0.545  1.00 20.00     0.015 C 
ENDBRANCH   7   8
BRANCH   6  12
HETATM   12  C1  UNL     1     -36.247  13.696  -4.788  1.00 20.00     0.235 C 
HETATM   13  O13 UNL     1     -36.036  12.513  -4.540  1.00 20.00    -0.306 OA
ENDBRANCH   6  12
TORSDOF 2
ENDMDL
MODEL 2
REMARK VINA RESULT:      -4.9      1.318      2.317
REMARK  2 active torsions:
REMARK  status: ('A' for Active; 'I' for Inactive)
REMARK    1  A    between atoms: C1_1  and  C7_7 
REMARK    2  A    between atoms: C8_8  and  C12_12 
ROOT
HETATM    1  C2  UNL     1     -37.337  17.026  -3.536  1.00 20.00     0.001 C 
HETATM    2  C3  UNL     1     -36.662  16.074  -4.521  1.00 20.00     0.011 C 
HETATM    3  C4  UNL     1     -34.711  14.951  -3.267  1.00 20.00     0.012 C 
HETATM    4  C5  UNL     1     -36.392  17.794  -2.615  1.00 20.00     0.005 C 
HETATM    5  C6  UNL     1     -34.340  16.289  -2.629  1.00 20.00     0.006 C 
HETATM    6  C7  UNL     1     -36.124  14.817  -3.840  1.00 20.00     0.047 C 
HETATM    7  C8  UNL     1     -35.440  16.931  -1.770  1.00 20.00    -0.007 C 
ENDROOT
BRANCH   7   8
HETATM    8  C12 UNL     1     -34.790  17.820  -0.700  1.00 20.00    -0.048 C 
HETATM    9  C9  UNL     1     -35.290  19.263  -0.859  1.00 20.00     0.015 C 
HETATM   10  C10 UNL     1     -33.264  17.786  -0.864  1.00 20.00     0.015 C 
HETATM   11  C11 UNL     1     -35.165  17.300   0.696  1.00 20.00     0.015 C 
ENDBRANCH   7   8
BRANCH   6  12
HETATM   12  C1  UNL     1     -36.117  13.687  -4.829  1.00 20.00     0.235 C 
HETATM   13  O13 UNL     1     -35.896  12.521  -4.521  1.00 20.00    -0.306 OA
ENDBRANCH   6  12
TORSDOF 2
ENDMDL
MODEL 3
REMARK VINA RESULT:      -4.8      2.867      4.960
REMARK  2 active torsions:
REMARK  status: ('A' for Active; 'I' for Inactive)
REMARK    1  A    between atoms: C1_1  and  C7_7 
REMARK    2  A    between atoms: C8_8  and  C12_12 
ROOT
HETATM    1  C2  UNL     1     -32.355  18.103  -1.551  1.00 20.00     0.001 C 
HETATM    2  C3  UNL     1     -33.404  18.694  -0.611  1.00 20.00     0.011 C 
HETATM    3  C4  UNL     1     -35.359  17.018  -0.516  1.00 20.00     0.012 C 
HETATM    4  C5  UNL     1     -32.905  17.401  -2.789  1.00 20.00     0.005 C 
HETATM    5  C6  UNL     1     -35.258  16.801  -2.025  1.00 20.00     0.006 C 
HETATM    6  C7  UNL     1     -34.141  17.620   0.187  1.00 20.00     0.047 C 
HETATM    7  C8  UNL     1     -33.906  16.264  -2.520  1.00 20.00    -0.007 C 
ENDROOT
BRANCH   7   8
HETATM    8  C12 UNL     1     -34.120  15.480  -3.822  1.00 20.00    -0.048 C 
HETATM    9  C9  UNL     1     -32.827  14.742  -4.196  1.00 20.00     0.015 C 
HETATM   10  C10 UNL     1     -34.499  16.451  -4.949  1.00 20.00     0.015 C 
HETATM   11  C11 UNL     1     -35.252  14.460  -3.626  1.00 20.00     0.015 C 
ENDBRANCH   7   8
BRANCH   6  12
HETATM   12  C1  UNL     1     -34.603  18.206   1.490  1.00 20.00     0.235 C 
HETATM   13  O13 UNL     1     -33.993  18.071   2.546  1.00 20.00    -0.306 OA
ENDBRANCH   6  12
TORSDOF 2
ENDMDL
MODEL 4
REMARK VINA RESULT:      -4.8      2.866      4.954
REMARK  2 active torsions:
REMARK  status: ('A' for Active; 'I' for Inactive)
REMARK    1  A    between atoms: C1_1  and  C7_7 
REMARK    2  A    between atoms: C8_8  and  C12_12 
ROOT
HETATM    1  C2  UNL     1     -32.356  18.110  -1.561  1.00 20.00     0.001 C 
HETATM    2  C3  UNL     1     -33.404  18.699  -0.620  1.00 20.00     0.011 C 
HETATM    3  C4  UNL     1     -35.353  17.015  -0.517  1.00 20.00     0.012 C 
HETATM    4  C5  UNL     1     -32.907  17.405  -2.797  1.00 20.00     0.005 C 
HETATM    5  C6  UNL     1     -35.255  16.797  -2.026  1.00 20.00     0.006 C 
HETATM    6  C7  UNL     1     -34.135  17.624   0.183  1.00 20.00     0.047 C 
HETATM    7  C8  UNL     1     -33.902  16.264  -2.523  1.00 20.00    -0.007 C 
ENDROOT
BRANCH   7   8
HETATM    8  C12 UNL     1     -34.117  15.477  -3.823  1.00 20.00    -0.048 C 
HETATM    9  C9  UNL     1     -35.247  14.456  -3.625  1.00 20.00     0.015 C 
HETATM   10  C10 UNL     1     -32.822  14.740  -4.195  1.00 20.00     0.015 C 
HETATM   11  C11 UNL     1     -34.495  16.446  -4.953  1.00 20.00     0.015 C 
ENDBRANCH   7   8
BRANCH   6  12
HETATM   12  C1  UNL     1     -34.595  18.211   1.486  1.00 20.00     0.235 C 
HETATM   13  O13 UNL     1     -33.991  18.065   2.543  1.00 20.00    -0.306 OA
ENDBRANCH   6  12
TORSDOF 2
ENDMDL
MODEL 5
REMARK VINA RESULT:      -4.6      3.500      5.778
REMARK  2 active torsions:
REMARK  status: ('A' for Active; 'I' for Inactive)
REMARK    1  A    between atoms: C1_1  and  C7_7 
REMARK    2  A    between atoms: C8_8  and  C12_12 
ROOT
HETATM    1  C2  UNL     1     -31.169  18.523  -0.341  1.00 20.00     0.001 C 
HETATM    2  C3  UNL     1     -31.785  19.197   0.883  1.00 20.00     0.011 C 
HETATM    3  C4  UNL     1     -34.118  18.155   1.221  1.00 20.00     0.012 C 
HETATM    4  C5  UNL     1     -32.130  18.253  -1.494  1.00 20.00     0.005 C 
HETATM    5  C6  UNL     1     -34.369  18.208  -0.285  1.00 20.00     0.006 C 
HETATM    6  C7  UNL     1     -32.665  18.244   1.692  1.00 20.00     0.047 C 
HETATM    7  C8  UNL     1     -33.372  17.415  -1.144  1.00 20.00    -0.007 C 
ENDROOT
BRANCH   7   8
HETATM    8  C12 UNL     1     -34.058  16.984  -2.447  1.00 20.00    -0.048 C 
HETATM    9  C9  UNL     1     -34.580  18.224  -3.187  1.00 20.00     0.015 C 
HETATM   10  C10 UNL     1     -35.234  16.051  -2.122  1.00 20.00     0.015 C 
HETATM   11  C11 UNL     1     -33.050  16.244  -3.338  1.00 20.00     0.015 C 
ENDBRANCH   7   8
BRANCH   6  12
HETATM   12  C1  UNL     1     -32.669  18.679   3.128  1.00 20.00     0.235 C 
HETATM   13  O13 UNL     1     -32.291  17.965   4.052  1.00 20.00    -0.306 OA
ENDBRANCH   6  12
TORSDOF 2
ENDMDL
MODEL 6
REMARK VINA RESULT:      -4.6      2.630      5.134
REMARK  2 active torsions:
REMARK  status: ('A' for Active; 'I' for Inactive)
REMARK    1  A    between atoms: C1_1  and  C7_7 
REMARK    2  A    between atoms: C8_8  and  C12_12 
ROOT
HETATM    1  C2  UNL     1     -35.971  17.130  -1.983  1.00 20.00     0.001 C 
HETATM    2  C3  UNL     1     -34.633  17.061  -1.249  1.00 20.00     0.011 C 
HETATM    3  C4  UNL     1     -32.836  16.510  -3.012  1.00 20.00     0.012 C 
HETATM    4  C5  UNL     1     -36.175  16.083  -3.075  1.00 20.00     0.005 C 
HETATM    5  C6  UNL     1     -33.770  15.487  -3.658  1.00 20.00     0.006 C 
HETATM    6  C7  UNL     1     -33.473  17.565  -2.106  1.00 20.00     0.047 C 
HETATM    7  C8  UNL     1     -35.101  16.053  -4.176  1.00 20.00    -0.007 C 
ENDROOT
BRANCH   7   8
HETATM    8  C12 UNL     1     -35.606  15.177  -5.331  1.00 20.00    -0.048 C 
HETATM    9  C9  UNL     1     -36.118  13.840  -4.776  1.00 20.00     0.015 C 
HETATM   10  C10 UNL     1     -34.457  14.915  -6.316  1.00 20.00     0.015 C 
HETATM   11  C11 UNL     1     -36.749  15.899  -6.061  1.00 20.00     0.015 C 
ENDBRANCH   7   8
BRANCH   6  12
HETATM   12  C1  UNL     1     -32.401  18.112  -1.208  1.00 20.00     0.235 C 
HETATM   13  O13 UNL     1     -31.485  18.824  -1.606  1.00 20.00    -0.306 OA
ENDBRANCH   6  12
TORSDOF 2
ENDMDL
MODEL 7
REMARK VINA RESULT:      -4.6      2.632      5.139
REMARK  2 active torsions:
REMARK  status: ('A' for Active; 'I' for Inactive)
REMARK    1  A    between atoms: C1_1  and  C7_7 
REMARK    2  A    between atoms: C8_8  and  C12_12 
ROOT
HETATM    1  C2  UNL     1     -35.999  17.216  -2.023  1.00 20.00     0.001 C 
HETATM    2  C3  UNL     1     -34.672  17.101  -1.275  1.00 20.00     0.011 C 
HETATM    3  C4  UNL     1     -32.889  16.425  -3.009  1.00 20.00     0.012 C 
HETATM    4  C5  UNL     1     -36.244  16.155  -3.092  1.00 20.00     0.005 C 
HETATM    5  C6  UNL     1     -33.866  15.433  -3.639  1.00 20.00     0.006 C 
HETATM    6  C7  UNL     1     -33.482  17.530  -2.132  1.00 20.00     0.047 C 
HETATM    7  C8  UNL     1     -35.164  16.049  -4.183  1.00 20.00    -0.007 C 
ENDROOT
BRANCH   7   8
HETATM    8  C12 UNL     1     -35.701  15.171  -5.322  1.00 20.00    -0.048 C 
HETATM    9  C9  UNL     1     -34.585  14.918  -6.345  1.00 20.00     0.015 C 
HETATM   10  C10 UNL     1     -36.873  15.886  -6.010  1.00 20.00     0.015 C 
HETATM   11  C11 UNL     1     -36.186  13.830  -4.751  1.00 20.00     0.015 C 
ENDBRANCH   7   8
BRANCH   6  12
HETATM   12  C1  UNL     1     -32.393  18.046  -1.238  1.00 20.00     0.235 C 
HETATM   13  O13 UNL     1     -31.519  18.820  -1.614  1.00 20.00    -0.306 OA
ENDBRANCH   6  12
TORSDOF 2
ENDMDL
MODEL 8
REMARK VINA RESULT:      -4.3      1.944      2.361
REMARK  2 active torsions:
REMARK  status: ('A' for Active; 'I' for Inactive)
REMARK    1  A    between atoms: C1_1  and  C7_7 
REMARK    2  A    between atoms: C8_8  and  C12_12 
ROOT
HETATM    1  C2  UNL     1     -34.753  14.218  -3.857  1.00 20.00     0.001 C 
HETATM    2  C3  UNL     1     -35.515  14.481  -5.155  1.00 20.00     0.011 C 
HETATM    3  C4  UNL     1     -35.095  16.943  -5.788  1.00 20.00     0.012 C 
HETATM    4  C5  UNL     1     -34.784  15.352  -2.837  1.00 20.00     0.005 C 
HETATM    5  C6  UNL     1     -35.270  17.357  -4.328  1.00 20.00     0.006 C 
HETATM    6  C7  UNL     1     -34.790  15.470  -6.066  1.00 20.00     0.047 C 
HETATM    7  C8  UNL     1     -34.281  16.715  -3.342  1.00 20.00    -0.007 C 
ENDROOT
BRANCH   7   8
HETATM    8  C12 UNL     1     -34.092  17.647  -2.137  1.00 20.00    -0.048 C 
HETATM    9  C9  UNL     1     -34.866  17.092  -0.933  1.00 20.00     0.015 C 
HETATM   10  C10 UNL     1     -34.620  19.047  -2.484  1.00 20.00     0.015 C 
HETATM   11  C11 UNL     1     -32.599  17.737  -1.788  1.00 20.00     0.015 C 
ENDBRANCH   7   8
BRANCH   6  12
HETATM   12  C1  UNL     1     -35.155  15.182  -7.493  1.00 20.00     0.235 C 
HETATM   13  O13 UNL     1     -36.226  14.688  -7.830  1.00 20.00    -0.306 OA
ENDBRANCH   6  12
TORSDOF 2
ENDMDL
MODEL 9
REMARK VINA RESULT:      -4.3      2.892      5.131
REMARK  2 active torsions:
REMARK  status: ('A' for Active; 'I' for Inactive)
REMARK    1  A    between atoms: C1_1  and  C7_7 
REMARK    2  A    between atoms: C8_8  and  C12_12 
ROOT
HETATM    1  C2  UNL     1     -33.186  18.945  -4.498  1.00 20.00     0.001 C 
HETATM    2  C3  UNL     1     -33.130  19.260  -3.004  1.00 20.00     0.011 C 
HETATM    3  C4  UNL     1     -33.324  17.014  -1.755  1.00 20.00     0.012 C 
HETATM    4  C5  UNL     1     -34.175  17.855  -4.902  1.00 20.00     0.005 C 
HETATM    5  C6  UNL     1     -34.414  16.559  -2.725  1.00 20.00     0.006 C 
HETATM    6  C7  UNL     1     -32.424  18.166  -2.205  1.00 20.00     0.047 C 
HETATM    7  C8  UNL     1     -33.992  16.498  -4.201  1.00 20.00    -0.007 C 
ENDROOT
BRANCH   7   8
HETATM    8  C12 UNL     1     -34.846  15.451  -4.928  1.00 20.00    -0.048 C 
HETATM    9  C9  UNL     1     -34.986  14.201  -4.047  1.00 20.00     0.015 C 
HETATM   10  C10 UNL     1     -34.171  15.069  -6.254  1.00 20.00     0.015 C 
HETATM   11  C11 UNL     1     -36.239  16.033  -5.214  1.00 20.00     0.015 C 
ENDBRANCH   7   8
BRANCH   6  12
HETATM   12  C1  UNL     1     -31.804  18.775  -0.981  1.00 20.00     0.235 C 
HETATM   13  O13 UNL     1     -30.674  18.502  -0.588  1.00 20.00    -0.306 OA
ENDBRANCH   6  12
TORSDOF 2
ENDMDL
