MODEL 1
REMARK VINA RESULT:      -4.5      0.000      0.000
REMARK  2 active torsions:
REMARK  status: ('A' for Active; 'I' for Inactive)
REMARK    1  A    between atoms: C1_1  and  C5_5 
REMARK    2  A    between atoms: C6_6  and  C8_8 
ROOT
HETATM    1  C2  UNL     1     -36.075  16.038  -3.796  1.00 20.00     0.012 C 
HETATM    2  C3  UNL     1     -35.319  15.938  -2.477  1.00 20.00     0.005 C 
HETATM    3  C4  UNL     1     -34.053  14.675  -4.076  1.00 20.00     0.016 C 
HETATM    4  C5  UNL     1     -35.396  15.030  -4.718  1.00 20.00     0.047 C 
HETATM    5  C6  UNL     1     -33.882  15.631  -2.891  1.00 20.00    -0.014 C 
ENDROOT
BRANCH   4   6
HETATM    6  C1  UNL     1     -36.256  13.783  -4.791  1.00 20.00     0.235 C 
HETATM    7  O9  UNL     1     -35.856  12.667  -4.478  1.00 20.00    -0.306 OA
ENDBRANCH   4   6
BRANCH   5   8
HETATM    8  C8  UNL     1     -33.111  16.891  -3.281  1.00 20.00     0.000 C 
HETATM    9  C7  UNL     1     -32.761  17.726  -2.089  1.00 20.00     0.005 C 
ENDBRANCH   5   8
TORSDOF 2
ENDMDL
MODEL 2
REMARK VINA RESULT:      -4.3     16.750     17.756
REMARK  2 active torsions:
REMARK  status: ('A' for Active; 'I' for Inactive)
REMARK    1  A    between atoms: C1_1  and  C5_5 
REMARK    2  A    between atoms: C6_6  and  C8_8 
ROOT
HETATM    1  C2  UNL     1     -23.307  19.132   9.019  1.00 20.00     0.012 C 
HETATM    2  C3  UNL     1     -24.701  18.555   9.235  1.00 20.00     0.005 C 
HETATM    3  C4  UNL     1     -23.159  16.914  10.061  1.00 20.00     0.016 C 
HETATM    4  C5  UNL     1     -22.353  17.978   9.312  1.00 20.00     0.047 C 
HETATM    5  C6  UNL     1     -24.519  17.549  10.368  1.00 20.00    -0.014 C 
ENDROOT
BRANCH   4   6
HETATM    6  C1  UNL     1     -21.872  17.400   7.995  1.00 20.00     0.235 C 
HETATM    7  O9  UNL     1     -22.146  17.886   6.903  1.00 20.00    -0.306 OA
ENDBRANCH   4   6
BRANCH   5   8
HETATM    8  C8  UNL     1     -24.540  18.215  11.743  1.00 20.00     0.000 C 
HETATM    9  C7  UNL     1     -25.868  18.838  12.044  1.00 20.00     0.005 C 
ENDBRANCH   5   8
TORSDOF 2
ENDMDL
MODEL 3
REMARK VINA RESULT:      -4.3      0.974      1.572
REMARK  2 active torsions:
REMARK  status: ('A' for Active; 'I' for Inactive)
REMARK    1  A    between atoms: C1_1  and  C5_5 
REMARK    2  A    between atoms: C6_6  and  C8_8 
ROOT
HETATM    1  C2  UNL     1     -33.883  15.291  -4.903  1.00 20.00     0.012 C 
HETATM    2  C3  UNL     1     -34.272  16.746  -4.672  1.00 20.00     0.005 C 
HETATM    3  C4  UNL     1     -34.954  15.548  -2.709  1.00 20.00     0.016 C 
HETATM    4  C5  UNL     1     -34.549  14.520  -3.768  1.00 20.00     0.047 C 
HETATM    5  C6  UNL     1     -34.339  16.879  -3.153  1.00 20.00    -0.014 C 
ENDROOT
BRANCH   4   6
HETATM    6  C1  UNL     1     -35.796  13.845  -4.306  1.00 20.00     0.235 C 
HETATM    7  O9  UNL     1     -35.867  12.643  -4.540  1.00 20.00    -0.306 OA
ENDBRANCH   4   6
BRANCH   5   8
HETATM    8  C8  UNL     1     -32.963  17.108  -2.529  1.00 20.00     0.000 C 
HETATM    9  C7  UNL     1     -33.051  17.852  -1.234  1.00 20.00     0.005 C 
ENDBRANCH   5   8
TORSDOF 2
ENDMDL
MODEL 4
REMARK VINA RESULT:      -4.1     10.166     12.284
REMARK  2 active torsions:
REMARK  status: ('A' for Active; 'I' for Inactive)
REMARK    1  A    between atoms: C1_1  and  C5_5 
REMARK    2  A    between atoms: C6_6  and  C8_8 
ROOT
HETATM    1  C2  UNL     1     -41.653   7.553  -1.383  1.00 20.00     0.012 C 
HETATM    2  C3  UNL     1     -41.143   6.191  -0.931  1.00 20.00     0.005 C 
HETATM    3  C4  UNL     1     -42.478   7.039   0.871  1.00 20.00     0.016 C 
HETATM    4  C5  UNL     1     -42.278   8.173  -0.136  1.00 20.00     0.047 C 
HETATM    5  C6  UNL     1     -42.152   5.743   0.123  1.00 20.00    -0.014 C 
ENDROOT
BRANCH   4   6
HETATM    6  C1  UNL     1     -41.306   9.184   0.441  1.00 20.00     0.235 C 
HETATM    7  O9  UNL     1     -41.476  10.397   0.377  1.00 20.00    -0.306 OA
ENDBRANCH   4   6
BRANCH   5   8
HETATM    8  C8  UNL     1     -43.398   5.112  -0.497  1.00 20.00     0.000 C 
HETATM    9  C7  UNL     1     -43.069   4.293  -1.706  1.00 20.00     0.005 C 
ENDBRANCH   5   8
TORSDOF 2
ENDMDL
MODEL 5
REMARK VINA RESULT:      -4.0     16.034     17.749
REMARK  2 active torsions:
REMARK  status: ('A' for Active; 'I' for Inactive)
REMARK    1  A    between atoms: C1_1  and  C5_5 
REMARK    2  A    between atoms: C6_6  and  C8_8 
ROOT
HETATM    1  C2  UNL     1     -22.663  17.281   8.857  1.00 20.00     0.012 C 
HETATM    2  C3  UNL     1     -22.109  17.887  10.141  1.00 20.00     0.005 C 
HETATM    3  C4  UNL     1     -24.474  18.283  10.178  1.00 20.00     0.016 C 
HETATM    4  C5  UNL     1     -24.108  17.766   8.785  1.00 20.00     0.047 C 
HETATM    5  C6  UNL     1     -23.303  17.908  11.092  1.00 20.00    -0.014 C 
ENDROOT
BRANCH   4   6
HETATM    6  C1  UNL     1     -24.186  18.912   7.794  1.00 20.00     0.235 C 
HETATM    7  O9  UNL     1     -23.717  18.860   6.662  1.00 20.00    -0.306 OA
ENDBRANCH   4   6
BRANCH   5   8
HETATM    8  C8  UNL     1     -23.523  16.560  11.777  1.00 20.00     0.000 C 
HETATM    9  C7  UNL     1     -24.977  16.241  11.935  1.00 20.00     0.005 C 
ENDBRANCH   5   8
TORSDOF 2
ENDMDL
MODEL 6
REMARK VINA RESULT:      -4.0     11.229     11.754
REMARK  2 active torsions:
REMARK  status: ('A' for Active; 'I' for Inactive)
REMARK    1  A    between atoms: C1_1  and  C5_5 
REMARK    2  A    between atoms: C6_6  and  C8_8 
ROOT
HETATM    1  C2  UNL     1     -34.039   6.935   4.473  1.00 20.00     0.012 C 
HETATM    2  C3  UNL     1     -32.579   7.166   4.106  1.00 20.00     0.005 C 
HETATM    3  C4  UNL     1     -33.396   5.495   2.593  1.00 20.00     0.016 C 
HETATM    4  C5  UNL     1     -34.456   5.703   3.677  1.00 20.00     0.047 C 
HETATM    5  C6  UNL     1     -32.484   6.725   2.648  1.00 20.00    -0.014 C 
ENDROOT
BRANCH   4   6
HETATM    6  C1  UNL     1     -34.458   4.503   4.605  1.00 20.00     0.235 C 
HETATM    7  O9  UNL     1     -34.616   4.588   5.819  1.00 20.00    -0.306 OA
ENDBRANCH   4   6
BRANCH   5   8
HETATM    8  C8  UNL     1     -32.940   7.817   1.681  1.00 20.00     0.000 C 
HETATM    9  C7  UNL     1     -32.040   7.921   0.489  1.00 20.00     0.005 C 
ENDBRANCH   5   8
TORSDOF 2
ENDMDL
MODEL 7
REMARK VINA RESULT:      -4.0     11.441     12.101
REMARK  2 active torsions:
REMARK  status: ('A' for Active; 'I' for Inactive)
REMARK    1  A    between atoms: C1_1  and  C5_5 
REMARK    2  A    between atoms: C6_6  and  C8_8 
ROOT
HETATM    1  C2  UNL     1     -33.022   7.171   3.990  1.00 20.00     0.012 C 
HETATM    2  C3  UNL     1     -34.507   6.848   4.101  1.00 20.00     0.005 C 
HETATM    3  C4  UNL     1     -33.588   5.264   2.553  1.00 20.00     0.016 C 
HETATM    4  C5  UNL     1     -32.521   6.327   2.823  1.00 20.00     0.047 C 
HETATM    5  C6  UNL     1     -34.602   5.380   3.695  1.00 20.00    -0.014 C 
ENDROOT
BRANCH   4   6
HETATM    6  C1  UNL     1     -32.387   7.217   1.602  1.00 20.00     0.235 C 
HETATM    7  O9  UNL     1     -32.796   8.372   1.560  1.00 20.00    -0.306 OA
ENDBRANCH   4   6
BRANCH   5   8
HETATM    8  C8  UNL     1     -34.271   4.436   4.851  1.00 20.00     0.000 C 
HETATM    9  C7  UNL     1     -34.723   4.984   6.168  1.00 20.00     0.005 C 
ENDBRANCH   5   8
TORSDOF 2
ENDMDL
MODEL 8
REMARK VINA RESULT:      -3.9     17.286     18.050
REMARK  2 active torsions:
REMARK  status: ('A' for Active; 'I' for Inactive)
REMARK    1  A    between atoms: C1_1  and  C5_5 
REMARK    2  A    between atoms: C6_6  and  C8_8 
ROOT
HETATM    1  C2  UNL     1     -24.103  16.202  10.779  1.00 20.00     0.012 C 
HETATM    2  C3  UNL     1     -23.907  16.941  12.097  1.00 20.00     0.005 C 
HETATM    3  C4  UNL     1     -24.483  18.608  10.471  1.00 20.00     0.016 C 
HETATM    4  C5  UNL     1     -24.214  17.300   9.725  1.00 20.00     0.047 C 
HETATM    5  C6  UNL     1     -24.723  18.221  11.934  1.00 20.00    -0.014 C 
ENDROOT
BRANCH   4   6
HETATM    6  C1  UNL     1     -22.888  17.408   8.996  1.00 20.00     0.235 C 
HETATM    7  O9  UNL     1     -22.224  16.436   8.653  1.00 20.00    -0.306 OA
ENDBRANCH   4   6
BRANCH   5   8
HETATM    8  C8  UNL     1     -26.206  18.005  12.231  1.00 20.00     0.000 C 
HETATM    9  C7  UNL     1     -27.066  19.042  11.579  1.00 20.00     0.005 C 
ENDBRANCH   5   8
TORSDOF 2
ENDMDL
MODEL 9
REMARK VINA RESULT:      -3.9      1.047      1.096
REMARK  2 active torsions:
REMARK  status: ('A' for Active; 'I' for Inactive)
REMARK    1  A    between atoms: C1_1  and  C5_5 
REMARK    2  A    between atoms: C6_6  and  C8_8 
ROOT
HETATM    1  C2  UNL     1     -35.577  16.580  -4.790  1.00 20.00     0.012 C 
HETATM    2  C3  UNL     1     -35.608  16.136  -3.333  1.00 20.00     0.005 C 
HETATM    3  C4  UNL     1     -33.968  14.763  -4.419  1.00 20.00     0.016 C 
HETATM    4  C5  UNL     1     -34.725  15.534  -5.502  1.00 20.00     0.047 C 
HETATM    5  C6  UNL     1     -34.238  15.503  -3.104  1.00 20.00    -0.014 C 
ENDROOT
BRANCH   4   6
HETATM    6  C1  UNL     1     -35.645  14.579  -6.239  1.00 20.00     0.235 C 
HETATM    7  O9  UNL     1     -36.107  13.561  -5.735  1.00 20.00    -0.306 OA
ENDBRANCH   4   6
BRANCH   5   8
HETATM    8  C8  UNL     1     -33.161  16.544  -2.804  1.00 20.00     0.000 C 
HETATM    9  C7  UNL     1     -33.546  17.436  -1.665  1.00 20.00     0.005 C 
ENDBRANCH   5   8
TORSDOF 2
ENDMDL
