MODEL 1
REMARK VINA RESULT:      -4.3      0.000      0.000
REMARK  2 active torsions:
REMARK  status: ('A' for Active; 'I' for Inactive)
REMARK    1  A    between atoms: C5_5  and  C6_6 
REMARK    2  A    between atoms: C6_6  and  S8_8 
ROOT
HETATM    1  C1  UNL     1     -35.114   4.959   4.461  1.00 20.00     0.027 C 
HETATM    2  C2  UNL     1     -33.962   5.271   3.512  1.00 20.00     0.009 C 
HETATM    3  C3  UNL     1     -34.760   5.359   5.887  1.00 20.00     0.167 C 
HETATM    4  C4  UNL     1     -33.236   7.021   5.160  1.00 20.00     0.172 C 
HETATM    5  C5  UNL     1     -33.500   6.724   3.682  1.00 20.00     0.019 C 
HETATM    6  O7  UNL     1     -34.392   6.736   5.949  1.00 20.00    -0.391 OA
ENDROOT
BRANCH   5   7
HETATM    7  C6  UNL     1     -32.269   7.014   2.832  1.00 20.00     0.077 C 
BRANCH   7   8
HETATM    8  S8  UNL     1     -32.716   8.032   1.403  1.00 20.00    -0.182 SA
HETATM    9  H20 UNL     1     -31.593   7.809   0.706  1.00 20.00     0.101 HD
ENDBRANCH   7   8
ENDBRANCH   5   7
TORSDOF 2
ENDMDL
MODEL 2
REMARK VINA RESULT:      -3.6      1.256      1.915
REMARK  2 active torsions:
REMARK  status: ('A' for Active; 'I' for Inactive)
REMARK    1  A    between atoms: C5_5  and  C6_6 
REMARK    2  A    between atoms: C6_6  and  S8_8 
ROOT
HETATM    1  C1  UNL     1     -33.954   6.573   5.878  1.00 20.00     0.027 C 
HETATM    2  C2  UNL     1     -33.654   6.902   4.419  1.00 20.00     0.009 C 
HETATM    3  C3  UNL     1     -35.022   5.493   5.978  1.00 20.00     0.167 C 
HETATM    4  C4  UNL     1     -34.470   4.595   3.856  1.00 20.00     0.172 C 
HETATM    5  C5  UNL     1     -33.359   5.622   3.627  1.00 20.00     0.019 C 
HETATM    6  O7  UNL     1     -34.634   4.330   5.250  1.00 20.00    -0.391 OA
ENDROOT
BRANCH   5   7
HETATM    7  C6  UNL     1     -33.183   5.922   2.142  1.00 20.00     0.077 C 
BRANCH   7   8
HETATM    8  S8  UNL     1     -32.487   7.578   1.914  1.00 20.00    -0.182 SA
HETATM    9  H20 UNL     1     -32.864   8.061   3.106  1.00 20.00     0.101 HD
ENDBRANCH   7   8
ENDBRANCH   5   7
TORSDOF 2
ENDMDL
MODEL 3
REMARK VINA RESULT:      -3.5     15.880     16.726
REMARK  2 active torsions:
REMARK  status: ('A' for Active; 'I' for Inactive)
REMARK    1  A    between atoms: C5_5  and  C6_6 
REMARK    2  A    between atoms: C6_6  and  S8_8 
ROOT
HETATM    1  C1  UNL     1     -22.765  16.958   9.482  1.00 20.00     0.027 C 
HETATM    2  C2  UNL     1     -24.120  16.706  10.136  1.00 20.00     0.009 C 
HETATM    3  C3  UNL     1     -22.019  18.072  10.204  1.00 20.00     0.167 C 
HETATM    4  C4  UNL     1     -23.145  17.654  12.246  1.00 20.00     0.172 C 
HETATM    5  C5  UNL     1     -23.961  16.506  11.648  1.00 20.00     0.019 C 
HETATM    6  O7  UNL     1     -21.881  17.772  11.591  1.00 20.00    -0.391 OA
ENDROOT
BRANCH   5   7
HETATM    7  C6  UNL     1     -25.318  16.379  12.332  1.00 20.00     0.077 C 
BRANCH   7   8
HETATM    8  S8  UNL     1     -26.313  17.862  12.036  1.00 20.00    -0.182 SA
HETATM    9  H20 UNL     1     -27.436  17.401  12.606  1.00 20.00     0.101 HD
ENDBRANCH   7   8
ENDBRANCH   5   7
TORSDOF 2
ENDMDL
MODEL 4
REMARK VINA RESULT:      -3.5     16.277     17.023
REMARK  2 active torsions:
REMARK  status: ('A' for Active; 'I' for Inactive)
REMARK    1  A    between atoms: C5_5  and  C6_6 
REMARK    2  A    between atoms: C6_6  and  S8_8 
ROOT
HETATM    1  C1  UNL     1     -21.302  17.777   9.314  1.00 20.00     0.027 C 
HETATM    2  C2  UNL     1     -22.487  17.764  10.275  1.00 20.00     0.009 C 
HETATM    3  C3  UNL     1     -21.742  17.384   7.911  1.00 20.00     0.167 C 
HETATM    4  C4  UNL     1     -23.959  18.138   8.276  1.00 20.00     0.172 C 
HETATM    5  C5  UNL     1     -23.652  18.584   9.707  1.00 20.00     0.019 C 
HETATM    6  O7  UNL     1     -22.793  18.233   7.455  1.00 20.00    -0.391 OA
ENDROOT
BRANCH   5   7
HETATM    7  C6  UNL     1     -24.886  18.476  10.595  1.00 20.00     0.077 C 
BRANCH   7   8
HETATM    8  S8  UNL     1     -24.445  17.763  12.200  1.00 20.00    -0.182 SA
HETATM    9  H20 UNL     1     -25.677  17.336  12.514  1.00 20.00     0.101 HD
ENDBRANCH   7   8
ENDBRANCH   5   7
TORSDOF 2
ENDMDL
MODEL 5
REMARK VINA RESULT:      -3.5     15.811     16.109
REMARK  2 active torsions:
REMARK  status: ('A' for Active; 'I' for Inactive)
REMARK    1  A    between atoms: C5_5  and  C6_6 
REMARK    2  A    between atoms: C6_6  and  S8_8 
ROOT
HETATM    1  C1  UNL     1     -25.443  16.607  12.229  1.00 20.00     0.027 C 
HETATM    2  C2  UNL     1     -24.163  16.290  11.462  1.00 20.00     0.009 C 
HETATM    3  C3  UNL     1     -25.694  18.108  12.263  1.00 20.00     0.167 C 
HETATM    4  C4  UNL     1     -24.494  18.465  10.251  1.00 20.00     0.172 C 
HETATM    5  C5  UNL     1     -24.172  16.977  10.091  1.00 20.00     0.019 C 
HETATM    6  O7  UNL     1     -25.732  18.643  10.941  1.00 20.00    -0.391 OA
ENDROOT
BRANCH   5   7
HETATM    7  C6  UNL     1     -22.847  16.774   9.365  1.00 20.00     0.077 C 
BRANCH   7   8
HETATM    8  S8  UNL     1     -21.907  18.322   9.328  1.00 20.00    -0.182 SA
HETATM    9  H20 UNL     1     -20.773  17.794   8.845  1.00 20.00     0.101 HD
ENDBRANCH   7   8
ENDBRANCH   5   7
TORSDOF 2
ENDMDL
MODEL 6
REMARK VINA RESULT:      -3.4     16.132     16.529
REMARK  2 active torsions:
REMARK  status: ('A' for Active; 'I' for Inactive)
REMARK    1  A    between atoms: C5_5  and  C6_6 
REMARK    2  A    between atoms: C6_6  and  S8_8 
ROOT
HETATM    1  C1  UNL     1     -23.753  18.482   7.992  1.00 20.00     0.027 C 
HETATM    2  C2  UNL     1     -24.342  18.894   9.337  1.00 20.00     0.009 C 
HETATM    3  C3  UNL     1     -22.459  17.704   8.186  1.00 20.00     0.167 C 
HETATM    4  C4  UNL     1     -23.106  16.950  10.338  1.00 20.00     0.172 C 
HETATM    5  C5  UNL     1     -24.448  17.683  10.273  1.00 20.00     0.019 C 
HETATM    6  O7  UNL     1     -22.671  16.574   9.030  1.00 20.00    -0.391 OA
ENDROOT
BRANCH   5   7
HETATM    7  C6  UNL     1     -24.916  18.101  11.663  1.00 20.00     0.077 C 
BRANCH   7   8
HETATM    8  S8  UNL     1     -26.349  19.200  11.540  1.00 20.00    -0.182 SA
HETATM    9  H20 UNL     1     -26.060  19.682  10.322  1.00 20.00     0.101 HD
ENDBRANCH   7   8
ENDBRANCH   5   7
TORSDOF 2
ENDMDL
MODEL 7
REMARK VINA RESULT:      -3.4     12.022     12.407
REMARK  2 active torsions:
REMARK  status: ('A' for Active; 'I' for Inactive)
REMARK    1  A    between atoms: C5_5  and  C6_6 
REMARK    2  A    between atoms: C6_6  and  S8_8 
ROOT
HETATM    1  C1  UNL     1     -36.439  14.058  -4.524  1.00 20.00     0.027 C 
HETATM    2  C2  UNL     1     -35.905  15.037  -3.483  1.00 20.00     0.009 C 
HETATM    3  C3  UNL     1     -35.846  14.354  -5.895  1.00 20.00     0.167 C 
HETATM    4  C4  UNL     1     -33.899  15.332  -4.964  1.00 20.00     0.172 C 
HETATM    5  C5  UNL     1     -34.373  15.091  -3.529  1.00 20.00     0.019 C 
HETATM    6  O7  UNL     1     -34.421  14.335  -5.844  1.00 20.00    -0.391 OA
ENDROOT
BRANCH   5   7
HETATM    7  C6  UNL     1     -33.831  16.157  -2.583  1.00 20.00     0.077 C 
BRANCH   7   8
HETATM    8  S8  UNL     1     -35.146  16.757  -1.492  1.00 20.00    -0.182 SA
HETATM    9  H20 UNL     1     -35.405  17.879  -2.179  1.00 20.00     0.101 HD
ENDBRANCH   7   8
ENDBRANCH   5   7
TORSDOF 2
ENDMDL
MODEL 8
REMARK VINA RESULT:      -3.4     15.853     16.385
REMARK  2 active torsions:
REMARK  status: ('A' for Active; 'I' for Inactive)
REMARK    1  A    between atoms: C5_5  and  C6_6 
REMARK    2  A    between atoms: C6_6  and  S8_8 
ROOT
HETATM    1  C1  UNL     1     -25.410  18.897   7.858  1.00 20.00     0.027 C 
HETATM    2  C2  UNL     1     -24.999  18.660   9.307  1.00 20.00     0.009 C 
HETATM    3  C3  UNL     1     -24.200  19.263   7.008  1.00 20.00     0.167 C 
HETATM    4  C4  UNL     1     -22.707  18.110   8.442  1.00 20.00     0.172 C 
HETATM    5  C5  UNL     1     -23.831  17.668   9.382  1.00 20.00     0.019 C 
HETATM    6  O7  UNL     1     -23.192  18.259   7.107  1.00 20.00    -0.391 OA
ENDROOT
BRANCH   5   7
HETATM    7  C6  UNL     1     -23.327  17.518  10.813  1.00 20.00     0.077 C 
BRANCH   7   8
HETATM    8  S8  UNL     1     -24.294  16.265  11.691  1.00 20.00    -0.182 SA
HETATM    9  H20 UNL     1     -25.345  16.281  10.859  1.00 20.00     0.101 HD
ENDBRANCH   7   8
ENDBRANCH   5   7
TORSDOF 2
ENDMDL
MODEL 9
REMARK VINA RESULT:      -3.3     11.813     12.229
REMARK  2 active torsions:
REMARK  status: ('A' for Active; 'I' for Inactive)
REMARK    1  A    between atoms: C5_5  and  C6_6 
REMARK    2  A    between atoms: C6_6  and  S8_8 
ROOT
HETATM    1  C1  UNL     1     -34.876  14.238  -4.073  1.00 20.00     0.027 C 
HETATM    2  C2  UNL     1     -35.538  15.310  -3.213  1.00 20.00     0.009 C 
HETATM    3  C3  UNL     1     -33.634  14.789  -4.759  1.00 20.00     0.167 C 
HETATM    4  C4  UNL     1     -33.287  16.414  -3.070  1.00 20.00     0.172 C 
HETATM    5  C5  UNL     1     -34.512  15.957  -2.274  1.00 20.00     0.019 C 
HETATM    6  O7  UNL     1     -32.723  15.324  -3.801  1.00 20.00    -0.391 OA
ENDROOT
BRANCH   5   7
HETATM    7  C6  UNL     1     -35.130  17.116  -1.499  1.00 20.00     0.077 C 
BRANCH   7   8
HETATM    8  S8  UNL     1     -33.835  18.101  -0.705  1.00 20.00    -0.182 SA
HETATM    9  H20 UNL     1     -33.924  19.153  -1.532  1.00 20.00     0.101 HD
ENDBRANCH   7   8
ENDBRANCH   5   7
TORSDOF 2
ENDMDL
