MODEL 1
REMARK VINA RESULT:      -4.7      0.000      0.000
REMARK  3 active torsions:
REMARK  status: ('A' for Active; 'I' for Inactive)
REMARK    1  A    between atoms: C6_6  and  C9_9 
REMARK    2  A    between atoms: C7_7  and  C10_10 
REMARK    3  A    between atoms: C9_9  and  C11_11 
ROOT
HETATM    1  C1  UNL     1     -33.185  14.935  -4.141  1.00 20.00     0.001 C 
HETATM    2  C2  UNL     1     -33.159  16.277  -3.394  1.00 20.00     0.005 C 
HETATM    3  C3  UNL     1     -34.392  14.030  -3.897  1.00 20.00     0.005 C 
HETATM    4  C4  UNL     1     -35.597  16.477  -2.555  1.00 20.00     0.005 C 
HETATM    5  C5  UNL     1     -35.990  16.066  -3.974  1.00 20.00     0.006 C 
HETATM    6  C6  UNL     1     -34.100  16.374  -2.185  1.00 20.00    -0.014 C 
HETATM    7  C7  UNL     1     -35.752  14.594  -4.330  1.00 20.00    -0.001 C 
ENDROOT
BRANCH   6   8
HETATM    8  C9  UNL     1     -33.704  17.565  -1.304  1.00 20.00     0.004 C 
BRANCH   8   9
HETATM    9  C11 UNL     1     -32.365  18.144  -1.737  1.00 20.00    -0.004 C 
HETATM   10  C8  UNL     1     -31.450  18.354  -0.541  1.00 20.00     0.005 C 
ENDBRANCH   8   9
ENDBRANCH   6   8
BRANCH   7  11
HETATM   11  C10 UNL     1     -35.969  14.392  -5.834  1.00 20.00     0.119 C 
HETATM   12 CL12 UNL     1     -35.675  15.911  -6.695  1.00 20.00    -0.130 Cl
ENDBRANCH   7  11
TORSDOF 3
ENDMDL
MODEL 2
REMARK VINA RESULT:      -4.5      1.503      1.741
REMARK  3 active torsions:
REMARK  status: ('A' for Active; 'I' for Inactive)
REMARK    1  A    between atoms: C6_6  and  C9_9 
REMARK    2  A    between atoms: C7_7  and  C10_10 
REMARK    3  A    between atoms: C9_9  and  C11_11 
ROOT
HETATM    1  C1  UNL     1     -34.274  16.182  -5.632  1.00 20.00     0.001 C 
HETATM    2  C2  UNL     1     -34.162  17.345  -4.634  1.00 20.00     0.005 C 
HETATM    3  C3  UNL     1     -33.948  14.786  -5.105  1.00 20.00     0.005 C 
HETATM    4  C4  UNL     1     -34.036  16.105  -2.368  1.00 20.00     0.005 C 
HETATM    5  C5  UNL     1     -35.206  15.276  -2.896  1.00 20.00     0.006 C 
HETATM    6  C6  UNL     1     -33.339  17.051  -3.372  1.00 20.00    -0.014 C 
HETATM    7  C7  UNL     1     -34.861  14.258  -3.990  1.00 20.00    -0.001 C 
ENDROOT
BRANCH   6   8
HETATM    8  C9  UNL     1     -32.966  18.362  -2.669  1.00 20.00     0.004 C 
BRANCH   8   9
HETATM    9  C11 UNL     1     -32.866  18.165  -1.163  1.00 20.00    -0.004 C 
HETATM   10  C8  UNL     1     -31.431  18.329  -0.686  1.00 20.00     0.005 C 
ENDBRANCH   8   9
ENDBRANCH   6   8
BRANCH   7  11
HETATM   11  C10 UNL     1     -36.155  13.680  -4.576  1.00 20.00     0.119 C 
HETATM   12 CL12 UNL     1     -37.524  14.722  -4.158  1.00 20.00    -0.130 Cl
ENDBRANCH   7  11
TORSDOF 3
ENDMDL
MODEL 3
REMARK VINA RESULT:      -4.5      1.449      1.982
REMARK  3 active torsions:
REMARK  status: ('A' for Active; 'I' for Inactive)
REMARK    1  A    between atoms: C6_6  and  C9_9 
REMARK    2  A    between atoms: C7_7  and  C10_10 
REMARK    3  A    between atoms: C9_9  and  C11_11 
ROOT
HETATM    1  C1  UNL     1     -33.329  16.445  -4.092  1.00 20.00     0.001 C 
HETATM    2  C2  UNL     1     -33.063  17.719  -3.276  1.00 20.00     0.005 C 
HETATM    3  C3  UNL     1     -33.894  15.244  -3.335  1.00 20.00     0.005 C 
HETATM    4  C4  UNL     1     -34.342  17.233  -1.081  1.00 20.00     0.005 C 
HETATM    5  C5  UNL     1     -35.484  16.782  -1.990  1.00 20.00     0.006 C 
HETATM    6  C6  UNL     1     -32.981  17.520  -1.756  1.00 20.00    -0.014 C 
HETATM    7  C7  UNL     1     -35.277  15.439  -2.702  1.00 20.00    -0.001 C 
ENDROOT
BRANCH   6   8
HETATM    8  C9  UNL     1     -32.328  18.742  -1.099  1.00 20.00     0.004 C 
BRANCH   8   9
HETATM    9  C11 UNL     1     -31.079  18.345  -0.326  1.00 20.00    -0.004 C 
HETATM   10  C8  UNL     1     -31.310  18.451   1.174  1.00 20.00     0.005 C 
ENDBRANCH   8   9
ENDBRANCH   6   8
BRANCH   7  11
HETATM   11  C10 UNL     1     -36.385  15.238  -3.744  1.00 20.00     0.119 C 
HETATM   12 CL12 UNL     1     -36.203  13.657  -4.519  1.00 20.00    -0.130 Cl
ENDBRANCH   7  11
TORSDOF 3
ENDMDL
MODEL 4
REMARK VINA RESULT:      -4.4      1.482      2.500
REMARK  3 active torsions:
REMARK  status: ('A' for Active; 'I' for Inactive)
REMARK    1  A    between atoms: C6_6  and  C9_9 
REMARK    2  A    between atoms: C7_7  and  C10_10 
REMARK    3  A    between atoms: C9_9  and  C11_11 
ROOT
HETATM    1  C1  UNL     1     -36.020  16.677  -2.593  1.00 20.00     0.001 C 
HETATM    2  C2  UNL     1     -35.026  16.822  -1.431  1.00 20.00     0.005 C 
HETATM    3  C3  UNL     1     -35.509  17.033  -3.988  1.00 20.00     0.005 C 
HETATM    4  C4  UNL     1     -32.769  17.048  -2.673  1.00 20.00     0.005 C 
HETATM    5  C5  UNL     1     -33.250  15.862  -3.509  1.00 20.00     0.006 C 
HETATM    6  C6  UNL     1     -33.799  17.698  -1.722  1.00 20.00    -0.014 C 
HETATM    7  C7  UNL     1     -34.359  16.169  -4.523  1.00 20.00    -0.001 C 
ENDROOT
BRANCH   6   8
HETATM    8  C9  UNL     1     -33.110  18.091  -0.409  1.00 20.00     0.004 C 
BRANCH   8   9
HETATM    9  C11 UNL     1     -31.648  18.444  -0.644  1.00 20.00    -0.004 C 
HETATM   10  C8  UNL     1     -30.824  18.218   0.614  1.00 20.00     0.005 C 
ENDBRANCH   8   9
ENDBRANCH   6   8
BRANCH   7  11
HETATM   11  C10 UNL     1     -34.893  14.856  -5.108  1.00 20.00     0.119 C 
HETATM   12 CL12 UNL     1     -34.782  13.568  -3.898  1.00 20.00    -0.130 Cl
ENDBRANCH   7  11
TORSDOF 3
ENDMDL
MODEL 5
REMARK VINA RESULT:      -4.4      1.136      1.530
REMARK  3 active torsions:
REMARK  status: ('A' for Active; 'I' for Inactive)
REMARK    1  A    between atoms: C6_6  and  C9_9 
REMARK    2  A    between atoms: C7_7  and  C10_10 
REMARK    3  A    between atoms: C9_9  and  C11_11 
ROOT
HETATM    1  C1  UNL     1     -33.257  14.857  -4.076  1.00 20.00     0.001 C 
HETATM    2  C2  UNL     1     -33.334  16.141  -3.235  1.00 20.00     0.005 C 
HETATM    3  C3  UNL     1     -34.510  13.985  -4.122  1.00 20.00     0.005 C 
HETATM    4  C4  UNL     1     -35.878  16.373  -2.831  1.00 20.00     0.005 C 
HETATM    5  C5  UNL     1     -36.017  16.080  -4.325  1.00 20.00     0.006 C 
HETATM    6  C6  UNL     1     -34.475  16.186  -2.209  1.00 20.00    -0.014 C 
HETATM    7  C7  UNL     1     -35.755  14.629  -4.746  1.00 20.00    -0.001 C 
ENDROOT
BRANCH   6   8
HETATM    8  C9  UNL     1     -34.216  17.296  -1.182  1.00 20.00     0.004 C 
BRANCH   8   9
HETATM    9  C11 UNL     1     -35.304  17.319  -0.118  1.00 20.00    -0.004 C 
HETATM   10  C8  UNL     1     -34.751  17.797   1.216  1.00 20.00     0.005 C 
ENDBRANCH   8   9
ENDBRANCH   6   8
BRANCH   7  11
HETATM   11  C10 UNL     1     -35.701  14.544  -6.276  1.00 20.00     0.119 C 
HETATM   12 CL12 UNL     1     -35.117  16.075  -6.945  1.00 20.00    -0.130 Cl
ENDBRANCH   7  11
TORSDOF 3
ENDMDL
MODEL 6
REMARK VINA RESULT:      -4.2      2.435      5.158
REMARK  3 active torsions:
REMARK  status: ('A' for Active; 'I' for Inactive)
REMARK    1  A    between atoms: C6_6  and  C9_9 
REMARK    2  A    between atoms: C7_7  and  C10_10 
REMARK    3  A    between atoms: C9_9  and  C11_11 
ROOT
HETATM    1  C1  UNL     1     -35.902  17.413  -2.173  1.00 20.00     0.001 C 
HETATM    2  C2  UNL     1     -36.165  16.518  -3.395  1.00 20.00     0.005 C 
HETATM    3  C3  UNL     1     -34.760  17.000  -1.247  1.00 20.00     0.005 C 
HETATM    4  C4  UNL     1     -34.021  15.074  -3.480  1.00 20.00     0.005 C 
HETATM    5  C5  UNL     1     -33.273  16.391  -3.277  1.00 20.00     0.006 C 
HETATM    6  C6  UNL     1     -35.558  15.110  -3.320  1.00 20.00    -0.014 C 
HETATM    7  C7  UNL     1     -33.358  16.995  -1.870  1.00 20.00    -0.001 C 
ENDROOT
BRANCH   6   8
HETATM    8  C9  UNL     1     -36.206  14.201  -4.372  1.00 20.00     0.004 C 
BRANCH   8   9
HETATM    9  C11 UNL     1     -36.563  14.986  -5.627  1.00 20.00    -0.004 C 
HETATM   10  C8  UNL     1     -35.577  14.698  -6.748  1.00 20.00     0.005 C 
ENDBRANCH   8   9
ENDBRANCH   6   8
BRANCH   7  11
HETATM   11  C10 UNL     1     -32.766  18.410  -1.886  1.00 20.00     0.119 C 
HETATM   12 CL12 UNL     1     -31.412  18.509  -0.750  1.00 20.00    -0.130 Cl
ENDBRANCH   7  11
TORSDOF 3
ENDMDL
MODEL 7
REMARK VINA RESULT:      -4.1      2.699      5.118
REMARK  3 active torsions:
REMARK  status: ('A' for Active; 'I' for Inactive)
REMARK    1  A    between atoms: C6_6  and  C9_9 
REMARK    2  A    between atoms: C7_7  and  C10_10 
REMARK    3  A    between atoms: C9_9  and  C11_11 
ROOT
HETATM    1  C1  UNL     1     -32.877  18.211  -2.527  1.00 20.00     0.001 C 
HETATM    2  C2  UNL     1     -32.901  16.696  -2.780  1.00 20.00     0.005 C 
HETATM    3  C3  UNL     1     -34.227  18.904  -2.353  1.00 20.00     0.005 C 
HETATM    4  C4  UNL     1     -35.334  16.080  -2.156  1.00 20.00     0.005 C 
HETATM    5  C5  UNL     1     -35.102  16.939  -0.912  1.00 20.00     0.006 C 
HETATM    6  C6  UNL     1     -34.247  16.131  -3.254  1.00 20.00    -0.014 C 
HETATM    7  C7  UNL     1     -35.063  18.454  -1.148  1.00 20.00    -0.001 C 
ENDROOT
BRANCH   6   8
HETATM    8  C9  UNL     1     -34.051  14.730  -3.847  1.00 20.00     0.004 C 
BRANCH   8   9
HETATM    9  C11 UNL     1     -35.390  14.055  -4.108  1.00 20.00    -0.004 C 
HETATM   10  C8  UNL     1     -35.889  14.357  -5.512  1.00 20.00     0.005 C 
ENDBRANCH   8   9
ENDBRANCH   6   8
BRANCH   7  11
HETATM   11  C10 UNL     1     -34.595  19.157   0.131  1.00 20.00     0.119 C 
HETATM   12 CL12 UNL     1     -33.539  18.080   1.059  1.00 20.00    -0.130 Cl
ENDBRANCH   7  11
TORSDOF 3
ENDMDL
MODEL 8
REMARK VINA RESULT:      -4.1      1.905      2.878
REMARK  3 active torsions:
REMARK  status: ('A' for Active; 'I' for Inactive)
REMARK    1  A    between atoms: C6_6  and  C9_9 
REMARK    2  A    between atoms: C7_7  and  C10_10 
REMARK    3  A    between atoms: C9_9  and  C11_11 
ROOT
HETATM    1  C1  UNL     1     -36.020  16.704  -2.579  1.00 20.00     0.001 C 
HETATM    2  C2  UNL     1     -35.099  16.850  -1.357  1.00 20.00     0.005 C 
HETATM    3  C3  UNL     1     -35.449  17.133  -3.929  1.00 20.00     0.005 C 
HETATM    4  C4  UNL     1     -32.789  17.219  -2.460  1.00 20.00     0.005 C 
HETATM    5  C5  UNL     1     -33.169  16.045  -3.362  1.00 20.00     0.006 C 
HETATM    6  C6  UNL     1     -33.899  17.788  -1.547  1.00 20.00    -0.014 C 
HETATM    7  C7  UNL     1     -34.233  16.340  -4.426  1.00 20.00    -0.001 C 
ENDROOT
BRANCH   6   8
HETATM    8  C9  UNL     1     -33.303  18.163  -0.185  1.00 20.00     0.004 C 
BRANCH   8   9
HETATM    9  C11 UNL     1     -34.341  18.033   0.921  1.00 20.00    -0.004 C 
HETATM   10  C8  UNL     1     -33.681  18.021   2.290  1.00 20.00     0.005 C 
ENDBRANCH   8   9
ENDBRANCH   6   8
BRANCH   7  11
HETATM   11  C10 UNL     1     -34.672  15.028  -5.086  1.00 20.00     0.119 C 
HETATM   12 CL12 UNL     1     -34.640  13.716  -3.897  1.00 20.00    -0.130 Cl
ENDBRANCH   7  11
TORSDOF 3
ENDMDL
MODEL 9
REMARK VINA RESULT:      -4.0      1.736      2.085
REMARK  3 active torsions:
REMARK  status: ('A' for Active; 'I' for Inactive)
REMARK    1  A    between atoms: C6_6  and  C9_9 
REMARK    2  A    between atoms: C7_7  and  C10_10 
REMARK    3  A    between atoms: C9_9  and  C11_11 
ROOT
HETATM    1  C1  UNL     1     -33.198  16.370  -3.542  1.00 20.00     0.001 C 
HETATM    2  C2  UNL     1     -33.166  17.596  -2.616  1.00 20.00     0.005 C 
HETATM    3  C3  UNL     1     -34.122  15.223  -3.139  1.00 20.00     0.005 C 
HETATM    4  C4  UNL     1     -35.251  17.210  -1.135  1.00 20.00     0.005 C 
HETATM    5  C5  UNL     1     -35.973  16.896  -2.446  1.00 20.00     0.006 C 
HETATM    6  C6  UNL     1     -33.715  17.363  -1.201  1.00 20.00    -0.014 C 
HETATM    7  C7  UNL     1     -35.620  15.551  -3.094  1.00 20.00    -0.001 C 
ENDROOT
BRANCH   6   8
HETATM    8  C9  UNL     1     -33.271  18.500  -0.271  1.00 20.00     0.004 C 
BRANCH   8   9
HETATM    9  C11 UNL     1     -34.174  18.590   0.951  1.00 20.00    -0.004 C 
HETATM   10  C8  UNL     1     -33.489  18.011   2.179  1.00 20.00     0.005 C 
ENDBRANCH   8   9
ENDBRANCH   6   8
BRANCH   7  11
HETATM   11  C10 UNL     1     -36.234  15.485  -4.497  1.00 20.00     0.119 C 
HETATM   12 CL12 UNL     1     -36.298  13.804  -5.049  1.00 20.00    -0.130 Cl
ENDBRANCH   7  11
TORSDOF 3
ENDMDL
