MODEL 1
REMARK VINA RESULT:      -3.8      0.000      0.000
REMARK  5 active torsions:
REMARK  status: ('A' for Active; 'I' for Inactive)
REMARK    1  A    between atoms: C3_3  and  C7_7 
REMARK    2  A    between atoms: C5_5  and  C6_6 
REMARK    3  A    between atoms: C5_5  and  C7_7 
REMARK    4  A    between atoms: C6_6  and  S9_9 
REMARK    5  A    between atoms: C7_7  and  O8_8 
ROOT
HETATM    1  C7  UNL     1     -24.841  17.197  11.427  1.00 20.00     0.122 C 
ENDROOT
BRANCH   1   2
HETATM    2  C3  UNL     1     -25.640  18.129  12.289  1.00 20.00     0.014 A 
HETATM    3  C1  UNL     1     -26.411  19.261  11.669  1.00 20.00     0.007 A 
HETATM    4  C2  UNL     1     -27.143  18.088  12.258  1.00 20.00     0.007 A 
ENDBRANCH   1   2
BRANCH   1   5
HETATM    5  C5  UNL     1     -23.371  17.082  11.853  1.00 20.00     0.042 C 
BRANCH   5   6
HETATM    6  C6  UNL     1     -22.354  17.781  10.951  1.00 20.00     0.076 C 
BRANCH   6   7
HETATM    7  S9  UNL     1     -23.089  18.442   9.427  1.00 20.00    -0.173 SA
HETATM    8  C4  UNL     1     -22.251  17.365   8.243  1.00 20.00     0.089 C 
ENDBRANCH   6   7
ENDBRANCH   5   6
ENDBRANCH   1   5
BRANCH   1   9
HETATM    9  O8  UNL     1     -25.427  15.894  11.493  1.00 20.00    -0.395 OA
HETATM   10  H23 UNL     1     -24.742  15.274  11.202  1.00 20.00     0.210 HD
ENDBRANCH   1   9
TORSDOF 5
ENDMDL
MODEL 2
REMARK VINA RESULT:      -3.6     17.984     18.885
REMARK  5 active torsions:
REMARK  status: ('A' for Active; 'I' for Inactive)
REMARK    1  A    between atoms: C3_3  and  C7_7 
REMARK    2  A    between atoms: C5_5  and  C6_6 
REMARK    3  A    between atoms: C5_5  and  C7_7 
REMARK    4  A    between atoms: C6_6  and  S9_9 
REMARK    5  A    between atoms: C7_7  and  O8_8 
ROOT
HETATM    1  C7  UNL     1     -33.604  14.945  -4.512  1.00 20.00     0.122 C 
ENDROOT
BRANCH   1   2
HETATM    2  C3  UNL     1     -33.853  16.233  -3.782  1.00 20.00     0.014 A 
HETATM    3  C1  UNL     1     -34.429  16.216  -2.393  1.00 20.00     0.007 A 
HETATM    4  C2  UNL     1     -32.996  16.614  -2.607  1.00 20.00     0.007 A 
ENDBRANCH   1   2
BRANCH   1   5
HETATM    5  C5  UNL     1     -34.140  14.948  -5.950  1.00 20.00     0.042 C 
BRANCH   5   6
HETATM    6  C6  UNL     1     -35.614  14.578  -6.118  1.00 20.00     0.076 C 
BRANCH   6   7
HETATM    7  S9  UNL     1     -36.296  13.698  -4.683  1.00 20.00    -0.173 SA
HETATM    8  C4  UNL     1     -37.633  14.845  -4.284  1.00 20.00     0.089 C 
ENDBRANCH   6   7
ENDBRANCH   5   6
ENDBRANCH   1   5
BRANCH   1   9
HETATM    9  O8  UNL     1     -32.194  14.710  -4.562  1.00 20.00    -0.395 OA
HETATM   10  H23 UNL     1     -31.779  15.451  -4.096  1.00 20.00     0.210 HD
ENDBRANCH   1   9
TORSDOF 5
ENDMDL
MODEL 3
REMARK VINA RESULT:      -3.5      2.698      3.275
REMARK  5 active torsions:
REMARK  status: ('A' for Active; 'I' for Inactive)
REMARK    1  A    between atoms: C3_3  and  C7_7 
REMARK    2  A    between atoms: C5_5  and  C6_6 
REMARK    3  A    between atoms: C5_5  and  C7_7 
REMARK    4  A    between atoms: C6_6  and  S9_9 
REMARK    5  A    between atoms: C7_7  and  O8_8 
ROOT
HETATM    1  C7  UNL     1     -23.600  17.053   9.767  1.00 20.00     0.122 C 
ENDROOT
BRANCH   1   2
HETATM    2  C3  UNL     1     -23.750  16.986  11.259  1.00 20.00     0.014 A 
HETATM    3  C1  UNL     1     -25.111  17.100  11.889  1.00 20.00     0.007 A 
HETATM    4  C2  UNL     1     -24.384  15.785  11.902  1.00 20.00     0.007 A 
ENDBRANCH   1   2
BRANCH   1   5
HETATM    5  C5  UNL     1     -23.388  18.479   9.240  1.00 20.00     0.042 C 
BRANCH   5   6
HETATM    6  C6  UNL     1     -24.640  19.207   8.751  1.00 20.00     0.076 C 
BRANCH   6   7
HETATM    7  S9  UNL     1     -24.771  19.263   6.940  1.00 20.00    -0.173 SA
HETATM    8  C4  UNL     1     -26.540  18.924   6.795  1.00 20.00     0.089 C 
ENDBRANCH   6   7
ENDBRANCH   5   6
ENDBRANCH   1   5
BRANCH   1   9
HETATM    9  O8  UNL     1     -22.473  16.263   9.382  1.00 20.00    -0.395 OA
HETATM   10  H23 UNL     1     -22.616  16.019   8.456  1.00 20.00     0.210 HD
ENDBRANCH   1   9
TORSDOF 5
ENDMDL
MODEL 4
REMARK VINA RESULT:      -3.5     16.181     16.863
REMARK  5 active torsions:
REMARK  status: ('A' for Active; 'I' for Inactive)
REMARK    1  A    between atoms: C3_3  and  C7_7 
REMARK    2  A    between atoms: C5_5  and  C6_6 
REMARK    3  A    between atoms: C5_5  and  C7_7 
REMARK    4  A    between atoms: C6_6  and  S9_9 
REMARK    5  A    between atoms: C7_7  and  O8_8 
ROOT
HETATM    1  C7  UNL     1     -32.977   7.097   2.462  1.00 20.00     0.122 C 
ENDROOT
BRANCH   1   2
HETATM    2  C3  UNL     1     -32.405   7.826   1.282  1.00 20.00     0.014 A 
HETATM    3  C1  UNL     1     -33.264   8.120   0.084  1.00 20.00     0.007 A 
HETATM    4  C2  UNL     1     -32.827   9.239   0.989  1.00 20.00     0.007 A 
ENDBRANCH   1   2
BRANCH   1   5
HETATM    5  C5  UNL     1     -33.129   5.587   2.230  1.00 20.00     0.042 C 
BRANCH   5   6
HETATM    6  C6  UNL     1     -33.630   4.772   3.422  1.00 20.00     0.076 C 
BRANCH   6   7
HETATM    7  S9  UNL     1     -35.134   5.460   4.174  1.00 20.00    -0.173 SA
HETATM    8  C4  UNL     1     -34.586   5.463   5.896  1.00 20.00     0.089 C 
ENDBRANCH   6   7
ENDBRANCH   5   6
ENDBRANCH   1   5
BRANCH   1   9
HETATM    9  O8  UNL     1     -32.113   7.290   3.585  1.00 20.00    -0.395 OA
HETATM   10  H23 UNL     1     -32.661   7.671   4.287  1.00 20.00     0.210 HD
ENDBRANCH   1   9
TORSDOF 5
ENDMDL
MODEL 5
REMARK VINA RESULT:      -3.5     16.140     16.637
REMARK  5 active torsions:
REMARK  status: ('A' for Active; 'I' for Inactive)
REMARK    1  A    between atoms: C3_3  and  C7_7 
REMARK    2  A    between atoms: C5_5  and  C6_6 
REMARK    3  A    between atoms: C5_5  and  C7_7 
REMARK    4  A    between atoms: C6_6  and  S9_9 
REMARK    5  A    between atoms: C7_7  and  O8_8 
ROOT
HETATM    1  C7  UNL     1     -34.347   5.232   3.494  1.00 20.00     0.122 C 
ENDROOT
BRANCH   1   2
HETATM    2  C3  UNL     1     -34.839   5.985   4.694  1.00 20.00     0.014 A 
HETATM    3  C1  UNL     1     -34.827   5.338   6.052  1.00 20.00     0.007 A 
HETATM    4  C2  UNL     1     -33.870   6.454   5.743  1.00 20.00     0.007 A 
ENDBRANCH   1   2
BRANCH   1   5
HETATM    5  C5  UNL     1     -32.996   5.738   2.969  1.00 20.00     0.042 C 
BRANCH   5   6
HETATM    6  C6  UNL     1     -32.915   7.232   2.655  1.00 20.00     0.076 C 
BRANCH   6   7
HETATM    7  S9  UNL     1     -32.328   7.575   0.970  1.00 20.00    -0.173 SA
HETATM    8  C4  UNL     1     -33.034   9.227   0.778  1.00 20.00     0.089 C 
ENDBRANCH   6   7
ENDBRANCH   5   6
ENDBRANCH   1   5
BRANCH   1   9
HETATM    9  O8  UNL     1     -34.200   3.853   3.844  1.00 20.00    -0.395 OA
HETATM   10  H23 UNL     1     -34.747   3.355   3.219  1.00 20.00     0.210 HD
ENDBRANCH   1   9
TORSDOF 5
ENDMDL
MODEL 6
REMARK VINA RESULT:      -3.4     18.216     18.926
REMARK  5 active torsions:
REMARK  status: ('A' for Active; 'I' for Inactive)
REMARK    1  A    between atoms: C3_3  and  C7_7 
REMARK    2  A    between atoms: C5_5  and  C6_6 
REMARK    3  A    between atoms: C5_5  and  C7_7 
REMARK    4  A    between atoms: C6_6  and  S9_9 
REMARK    5  A    between atoms: C7_7  and  O8_8 
ROOT
HETATM    1  C7  UNL     1     -35.972  15.877  -3.492  1.00 20.00     0.122 C 
ENDROOT
BRANCH   1   2
HETATM    2  C3  UNL     1     -34.729  15.605  -2.697  1.00 20.00     0.014 A 
HETATM    3  C1  UNL     1     -33.389  16.057  -3.208  1.00 20.00     0.007 A 
HETATM    4  C2  UNL     1     -34.005  16.732  -2.015  1.00 20.00     0.007 A 
ENDBRANCH   1   2
BRANCH   1   5
HETATM    5  C5  UNL     1     -36.653  14.603  -4.012  1.00 20.00     0.042 C 
BRANCH   5   6
HETATM    6  C6  UNL     1     -36.065  14.001  -5.288  1.00 20.00     0.076 C 
BRANCH   6   7
HETATM    7  S9  UNL     1     -35.782  15.233  -6.593  1.00 20.00    -0.173 SA
HETATM    8  C4  UNL     1     -33.992  15.043  -6.749  1.00 20.00     0.089 C 
ENDBRANCH   6   7
ENDBRANCH   5   6
ENDBRANCH   1   5
BRANCH   1   9
HETATM    9  O8  UNL     1     -36.905  16.574  -2.662  1.00 20.00    -0.395 OA
HETATM   10  H23 UNL     1     -36.390  17.220  -2.158  1.00 20.00     0.210 HD
ENDBRANCH   1   9
TORSDOF 5
ENDMDL
MODEL 7
REMARK VINA RESULT:      -3.4     15.684     16.180
REMARK  5 active torsions:
REMARK  status: ('A' for Active; 'I' for Inactive)
REMARK    1  A    between atoms: C3_3  and  C7_7 
REMARK    2  A    between atoms: C5_5  and  C6_6 
REMARK    3  A    between atoms: C5_5  and  C7_7 
REMARK    4  A    between atoms: C6_6  and  S9_9 
REMARK    5  A    between atoms: C7_7  and  O8_8 
ROOT
HETATM    1  C7  UNL     1     -33.073   6.407   3.876  1.00 20.00     0.122 C 
ENDROOT
BRANCH   1   2
HETATM    2  C3  UNL     1     -34.412   6.270   4.539  1.00 20.00     0.014 A 
HETATM    3  C1  UNL     1     -34.907   4.918   4.972  1.00 20.00     0.007 A 
HETATM    4  C2  UNL     1     -34.501   5.935   6.002  1.00 20.00     0.007 A 
ENDBRANCH   1   2
BRANCH   1   5
HETATM    5  C5  UNL     1     -33.165   6.679   2.368  1.00 20.00     0.042 C 
BRANCH   5   6
HETATM    6  C6  UNL     1     -32.172   7.698   1.808  1.00 20.00     0.076 C 
BRANCH   6   7
HETATM    7  S9  UNL     1     -32.975   9.187   1.146  1.00 20.00    -0.173 SA
HETATM    8  C4  UNL     1     -33.377   8.557  -0.500  1.00 20.00     0.089 C 
ENDBRANCH   6   7
ENDBRANCH   5   6
ENDBRANCH   1   5
BRANCH   1   9
HETATM    9  O8  UNL     1     -32.368   7.493   4.483  1.00 20.00    -0.395 OA
HETATM   10  H23 UNL     1     -33.036   8.034   4.929  1.00 20.00     0.210 HD
ENDBRANCH   1   9
TORSDOF 5
ENDMDL
MODEL 8
REMARK VINA RESULT:      -3.4     18.297     19.102
REMARK  5 active torsions:
REMARK  status: ('A' for Active; 'I' for Inactive)
REMARK    1  A    between atoms: C3_3  and  C7_7 
REMARK    2  A    between atoms: C5_5  and  C6_6 
REMARK    3  A    between atoms: C5_5  and  C7_7 
REMARK    4  A    between atoms: C6_6  and  S9_9 
REMARK    5  A    between atoms: C7_7  and  O8_8 
ROOT
HETATM    1  C7  UNL     1     -34.646  14.156  -3.792  1.00 20.00     0.122 C 
ENDROOT
BRANCH   1   2
HETATM    2  C3  UNL     1     -34.588  15.633  -3.537  1.00 20.00     0.014 A 
HETATM    3  C1  UNL     1     -34.643  16.162  -2.131  1.00 20.00     0.007 A 
HETATM    4  C2  UNL     1     -33.364  16.246  -2.915  1.00 20.00     0.007 A 
ENDBRANCH   1   2
BRANCH   1   5
HETATM    5  C5  UNL     1     -35.896  13.720  -4.569  1.00 20.00     0.042 C 
BRANCH   5   6
HETATM    6  C6  UNL     1     -36.772  14.847  -5.116  1.00 20.00     0.076 C 
BRANCH   6   7
HETATM    7  S9  UNL     1     -38.362  14.998  -4.250  1.00 20.00    -0.173 SA
HETATM    8  C4  UNL     1     -38.214  16.723  -3.732  1.00 20.00     0.089 C 
ENDBRANCH   6   7
ENDBRANCH   5   6
ENDBRANCH   1   5
BRANCH   1   9
HETATM    9  O8  UNL     1     -33.494  13.774  -4.550  1.00 20.00    -0.395 OA
HETATM   10  H23 UNL     1     -33.660  14.065  -5.459  1.00 20.00     0.210 HD
ENDBRANCH   1   9
TORSDOF 5
ENDMDL
MODEL 9
REMARK VINA RESULT:      -3.4     16.479     17.169
REMARK  5 active torsions:
REMARK  status: ('A' for Active; 'I' for Inactive)
REMARK    1  A    between atoms: C3_3  and  C7_7 
REMARK    2  A    between atoms: C5_5  and  C6_6 
REMARK    3  A    between atoms: C5_5  and  C7_7 
REMARK    4  A    between atoms: C6_6  and  S9_9 
REMARK    5  A    between atoms: C7_7  and  O8_8 
ROOT
HETATM    1  C7  UNL     1     -33.043   4.965   2.791  1.00 20.00     0.122 C 
ENDROOT
BRANCH   1   2
HETATM    2  C3  UNL     1     -33.190   6.456   2.707  1.00 20.00     0.014 A 
HETATM    3  C1  UNL     1     -32.053   7.353   3.111  1.00 20.00     0.007 A 
HETATM    4  C2  UNL     1     -32.437   7.233   1.663  1.00 20.00     0.007 A 
ENDBRANCH   1   2
BRANCH   1   5
HETATM    5  C5  UNL     1     -34.145   4.290   3.619  1.00 20.00     0.042 C 
BRANCH   5   6
HETATM    6  C6  UNL     1     -35.116   5.228   4.335  1.00 20.00     0.076 C 
BRANCH   6   7
HETATM    7  S9  UNL     1     -34.799   5.356   6.119  1.00 20.00    -0.173 SA
HETATM    8  C4  UNL     1     -33.942   6.947   6.119  1.00 20.00     0.089 C 
ENDBRANCH   6   7
ENDBRANCH   5   6
ENDBRANCH   1   5
BRANCH   1   9
HETATM    9  O8  UNL     1     -33.084   4.423   1.468  1.00 20.00    -0.395 OA
HETATM   10  H23 UNL     1     -33.848   4.829   1.033  1.00 20.00     0.210 HD
ENDBRANCH   1   9
TORSDOF 5
ENDMDL
