MODEL 1
REMARK VINA RESULT:      -5.3      0.000      0.000
REMARK  2 active torsions:
REMARK  status: ('A' for Active; 'I' for Inactive)
REMARK    1  A    between atoms: C1_1  and  C7_7 
REMARK    2  A    between atoms: C8_8  and  C12_12 
ROOT
HETATM    1  C2  UNL     1     -32.960  15.183  -3.949  1.00 20.00     0.001 C 
HETATM    2  C3  UNL     1     -34.166  14.249  -3.933  1.00 20.00     0.011 C 
HETATM    3  C4  UNL     1     -36.182  15.531  -3.071  1.00 20.00     0.012 C 
HETATM    4  C5  UNL     1     -33.159  16.598  -3.409  1.00 20.00     0.005 C 
HETATM    5  C6  UNL     1     -35.543  16.813  -2.541  1.00 20.00     0.006 C 
HETATM    6  C7  UNL     1     -35.493  14.918  -4.293  1.00 20.00     0.047 C 
HETATM    7  C8  UNL     1     -34.055  16.709  -2.165  1.00 20.00    -0.007 C 
ENDROOT
BRANCH   7   8
HETATM    8  C12 UNL     1     -33.661  17.961  -1.370  1.00 20.00    -0.048 C 
HETATM    9  C9  UNL     1     -32.131  18.045  -1.267  1.00 20.00     0.015 C 
HETATM   10  C10 UNL     1     -34.264  17.884   0.041  1.00 20.00     0.015 C 
HETATM   11  C11 UNL     1     -34.194  19.212  -2.085  1.00 20.00     0.015 C 
ENDBRANCH   7   8
BRANCH   6  12
HETATM   12  C1  UNL     1     -36.403  13.874  -4.872  1.00 20.00     0.235 C 
HETATM   13  O13 UNL     1     -37.543  13.672  -4.468  1.00 20.00    -0.306 OA
ENDBRANCH   6  12
TORSDOF 2
ENDMDL
MODEL 2
REMARK VINA RESULT:      -5.2      0.057      1.213
REMARK  2 active torsions:
REMARK  status: ('A' for Active; 'I' for Inactive)
REMARK    1  A    between atoms: C1_1  and  C7_7 
REMARK    2  A    between atoms: C8_8  and  C12_12 
ROOT
HETATM    1  C2  UNL     1     -32.961  15.217  -3.932  1.00 20.00     0.001 C 
HETATM    2  C3  UNL     1     -34.176  14.295  -3.931  1.00 20.00     0.011 C 
HETATM    3  C4  UNL     1     -36.192  15.600  -3.103  1.00 20.00     0.012 C 
HETATM    4  C5  UNL     1     -33.154  16.636  -3.399  1.00 20.00     0.005 C 
HETATM    5  C6  UNL     1     -35.548  16.877  -2.568  1.00 20.00     0.006 C 
HETATM    6  C7  UNL     1     -35.491  14.976  -4.313  1.00 20.00     0.047 C 
HETATM    7  C8  UNL     1     -34.067  16.760  -2.169  1.00 20.00    -0.007 C 
ENDROOT
BRANCH   7   8
HETATM    8  C12 UNL     1     -33.672  18.011  -1.373  1.00 20.00    -0.048 C 
HETATM    9  C9  UNL     1     -34.231  19.261  -2.068  1.00 20.00     0.015 C 
HETATM   10  C10 UNL     1     -32.141  18.110  -1.298  1.00 20.00     0.015 C 
HETATM   11  C11 UNL     1     -34.248  17.917   0.049  1.00 20.00     0.015 C 
ENDBRANCH   7   8
BRANCH   6  12
HETATM   12  C1  UNL     1     -36.402  13.939  -4.902  1.00 20.00     0.235 C 
HETATM   13  O13 UNL     1     -37.519  13.692  -4.461  1.00 20.00    -0.306 OA
ENDBRANCH   6  12
TORSDOF 2
ENDMDL
MODEL 3
REMARK VINA RESULT:      -4.7      2.576      4.846
REMARK  2 active torsions:
REMARK  status: ('A' for Active; 'I' for Inactive)
REMARK    1  A    between atoms: C1_1  and  C7_7 
REMARK    2  A    between atoms: C8_8  and  C12_12 
ROOT
HETATM    1  C2  UNL     1     -32.565  18.099  -2.334  1.00 20.00     0.001 C 
HETATM    2  C3  UNL     1     -33.602  18.690  -1.382  1.00 20.00     0.011 C 
HETATM    3  C4  UNL     1     -35.414  16.959  -0.972  1.00 20.00     0.012 C 
HETATM    4  C5  UNL     1     -32.832  16.700  -2.883  1.00 20.00     0.005 C 
HETATM    5  C6  UNL     1     -35.094  15.904  -2.028  1.00 20.00     0.006 C 
HETATM    6  C7  UNL     1     -34.200  17.689  -0.393  1.00 20.00     0.047 C 
HETATM    7  C8  UNL     1     -34.295  16.401  -3.245  1.00 20.00    -0.007 C 
ENDROOT
BRANCH   7   8
HETATM    8  C12 UNL     1     -34.335  15.320  -4.334  1.00 20.00    -0.048 C 
HETATM    9  C9  UNL     1     -34.597  15.974  -5.699  1.00 20.00     0.015 C 
HETATM   10  C10 UNL     1     -35.460  14.320  -4.024  1.00 20.00     0.015 C 
HETATM   11  C11 UNL     1     -32.990  14.579  -4.371  1.00 20.00     0.015 C 
ENDBRANCH   7   8
BRANCH   6  12
HETATM   12  C1  UNL     1     -34.641  18.443   0.828  1.00 20.00     0.235 C 
HETATM   13  O13 UNL     1     -34.349  18.108   1.971  1.00 20.00    -0.306 OA
ENDBRANCH   6  12
TORSDOF 2
ENDMDL
MODEL 4
REMARK VINA RESULT:      -4.7      3.735      6.317
REMARK  2 active torsions:
REMARK  status: ('A' for Active; 'I' for Inactive)
REMARK    1  A    between atoms: C1_1  and  C7_7 
REMARK    2  A    between atoms: C8_8  and  C12_12 
ROOT
HETATM    1  C2  UNL     1     -34.004  18.446   1.488  1.00 20.00     0.001 C 
HETATM    2  C3  UNL     1     -32.577  18.229   1.982  1.00 20.00     0.011 C 
HETATM    3  C4  UNL     1     -31.000  18.319  -0.007  1.00 20.00     0.012 C 
HETATM    4  C5  UNL     1     -34.211  18.593  -0.019  1.00 20.00     0.005 C 
HETATM    5  C6  UNL     1     -31.969  18.286  -1.185  1.00 20.00     0.006 C 
HETATM    6  C7  UNL     1     -31.516  19.042   1.240  1.00 20.00     0.047 C 
HETATM    7  C8  UNL     1     -33.350  17.671  -0.895  1.00 20.00    -0.007 C 
ENDROOT
BRANCH   7   8
HETATM    8  C12 UNL     1     -34.069  17.427  -2.229  1.00 20.00    -0.048 C 
HETATM    9  C9  UNL     1     -33.041  17.056  -3.307  1.00 20.00     0.015 C 
HETATM   10  C10 UNL     1     -34.813  18.703  -2.652  1.00 20.00     0.015 C 
HETATM   11  C11 UNL     1     -35.077  16.279  -2.067  1.00 20.00     0.015 C 
ENDBRANCH   7   8
BRANCH   6  12
HETATM   12  C1  UNL     1     -30.359  19.262   2.170  1.00 20.00     0.235 C 
HETATM   13  O13 UNL     1     -29.188  19.263   1.804  1.00 20.00    -0.306 OA
ENDBRANCH   6  12
TORSDOF 2
ENDMDL
MODEL 5
REMARK VINA RESULT:      -4.7      2.574      4.841
REMARK  2 active torsions:
REMARK  status: ('A' for Active; 'I' for Inactive)
REMARK    1  A    between atoms: C1_1  and  C7_7 
REMARK    2  A    between atoms: C8_8  and  C12_12 
ROOT
HETATM    1  C2  UNL     1     -32.569  18.114  -2.333  1.00 20.00     0.001 C 
HETATM    2  C3  UNL     1     -33.608  18.704  -1.384  1.00 20.00     0.011 C 
HETATM    3  C4  UNL     1     -35.419  16.970  -0.976  1.00 20.00     0.012 C 
HETATM    4  C5  UNL     1     -32.833  16.714  -2.883  1.00 20.00     0.005 C 
HETATM    5  C6  UNL     1     -35.096  15.916  -2.031  1.00 20.00     0.006 C 
HETATM    6  C7  UNL     1     -34.207  17.703  -0.395  1.00 20.00     0.047 C 
HETATM    7  C8  UNL     1     -34.295  16.414  -3.247  1.00 20.00    -0.007 C 
ENDROOT
BRANCH   7   8
HETATM    8  C12 UNL     1     -34.332  15.332  -4.335  1.00 20.00    -0.048 C 
HETATM    9  C9  UNL     1     -32.986  14.594  -4.372  1.00 20.00     0.015 C 
HETATM   10  C10 UNL     1     -34.593  15.986  -5.701  1.00 20.00     0.015 C 
HETATM   11  C11 UNL     1     -35.456  14.330  -4.026  1.00 20.00     0.015 C 
ENDBRANCH   7   8
BRANCH   6  12
HETATM   12  C1  UNL     1     -34.651  18.456   0.824  1.00 20.00     0.235 C 
HETATM   13  O13 UNL     1     -34.371  18.116   1.968  1.00 20.00    -0.306 OA
ENDBRANCH   6  12
TORSDOF 2
ENDMDL
MODEL 6
REMARK VINA RESULT:      -4.4      2.591      5.221
REMARK  2 active torsions:
REMARK  status: ('A' for Active; 'I' for Inactive)
REMARK    1  A    between atoms: C1_1  and  C7_7 
REMARK    2  A    between atoms: C8_8  and  C12_12 
ROOT
HETATM    1  C2  UNL     1     -36.011  17.289  -1.457  1.00 20.00     0.001 C 
HETATM    2  C3  UNL     1     -34.618  17.387  -0.843  1.00 20.00     0.011 C 
HETATM    3  C4  UNL     1     -32.911  16.639  -2.568  1.00 20.00     0.012 C 
HETATM    4  C5  UNL     1     -36.118  16.726  -2.873  1.00 20.00     0.005 C 
HETATM    5  C6  UNL     1     -33.796  16.029  -3.652  1.00 20.00     0.006 C 
HETATM    6  C7  UNL     1     -33.523  17.824  -1.817  1.00 20.00     0.047 C 
HETATM    7  C8  UNL     1     -35.182  15.548  -3.187  1.00 20.00    -0.007 C 
ENDROOT
BRANCH   7   8
HETATM    8  C12 UNL     1     -35.804  14.692  -4.299  1.00 20.00    -0.048 C 
HETATM    9  C9  UNL     1     -37.334  14.722  -4.176  1.00 20.00     0.015 C 
HETATM   10  C10 UNL     1     -35.310  13.243  -4.169  1.00 20.00     0.015 C 
HETATM   11  C11 UNL     1     -35.390  15.251  -5.669  1.00 20.00     0.015 C 
ENDBRANCH   7   8
BRANCH   6  12
HETATM   12  C1  UNL     1     -32.436  18.496  -1.031  1.00 20.00     0.235 C 
HETATM   13  O13 UNL     1     -31.419  18.954  -1.539  1.00 20.00    -0.306 OA
ENDBRANCH   6  12
TORSDOF 2
ENDMDL
MODEL 7
REMARK VINA RESULT:      -4.4      2.754      5.120
REMARK  2 active torsions:
REMARK  status: ('A' for Active; 'I' for Inactive)
REMARK    1  A    between atoms: C1_1  and  C7_7 
REMARK    2  A    between atoms: C8_8  and  C12_12 
ROOT
HETATM    1  C2  UNL     1     -34.045  18.088  -4.893  1.00 20.00     0.001 C 
HETATM    2  C3  UNL     1     -33.893  18.569  -3.453  1.00 20.00     0.011 C 
HETATM    3  C4  UNL     1     -34.159  16.581  -1.895  1.00 20.00     0.012 C 
HETATM    4  C5  UNL     1     -34.380  16.614  -5.110  1.00 20.00     0.005 C 
HETATM    5  C6  UNL     1     -34.681  15.502  -2.839  1.00 20.00     0.006 C 
HETATM    6  C7  UNL     1     -33.186  17.582  -2.524  1.00 20.00     0.047 C 
HETATM    7  C8  UNL     1     -35.381  16.012  -4.112  1.00 20.00    -0.007 C 
ENDROOT
BRANCH   7   8
HETATM    8  C12 UNL     1     -36.110  14.836  -4.775  1.00 20.00    -0.048 C 
HETATM    9  C9  UNL     1     -35.919  14.905  -6.297  1.00 20.00     0.015 C 
HETATM   10  C10 UNL     1     -37.609  14.909  -4.446  1.00 20.00     0.015 C 
HETATM   11  C11 UNL     1     -35.536  13.512  -4.248  1.00 20.00     0.015 C 
ENDBRANCH   7   8
BRANCH   6  12
HETATM   12  C1  UNL     1     -32.533  18.362  -1.420  1.00 20.00     0.235 C 
HETATM   13  O13 UNL     1     -31.400  18.823  -1.497  1.00 20.00    -0.306 OA
ENDBRANCH   6  12
TORSDOF 2
ENDMDL
MODEL 8
REMARK VINA RESULT:      -4.3      2.281      4.699
REMARK  2 active torsions:
REMARK  status: ('A' for Active; 'I' for Inactive)
REMARK    1  A    between atoms: C1_1  and  C7_7 
REMARK    2  A    between atoms: C8_8  and  C12_12 
ROOT
HETATM    1  C2  UNL     1     -32.937  16.255  -3.022  1.00 20.00     0.001 C 
HETATM    2  C3  UNL     1     -33.642  17.269  -2.125  1.00 20.00     0.011 C 
HETATM    3  C4  UNL     1     -36.152  16.983  -2.384  1.00 20.00     0.012 C 
HETATM    4  C5  UNL     1     -33.814  15.368  -3.904  1.00 20.00     0.005 C 
HETATM    5  C6  UNL     1     -36.246  16.053  -3.591  1.00 20.00     0.006 C 
HETATM    6  C7  UNL     1     -34.934  16.761  -1.484  1.00 20.00     0.047 C 
HETATM    7  C8  UNL     1     -35.030  16.063  -4.535  1.00 20.00    -0.007 C 
ENDROOT
BRANCH   7   8
HETATM    8  C12 UNL     1     -35.410  15.335  -5.832  1.00 20.00    -0.048 C 
HETATM    9  C9  UNL     1     -36.379  16.206  -6.645  1.00 20.00     0.015 C 
HETATM   10  C10 UNL     1     -36.088  13.999  -5.492  1.00 20.00     0.015 C 
HETATM   11  C11 UNL     1     -34.144  15.069  -6.661  1.00 20.00     0.015 C 
ENDBRANCH   7   8
BRANCH   6  12
HETATM   12  C1  UNL     1     -35.150  17.514  -0.204  1.00 20.00     0.235 C 
HETATM   13  O13 UNL     1     -35.589  16.998   0.818  1.00 20.00    -0.306 OA
ENDBRANCH   6  12
TORSDOF 2
ENDMDL
MODEL 9
REMARK VINA RESULT:      -4.3      2.503      4.920
REMARK  2 active torsions:
REMARK  status: ('A' for Active; 'I' for Inactive)
REMARK    1  A    between atoms: C1_1  and  C7_7 
REMARK    2  A    between atoms: C8_8  and  C12_12 
ROOT
HETATM    1  C2  UNL     1     -32.927  15.853  -3.401  1.00 20.00     0.001 C 
HETATM    2  C3  UNL     1     -33.080  17.181  -2.667  1.00 20.00     0.011 C 
HETATM    3  C4  UNL     1     -35.537  17.542  -2.134  1.00 20.00     0.012 C 
HETATM    4  C5  UNL     1     -34.202  15.076  -3.722  1.00 20.00     0.005 C 
HETATM    5  C6  UNL     1     -36.207  16.445  -2.957  1.00 20.00     0.006 C 
HETATM    6  C7  UNL     1     -34.155  17.187  -1.580  1.00 20.00     0.047 C 
HETATM    7  C8  UNL     1     -35.401  15.929  -4.162  1.00 20.00    -0.007 C 
ENDROOT
BRANCH   7   8
HETATM    8  C12 UNL     1     -36.326  15.082  -5.046  1.00 20.00    -0.048 C 
HETATM    9  C9  UNL     1     -36.292  13.621  -4.574  1.00 20.00     0.015 C 
HETATM   10  C10 UNL     1     -35.853  15.158  -6.506  1.00 20.00     0.015 C 
HETATM   11  C11 UNL     1     -37.763  15.618  -4.947  1.00 20.00     0.015 C 
ENDBRANCH   7   8
BRANCH   6  12
HETATM   12  C1  UNL     1     -33.780  18.217  -0.554  1.00 20.00     0.235 C 
HETATM   13  O13 UNL     1     -32.700  18.231   0.026  1.00 20.00    -0.306 OA
ENDBRANCH   6  12
TORSDOF 2
ENDMDL
