MODEL 1
REMARK VINA RESULT:      -5.1      0.000      0.000
REMARK  2 active torsions:
REMARK  status: ('A' for Active; 'I' for Inactive)
REMARK    1  A    between atoms: C4_4  and  C7_7 
REMARK    2  A    between atoms: C5_5  and  C8_8 
ROOT
HETATM    1  C1  UNL     1     -34.087   5.478   3.512  1.00 20.00     0.005 C 
HETATM    2  C2  UNL     1     -33.056   5.578   2.383  1.00 20.00     0.006 C 
HETATM    3  C3  UNL     1     -32.525   7.242   4.031  1.00 20.00     0.010 C 
HETATM    4  C4  UNL     1     -33.932   6.747   4.353  1.00 20.00    -0.014 C 
HETATM    5  C5  UNL     1     -32.359   6.931   2.543  1.00 20.00    -0.000 C 
ENDROOT
BRANCH   4   6
HETATM    6  C7  UNL     1     -34.154   6.511   5.839  1.00 20.00     0.000 C 
HETATM    7  C6  UNL     1     -34.757   5.168   6.108  1.00 20.00     0.005 C 
ENDBRANCH   4   6
BRANCH   5   8
HETATM    8  C8  UNL     1     -32.984   8.001   1.649  1.00 20.00     0.119 C 
HETATM    9 CL9  UNL     1     -32.088   8.129   0.123  1.00 20.00    -0.130 Cl
ENDBRANCH   5   8
TORSDOF 2
ENDMDL
MODEL 2
REMARK VINA RESULT:      -4.5      2.418      4.014
REMARK  2 active torsions:
REMARK  status: ('A' for Active; 'I' for Inactive)
REMARK    1  A    between atoms: C4_4  and  C7_7 
REMARK    2  A    between atoms: C5_5  and  C8_8 
ROOT
HETATM    1  C1  UNL     1     -32.912   4.958   2.683  1.00 20.00     0.005 C 
HETATM    2  C2  UNL     1     -34.255   4.385   3.145  1.00 20.00     0.006 C 
HETATM    3  C3  UNL     1     -34.256   6.746   3.588  1.00 20.00     0.010 C 
HETATM    4  C4  UNL     1     -32.811   6.363   3.284  1.00 20.00    -0.014 C 
HETATM    5  C5  UNL     1     -34.891   5.437   4.059  1.00 20.00    -0.000 C 
ENDROOT
BRANCH   4   6
HETATM    6  C7  UNL     1     -32.113   7.356   2.367  1.00 20.00     0.000 C 
HETATM    7  C6  UNL     1     -33.041   7.909   1.332  1.00 20.00     0.005 C 
ENDBRANCH   4   6
BRANCH   5   8
HETATM    8  C8  UNL     1     -34.613   5.149   5.534  1.00 20.00     0.119 C 
HETATM    9 CL9  UNL     1     -34.245   6.655   6.397  1.00 20.00    -0.130 Cl
ENDBRANCH   5   8
TORSDOF 2
ENDMDL
MODEL 3
REMARK VINA RESULT:      -4.2     10.931     11.565
REMARK  2 active torsions:
REMARK  status: ('A' for Active; 'I' for Inactive)
REMARK    1  A    between atoms: C4_4  and  C7_7 
REMARK    2  A    between atoms: C5_5  and  C8_8 
ROOT
HETATM    1  C1  UNL     1     -35.306  15.158  -2.942  1.00 20.00     0.005 C 
HETATM    2  C2  UNL     1     -34.861  14.037  -3.887  1.00 20.00     0.006 C 
HETATM    3  C3  UNL     1     -33.055  15.608  -3.687  1.00 20.00     0.010 C 
HETATM    4  C4  UNL     1     -34.291  16.292  -3.107  1.00 20.00    -0.014 C 
HETATM    5  C5  UNL     1     -33.630  14.556  -4.636  1.00 20.00    -0.000 C 
ENDROOT
BRANCH   4   6
HETATM    6  C7  UNL     1     -34.006  17.033  -1.811  1.00 20.00     0.000 C 
HETATM    7  C6  UNL     1     -35.156  16.955  -0.857  1.00 20.00     0.005 C 
ENDBRANCH   4   6
BRANCH   5   8
HETATM    8  C8  UNL     1     -34.000  15.137  -6.000  1.00 20.00     0.119 C 
HETATM    9 CL9  UNL     1     -35.595  14.551  -6.508  1.00 20.00    -0.130 Cl
ENDBRANCH   5   8
TORSDOF 2
ENDMDL
MODEL 4
REMARK VINA RESULT:      -4.0     15.567     16.690
REMARK  2 active torsions:
REMARK  status: ('A' for Active; 'I' for Inactive)
REMARK    1  A    between atoms: C4_4  and  C7_7 
REMARK    2  A    between atoms: C5_5  and  C8_8 
ROOT
HETATM    1  C1  UNL     1     -25.707  19.263  10.097  1.00 20.00     0.005 C 
HETATM    2  C2  UNL     1     -26.108  19.188  11.574  1.00 20.00     0.006 C 
HETATM    3  C3  UNL     1     -23.934  18.194  11.337  1.00 20.00     0.010 C 
HETATM    4  C4  UNL     1     -24.503  18.332   9.928  1.00 20.00    -0.014 C 
HETATM    5  C5  UNL     1     -25.174  18.169  12.232  1.00 20.00    -0.000 C 
ENDROOT
BRANCH   4   6
HETATM    6  C7  UNL     1     -23.485  18.849   8.924  1.00 20.00     0.000 C 
HETATM    7  C6  UNL     1     -22.093  18.424   9.271  1.00 20.00     0.005 C 
ENDBRANCH   4   6
BRANCH   5   8
HETATM    8  C8  UNL     1     -25.812  16.782  12.310  1.00 20.00     0.119 C 
HETATM    9 CL9  UNL     1     -24.630  15.535  11.868  1.00 20.00    -0.130 Cl
ENDBRANCH   5   8
TORSDOF 2
ENDMDL
MODEL 5
REMARK VINA RESULT:      -4.0     11.095     11.998
REMARK  2 active torsions:
REMARK  status: ('A' for Active; 'I' for Inactive)
REMARK    1  A    between atoms: C4_4  and  C7_7 
REMARK    2  A    between atoms: C5_5  and  C8_8 
ROOT
HETATM    1  C1  UNL     1     -35.125  16.231  -1.955  1.00 20.00     0.005 C 
HETATM    2  C2  UNL     1     -34.967  15.092  -2.968  1.00 20.00     0.006 C 
HETATM    3  C3  UNL     1     -32.983  16.444  -3.044  1.00 20.00     0.010 C 
HETATM    4  C4  UNL     1     -34.024  17.247  -2.269  1.00 20.00    -0.014 C 
HETATM    5  C5  UNL     1     -33.817  15.489  -3.898  1.00 20.00    -0.000 C 
ENDROOT
BRANCH   4   6
HETATM    6  C7  UNL     1     -33.456  17.917  -1.028  1.00 20.00     0.000 C 
HETATM    7  C6  UNL     1     -31.996  18.210  -1.170  1.00 20.00     0.005 C 
ENDBRANCH   4   6
BRANCH   5   8
HETATM    8  C8  UNL     1     -34.325  16.144  -5.182  1.00 20.00     0.119 C 
HETATM    9 CL9  UNL     1     -34.033  15.083  -6.573  1.00 20.00    -0.130 Cl
ENDBRANCH   5   8
TORSDOF 2
ENDMDL
MODEL 6
REMARK VINA RESULT:      -4.0     15.859     16.889
REMARK  2 active torsions:
REMARK  status: ('A' for Active; 'I' for Inactive)
REMARK    1  A    between atoms: C4_4  and  C7_7 
REMARK    2  A    between atoms: C5_5  and  C8_8 
ROOT
HETATM    1  C1  UNL     1     -22.369  17.753  11.569  1.00 20.00     0.005 C 
HETATM    2  C2  UNL     1     -23.654  17.110  12.098  1.00 20.00     0.006 C 
HETATM    3  C3  UNL     1     -23.900  17.439   9.731  1.00 20.00     0.010 C 
HETATM    4  C4  UNL     1     -22.684  18.257  10.159  1.00 20.00    -0.014 C 
HETATM    5  C5  UNL     1     -24.720  17.303  11.015  1.00 20.00    -0.000 C 
ENDROOT
BRANCH   4   6
HETATM    6  C7  UNL     1     -21.512  18.124   9.199  1.00 20.00     0.000 C 
HETATM    7  C6  UNL     1     -21.888  17.381   7.956  1.00 20.00     0.005 C 
ENDBRANCH   4   6
BRANCH   5   8
HETATM    8  C8  UNL     1     -25.590  18.530  11.287  1.00 20.00     0.119 C 
HETATM    9 CL9  UNL     1     -26.957  18.097  12.331  1.00 20.00    -0.130 Cl
ENDBRANCH   5   8
TORSDOF 2
ENDMDL
MODEL 7
REMARK VINA RESULT:      -4.0     15.295     15.741
REMARK  2 active torsions:
REMARK  status: ('A' for Active; 'I' for Inactive)
REMARK    1  A    between atoms: C4_4  and  C7_7 
REMARK    2  A    between atoms: C5_5  and  C8_8 
ROOT
HETATM    1  C1  UNL     1     -23.008  17.030   9.317  1.00 20.00     0.005 C 
HETATM    2  C2  UNL     1     -22.951  18.384   8.603  1.00 20.00     0.006 C 
HETATM    3  C3  UNL     1     -24.627  18.513  10.319  1.00 20.00     0.010 C 
HETATM    4  C4  UNL     1     -24.292  17.033  10.149  1.00 20.00    -0.014 C 
HETATM    5  C5  UNL     1     -24.233  19.133   8.978  1.00 20.00    -0.000 C 
ENDROOT
BRANCH   4   6
HETATM    6  C7  UNL     1     -24.149  16.301  11.474  1.00 20.00     0.000 C 
HETATM    7  C6  UNL     1     -25.367  16.449  12.330  1.00 20.00     0.005 C 
ENDBRANCH   4   6
BRANCH   5   8
HETATM    8  C8  UNL     1     -25.318  18.967   7.915  1.00 20.00     0.119 C 
HETATM    9 CL9  UNL     1     -24.648  19.263   6.299  1.00 20.00    -0.130 Cl
ENDBRANCH   5   8
TORSDOF 2
ENDMDL
MODEL 8
REMARK VINA RESULT:      -4.0      9.517     10.348
REMARK  2 active torsions:
REMARK  status: ('A' for Active; 'I' for Inactive)
REMARK    1  A    between atoms: C4_4  and  C7_7 
REMARK    2  A    between atoms: C5_5  and  C8_8 
ROOT
HETATM    1  C1  UNL     1     -41.352   5.625  -1.017  1.00 20.00     0.005 C 
HETATM    2  C2  UNL     1     -41.080   6.447   0.246  1.00 20.00     0.006 C 
HETATM    3  C3  UNL     1     -43.388   5.783   0.267  1.00 20.00     0.010 C 
HETATM    4  C4  UNL     1     -42.873   5.516  -1.145  1.00 20.00    -0.014 C 
HETATM    5  C5  UNL     1     -42.446   6.861   0.803  1.00 20.00    -0.000 C 
ENDROOT
BRANCH   4   6
HETATM    6  C7  UNL     1     -43.332   4.178  -1.702  1.00 20.00     0.000 C 
HETATM    7  C6  UNL     1     -42.328   3.588  -2.641  1.00 20.00     0.005 C 
ENDBRANCH   4   6
BRANCH   5   8
HETATM    8  C8  UNL     1     -42.842   8.265   0.348  1.00 20.00     0.119 C 
HETATM    9 CL9  UNL     1     -41.401   9.283   0.163  1.00 20.00    -0.130 Cl
ENDBRANCH   5   8
TORSDOF 2
ENDMDL
MODEL 9
REMARK VINA RESULT:      -3.9     11.091     12.013
REMARK  2 active torsions:
REMARK  status: ('A' for Active; 'I' for Inactive)
REMARK    1  A    between atoms: C4_4  and  C7_7 
REMARK    2  A    between atoms: C5_5  and  C8_8 
ROOT
HETATM    1  C1  UNL     1     -33.123  15.978  -3.529  1.00 20.00     0.005 C 
HETATM    2  C2  UNL     1     -32.999  17.008  -2.402  1.00 20.00     0.006 C 
HETATM    3  C3  UNL     1     -35.095  15.864  -2.143  1.00 20.00     0.010 C 
HETATM    4  C4  UNL     1     -34.584  15.523  -3.541  1.00 20.00    -0.014 C 
HETATM    5  C5  UNL     1     -34.401  17.185  -1.812  1.00 20.00    -0.000 C 
ENDROOT
BRANCH   4   6
HETATM    6  C7  UNL     1     -34.750  14.052  -3.891  1.00 20.00     0.000 C 
HETATM    7  C6  UNL     1     -36.103  13.761  -4.460  1.00 20.00     0.005 C 
ENDBRANCH   4   6
BRANCH   5   8
HETATM    8  C8  UNL     1     -35.121  18.391  -2.414  1.00 20.00     0.119 C 
HETATM    9 CL9  UNL     1     -36.872  18.108  -2.451  1.00 20.00    -0.130 Cl
ENDBRANCH   5   8
TORSDOF 2
ENDMDL
