MODEL 1
REMARK VINA RESULT:      -4.4      0.000      0.000
REMARK  2 active torsions:
REMARK  status: ('A' for Active; 'I' for Inactive)
REMARK    1  A    between atoms: C4_4  and  C8_8 
REMARK    2  A    between atoms: C5_5  and  C9_9 
ROOT
HETATM    1  C1  UNL     1     -32.820   4.895   2.266  1.00 20.00     0.032 C 
HETATM    2  C2  UNL     1     -33.702   6.488   3.983  1.00 20.00     0.043 C 
HETATM    3  C3  UNL     1     -33.854   3.889   2.750  1.00 20.00     0.169 C 
HETATM    4  C4  UNL     1     -33.300   6.328   2.512  1.00 20.00     0.004 C 
HETATM    5  C5  UNL     1     -34.685   5.395   4.447  1.00 20.00     0.057 C 
HETATM    6  C6  UNL     1     -36.091   5.591   3.861  1.00 20.00     0.046 C 
HETATM    7  O10 UNL     1     -34.175   4.093   4.125  1.00 20.00    -0.381 OA
ENDROOT
BRANCH   5   8
HETATM    8  C9  UNL     1     -34.794   5.435   5.978  1.00 20.00     0.033 C 
HETATM    9  C7  UNL     1     -34.157   6.661   6.537  1.00 20.00     0.008 C 
ENDBRANCH   5   8
BRANCH   4  10
HETATM   10  C8  UNL     1     -32.222   7.339   2.127  1.00 20.00     0.119 C 
HETATM   11 CL11 UNL     1     -32.805   8.383   0.818  1.00 20.00    -0.130 Cl
ENDBRANCH   4  10
TORSDOF 2
ENDMDL
MODEL 2
REMARK VINA RESULT:      -4.1     11.731     12.805
REMARK  2 active torsions:
REMARK  status: ('A' for Active; 'I' for Inactive)
REMARK    1  A    between atoms: C4_4  and  C8_8 
REMARK    2  A    between atoms: C5_5  and  C9_9 
ROOT
HETATM    1  C1  UNL     1     -33.410  17.714  -1.307  1.00 20.00     0.032 C 
HETATM    2  C2  UNL     1     -34.991  15.950  -2.115  1.00 20.00     0.043 C 
HETATM    3  C3  UNL     1     -32.800  17.725  -2.700  1.00 20.00     0.169 C 
HETATM    4  C4  UNL     1     -34.877  17.280  -1.360  1.00 20.00     0.004 C 
HETATM    5  C5  UNL     1     -34.284  15.987  -3.484  1.00 20.00     0.057 C 
HETATM    6  C6  UNL     1     -35.050  16.834  -4.511  1.00 20.00     0.046 C 
HETATM    7  O10 UNL     1     -32.936  16.457  -3.340  1.00 20.00    -0.381 OA
ENDROOT
BRANCH   5   8
HETATM    8  C9  UNL     1     -34.172  14.557  -4.031  1.00 20.00     0.033 C 
HETATM    9  C7  UNL     1     -35.510  13.909  -4.137  1.00 20.00     0.008 C 
ENDBRANCH   5   8
BRANCH   4  10
HETATM   10  C8  UNL     1     -35.465  17.163   0.045  1.00 20.00     0.119 C 
HETATM   11 CL11 UNL     1     -34.334  17.831   1.235  1.00 20.00    -0.130 Cl
ENDBRANCH   4  10
TORSDOF 2
ENDMDL
MODEL 3
REMARK VINA RESULT:      -4.1     11.853     12.865
REMARK  2 active torsions:
REMARK  status: ('A' for Active; 'I' for Inactive)
REMARK    1  A    between atoms: C4_4  and  C8_8 
REMARK    2  A    between atoms: C5_5  and  C9_9 
ROOT
HETATM    1  C1  UNL     1     -35.050  15.854  -2.130  1.00 20.00     0.032 C 
HETATM    2  C2  UNL     1     -32.819  16.818  -2.729  1.00 20.00     0.043 C 
HETATM    3  C3  UNL     1     -35.262  17.058  -1.223  1.00 20.00     0.169 C 
HETATM    4  C4  UNL     1     -34.110  16.205  -3.286  1.00 20.00     0.004 C 
HETATM    5  C5  UNL     1     -33.092  17.978  -1.750  1.00 20.00     0.057 C 
HETATM    6  C6  UNL     1     -33.586  19.241  -2.471  1.00 20.00     0.046 C 
HETATM    7  O10 UNL     1     -34.024  17.571  -0.738  1.00 20.00    -0.381 OA
ENDROOT
BRANCH   5   8
HETATM    8  C9  UNL     1     -31.793  18.327  -1.009  1.00 20.00     0.033 C 
HETATM    9  C7  UNL     1     -32.033  18.512   0.450  1.00 20.00     0.008 C 
ENDBRANCH   5   8
BRANCH   4  10
HETATM   10  C8  UNL     1     -33.807  14.974  -4.138  1.00 20.00     0.119 C 
HETATM   11 CL11 UNL     1     -35.107  13.782  -3.969  1.00 20.00    -0.130 Cl
ENDBRANCH   4  10
TORSDOF 2
ENDMDL
MODEL 4
REMARK VINA RESULT:      -4.0     12.000     13.314
REMARK  2 active torsions:
REMARK  status: ('A' for Active; 'I' for Inactive)
REMARK    1  A    between atoms: C4_4  and  C8_8 
REMARK    2  A    between atoms: C5_5  and  C9_9 
ROOT
HETATM    1  C1  UNL     1     -34.335  17.111  -1.583  1.00 20.00     0.032 C 
HETATM    2  C2  UNL     1     -33.191  17.289  -3.802  1.00 20.00     0.043 C 
HETATM    3  C3  UNL     1     -35.080  15.902  -2.127  1.00 20.00     0.169 C 
HETATM    4  C4  UNL     1     -32.983  17.277  -2.283  1.00 20.00     0.004 C 
HETATM    5  C5  UNL     1     -34.024  16.088  -4.292  1.00 20.00     0.057 C 
HETATM    6  C6  UNL     1     -33.234  14.772  -4.236  1.00 20.00     0.046 C 
HETATM    7  O10 UNL     1     -35.243  15.983  -3.541  1.00 20.00    -0.381 OA
ENDROOT
BRANCH   5   8
HETATM    8  C9  UNL     1     -34.448  16.330  -5.748  1.00 20.00     0.033 C 
HETATM    9  C7  UNL     1     -34.133  15.156  -6.609  1.00 20.00     0.008 C 
ENDBRANCH   5   8
BRANCH   4  10
HETATM   10  C8  UNL     1     -32.278  18.549  -1.817  1.00 20.00     0.119 C 
HETATM   11 CL11 UNL     1     -31.135  18.171  -0.517  1.00 20.00    -0.130 Cl
ENDBRANCH   4  10
TORSDOF 2
ENDMDL
MODEL 5
REMARK VINA RESULT:      -3.9      9.123     10.245
REMARK  2 active torsions:
REMARK  status: ('A' for Active; 'I' for Inactive)
REMARK    1  A    between atoms: C4_4  and  C8_8 
REMARK    2  A    between atoms: C5_5  and  C9_9 
ROOT
HETATM    1  C1  UNL     1     -43.049   6.787   1.210  1.00 20.00     0.032 C 
HETATM    2  C2  UNL     1     -42.822   6.783  -1.283  1.00 20.00     0.043 C 
HETATM    3  C3  UNL     1     -42.834   5.281   1.175  1.00 20.00     0.169 C 
HETATM    4  C4  UNL     1     -42.368   7.460   0.016  1.00 20.00     0.004 C 
HETATM    5  C5  UNL     1     -42.663   5.250  -1.235  1.00 20.00     0.057 C 
HETATM    6  C6  UNL     1     -41.192   4.817  -1.319  1.00 20.00     0.046 C 
HETATM    7  O10 UNL     1     -43.284   4.718  -0.055  1.00 20.00    -0.381 OA
ENDROOT
BRANCH   5   8
HETATM    8  C9  UNL     1     -43.414   4.629  -2.421  1.00 20.00     0.033 C 
HETATM    9  C7  UNL     1     -42.945   3.241  -2.695  1.00 20.00     0.008 C 
ENDBRANCH   5   8
BRANCH   4  10
HETATM   10  C8  UNL     1     -42.671   8.957  -0.014  1.00 20.00     0.119 C 
HETATM   11 CL11 UNL     1     -41.215   9.881   0.397  1.00 20.00    -0.130 Cl
ENDBRANCH   4  10
TORSDOF 2
ENDMDL
MODEL 6
REMARK VINA RESULT:      -3.9     12.021     12.584
REMARK  2 active torsions:
REMARK  status: ('A' for Active; 'I' for Inactive)
REMARK    1  A    between atoms: C4_4  and  C8_8 
REMARK    2  A    between atoms: C5_5  and  C9_9 
ROOT
HETATM    1  C1  UNL     1     -33.046  15.585  -3.463  1.00 20.00     0.032 C 
HETATM    2  C2  UNL     1     -35.535  15.840  -3.421  1.00 20.00     0.043 C 
HETATM    3  C3  UNL     1     -33.212  14.721  -4.704  1.00 20.00     0.169 C 
HETATM    4  C4  UNL     1     -34.198  16.585  -3.340  1.00 20.00     0.004 C 
HETATM    5  C5  UNL     1     -35.620  14.913  -4.650  1.00 20.00     0.057 C 
HETATM    6  C6  UNL     1     -35.781  15.700  -5.960  1.00 20.00     0.046 C 
HETATM    7  O10 UNL     1     -34.472  14.053  -4.710  1.00 20.00    -0.381 OA
ENDROOT
BRANCH   5   8
HETATM    8  C9  UNL     1     -36.832  13.984  -4.497  1.00 20.00     0.033 C 
HETATM    9  C7  UNL     1     -38.083  14.758  -4.253  1.00 20.00     0.008 C 
ENDBRANCH   5   8
BRANCH   4  10
HETATM   10  C8  UNL     1     -34.094  17.382  -2.041  1.00 20.00     0.119 C 
HETATM   11 CL11 UNL     1     -35.262  16.772  -0.856  1.00 20.00    -0.130 Cl
ENDBRANCH   4  10
TORSDOF 2
ENDMDL
MODEL 7
REMARK VINA RESULT:      -3.9      8.586     10.007
REMARK  2 active torsions:
REMARK  status: ('A' for Active; 'I' for Inactive)
REMARK    1  A    between atoms: C4_4  and  C8_8 
REMARK    2  A    between atoms: C5_5  and  C9_9 
ROOT
HETATM    1  C1  UNL     1     -41.350   4.928  -1.310  1.00 20.00     0.032 C 
HETATM    2  C2  UNL     1     -43.272   6.530  -1.259  1.00 20.00     0.043 C 
HETATM    3  C3  UNL     1     -40.820   5.612  -0.059  1.00 20.00     0.169 C 
HETATM    4  C4  UNL     1     -42.873   5.056  -1.395  1.00 20.00     0.004 C 
HETATM    5  C5  UNL     1     -42.641   7.200  -0.023  1.00 20.00     0.057 C 
HETATM    6  C6  UNL     1     -43.287   6.725   1.287  1.00 20.00     0.046 C 
HETATM    7  O10 UNL     1     -41.223   6.979  -0.001  1.00 20.00    -0.381 OA
ENDROOT
BRANCH   5   8
HETATM    8  C9  UNL     1     -42.827   8.720  -0.125  1.00 20.00     0.033 C 
HETATM    9  C7  UNL     1     -41.564   9.445   0.193  1.00 20.00     0.008 C 
ENDBRANCH   5   8
BRANCH   4  10
HETATM   10  C8  UNL     1     -43.400   4.465  -2.701  1.00 20.00     0.119 C 
HETATM   11 CL11 UNL     1     -42.384   3.104  -3.208  1.00 20.00    -0.130 Cl
ENDBRANCH   4  10
TORSDOF 2
ENDMDL
MODEL 8
REMARK VINA RESULT:      -3.8     11.771     13.036
REMARK  2 active torsions:
REMARK  status: ('A' for Active; 'I' for Inactive)
REMARK    1  A    between atoms: C4_4  and  C8_8 
REMARK    2  A    between atoms: C5_5  and  C9_9 
ROOT
HETATM    1  C1  UNL     1     -36.223  17.231  -3.098  1.00 20.00     0.032 C 
HETATM    2  C2  UNL     1     -34.256  15.684  -3.115  1.00 20.00     0.043 C 
HETATM    3  C3  UNL     1     -36.720  16.522  -4.349  1.00 20.00     0.169 C 
HETATM    4  C4  UNL     1     -35.363  16.292  -2.247  1.00 20.00     0.004 C 
HETATM    5  C5  UNL     1     -34.802  15.053  -4.411  1.00 20.00     0.057 C 
HETATM    6  C6  UNL     1     -35.555  13.740  -4.146  1.00 20.00     0.046 C 
HETATM    7  O10 UNL     1     -35.639  15.987  -5.110  1.00 20.00    -0.381 OA
ENDROOT
BRANCH   5   8
HETATM    8  C9  UNL     1     -33.631  14.751  -5.357  1.00 20.00     0.033 C 
HETATM    9  C7  UNL     1     -33.976  15.072  -6.770  1.00 20.00     0.008 C 
ENDBRANCH   5   8
BRANCH   4  10
HETATM   10  C8  UNL     1     -34.774  17.029  -1.046  1.00 20.00     0.119 C 
HETATM   11 CL11 UNL     1     -33.150  17.625  -1.433  1.00 20.00    -0.130 Cl
ENDBRANCH   4  10
TORSDOF 2
ENDMDL
MODEL 9
REMARK VINA RESULT:      -3.8     12.295     13.065
REMARK  2 active torsions:
REMARK  status: ('A' for Active; 'I' for Inactive)
REMARK    1  A    between atoms: C4_4  and  C8_8 
REMARK    2  A    between atoms: C5_5  and  C9_9 
ROOT
HETATM    1  C1  UNL     1     -36.191  15.597  -5.937  1.00 20.00     0.032 C 
HETATM    2  C2  UNL     1     -35.376  15.235  -3.598  1.00 20.00     0.043 C 
HETATM    3  C3  UNL     1     -34.762  15.956  -6.318  1.00 20.00     0.169 C 
HETATM    4  C4  UNL     1     -36.210  14.642  -4.741  1.00 20.00     0.004 C 
HETATM    5  C5  UNL     1     -33.967  15.660  -4.056  1.00 20.00     0.057 C 
HETATM    6  C6  UNL     1     -33.056  14.453  -4.327  1.00 20.00     0.046 C 
HETATM    7  O10 UNL     1     -34.049  16.506  -5.213  1.00 20.00    -0.381 OA
ENDROOT
BRANCH   5   8
HETATM    8  C9  UNL     1     -33.317  16.513  -2.958  1.00 20.00     0.033 C 
HETATM    9  C7  UNL     1     -34.244  16.719  -1.809  1.00 20.00     0.008 C 
ENDBRANCH   5   8
BRANCH   4  10
HETATM   10  C8  UNL     1     -37.641  14.364  -4.286  1.00 20.00     0.119 C 
HETATM   11 CL11 UNL     1     -38.693  15.723  -4.718  1.00 20.00    -0.130 Cl
ENDBRANCH   4  10
TORSDOF 2
ENDMDL
