MODEL 1
REMARK VINA RESULT:      -4.2      0.000      0.000
REMARK  0 active torsions:
REMARK  status: ('A' for Active; 'I' for Inactive)
ROOT
HETATM    1  C1  UNL     1     -41.407   9.081  -0.162  1.00 20.00     0.066 C 
HETATM    2  C2  UNL     1     -42.098   6.417   1.035  1.00 20.00     0.038 C 
HETATM    3  C3  UNL     1     -43.406   6.115   0.306  1.00 20.00     0.273 C 
HETATM    4  C4  UNL     1     -42.772   7.504  -1.558  1.00 20.00     0.292 C 
HETATM    5  C5  UNL     1     -41.654   5.520  -1.085  1.00 20.00     0.278 C 
HETATM    6  C6  UNL     1     -41.407   7.844  -0.946  1.00 20.00     0.127 C 
HETATM    7  C7  UNL     1     -41.115   6.576  -0.132  1.00 20.00     0.035 C 
HETATM    8  N8  UNL     1     -41.406  10.061   0.460  1.00 20.00    -0.197 NA
HETATM    9  N9  UNL     1     -43.025   6.095  -1.134  1.00 20.00     0.090 N 
ENDROOT
TORSDOF 0
ENDMDL
MODEL 2
REMARK VINA RESULT:      -4.1     22.916     24.075
REMARK  0 active torsions:
REMARK  status: ('A' for Active; 'I' for Inactive)
ROOT
HETATM    1  C1  UNL     1     -22.441  17.358   8.860  1.00 20.00     0.066 C 
HETATM    2  C2  UNL     1     -24.520  16.260  10.726  1.00 20.00     0.038 C 
HETATM    3  C3  UNL     1     -23.710  16.162  12.019  1.00 20.00     0.273 C 
HETATM    4  C4  UNL     1     -22.214  17.908  11.298  1.00 20.00     0.292 C 
HETATM    5  C5  UNL     1     -24.445  18.347  11.794  1.00 20.00     0.278 C 
HETATM    6  C6  UNL     1     -22.975  18.130   9.984  1.00 20.00     0.127 C 
HETATM    7  C7  UNL     1     -24.404  17.753  10.394  1.00 20.00     0.035 C 
HETATM    8  N8  UNL     1     -22.019  16.745   7.969  1.00 20.00    -0.197 NA
HETATM    9  N9  UNL     1     -23.280  17.563  12.286  1.00 20.00     0.090 N 
ENDROOT
TORSDOF 0
ENDMDL
MODEL 3
REMARK VINA RESULT:      -4.1      9.678     11.546
REMARK  0 active torsions:
REMARK  status: ('A' for Active; 'I' for Inactive)
ROOT
HETATM    1  C1  UNL     1     -37.241  14.756  -4.111  1.00 20.00     0.066 C 
HETATM    2  C2  UNL     1     -34.311  14.126  -3.949  1.00 20.00     0.038 C 
HETATM    3  C3  UNL     1     -33.786  14.935  -5.134  1.00 20.00     0.273 C 
HETATM    4  C4  UNL     1     -35.637  16.471  -4.998  1.00 20.00     0.292 C 
HETATM    5  C5  UNL     1     -34.018  16.369  -3.330  1.00 20.00     0.278 C 
HETATM    6  C6  UNL     1     -36.237  15.768  -3.773  1.00 20.00     0.127 C 
HETATM    7  C7  UNL     1     -34.977  15.212  -3.095  1.00 20.00     0.035 C 
HETATM    8  N8  UNL     1     -38.036  13.954  -4.378  1.00 20.00    -0.197 NA
HETATM    9  N9  UNL     1     -34.161  16.341  -4.811  1.00 20.00     0.090 N 
ENDROOT
TORSDOF 0
ENDMDL
MODEL 4
REMARK VINA RESULT:      -4.1      9.973     11.889
REMARK  0 active torsions:
REMARK  status: ('A' for Active; 'I' for Inactive)
ROOT
HETATM    1  C1  UNL     1     -36.390  14.085  -4.186  1.00 20.00     0.066 C 
HETATM    2  C2  UNL     1     -34.506  15.946  -5.598  1.00 20.00     0.038 C 
HETATM    3  C3  UNL     1     -34.396  17.068  -4.565  1.00 20.00     0.273 C 
HETATM    4  C4  UNL     1     -34.940  15.561  -2.765  1.00 20.00     0.292 C 
HETATM    5  C5  UNL     1     -32.943  15.374  -3.946  1.00 20.00     0.278 C 
HETATM    6  C6  UNL     1     -35.033  14.348  -3.700  1.00 20.00     0.127 C 
HETATM    7  C7  UNL     1     -34.029  14.730  -4.795  1.00 20.00     0.035 C 
HETATM    8  N8  UNL     1     -37.465  13.877  -4.572  1.00 20.00    -0.197 NA
HETATM    9  N9  UNL     1     -33.849  16.395  -3.353  1.00 20.00     0.090 N 
ENDROOT
TORSDOF 0
ENDMDL
MODEL 5
REMARK VINA RESULT:      -4.0      9.878     11.791
REMARK  0 active torsions:
REMARK  status: ('A' for Active; 'I' for Inactive)
ROOT
HETATM    1  C1  UNL     1     -36.029  13.922  -4.204  1.00 20.00     0.066 C 
HETATM    2  C2  UNL     1     -33.766  15.646  -3.249  1.00 20.00     0.038 C 
HETATM    3  C3  UNL     1     -33.847  16.794  -4.255  1.00 20.00     0.273 C 
HETATM    4  C4  UNL     1     -36.191  16.388  -4.638  1.00 20.00     0.292 C 
HETATM    5  C5  UNL     1     -35.412  17.181  -2.594  1.00 20.00     0.278 C 
HETATM    6  C6  UNL     1     -36.244  15.246  -3.615  1.00 20.00     0.127 C 
HETATM    7  C7  UNL     1     -35.163  15.681  -2.617  1.00 20.00     0.035 C 
HETATM    8  N8  UNL     1     -35.858  12.872  -4.669  1.00 20.00    -0.197 NA
HETATM    9  N9  UNL     1     -35.212  17.356  -4.058  1.00 20.00     0.090 N 
ENDROOT
TORSDOF 0
ENDMDL
MODEL 6
REMARK VINA RESULT:      -4.0     10.056     11.975
REMARK  0 active torsions:
REMARK  status: ('A' for Active; 'I' for Inactive)
ROOT
HETATM    1  C1  UNL     1     -35.856  13.914  -4.626  1.00 20.00     0.066 C 
HETATM    2  C2  UNL     1     -34.699  15.688  -2.501  1.00 20.00     0.038 C 
HETATM    3  C3  UNL     1     -33.458  16.214  -3.222  1.00 20.00     0.273 C 
HETATM    4  C4  UNL     1     -34.478  15.872  -5.378  1.00 20.00     0.292 C 
HETATM    5  C5  UNL     1     -35.274  17.481  -3.899  1.00 20.00     0.278 C 
HETATM    6  C6  UNL     1     -35.793  15.370  -4.767  1.00 20.00     0.127 C 
HETATM    7  C7  UNL     1     -35.824  16.139  -3.440  1.00 20.00     0.035 C 
HETATM    8  N8  UNL     1     -35.906  12.760  -4.514  1.00 20.00    -0.197 NA
HETATM    9  N9  UNL     1     -34.001  16.914  -4.420  1.00 20.00     0.090 N 
ENDROOT
TORSDOF 0
ENDMDL
MODEL 7
REMARK VINA RESULT:      -3.9     22.521     23.454
REMARK  0 active torsions:
REMARK  status: ('A' for Active; 'I' for Inactive)
ROOT
HETATM    1  C1  UNL     1     -26.575  18.016  12.173  1.00 20.00     0.066 C 
HETATM    2  C2  UNL     1     -24.346  16.105  11.551  1.00 20.00     0.038 C 
HETATM    3  C3  UNL     1     -24.004  16.531  10.124  1.00 20.00     0.273 C 
HETATM    4  C4  UNL     1     -24.848  18.755  10.509  1.00 20.00     0.292 C 
HETATM    5  C5  UNL     1     -22.935  17.978  11.582  1.00 20.00     0.278 C 
HETATM    6  C6  UNL     1     -25.193  18.459  11.974  1.00 20.00     0.127 C 
HETATM    7  C7  UNL     1     -24.131  17.409  12.329  1.00 20.00     0.035 C 
HETATM    8  N8  UNL     1     -27.669  17.665  12.332  1.00 20.00    -0.197 NA
HETATM    9  N9  UNL     1     -23.608  17.961  10.255  1.00 20.00     0.090 N 
ENDROOT
TORSDOF 0
ENDMDL
MODEL 8
REMARK VINA RESULT:      -3.9     22.862     23.874
REMARK  0 active torsions:
REMARK  status: ('A' for Active; 'I' for Inactive)
ROOT
HETATM    1  C1  UNL     1     -21.733  17.037   7.883  1.00 20.00     0.066 C 
HETATM    2  C2  UNL     1     -23.487  19.240   8.922  1.00 20.00     0.038 C 
HETATM    3  C3  UNL     1     -24.763  18.458   9.232  1.00 20.00     0.273 C 
HETATM    4  C4  UNL     1     -23.523  16.413   9.528  1.00 20.00     0.292 C 
HETATM    5  C5  UNL     1     -23.306  18.192  11.012  1.00 20.00     0.278 C 
HETATM    6  C6  UNL     1     -22.173  17.099   9.279  1.00 20.00     0.127 C 
HETATM    7  C7  UNL     1     -22.454  18.516   9.795  1.00 20.00     0.035 C 
HETATM    8  N8  UNL     1     -21.384  16.989   6.777  1.00 20.00    -0.197 NA
HETATM    9  N9  UNL     1     -24.335  17.446  10.238  1.00 20.00     0.090 N 
ENDROOT
TORSDOF 0
ENDMDL
MODEL 9
REMARK VINA RESULT:      -3.9      9.633     11.434
REMARK  0 active torsions:
REMARK  status: ('A' for Active; 'I' for Inactive)
ROOT
HETATM    1  C1  UNL     1     -37.030  14.381  -4.508  1.00 20.00     0.066 C 
HETATM    2  C2  UNL     1     -35.977  16.700  -2.920  1.00 20.00     0.038 C 
HETATM    3  C3  UNL     1     -34.855  16.016  -2.140  1.00 20.00     0.273 C 
HETATM    4  C4  UNL     1     -34.614  14.319  -3.833  1.00 20.00     0.292 C 
HETATM    5  C5  UNL     1     -34.051  16.538  -4.248  1.00 20.00     0.278 C 
HETATM    6  C6  UNL     1     -35.695  14.941  -4.727  1.00 20.00     0.127 C 
HETATM    7  C7  UNL     1     -35.563  16.428  -4.372  1.00 20.00     0.035 C 
HETATM    8  N8  UNL     1     -38.089  13.938  -4.334  1.00 20.00    -0.197 NA
HETATM    9  N9  UNL     1     -33.944  15.491  -3.196  1.00 20.00     0.090 N 
ENDROOT
TORSDOF 0
ENDMDL
