MODEL 1
REMARK VINA RESULT:      -5.5      0.000      0.000
REMARK  2 active torsions:
REMARK  status: ('A' for Active; 'I' for Inactive)
REMARK    1  A    between atoms: C1_1  and  C5_5 
REMARK    2  A    between atoms: C6_6  and  C8_8 
ROOT
HETATM    1  C2  UNL     1     -33.218   4.894   2.560  1.00 20.00     0.012 C 
HETATM    2  C3  UNL     1     -34.186   4.238   3.541  1.00 20.00     0.005 C 
HETATM    3  C4  UNL     1     -34.276   6.677   3.732  1.00 20.00     0.016 C 
HETATM    4  C5  UNL     1     -32.911   6.245   3.197  1.00 20.00     0.047 C 
HETATM    5  C6  UNL     1     -34.916   5.386   4.238  1.00 20.00    -0.014 C 
ENDROOT
BRANCH   4   6
HETATM    6  C1  UNL     1     -32.306   7.242   2.224  1.00 20.00     0.235 C 
HETATM    7  O9  UNL     1     -32.973   7.917   1.447  1.00 20.00    -0.306 OA
ENDBRANCH   4   6
BRANCH   5   8
HETATM    8  C8  UNL     1     -34.691   5.287   5.735  1.00 20.00     0.000 C 
HETATM    9  C7  UNL     1     -34.196   6.575   6.314  1.00 20.00     0.005 C 
ENDBRANCH   5   8
TORSDOF 2
ENDMDL
MODEL 2
REMARK VINA RESULT:      -4.7      2.149      3.861
REMARK  2 active torsions:
REMARK  status: ('A' for Active; 'I' for Inactive)
REMARK    1  A    between atoms: C1_1  and  C5_5 
REMARK    2  A    between atoms: C6_6  and  C8_8 
ROOT
HETATM    1  C2  UNL     1     -33.827   4.798   3.123  1.00 20.00     0.012 C 
HETATM    2  C3  UNL     1     -32.920   5.581   2.179  1.00 20.00     0.005 C 
HETATM    3  C4  UNL     1     -33.301   6.828   4.252  1.00 20.00     0.016 C 
HETATM    4  C5  UNL     1     -34.467   5.873   3.993  1.00 20.00     0.047 C 
HETATM    5  C6  UNL     1     -32.525   6.850   2.936  1.00 20.00    -0.014 C 
ENDROOT
BRANCH   4   6
HETATM    6  C1  UNL     1     -35.083   5.323   5.268  1.00 20.00     0.235 C 
HETATM    7  O9  UNL     1     -34.436   5.081   6.282  1.00 20.00    -0.306 OA
ENDBRANCH   4   6
BRANCH   5   8
HETATM    8  C8  UNL     1     -32.958   8.065   2.137  1.00 20.00     0.000 C 
HETATM    9  C7  UNL     1     -32.455   8.017   0.728  1.00 20.00     0.005 C 
ENDBRANCH   5   8
TORSDOF 2
ENDMDL
MODEL 3
REMARK VINA RESULT:      -4.7     11.486     12.312
REMARK  2 active torsions:
REMARK  status: ('A' for Active; 'I' for Inactive)
REMARK    1  A    between atoms: C1_1  and  C5_5 
REMARK    2  A    between atoms: C6_6  and  C8_8 
ROOT
HETATM    1  C2  UNL     1     -33.735  14.533  -4.395  1.00 20.00     0.012 C 
HETATM    2  C3  UNL     1     -32.972  15.629  -3.655  1.00 20.00     0.005 C 
HETATM    3  C4  UNL     1     -35.237  15.386  -2.755  1.00 20.00     0.016 C 
HETATM    4  C5  UNL     1     -35.198  14.915  -4.209  1.00 20.00     0.047 C 
HETATM    5  C6  UNL     1     -33.914  16.123  -2.556  1.00 20.00    -0.014 C 
ENDROOT
BRANCH   4   6
HETATM    6  C1  UNL     1     -36.157  13.772  -4.493  1.00 20.00     0.235 C 
HETATM    7  O9  UNL     1     -35.823  12.591  -4.481  1.00 20.00    -0.306 OA
ENDBRANCH   4   6
BRANCH   5   8
HETATM    8  C8  UNL     1     -34.154  17.610  -2.734  1.00 20.00     0.000 C 
HETATM    9  C7  UNL     1     -32.955  18.308  -3.295  1.00 20.00     0.005 C 
ENDBRANCH   5   8
TORSDOF 2
ENDMDL
MODEL 4
REMARK VINA RESULT:      -4.4     15.751     16.785
REMARK  2 active torsions:
REMARK  status: ('A' for Active; 'I' for Inactive)
REMARK    1  A    between atoms: C1_1  and  C5_5 
REMARK    2  A    between atoms: C6_6  and  C8_8 
ROOT
HETATM    1  C2  UNL     1     -23.709  18.085   8.558  1.00 20.00     0.012 C 
HETATM    2  C3  UNL     1     -24.334  18.143   9.949  1.00 20.00     0.005 C 
HETATM    3  C4  UNL     1     -21.928  17.706  10.094  1.00 20.00     0.016 C 
HETATM    4  C5  UNL     1     -22.469  17.220   8.749  1.00 20.00     0.047 C 
HETATM    5  C6  UNL     1     -23.176  17.972  10.934  1.00 20.00    -0.014 C 
ENDROOT
BRANCH   4   6
HETATM    6  C1  UNL     1     -21.465  17.355   7.617  1.00 20.00     0.235 C 
HETATM    7  O9  UNL     1     -21.391  16.565   6.681  1.00 20.00    -0.306 OA
ENDBRANCH   4   6
BRANCH   5   8
HETATM    8  C8  UNL     1     -23.439  16.762  11.811  1.00 20.00     0.000 C 
HETATM    9  C7  UNL     1     -24.764  16.133  11.515  1.00 20.00     0.005 C 
ENDBRANCH   5   8
TORSDOF 2
ENDMDL
MODEL 5
REMARK VINA RESULT:      -4.4     11.438     12.524
REMARK  2 active torsions:
REMARK  status: ('A' for Active; 'I' for Inactive)
REMARK    1  A    between atoms: C1_1  and  C5_5 
REMARK    2  A    between atoms: C6_6  and  C8_8 
ROOT
HETATM    1  C2  UNL     1     -35.218  15.999  -5.317  1.00 20.00     0.012 C 
HETATM    2  C3  UNL     1     -34.207  16.912  -4.629  1.00 20.00     0.005 C 
HETATM    3  C4  UNL     1     -34.296  14.726  -3.528  1.00 20.00     0.016 C 
HETATM    4  C5  UNL     1     -35.625  15.014  -4.228  1.00 20.00     0.047 C 
HETATM    5  C6  UNL     1     -33.565  16.068  -3.527  1.00 20.00    -0.014 C 
ENDROOT
BRANCH   4   6
HETATM    6  C1  UNL     1     -36.298  13.766  -4.770  1.00 20.00     0.235 C 
HETATM    7  O9  UNL     1     -35.894  12.629  -4.546  1.00 20.00    -0.306 OA
ENDBRANCH   4   6
BRANCH   5   8
HETATM    8  C8  UNL     1     -33.786  16.741  -2.186  1.00 20.00     0.000 C 
HETATM    9  C7  UNL     1     -32.692  17.706  -1.857  1.00 20.00     0.005 C 
ENDBRANCH   5   8
TORSDOF 2
ENDMDL
MODEL 6
REMARK VINA RESULT:      -4.4     11.786     12.333
REMARK  2 active torsions:
REMARK  status: ('A' for Active; 'I' for Inactive)
REMARK    1  A    between atoms: C1_1  and  C5_5 
REMARK    2  A    between atoms: C6_6  and  C8_8 
ROOT
HETATM    1  C2  UNL     1     -34.852  14.440  -4.770  1.00 20.00     0.012 C 
HETATM    2  C3  UNL     1     -33.496  14.946  -4.285  1.00 20.00     0.005 C 
HETATM    3  C4  UNL     1     -35.276  15.607  -2.738  1.00 20.00     0.016 C 
HETATM    4  C5  UNL     1     -35.850  15.404  -4.140  1.00 20.00     0.047 C 
HETATM    5  C6  UNL     1     -33.762  15.631  -2.944  1.00 20.00    -0.014 C 
ENDROOT
BRANCH   4   6
HETATM    6  C1  UNL     1     -37.273  14.872  -4.133  1.00 20.00     0.235 C 
HETATM    7  O9  UNL     1     -37.567  13.723  -4.447  1.00 20.00    -0.306 OA
ENDBRANCH   4   6
BRANCH   5   8
HETATM    8  C8  UNL     1     -33.305  17.075  -3.019  1.00 20.00     0.000 C 
HETATM    9  C7  UNL     1     -33.097  17.669  -1.662  1.00 20.00     0.005 C 
ENDBRANCH   5   8
TORSDOF 2
ENDMDL
MODEL 7
REMARK VINA RESULT:      -4.3     16.140     17.068
REMARK  2 active torsions:
REMARK  status: ('A' for Active; 'I' for Inactive)
REMARK    1  A    between atoms: C1_1  and  C5_5 
REMARK    2  A    between atoms: C6_6  and  C8_8 
ROOT
HETATM    1  C2  UNL     1     -21.720  17.787  10.779  1.00 20.00     0.012 C 
HETATM    2  C3  UNL     1     -22.414  17.752  12.138  1.00 20.00     0.005 C 
HETATM    3  C4  UNL     1     -23.904  16.923  10.381  1.00 20.00     0.016 C 
HETATM    4  C5  UNL     1     -22.870  17.878   9.783  1.00 20.00     0.047 C 
HETATM    5  C6  UNL     1     -23.788  17.129  11.890  1.00 20.00    -0.014 C 
ENDROOT
BRANCH   4   6
HETATM    6  C1  UNL     1     -22.466  17.511   8.366  1.00 20.00     0.235 C 
HETATM    7  O9  UNL     1     -22.832  18.135   7.375  1.00 20.00    -0.306 OA
ENDBRANCH   4   6
BRANCH   5   8
HETATM    8  C8  UNL     1     -24.866  18.101  12.332  1.00 20.00     0.000 C 
HETATM    9  C7  UNL     1     -26.240  17.545  12.127  1.00 20.00     0.005 C 
ENDBRANCH   5   8
TORSDOF 2
ENDMDL
MODEL 8
REMARK VINA RESULT:      -4.3     16.237     17.008
REMARK  2 active torsions:
REMARK  status: ('A' for Active; 'I' for Inactive)
REMARK    1  A    between atoms: C1_1  and  C5_5 
REMARK    2  A    between atoms: C6_6  and  C8_8 
ROOT
HETATM    1  C2  UNL     1     -22.254  18.156   8.694  1.00 20.00     0.012 C 
HETATM    2  C3  UNL     1     -21.867  17.588  10.056  1.00 20.00     0.005 C 
HETATM    3  C4  UNL     1     -24.301  17.631   9.792  1.00 20.00     0.016 C 
HETATM    4  C5  UNL     1     -23.660  18.703   8.910  1.00 20.00     0.047 C 
HETATM    5  C6  UNL     1     -23.180  17.184  10.728  1.00 20.00    -0.014 C 
ENDROOT
BRANCH   4   6
HETATM    6  C1  UNL     1     -24.416  18.943   7.615  1.00 20.00     0.235 C 
HETATM    7  O9  UNL     1     -23.891  18.891   6.507  1.00 20.00    -0.306 OA
ENDBRANCH   4   6
BRANCH   5   8
HETATM    8  C8  UNL     1     -23.320  17.928  12.042  1.00 20.00     0.000 C 
HETATM    9  C7  UNL     1     -24.741  18.295  12.330  1.00 20.00     0.005 C 
ENDBRANCH   5   8
TORSDOF 2
ENDMDL
MODEL 9
REMARK VINA RESULT:      -4.2     11.614     12.441
REMARK  2 active torsions:
REMARK  status: ('A' for Active; 'I' for Inactive)
REMARK    1  A    between atoms: C1_1  and  C5_5 
REMARK    2  A    between atoms: C6_6  and  C8_8 
ROOT
HETATM    1  C2  UNL     1     -35.016  15.931  -2.183  1.00 20.00     0.012 C 
HETATM    2  C3  UNL     1     -34.586  17.153  -1.376  1.00 20.00     0.005 C 
HETATM    3  C4  UNL     1     -33.308  16.993  -3.459  1.00 20.00     0.016 C 
HETATM    4  C5  UNL     1     -33.795  15.607  -3.036  1.00 20.00     0.047 C 
HETATM    5  C6  UNL     1     -33.543  17.872  -2.232  1.00 20.00    -0.014 C 
ENDROOT
BRANCH   4   6
HETATM    6  C1  UNL     1     -34.110  14.699  -4.212  1.00 20.00     0.235 C 
HETATM    7  O9  UNL     1     -34.465  13.531  -4.088  1.00 20.00    -0.306 OA
ENDBRANCH   4   6
BRANCH   5   8
HETATM    8  C8  UNL     1     -32.244  17.978  -1.455  1.00 20.00     0.000 C 
HETATM    9  C7  UNL     1     -32.466  18.465  -0.058  1.00 20.00     0.005 C 
ENDBRANCH   5   8
TORSDOF 2
ENDMDL
