MODEL 1
REMARK VINA RESULT:      -4.9      0.000      0.000
REMARK  1 active torsions:
REMARK  status: ('A' for Active; 'I' for Inactive)
REMARK    1  A    between atoms: C1_1  and  C7_7 
ROOT
HETATM    1  C2  UNL     1     -36.306  17.034  -2.643  1.00 20.00     0.001 C 
HETATM    2  C3  UNL     1     -36.452  16.016  -3.771  1.00 20.00     0.011 C 
HETATM    3  C4  UNL     1     -34.121  15.113  -4.229  1.00 20.00     0.012 C 
HETATM    4  C5  UNL     1     -34.974  17.120  -1.898  1.00 20.00     0.008 C 
HETATM    5  C6  UNL     1     -33.215  15.839  -3.239  1.00 20.00     0.009 C 
HETATM    6  C7  UNL     1     -35.525  14.805  -3.702  1.00 20.00     0.047 C 
HETATM    7  C8  UNL     1     -33.672  17.225  -2.727  1.00 20.00    -0.048 C 
HETATM    8  C9  UNL     1     -32.562  17.735  -1.772  1.00 20.00     0.015 C 
HETATM    9  C10 UNL     1     -33.792  18.242  -3.872  1.00 20.00     0.015 C 
ENDROOT
BRANCH   6  10
HETATM   10  C1  UNL     1     -36.119  13.721  -4.555  1.00 20.00     0.235 C 
HETATM   11  O11 UNL     1     -35.780  12.544  -4.485  1.00 20.00    -0.306 OA
ENDBRANCH   6  10
TORSDOF 1
ENDMDL
MODEL 2
REMARK VINA RESULT:      -4.5      0.935      2.316
REMARK  1 active torsions:
REMARK  status: ('A' for Active; 'I' for Inactive)
REMARK    1  A    between atoms: C1_1  and  C7_7 
ROOT
HETATM    1  C2  UNL     1     -33.134  15.644  -3.613  1.00 20.00     0.001 C 
HETATM    2  C3  UNL     1     -34.227  14.585  -3.719  1.00 20.00     0.011 C 
HETATM    3  C4  UNL     1     -36.442  15.817  -3.536  1.00 20.00     0.012 C 
HETATM    4  C5  UNL     1     -33.531  17.119  -3.676  1.00 20.00     0.008 C 
HETATM    5  C6  UNL     1     -36.064  17.287  -3.376  1.00 20.00     0.009 C 
HETATM    6  C7  UNL     1     -35.504  15.012  -4.439  1.00 20.00     0.047 C 
HETATM    7  C8  UNL     1     -34.679  17.612  -2.765  1.00 20.00    -0.048 C 
HETATM    8  C9  UNL     1     -34.577  19.157  -2.695  1.00 20.00     0.015 C 
HETATM    9  C10 UNL     1     -34.554  17.080  -1.330  1.00 20.00     0.015 C 
ENDROOT
BRANCH   6  10
HETATM   10  C1  UNL     1     -36.226  13.769  -4.875  1.00 20.00     0.235 C 
HETATM   11  O11 UNL     1     -35.881  12.638  -4.547  1.00 20.00    -0.306 OA
ENDBRANCH   6  10
TORSDOF 1
ENDMDL
MODEL 3
REMARK VINA RESULT:      -4.5      1.435      2.139
REMARK  1 active torsions:
REMARK  status: ('A' for Active; 'I' for Inactive)
REMARK    1  A    between atoms: C1_1  and  C7_7 
ROOT
HETATM    1  C2  UNL     1     -34.797  16.993  -5.526  1.00 20.00     0.001 C 
HETATM    2  C3  UNL     1     -35.823  15.865  -5.445  1.00 20.00     0.011 C 
HETATM    3  C4  UNL     1     -35.844  15.085  -3.027  1.00 20.00     0.012 C 
HETATM    4  C5  UNL     1     -34.227  17.562  -4.227  1.00 20.00     0.008 C 
HETATM    5  C6  UNL     1     -34.824  15.971  -2.317  1.00 20.00     0.009 C 
HETATM    6  C7  UNL     1     -36.622  15.780  -4.147  1.00 20.00     0.047 C 
HETATM    7  C8  UNL     1     -33.681  16.577  -3.168  1.00 20.00    -0.048 C 
HETATM    8  C9  UNL     1     -32.791  17.395  -2.197  1.00 20.00     0.015 C 
HETATM    9  C10 UNL     1     -32.797  15.485  -3.789  1.00 20.00     0.015 C 
ENDROOT
BRANCH   6  10
HETATM   10  C1  UNL     1     -37.864  14.980  -4.422  1.00 20.00     0.235 C 
HETATM   11  O11 UNL     1     -37.888  13.754  -4.438  1.00 20.00    -0.306 OA
ENDBRANCH   6  10
TORSDOF 1
ENDMDL
MODEL 4
REMARK VINA RESULT:      -4.5      1.141      1.293
REMARK  1 active torsions:
REMARK  status: ('A' for Active; 'I' for Inactive)
REMARK    1  A    between atoms: C1_1  and  C7_7 
ROOT
HETATM    1  C2  UNL     1     -36.053  17.587  -4.738  1.00 20.00     0.001 C 
HETATM    2  C3  UNL     1     -35.893  16.154  -5.239  1.00 20.00     0.011 C 
HETATM    3  C4  UNL     1     -34.676  14.883  -3.406  1.00 20.00     0.012 C 
HETATM    4  C5  UNL     1     -35.724  17.896  -3.277  1.00 20.00     0.008 C 
HETATM    5  C6  UNL     1     -34.445  15.910  -2.300  1.00 20.00     0.009 C 
HETATM    6  C7  UNL     1     -35.985  15.061  -4.178  1.00 20.00     0.047 C 
HETATM    7  C8  UNL     1     -34.375  17.401  -2.706  1.00 20.00    -0.048 C 
HETATM    8  C9  UNL     1     -34.108  18.203  -1.405  1.00 20.00     0.015 C 
HETATM    9  C10 UNL     1     -33.203  17.675  -3.660  1.00 20.00     0.015 C 
ENDROOT
BRANCH   6  10
HETATM   10  C1  UNL     1     -36.298  13.767  -4.876  1.00 20.00     0.235 C 
HETATM   11  O11 UNL     1     -35.881  12.677  -4.497  1.00 20.00    -0.306 OA
ENDBRANCH   6  10
TORSDOF 1
ENDMDL
MODEL 5
REMARK VINA RESULT:      -4.3      1.833      2.718
REMARK  1 active torsions:
REMARK  status: ('A' for Active; 'I' for Inactive)
REMARK    1  A    between atoms: C1_1  and  C7_7 
ROOT
HETATM    1  C2  UNL     1     -34.027  14.320  -4.130  1.00 20.00     0.001 C 
HETATM    2  C3  UNL     1     -35.268  14.589  -4.977  1.00 20.00     0.011 C 
HETATM    3  C4  UNL     1     -35.708  17.088  -4.832  1.00 20.00     0.012 C 
HETATM    4  C5  UNL     1     -33.212  15.509  -3.622  1.00 20.00     0.008 C 
HETATM    5  C6  UNL     1     -34.599  17.633  -3.937  1.00 20.00     0.009 C 
HETATM    6  C7  UNL     1     -35.289  15.919  -5.727  1.00 20.00     0.047 C 
HETATM    7  C8  UNL     1     -33.957  16.664  -2.914  1.00 20.00    -0.048 C 
HETATM    8  C9  UNL     1     -32.897  17.482  -2.132  1.00 20.00     0.015 C 
HETATM    9  C10 UNL     1     -34.986  16.155  -1.893  1.00 20.00     0.015 C 
ENDROOT
BRANCH   6  10
HETATM   10  C1  UNL     1     -36.287  15.802  -6.844  1.00 20.00     0.235 C 
HETATM   11  O11 UNL     1     -36.366  14.823  -7.579  1.00 20.00    -0.306 OA
ENDBRANCH   6  10
TORSDOF 1
ENDMDL
MODEL 6
REMARK VINA RESULT:      -4.3      1.502      2.016
REMARK  1 active torsions:
REMARK  status: ('A' for Active; 'I' for Inactive)
REMARK    1  A    between atoms: C1_1  and  C7_7 
ROOT
HETATM    1  C2  UNL     1     -34.743  18.255  -4.498  1.00 20.00     0.001 C 
HETATM    2  C3  UNL     1     -34.472  17.024  -5.359  1.00 20.00     0.011 C 
HETATM    3  C4  UNL     1     -34.553  15.023  -3.794  1.00 20.00     0.012 C 
HETATM    4  C5  UNL     1     -35.222  18.057  -3.060  1.00 20.00     0.008 C 
HETATM    5  C6  UNL     1     -34.858  15.609  -2.419  1.00 20.00     0.009 C 
HETATM    6  C7  UNL     1     -35.221  15.754  -4.961  1.00 20.00     0.047 C 
HETATM    7  C8  UNL     1     -34.443  17.076  -2.153  1.00 20.00    -0.048 C 
HETATM    8  C9  UNL     1     -34.842  17.392  -0.688  1.00 20.00     0.015 C 
HETATM    9  C10 UNL     1     -32.922  17.264  -2.263  1.00 20.00     0.015 C 
ENDROOT
BRANCH   6  10
HETATM   10  C1  UNL     1     -35.229  14.834  -6.149  1.00 20.00     0.235 C 
HETATM   11  O11 UNL     1     -35.976  13.865  -6.248  1.00 20.00    -0.306 OA
ENDBRANCH   6  10
TORSDOF 1
ENDMDL
MODEL 7
REMARK VINA RESULT:      -4.2      2.233      4.175
REMARK  1 active torsions:
REMARK  status: ('A' for Active; 'I' for Inactive)
REMARK    1  A    between atoms: C1_1  and  C7_7 
ROOT
HETATM    1  C2  UNL     1     -33.043  15.555  -3.560  1.00 20.00     0.001 C 
HETATM    2  C3  UNL     1     -33.513  16.640  -2.595  1.00 20.00     0.011 C 
HETATM    3  C4  UNL     1     -36.042  16.755  -2.822  1.00 20.00     0.012 C 
HETATM    4  C5  UNL     1     -34.086  14.653  -4.218  1.00 20.00     0.008 C 
HETATM    5  C6  UNL     1     -36.393  15.695  -3.863  1.00 20.00     0.009 C 
HETATM    6  C7  UNL     1     -34.860  16.395  -1.919  1.00 20.00     0.047 C 
HETATM    7  C8  UNL     1     -35.308  15.315  -4.898  1.00 20.00    -0.048 C 
HETATM    8  C9  UNL     1     -35.941  14.254  -5.835  1.00 20.00     0.015 C 
HETATM    9  C10 UNL     1     -34.910  16.515  -5.770  1.00 20.00     0.015 C 
ENDROOT
BRANCH   6  10
HETATM   10  C1  UNL     1     -34.925  17.261  -0.693  1.00 20.00     0.235 C 
HETATM   11  O11 UNL     1     -35.430  16.898   0.364  1.00 20.00    -0.306 OA
ENDBRANCH   6  10
TORSDOF 1
ENDMDL
MODEL 8
REMARK VINA RESULT:      -4.1      1.723      2.658
REMARK  1 active torsions:
REMARK  status: ('A' for Active; 'I' for Inactive)
REMARK    1  A    between atoms: C1_1  and  C7_7 
ROOT
HETATM    1  C2  UNL     1     -34.757  14.475  -3.732  1.00 20.00     0.001 C 
HETATM    2  C3  UNL     1     -36.074  14.912  -4.367  1.00 20.00     0.011 C 
HETATM    3  C4  UNL     1     -36.124  17.450  -4.241  1.00 20.00     0.012 C 
HETATM    4  C5  UNL     1     -33.707  15.538  -3.411  1.00 20.00     0.008 C 
HETATM    5  C6  UNL     1     -34.811  17.838  -3.565  1.00 20.00     0.009 C 
HETATM    6  C7  UNL     1     -36.035  16.222  -5.150  1.00 20.00     0.047 C 
HETATM    7  C8  UNL     1     -34.148  16.798  -2.631  1.00 20.00    -0.048 C 
HETATM    8  C9  UNL     1     -32.864  17.462  -2.069  1.00 20.00     0.015 C 
HETATM    9  C10 UNL     1     -35.048  16.456  -1.433  1.00 20.00     0.015 C 
ENDROOT
BRANCH   6  10
HETATM   10  C1  UNL     1     -37.217  16.239  -6.078  1.00 20.00     0.235 C 
HETATM   11  O11 UNL     1     -38.271  15.658  -5.841  1.00 20.00    -0.306 OA
ENDBRANCH   6  10
TORSDOF 1
ENDMDL
MODEL 9
REMARK VINA RESULT:      -4.1      2.139      2.938
REMARK  1 active torsions:
REMARK  status: ('A' for Active; 'I' for Inactive)
REMARK    1  A    between atoms: C1_1  and  C7_7 
ROOT
HETATM    1  C2  UNL     1     -35.617  17.182  -5.063  1.00 20.00     0.001 C 
HETATM    2  C3  UNL     1     -36.930  16.419  -5.216  1.00 20.00     0.011 C 
HETATM    3  C4  UNL     1     -36.455  14.024  -4.513  1.00 20.00     0.012 C 
HETATM    4  C5  UNL     1     -34.452  16.503  -4.343  1.00 20.00     0.008 C 
HETATM    5  C6  UNL     1     -34.979  14.011  -4.124  1.00 20.00     0.009 C 
HETATM    6  C7  UNL     1     -37.191  15.325  -4.184  1.00 20.00     0.047 C 
HETATM    7  C8  UNL     1     -34.055  15.071  -4.771  1.00 20.00    -0.048 C 
HETATM    8  C9  UNL     1     -32.628  14.808  -4.225  1.00 20.00     0.015 C 
HETATM    9  C10 UNL     1     -33.996  14.915  -6.299  1.00 20.00     0.015 C 
ENDROOT
BRANCH   6  10
HETATM   10  C1  UNL     1     -38.666  15.041  -4.176  1.00 20.00     0.235 C 
HETATM   11  O11 UNL     1     -39.146  13.951  -4.471  1.00 20.00    -0.306 OA
ENDBRANCH   6  10
TORSDOF 1
ENDMDL
