MODEL 1
REMARK VINA RESULT:      -4.6      0.000      0.000
REMARK  2 active torsions:
REMARK  status: ('A' for Active; 'I' for Inactive)
REMARK    1  A    between atoms: C1_1  and  C7_7 
REMARK    2  A    between atoms: C8_8  and  C10_10 
ROOT
HETATM    1  C2  UNL     1     -34.819  17.312  -5.329  1.00 20.00     0.001 C 
HETATM    2  C3  UNL     1     -35.438  15.929  -5.568  1.00 20.00     0.011 C 
HETATM    3  C4  UNL     1     -34.150  14.611  -3.764  1.00 20.00     0.012 C 
HETATM    4  C5  UNL     1     -34.764  17.760  -3.871  1.00 20.00     0.004 C 
HETATM    5  C6  UNL     1     -33.141  15.741  -3.561  1.00 20.00     0.005 C 
HETATM    6  C7  UNL     1     -35.515  14.988  -4.357  1.00 20.00     0.047 C 
HETATM    7  C8  UNL     1     -33.678  17.072  -3.030  1.00 20.00    -0.015 C 
ENDROOT
BRANCH   6   8
HETATM    8  C1  UNL     1     -36.274  13.710  -4.740  1.00 20.00     0.235 C 
HETATM    9  O11 UNL     1     -35.866  12.580  -4.491  1.00 20.00    -0.306 OA
ENDBRANCH   6   8
BRANCH   7  10
HETATM   10  C10 UNL     1     -34.155  16.916  -1.617  1.00 20.00     0.000 C 
HETATM   11  C9  UNL     1     -35.598  17.268  -1.486  1.00 20.00     0.005 C 
ENDBRANCH   7  10
TORSDOF 2
ENDMDL
MODEL 2
REMARK VINA RESULT:      -4.5      1.481      2.520
REMARK  2 active torsions:
REMARK  status: ('A' for Active; 'I' for Inactive)
REMARK    1  A    between atoms: C1_1  and  C7_7 
REMARK    2  A    between atoms: C8_8  and  C10_10 
ROOT
HETATM    1  C2  UNL     1     -33.840  13.899  -3.950  1.00 20.00     0.001 C 
HETATM    2  C3  UNL     1     -35.365  13.869  -4.108  1.00 20.00     0.011 C 
HETATM    3  C4  UNL     1     -35.935  15.998  -2.769  1.00 20.00     0.012 C 
HETATM    4  C5  UNL     1     -33.180  15.245  -4.235  1.00 20.00     0.004 C 
HETATM    5  C6  UNL     1     -34.533  16.076  -2.164  1.00 20.00     0.005 C 
HETATM    6  C7  UNL     1     -36.089  15.223  -4.085  1.00 20.00     0.047 C 
HETATM    7  C8  UNL     1     -33.366  16.296  -3.130  1.00 20.00    -0.015 C 
ENDROOT
BRANCH   6   8
HETATM    8  C1  UNL     1     -37.581  15.020  -4.384  1.00 20.00     0.235 C 
HETATM    9  O11 UNL     1     -38.128  13.922  -4.379  1.00 20.00    -0.306 OA
ENDBRANCH   6   8
BRANCH   7  10
HETATM   10  C10 UNL     1     -33.444  17.664  -3.740  1.00 20.00     0.000 C 
HETATM   11  C9  UNL     1     -32.671  18.661  -2.944  1.00 20.00     0.005 C 
ENDBRANCH   7  10
TORSDOF 2
ENDMDL
MODEL 3
REMARK VINA RESULT:      -4.4      1.822      3.076
REMARK  2 active torsions:
REMARK  status: ('A' for Active; 'I' for Inactive)
REMARK    1  A    between atoms: C1_1  and  C7_7 
REMARK    2  A    between atoms: C8_8  and  C10_10 
ROOT
HETATM    1  C2  UNL     1     -35.183  16.669  -1.379  1.00 20.00     0.001 C 
HETATM    2  C3  UNL     1     -34.809  15.679  -2.489  1.00 20.00     0.011 C 
HETATM    3  C4  UNL     1     -33.603  17.314  -4.077  1.00 20.00     0.012 C 
HETATM    4  C5  UNL     1     -34.053  17.581  -0.909  1.00 20.00     0.004 C 
HETATM    5  C6  UNL     1     -34.139  18.539  -3.335  1.00 20.00     0.005 C 
HETATM    6  C7  UNL     1     -33.543  15.993  -3.297  1.00 20.00     0.047 C 
HETATM    7  C8  UNL     1     -33.704  18.721  -1.878  1.00 20.00    -0.015 C 
ENDROOT
BRANCH   6   8
HETATM    8  C1  UNL     1     -33.248  14.842  -4.269  1.00 20.00     0.235 C 
HETATM    9  O11 UNL     1     -33.874  13.787  -4.278  1.00 20.00    -0.306 OA
ENDBRANCH   6   8
BRANCH   7  10
HETATM   10  C10 UNL     1     -32.235  19.017  -1.806  1.00 20.00     0.000 C 
HETATM   11  C9  UNL     1     -31.582  18.263  -0.698  1.00 20.00     0.005 C 
ENDBRANCH   7  10
TORSDOF 2
ENDMDL
MODEL 4
REMARK VINA RESULT:      -4.4      1.190      1.386
REMARK  2 active torsions:
REMARK  status: ('A' for Active; 'I' for Inactive)
REMARK    1  A    between atoms: C1_1  and  C7_7 
REMARK    2  A    between atoms: C8_8  and  C10_10 
ROOT
HETATM    1  C2  UNL     1     -34.563  17.042  -5.730  1.00 20.00     0.001 C 
HETATM    2  C3  UNL     1     -35.788  16.130  -5.589  1.00 20.00     0.011 C 
HETATM    3  C4  UNL     1     -34.969  14.681  -3.619  1.00 20.00     0.012 C 
HETATM    4  C5  UNL     1     -34.046  17.649  -4.428  1.00 20.00     0.004 C 
HETATM    5  C6  UNL     1     -33.530  15.179  -3.762  1.00 20.00     0.005 C 
HETATM    6  C7  UNL     1     -36.079  15.576  -4.188  1.00 20.00     0.047 C 
HETATM    7  C8  UNL     1     -33.279  16.670  -3.525  1.00 20.00    -0.015 C 
ENDROOT
BRANCH   6   8
HETATM    8  C1  UNL     1     -37.402  14.797  -4.202  1.00 20.00     0.235 C 
HETATM    9  O11 UNL     1     -37.483  13.606  -4.483  1.00 20.00    -0.306 OA
ENDBRANCH   6   8
BRANCH   7  10
HETATM   10  C10 UNL     1     -33.514  17.017  -2.085  1.00 20.00     0.000 C 
HETATM   11  C9  UNL     1     -32.459  17.933  -1.565  1.00 20.00     0.005 C 
ENDBRANCH   7  10
TORSDOF 2
ENDMDL
MODEL 5
REMARK VINA RESULT:      -4.2      1.124      2.160
REMARK  2 active torsions:
REMARK  status: ('A' for Active; 'I' for Inactive)
REMARK    1  A    between atoms: C1_1  and  C7_7 
REMARK    2  A    between atoms: C8_8  and  C10_10 
ROOT
HETATM    1  C2  UNL     1     -32.871  15.426  -3.747  1.00 20.00     0.001 C 
HETATM    2  C3  UNL     1     -33.948  14.447  -4.231  1.00 20.00     0.011 C 
HETATM    3  C4  UNL     1     -35.935  15.345  -2.853  1.00 20.00     0.012 C 
HETATM    4  C5  UNL     1     -33.274  16.898  -3.757  1.00 20.00     0.004 C 
HETATM    5  C6  UNL     1     -35.023  16.184  -1.957  1.00 20.00     0.005 C 
HETATM    6  C7  UNL     1     -35.395  14.959  -4.238  1.00 20.00     0.047 C 
HETATM    7  C8  UNL     1     -34.228  17.309  -2.625  1.00 20.00    -0.015 C 
ENDROOT
BRANCH   6   8
HETATM    8  C1  UNL     1     -36.316  13.906  -4.868  1.00 20.00     0.235 C 
HETATM    9  O11 UNL     1     -37.455  13.681  -4.473  1.00 20.00    -0.306 OA
ENDBRANCH   6   8
BRANCH   7  10
HETATM   10  C10 UNL     1     -35.153  18.386  -3.108  1.00 20.00     0.000 C 
HETATM   11  C9  UNL     1     -35.002  18.619  -4.573  1.00 20.00     0.005 C 
ENDBRANCH   7  10
TORSDOF 2
ENDMDL
MODEL 6
REMARK VINA RESULT:      -4.1      3.169      4.834
REMARK  2 active torsions:
REMARK  status: ('A' for Active; 'I' for Inactive)
REMARK    1  A    between atoms: C1_1  and  C7_7 
REMARK    2  A    between atoms: C8_8  and  C10_10 
ROOT
HETATM    1  C2  UNL     1     -33.390  18.984  -3.845  1.00 20.00     0.001 C 
HETATM    2  C3  UNL     1     -32.553  19.263  -2.590  1.00 20.00     0.011 C 
HETATM    3  C4  UNL     1     -33.820  17.746  -0.934  1.00 20.00     0.012 C 
HETATM    4  C5  UNL     1     -33.665  17.511  -4.132  1.00 20.00     0.004 C 
HETATM    5  C6  UNL     1     -35.000  17.570  -1.890  1.00 20.00     0.005 C 
HETATM    6  C7  UNL     1     -32.470  18.137  -1.550  1.00 20.00     0.047 C 
HETATM    7  C8  UNL     1     -34.723  16.867  -3.222  1.00 20.00    -0.015 C 
ENDROOT
BRANCH   6   8
HETATM    8  C1  UNL     1     -31.496  18.532  -0.432  1.00 20.00     0.235 C 
HETATM    9  O11 UNL     1     -30.314  18.205  -0.417  1.00 20.00    -0.306 OA
ENDBRANCH   6   8
BRANCH   7  10
HETATM   10  C10 UNL     1     -34.382  15.425  -2.989  1.00 20.00     0.000 C 
HETATM   11  C9  UNL     1     -33.483  14.898  -4.056  1.00 20.00     0.005 C 
ENDBRANCH   7  10
TORSDOF 2
ENDMDL
MODEL 7
REMARK VINA RESULT:      -4.1      2.424      4.188
REMARK  2 active torsions:
REMARK  status: ('A' for Active; 'I' for Inactive)
REMARK    1  A    between atoms: C1_1  and  C7_7 
REMARK    2  A    between atoms: C8_8  and  C10_10 
ROOT
HETATM    1  C2  UNL     1     -32.896  17.068  -2.989  1.00 20.00     0.001 C 
HETATM    2  C3  UNL     1     -33.710  17.508  -1.765  1.00 20.00     0.011 C 
HETATM    3  C4  UNL     1     -36.040  16.730  -2.549  1.00 20.00     0.012 C 
HETATM    4  C5  UNL     1     -33.162  15.646  -3.475  1.00 20.00     0.004 C 
HETATM    5  C6  UNL     1     -35.564  16.528  -3.988  1.00 20.00     0.005 C 
HETATM    6  C7  UNL     1     -34.972  16.695  -1.447  1.00 20.00     0.047 C 
HETATM    7  C8  UNL     1     -34.489  15.465  -4.228  1.00 20.00    -0.015 C 
ENDROOT
BRANCH   6   8
HETATM    8  C1  UNL     1     -35.587  17.184  -0.128  1.00 20.00     0.235 C 
HETATM    9  O11 UNL     1     -34.945  17.321   0.908  1.00 20.00    -0.306 OA
ENDBRANCH   6   8
BRANCH   7  10
HETATM   10  C10 UNL     1     -35.041  14.096  -3.960  1.00 20.00     0.000 C 
HETATM   11  C9  UNL     1     -36.222  13.806  -4.823  1.00 20.00     0.005 C 
ENDBRANCH   7  10
TORSDOF 2
ENDMDL
MODEL 8
REMARK VINA RESULT:      -4.0      2.042      2.945
REMARK  2 active torsions:
REMARK  status: ('A' for Active; 'I' for Inactive)
REMARK    1  A    between atoms: C1_1  and  C7_7 
REMARK    2  A    between atoms: C8_8  and  C10_10 
ROOT
HETATM    1  C2  UNL     1     -34.056  14.900  -6.287  1.00 20.00     0.001 C 
HETATM    2  C3  UNL     1     -35.374  15.433  -6.860  1.00 20.00     0.011 C 
HETATM    3  C4  UNL     1     -36.925  14.836  -4.888  1.00 20.00     0.012 C 
HETATM    4  C5  UNL     1     -33.751  15.319  -4.851  1.00 20.00     0.004 C 
HETATM    5  C6  UNL     1     -35.875  13.928  -4.247  1.00 20.00     0.005 C 
HETATM    6  C7  UNL     1     -36.421  15.922  -5.849  1.00 20.00     0.047 C 
HETATM    7  C8  UNL     1     -34.573  14.585  -3.781  1.00 20.00    -0.015 C 
ENDROOT
BRANCH   6   8
HETATM    8  C1  UNL     1     -37.614  16.537  -6.593  1.00 20.00     0.235 C 
HETATM    9  O11 UNL     1     -38.755  16.093  -6.526  1.00 20.00    -0.306 OA
ENDBRANCH   6   8
BRANCH   7  10
HETATM   10  C10 UNL     1     -34.837  15.504  -2.625  1.00 20.00     0.000 C 
HETATM   11  C9  UNL     1     -33.753  16.516  -2.474  1.00 20.00     0.005 C 
ENDBRANCH   7  10
TORSDOF 2
ENDMDL
MODEL 9
REMARK VINA RESULT:      -4.0      1.739      2.502
REMARK  2 active torsions:
REMARK  status: ('A' for Active; 'I' for Inactive)
REMARK    1  A    between atoms: C1_1  and  C7_7 
REMARK    2  A    between atoms: C8_8  and  C10_10 
ROOT
HETATM    1  C2  UNL     1     -33.264  14.739  -4.331  1.00 20.00     0.001 C 
HETATM    2  C3  UNL     1     -34.431  14.948  -5.305  1.00 20.00     0.011 C 
HETATM    3  C4  UNL     1     -36.065  16.138  -3.704  1.00 20.00     0.012 C 
HETATM    4  C5  UNL     1     -32.864  15.968  -3.518  1.00 20.00     0.004 C 
HETATM    5  C6  UNL     1     -35.245  15.754  -2.472  1.00 20.00     0.005 C 
HETATM    6  C7  UNL     1     -35.333  16.164  -5.053  1.00 20.00     0.047 C 
HETATM    7  C8  UNL     1     -33.826  16.319  -2.372  1.00 20.00    -0.015 C 
ENDROOT
BRANCH   6   8
HETATM    8  C1  UNL     1     -36.359  16.294  -6.187  1.00 20.00     0.235 C 
HETATM    9  O11 UNL     1     -36.836  15.333  -6.781  1.00 20.00    -0.306 OA
ENDBRANCH   6   8
BRANCH   7  10
HETATM   10  C10 UNL     1     -33.868  17.806  -2.183  1.00 20.00     0.000 C 
HETATM   11  C9  UNL     1     -32.768  18.482  -2.929  1.00 20.00     0.005 C 
ENDBRANCH   7  10
TORSDOF 2
ENDMDL
