MODEL 1
REMARK VINA RESULT:      -5.1      0.000      0.000
REMARK  2 active torsions:
REMARK  status: ('A' for Active; 'I' for Inactive)
REMARK    1  A    between atoms: C5_5  and  C7_7 
REMARK    2  A    between atoms: C6_6  and  C8_8 
ROOT
HETATM    1  C1  UNL     1     -33.212   4.578   2.294  1.00 20.00     0.001 C 
HETATM    2  C2  UNL     1     -33.073   5.950   1.637  1.00 20.00     0.005 C 
HETATM    3  C3  UNL     1     -34.100   4.635   3.534  1.00 20.00     0.013 C 
HETATM    4  C4  UNL     1     -33.465   7.057   3.876  1.00 20.00     0.019 C 
HETATM    5  C5  UNL     1     -32.567   7.003   2.631  1.00 20.00    -0.000 C 
HETATM    6  C6  UNL     1     -33.600   5.680   4.540  1.00 20.00     0.094 C 
ENDROOT
BRANCH   6   7
HETATM    7  C8  UNL     1     -34.531   5.752   5.748  1.00 20.00     0.391 C 
HETATM    8  F9  UNL     1     -35.804   5.596   5.356  1.00 20.00    -0.171 F 
HETATM    9  F10 UNL     1     -34.223   4.783   6.624  1.00 20.00    -0.171 F 
HETATM   10  F11 UNL     1     -34.405   6.942   6.355  1.00 20.00    -0.171 F 
ENDBRANCH   6   7
BRANCH   5  11
HETATM   11  C7  UNL     1     -32.484   8.376   1.966  1.00 20.00     0.119 C 
HETATM   12 CL12 UNL     1     -32.919   8.251   0.253  1.00 20.00    -0.130 Cl
ENDBRANCH   5  11
TORSDOF 2
ENDMDL
MODEL 2
REMARK VINA RESULT:      -5.1      3.295      4.307
REMARK  2 active torsions:
REMARK  status: ('A' for Active; 'I' for Inactive)
REMARK    1  A    between atoms: C5_5  and  C7_7 
REMARK    2  A    between atoms: C6_6  and  C8_8 
ROOT
HETATM    1  C1  UNL     1     -33.756   3.952   2.565  1.00 20.00     0.001 C 
HETATM    2  C2  UNL     1     -34.097   4.057   4.050  1.00 20.00     0.005 C 
HETATM    3  C3  UNL     1     -32.834   5.083   2.117  1.00 20.00     0.013 C 
HETATM    4  C4  UNL     1     -33.762   6.561   3.945  1.00 20.00     0.019 C 
HETATM    5  C5  UNL     1     -34.694   5.426   4.396  1.00 20.00    -0.000 C 
HETATM    6  C6  UNL     1     -33.424   6.459   2.452  1.00 20.00     0.094 C 
ENDROOT
BRANCH   6   7
HETATM    7  C8  UNL     1     -32.463   7.572   2.040  1.00 20.00     0.391 C 
HETATM    8  F9  UNL     1     -31.630   7.857   3.051  1.00 20.00    -0.171 F 
HETATM    9  F10 UNL     1     -31.741   7.185   0.977  1.00 20.00    -0.171 F 
HETATM   10  F11 UNL     1     -33.151   8.677   1.717  1.00 20.00    -0.171 F 
ENDBRANCH   6   7
BRANCH   5  11
HETATM   11  C7  UNL     1     -34.981   5.526   5.894  1.00 20.00     0.119 C 
HETATM   12 CL12 UNL     1     -34.161   6.940   6.578  1.00 20.00    -0.130 Cl
ENDBRANCH   5  11
TORSDOF 2
ENDMDL
MODEL 3
REMARK VINA RESULT:      -5.0     11.589     12.689
REMARK  2 active torsions:
REMARK  status: ('A' for Active; 'I' for Inactive)
REMARK    1  A    between atoms: C5_5  and  C7_7 
REMARK    2  A    between atoms: C6_6  and  C8_8 
ROOT
HETATM    1  C1  UNL     1     -35.343  16.789  -1.552  1.00 20.00     0.001 C 
HETATM    2  C2  UNL     1     -34.166  17.666  -1.132  1.00 20.00     0.005 C 
HETATM    3  C3  UNL     1     -34.884  15.580  -2.364  1.00 20.00     0.013 C 
HETATM    4  C4  UNL     1     -32.864  16.879  -3.152  1.00 20.00     0.019 C 
HETATM    5  C5  UNL     1     -33.325  18.099  -2.340  1.00 20.00    -0.000 C 
HETATM    6  C6  UNL     1     -34.047  16.000  -3.579  1.00 20.00     0.094 C 
ENDROOT
BRANCH   6   7
HETATM    7  C8  UNL     1     -33.559  14.773  -4.346  1.00 20.00     0.391 C 
HETATM    8  F9  UNL     1     -32.237  14.622  -4.175  1.00 20.00    -0.171 F 
HETATM    9  F10 UNL     1     -34.184  13.674  -3.901  1.00 20.00    -0.171 F 
HETATM   10  F11 UNL     1     -33.814  14.918  -5.655  1.00 20.00    -0.171 F 
ENDBRANCH   6   7
BRANCH   5  11
HETATM   11  C7  UNL     1     -32.126  18.933  -1.891  1.00 20.00     0.119 C 
HETATM   12 CL12 UNL     1     -31.337  18.167  -0.501  1.00 20.00    -0.130 Cl
ENDBRANCH   5  11
TORSDOF 2
ENDMDL
MODEL 4
REMARK VINA RESULT:      -5.0     11.591     12.686
REMARK  2 active torsions:
REMARK  status: ('A' for Active; 'I' for Inactive)
REMARK    1  A    between atoms: C5_5  and  C7_7 
REMARK    2  A    between atoms: C6_6  and  C8_8 
ROOT
HETATM    1  C1  UNL     1     -35.345  16.787  -1.562  1.00 20.00     0.001 C 
HETATM    2  C2  UNL     1     -34.170  17.665  -1.140  1.00 20.00     0.005 C 
HETATM    3  C3  UNL     1     -34.883  15.578  -2.371  1.00 20.00     0.013 C 
HETATM    4  C4  UNL     1     -32.862  16.877  -3.156  1.00 20.00     0.019 C 
HETATM    5  C5  UNL     1     -33.326  18.097  -2.347  1.00 20.00    -0.000 C 
HETATM    6  C6  UNL     1     -34.044  15.997  -3.585  1.00 20.00     0.094 C 
ENDROOT
BRANCH   6   7
HETATM    7  C8  UNL     1     -33.553  14.770  -4.350  1.00 20.00     0.391 C 
HETATM    8  F9  UNL     1     -34.179  13.670  -3.903  1.00 20.00    -0.171 F 
HETATM    9  F10 UNL     1     -33.807  14.913  -5.660  1.00 20.00    -0.171 F 
HETATM   10  F11 UNL     1     -32.232  14.619  -4.178  1.00 20.00    -0.171 F 
ENDBRANCH   6   7
BRANCH   5  11
HETATM   11  C7  UNL     1     -32.129  18.932  -1.896  1.00 20.00     0.119 C 
HETATM   12 CL12 UNL     1     -31.347  18.172  -0.499  1.00 20.00    -0.130 Cl
ENDBRANCH   5  11
TORSDOF 2
ENDMDL
MODEL 5
REMARK VINA RESULT:      -4.8     11.440     12.196
REMARK  2 active torsions:
REMARK  status: ('A' for Active; 'I' for Inactive)
REMARK    1  A    between atoms: C5_5  and  C7_7 
REMARK    2  A    between atoms: C6_6  and  C8_8 
ROOT
HETATM    1  C1  UNL     1     -32.854  15.901  -3.432  1.00 20.00     0.001 C 
HETATM    2  C2  UNL     1     -33.550  16.980  -2.605  1.00 20.00     0.005 C 
HETATM    3  C3  UNL     1     -33.830  15.188  -4.364  1.00 20.00     0.013 C 
HETATM    4  C4  UNL     1     -35.723  15.697  -2.769  1.00 20.00     0.019 C 
HETATM    5  C5  UNL     1     -34.744  16.412  -1.826  1.00 20.00    -0.000 C 
HETATM    6  C6  UNL     1     -35.025  14.609  -3.596  1.00 20.00     0.094 C 
ENDROOT
BRANCH   6   7
HETATM    7  C8  UNL     1     -36.011  13.944  -4.554  1.00 20.00     0.391 C 
HETATM    8  F9  UNL     1     -35.695  14.250  -5.822  1.00 20.00    -0.171 F 
HETATM    9  F10 UNL     1     -35.969  12.612  -4.405  1.00 20.00    -0.171 F 
HETATM   10  F11 UNL     1     -37.257  14.371  -4.301  1.00 20.00    -0.171 F 
ENDBRANCH   6   7
BRANCH   5  11
HETATM   11  C7  UNL     1     -35.454  17.518  -1.047  1.00 20.00     0.119 C 
HETATM   12 CL12 UNL     1     -35.470  17.130   0.682  1.00 20.00    -0.130 Cl
ENDBRANCH   5  11
TORSDOF 2
ENDMDL
MODEL 6
REMARK VINA RESULT:      -4.7     11.598     12.264
REMARK  2 active torsions:
REMARK  status: ('A' for Active; 'I' for Inactive)
REMARK    1  A    between atoms: C5_5  and  C7_7 
REMARK    2  A    between atoms: C6_6  and  C8_8 
ROOT
HETATM    1  C1  UNL     1     -32.755  15.474  -3.725  1.00 20.00     0.001 C 
HETATM    2  C2  UNL     1     -33.162  16.679  -2.881  1.00 20.00     0.005 C 
HETATM    3  C3  UNL     1     -33.929  14.932  -4.537  1.00 20.00     0.013 C 
HETATM    4  C4  UNL     1     -35.536  15.814  -2.797  1.00 20.00     0.019 C 
HETATM    5  C5  UNL     1     -34.357  16.357  -1.975  1.00 20.00    -0.000 C 
HETATM    6  C6  UNL     1     -35.129  14.598  -3.641  1.00 20.00     0.094 C 
ENDROOT
BRANCH   6   7
HETATM    7  C8  UNL     1     -36.306  14.105  -4.479  1.00 20.00     0.391 C 
HETATM    8  F9  UNL     1     -37.463  14.446  -3.892  1.00 20.00    -0.171 F 
HETATM    9  F10 UNL     1     -36.261  14.655  -5.703  1.00 20.00    -0.171 F 
HETATM   10  F11 UNL     1     -36.256  12.770  -4.601  1.00 20.00    -0.171 F 
ENDBRANCH   6   7
BRANCH   5  11
HETATM   11  C7  UNL     1     -34.778  17.590  -1.178  1.00 20.00     0.119 C 
HETATM   12 CL12 UNL     1     -33.371  18.300  -0.366  1.00 20.00    -0.130 Cl
ENDBRANCH   5  11
TORSDOF 2
ENDMDL
MODEL 7
REMARK VINA RESULT:      -4.7      1.395      2.188
REMARK  2 active torsions:
REMARK  status: ('A' for Active; 'I' for Inactive)
REMARK    1  A    between atoms: C5_5  and  C7_7 
REMARK    2  A    between atoms: C6_6  and  C8_8 
ROOT
HETATM    1  C1  UNL     1     -32.515   7.918   5.117  1.00 20.00     0.001 C 
HETATM    2  C2  UNL     1     -31.848   7.835   3.746  1.00 20.00     0.005 C 
HETATM    3  C3  UNL     1     -33.282   6.641   5.449  1.00 20.00     0.013 C 
HETATM    4  C4  UNL     1     -33.628   6.210   2.983  1.00 20.00     0.019 C 
HETATM    5  C5  UNL     1     -32.861   7.497   2.645  1.00 20.00    -0.000 C 
HETATM    6  C6  UNL     1     -34.304   6.296   4.358  1.00 20.00     0.094 C 
ENDROOT
BRANCH   6   7
HETATM    7  C8  UNL     1     -35.024   4.990   4.688  1.00 20.00     0.391 C 
HETATM    8  F9  UNL     1     -36.246   4.987   4.135  1.00 20.00    -0.171 F 
HETATM    9  F10 UNL     1     -34.327   3.948   4.209  1.00 20.00    -0.171 F 
HETATM   10  F11 UNL     1     -35.147   4.857   6.017  1.00 20.00    -0.171 F 
ENDBRANCH   6   7
BRANCH   5  11
HETATM   11  C7  UNL     1     -32.163   7.370   1.291  1.00 20.00     0.119 C 
HETATM   12 CL12 UNL     1     -32.894   8.482   0.122  1.00 20.00    -0.130 Cl
ENDBRANCH   5  11
TORSDOF 2
ENDMDL
MODEL 8
REMARK VINA RESULT:      -4.7     11.693     12.603
REMARK  2 active torsions:
REMARK  status: ('A' for Active; 'I' for Inactive)
REMARK    1  A    between atoms: C5_5  and  C7_7 
REMARK    2  A    between atoms: C6_6  and  C8_8 
ROOT
HETATM    1  C1  UNL     1     -32.696  17.709  -1.907  1.00 20.00     0.001 C 
HETATM    2  C2  UNL     1     -33.999  18.218  -1.295  1.00 20.00     0.005 C 
HETATM    3  C3  UNL     1     -32.953  16.832  -3.130  1.00 20.00     0.013 C 
HETATM    4  C4  UNL     1     -35.209  16.187  -2.191  1.00 20.00     0.019 C 
HETATM    5  C5  UNL     1     -34.953  17.065  -0.958  1.00 20.00    -0.000 C 
HETATM    6  C6  UNL     1     -33.900  15.670  -2.803  1.00 20.00     0.094 C 
ENDROOT
BRANCH   6   7
HETATM    7  C8  UNL     1     -34.180  14.837  -4.052  1.00 20.00     0.391 C 
HETATM    8  F9  UNL     1     -34.962  13.792  -3.740  1.00 20.00    -0.171 F 
HETATM    9  F10 UNL     1     -34.803  15.586  -4.974  1.00 20.00    -0.171 F 
HETATM   10  F11 UNL     1     -33.029  14.380  -4.568  1.00 20.00    -0.171 F 
ENDBRANCH   6   7
BRANCH   5  11
HETATM   11  C7  UNL     1     -36.268  17.600  -0.393  1.00 20.00     0.119 C 
HETATM   12 CL12 UNL     1     -36.157  17.756   1.368  1.00 20.00    -0.130 Cl
ENDBRANCH   5  11
TORSDOF 2
ENDMDL
MODEL 9
REMARK VINA RESULT:      -4.6     11.707     12.623
REMARK  2 active torsions:
REMARK  status: ('A' for Active; 'I' for Inactive)
REMARK    1  A    between atoms: C5_5  and  C7_7 
REMARK    2  A    between atoms: C6_6  and  C8_8 
ROOT
HETATM    1  C1  UNL     1     -32.691  17.793  -1.721  1.00 20.00     0.001 C 
HETATM    2  C2  UNL     1     -33.989  18.312  -1.108  1.00 20.00     0.005 C 
HETATM    3  C3  UNL     1     -32.953  16.947  -2.964  1.00 20.00     0.013 C 
HETATM    4  C4  UNL     1     -35.228  16.323  -2.056  1.00 20.00     0.019 C 
HETATM    5  C5  UNL     1     -34.966  17.170  -0.802  1.00 20.00    -0.000 C 
HETATM    6  C6  UNL     1     -33.924  15.795  -2.669  1.00 20.00     0.094 C 
ENDROOT
BRANCH   6   7
HETATM    7  C8  UNL     1     -34.209  14.994  -3.937  1.00 20.00     0.391 C 
HETATM    8  F9  UNL     1     -33.059  14.695  -4.560  1.00 20.00    -0.171 F 
HETATM    9  F10 UNL     1     -34.844  13.854  -3.627  1.00 20.00    -0.171 F 
HETATM   10  F11 UNL     1     -34.981  15.709  -4.769  1.00 20.00    -0.171 F 
ENDBRANCH   6   7
BRANCH   5  11
HETATM   11  C7  UNL     1     -36.275  17.716  -0.236  1.00 20.00     0.119 C 
HETATM   12 CL12 UNL     1     -36.221  17.715   1.535  1.00 20.00    -0.130 Cl
ENDBRANCH   5  11
TORSDOF 2
ENDMDL
