MODEL 1
REMARK VINA RESULT:      -5.1      0.000      0.000
REMARK  2 active torsions:
REMARK  status: ('A' for Active; 'I' for Inactive)
REMARK    1  A    between atoms: C1_1  and  C7_7 
REMARK    2  A    between atoms: C8_8  and  C10_10 
ROOT
HETATM    1  C2  UNL     1     -34.286  16.861  -5.091  1.00 20.00     0.001 C 
HETATM    2  C3  UNL     1     -34.083  15.349  -5.021  1.00 20.00     0.011 C 
HETATM    3  C4  UNL     1     -35.434  15.545  -2.797  1.00 20.00     0.012 C 
HETATM    4  C5  UNL     1     -33.569  17.670  -4.002  1.00 20.00     0.004 C 
HETATM    5  C6  UNL     1     -34.447  16.361  -1.963  1.00 20.00     0.005 C 
HETATM    6  C7  UNL     1     -34.801  14.639  -3.856  1.00 20.00     0.047 C 
HETATM    7  C8  UNL     1     -33.228  16.930  -2.701  1.00 20.00    -0.015 C 
ENDROOT
BRANCH   6   8
HETATM    8  C1  UNL     1     -35.883  13.768  -4.427  1.00 20.00     0.235 C 
HETATM    9  O11 UNL     1     -35.818  12.544  -4.460  1.00 20.00    -0.306 OA
ENDBRANCH   6   8
BRANCH   7  10
HETATM   10  C10 UNL     1     -32.453  17.864  -1.763  1.00 20.00     0.000 C 
HETATM   11  C9  UNL     1     -33.255  18.216  -0.557  1.00 20.00     0.005 C 
ENDBRANCH   7  10
TORSDOF 2
ENDMDL
MODEL 2
REMARK VINA RESULT:      -5.1      1.276      1.573
REMARK  2 active torsions:
REMARK  status: ('A' for Active; 'I' for Inactive)
REMARK    1  A    between atoms: C1_1  and  C7_7 
REMARK    2  A    between atoms: C8_8  and  C10_10 
ROOT
HETATM    1  C2  UNL     1     -33.498  15.314  -4.186  1.00 20.00     0.001 C 
HETATM    2  C3  UNL     1     -34.526  14.283  -3.723  1.00 20.00     0.011 C 
HETATM    3  C4  UNL     1     -36.152  16.324  -3.684  1.00 20.00     0.012 C 
HETATM    4  C5  UNL     1     -33.126  16.380  -3.148  1.00 20.00     0.004 C 
HETATM    5  C6  UNL     1     -35.517  17.140  -2.559  1.00 20.00     0.005 C 
HETATM    6  C7  UNL     1     -35.967  14.808  -3.573  1.00 20.00     0.047 C 
HETATM    7  C8  UNL     1     -34.155  16.660  -2.043  1.00 20.00    -0.015 C 
ENDROOT
BRANCH   6   8
HETATM    8  C1  UNL     1     -36.820  14.159  -4.626  1.00 20.00     0.235 C 
HETATM    9  O11 UNL     1     -37.970  13.782  -4.426  1.00 20.00    -0.306 OA
ENDBRANCH   6   8
BRANCH   7  10
HETATM   10  C10 UNL     1     -33.589  17.690  -1.058  1.00 20.00     0.000 C 
HETATM   11  C9  UNL     1     -32.217  18.125  -1.450  1.00 20.00     0.005 C 
ENDBRANCH   7  10
TORSDOF 2
ENDMDL
MODEL 3
REMARK VINA RESULT:      -5.0     16.140     17.152
REMARK  2 active torsions:
REMARK  status: ('A' for Active; 'I' for Inactive)
REMARK    1  A    between atoms: C1_1  and  C7_7 
REMARK    2  A    between atoms: C8_8  and  C10_10 
ROOT
HETATM    1  C2  UNL     1     -24.354  19.150   8.721  1.00 20.00     0.001 C 
HETATM    2  C3  UNL     1     -22.863  19.089   9.048  1.00 20.00     0.011 C 
HETATM    3  C4  UNL     1     -23.363  16.586   9.590  1.00 20.00     0.012 C 
HETATM    4  C5  UNL     1     -25.296  18.953   9.915  1.00 20.00     0.004 C 
HETATM    5  C6  UNL     1     -24.276  16.759  10.803  1.00 20.00     0.005 C 
HETATM    6  C7  UNL     1     -22.320  17.690   9.396  1.00 20.00     0.047 C 
HETATM    7  C8  UNL     1     -24.735  18.188  11.122  1.00 20.00    -0.015 C 
ENDROOT
BRANCH   6   8
HETATM    8  C1  UNL     1     -21.387  17.257   8.301  1.00 20.00     0.235 C 
HETATM    9  O11 UNL     1     -21.770  16.862   7.205  1.00 20.00    -0.306 OA
ENDBRANCH   6   8
BRANCH   7  10
HETATM   10  C10 UNL     1     -25.780  18.152  12.244  1.00 20.00     0.000 C 
HETATM   11  C9  UNL     1     -27.091  18.693  11.786  1.00 20.00     0.005 C 
ENDBRANCH   7  10
TORSDOF 2
ENDMDL
MODEL 4
REMARK VINA RESULT:      -4.7     11.020     12.051
REMARK  2 active torsions:
REMARK  status: ('A' for Active; 'I' for Inactive)
REMARK    1  A    between atoms: C1_1  and  C7_7 
REMARK    2  A    between atoms: C8_8  and  C10_10 
ROOT
HETATM    1  C2  UNL     1     -32.554   7.285   4.714  1.00 20.00     0.001 C 
HETATM    2  C3  UNL     1     -34.060   7.045   4.791  1.00 20.00     0.011 C 
HETATM    3  C4  UNL     1     -33.536   5.002   3.254  1.00 20.00     0.012 C 
HETATM    4  C5  UNL     1     -32.022   7.675   3.330  1.00 20.00     0.004 C 
HETATM    5  C6  UNL     1     -33.071   5.735   1.997  1.00 20.00     0.005 C 
HETATM    6  C7  UNL     1     -34.559   5.757   4.107  1.00 20.00     0.047 C 
HETATM    7  C8  UNL     1     -32.865   7.250   2.119  1.00 20.00    -0.015 C 
ENDROOT
BRANCH   6   8
HETATM    8  C1  UNL     1     -35.057   4.819   5.170  1.00 20.00     0.235 C 
HETATM    9  O11 UNL     1     -34.718   4.889   6.346  1.00 20.00    -0.306 OA
ENDBRANCH   6   8
BRANCH   7  10
HETATM   10  C10 UNL     1     -32.227   7.785   0.831  1.00 20.00     0.000 C 
HETATM   11  C9  UNL     1     -32.964   8.972   0.309  1.00 20.00     0.005 C 
ENDBRANCH   7  10
TORSDOF 2
ENDMDL
MODEL 5
REMARK VINA RESULT:      -4.6      1.072      1.270
REMARK  2 active torsions:
REMARK  status: ('A' for Active; 'I' for Inactive)
REMARK    1  A    between atoms: C1_1  and  C7_7 
REMARK    2  A    between atoms: C8_8  and  C10_10 
ROOT
HETATM    1  C2  UNL     1     -33.434  17.291  -4.153  1.00 20.00     0.001 C 
HETATM    2  C3  UNL     1     -33.392  15.779  -3.940  1.00 20.00     0.011 C 
HETATM    3  C4  UNL     1     -35.374  16.229  -2.303  1.00 20.00     0.012 C 
HETATM    4  C5  UNL     1     -33.048  18.136  -2.933  1.00 20.00     0.004 C 
HETATM    5  C6  UNL     1     -34.649  17.044  -1.234  1.00 20.00     0.005 C 
HETATM    6  C7  UNL     1     -34.507  15.206  -3.043  1.00 20.00     0.047 C 
HETATM    7  C8  UNL     1     -33.213  17.480  -1.555  1.00 20.00    -0.015 C 
ENDROOT
BRANCH   6   8
HETATM    8  C1  UNL     1     -35.412  14.361  -3.894  1.00 20.00     0.235 C 
HETATM    9  O11 UNL     1     -35.179  13.190  -4.172  1.00 20.00    -0.306 OA
ENDBRANCH   6   8
BRANCH   7  10
HETATM   10  C10 UNL     1     -32.712  18.434  -0.464  1.00 20.00     0.000 C 
HETATM   11  C9  UNL     1     -31.227  18.389  -0.339  1.00 20.00     0.005 C 
ENDBRANCH   7  10
TORSDOF 2
ENDMDL
MODEL 6
REMARK VINA RESULT:      -4.6      2.739      4.831
REMARK  2 active torsions:
REMARK  status: ('A' for Active; 'I' for Inactive)
REMARK    1  A    between atoms: C1_1  and  C7_7 
REMARK    2  A    between atoms: C8_8  and  C10_10 
ROOT
HETATM    1  C2  UNL     1     -35.697  17.295  -2.235  1.00 20.00     0.001 C 
HETATM    2  C3  UNL     1     -34.598  17.295  -1.174  1.00 20.00     0.011 C 
HETATM    3  C4  UNL     1     -32.992  17.223  -3.229  1.00 20.00     0.012 C 
HETATM    4  C5  UNL     1     -35.810  16.008  -3.061  1.00 20.00     0.004 C 
HETATM    5  C6  UNL     1     -33.342  15.843  -3.785  1.00 20.00     0.005 C 
HETATM    6  C7  UNL     1     -33.158  17.377  -1.715  1.00 20.00     0.047 C 
HETATM    7  C8  UNL     1     -34.551  15.135  -3.160  1.00 20.00    -0.015 C 
ENDROOT
BRANCH   6   8
HETATM    8  C1  UNL     1     -32.578  18.705  -1.319  1.00 20.00     0.235 C 
HETATM    9  O11 UNL     1     -31.387  18.980  -1.423  1.00 20.00    -0.306 OA
ENDBRANCH   6   8
BRANCH   7  10
HETATM   10  C10 UNL     1     -34.865  13.861  -3.955  1.00 20.00     0.000 C 
HETATM   11  C9  UNL     1     -36.268  13.864  -4.459  1.00 20.00     0.005 C 
ENDBRANCH   7  10
TORSDOF 2
ENDMDL
MODEL 7
REMARK VINA RESULT:      -4.3      1.252      2.057
REMARK  2 active torsions:
REMARK  status: ('A' for Active; 'I' for Inactive)
REMARK    1  A    between atoms: C1_1  and  C7_7 
REMARK    2  A    between atoms: C8_8  and  C10_10 
ROOT
HETATM    1  C2  UNL     1     -35.479  16.498  -1.397  1.00 20.00     0.001 C 
HETATM    2  C3  UNL     1     -36.111  16.421  -2.786  1.00 20.00     0.011 C 
HETATM    3  C4  UNL     1     -33.898  15.195  -3.425  1.00 20.00     0.012 C 
HETATM    4  C5  UNL     1     -34.231  17.383  -1.293  1.00 20.00     0.004 C 
HETATM    5  C6  UNL     1     -32.903  16.339  -3.240  1.00 20.00     0.005 C 
HETATM    6  C7  UNL     1     -35.312  15.620  -3.832  1.00 20.00     0.047 C 
HETATM    7  C8  UNL     1     -33.440  17.620  -2.587  1.00 20.00    -0.015 C 
ENDROOT
BRANCH   6   8
HETATM    8  C1  UNL     1     -36.088  14.379  -4.172  1.00 20.00     0.235 C 
HETATM    9  O11 UNL     1     -35.561  13.321  -4.500  1.00 20.00    -0.306 OA
ENDBRANCH   6   8
BRANCH   7  10
HETATM   10  C10 UNL     1     -32.276  18.581  -2.314  1.00 20.00     0.000 C 
HETATM   11  C9  UNL     1     -31.704  18.372  -0.953  1.00 20.00     0.005 C 
ENDBRANCH   7  10
TORSDOF 2
ENDMDL
MODEL 8
REMARK VINA RESULT:      -4.2     10.844     13.762
REMARK  2 active torsions:
REMARK  status: ('A' for Active; 'I' for Inactive)
REMARK    1  A    between atoms: C1_1  and  C7_7 
REMARK    2  A    between atoms: C8_8  and  C10_10 
ROOT
HETATM    1  C2  UNL     1     -42.373   5.805   1.068  1.00 20.00     0.001 C 
HETATM    2  C3  UNL     1     -41.204   6.590   0.475  1.00 20.00     0.011 C 
HETATM    3  C4  UNL     1     -43.020   7.546  -1.137  1.00 20.00     0.012 C 
HETATM    4  C5  UNL     1     -42.992   4.751   0.142  1.00 20.00     0.004 C 
HETATM    5  C6  UNL     1     -43.386   6.273  -1.900  1.00 20.00     0.005 C 
HETATM    6  C7  UNL     1     -41.579   7.605  -0.622  1.00 20.00     0.047 C 
HETATM    7  C8  UNL     1     -42.803   4.958  -1.368  1.00 20.00    -0.015 C 
ENDROOT
BRANCH   6   8
HETATM    8  C1  UNL     1     -41.334   8.989  -0.092  1.00 20.00     0.235 C 
HETATM    9  O11 UNL     1     -42.233   9.785   0.159  1.00 20.00    -0.306 OA
ENDBRANCH   6   8
BRANCH   7  10
HETATM   10  C10 UNL     1     -43.416   3.779  -2.133  1.00 20.00     0.000 C 
HETATM   11  C9  UNL     1     -42.396   3.077  -2.963  1.00 20.00     0.005 C 
ENDBRANCH   7  10
TORSDOF 2
ENDMDL
MODEL 9
REMARK VINA RESULT:      -4.1      2.670      4.858
REMARK  2 active torsions:
REMARK  status: ('A' for Active; 'I' for Inactive)
REMARK    1  A    between atoms: C1_1  and  C7_7 
REMARK    2  A    between atoms: C8_8  and  C10_10 
ROOT
HETATM    1  C2  UNL     1     -34.492  16.380  -2.046  1.00 20.00     0.001 C 
HETATM    2  C3  UNL     1     -33.085  16.845  -2.413  1.00 20.00     0.011 C 
HETATM    3  C4  UNL     1     -34.309  18.168  -4.300  1.00 20.00     0.012 C 
HETATM    4  C5  UNL     1     -35.177  15.482  -3.084  1.00 20.00     0.004 C 
HETATM    5  C6  UNL     1     -34.834  17.002  -5.137  1.00 20.00     0.005 C 
HETATM    6  C7  UNL     1     -33.008  17.892  -3.541  1.00 20.00     0.047 C 
HETATM    7  C8  UNL     1     -34.686  15.599  -4.534  1.00 20.00    -0.015 C 
ENDROOT
BRANCH   6   8
HETATM    8  C1  UNL     1     -32.532  19.190  -2.953  1.00 20.00     0.235 C 
HETATM    9  O11 UNL     1     -31.704  19.259  -2.051  1.00 20.00    -0.306 OA
ENDBRANCH   6   8
BRANCH   7  10
HETATM   10  C10 UNL     1     -35.423  14.583  -5.414  1.00 20.00     0.000 C 
HETATM   11  C9  UNL     1     -36.256  13.656  -4.597  1.00 20.00     0.005 C 
ENDBRANCH   7  10
TORSDOF 2
ENDMDL
