MODEL 1
REMARK VINA RESULT:      -4.2      0.000      0.000
REMARK  2 active torsions:
REMARK  status: ('A' for Active; 'I' for Inactive)
REMARK    1  A    between atoms: C5_5  and  C6_6 
REMARK    2  A    between atoms: C6_6  and  S8_8 
ROOT
HETATM    1  C1  UNL     1     -34.399   6.522   5.934  1.00 20.00     0.027 C 
HETATM    2  C2  UNL     1     -33.267   6.884   4.979  1.00 20.00     0.009 C 
HETATM    3  C3  UNL     1     -34.798   5.062   5.769  1.00 20.00     0.167 C 
HETATM    4  C4  UNL     1     -34.057   5.001   3.519  1.00 20.00     0.172 C 
HETATM    5  C5  UNL     1     -33.616   6.467   3.545  1.00 20.00     0.019 C 
HETATM    6  O7  UNL     1     -35.150   4.786   4.414  1.00 20.00    -0.391 OA
ENDROOT
BRANCH   5   7
HETATM    7  C6  UNL     1     -32.443   6.707   2.601  1.00 20.00     0.077 C 
BRANCH   7   8
HETATM    8  S8  UNL     1     -32.830   8.048   1.447  1.00 20.00    -0.182 SA
HETATM    9  H20 UNL     1     -34.161   7.901   1.490  1.00 20.00     0.101 HD
ENDBRANCH   7   8
ENDBRANCH   5   7
TORSDOF 2
ENDMDL
MODEL 2
REMARK VINA RESULT:      -3.6     11.790     12.222
REMARK  2 active torsions:
REMARK  status: ('A' for Active; 'I' for Inactive)
REMARK    1  A    between atoms: C5_5  and  C6_6 
REMARK    2  A    between atoms: C6_6  and  S8_8 
ROOT
HETATM    1  C1  UNL     1     -34.212  16.223  -2.258  1.00 20.00     0.027 C 
HETATM    2  C2  UNL     1     -35.395  15.553  -2.949  1.00 20.00     0.009 C 
HETATM    3  C3  UNL     1     -33.085  16.481  -3.249  1.00 20.00     0.167 C 
HETATM    4  C4  UNL     1     -33.762  14.694  -4.651  1.00 20.00     0.172 C 
HETATM    5  C5  UNL     1     -34.934  14.323  -3.738  1.00 20.00     0.019 C 
HETATM    6  O7  UNL     1     -32.695  15.270  -3.895  1.00 20.00    -0.391 OA
ENDROOT
BRANCH   5   7
HETATM    7  C6  UNL     1     -36.083  13.716  -4.535  1.00 20.00     0.077 C 
BRANCH   7   8
HETATM    8  S8  UNL     1     -37.572  14.733  -4.365  1.00 20.00    -0.182 SA
HETATM    9  H20 UNL     1     -36.958  15.807  -3.850  1.00 20.00     0.101 HD
ENDBRANCH   7   8
ENDBRANCH   5   7
TORSDOF 2
ENDMDL
MODEL 3
REMARK VINA RESULT:      -3.5     16.607     17.115
REMARK  2 active torsions:
REMARK  status: ('A' for Active; 'I' for Inactive)
REMARK    1  A    between atoms: C5_5  and  C6_6 
REMARK    2  A    between atoms: C6_6  and  S8_8 
ROOT
HETATM    1  C1  UNL     1     -24.920  19.249   9.220  1.00 20.00     0.027 C 
HETATM    2  C2  UNL     1     -24.790  18.210  10.329  1.00 20.00     0.009 C 
HETATM    3  C3  UNL     1     -23.867  19.023   8.145  1.00 20.00     0.167 C 
HETATM    4  C4  UNL     1     -22.381  17.975   9.666  1.00 20.00     0.172 C 
HETATM    5  C5  UNL     1     -23.347  18.143  10.842  1.00 20.00     0.019 C 
HETATM    6  O7  UNL     1     -22.557  19.025   8.713  1.00 20.00    -0.391 OA
ENDROOT
BRANCH   5   7
HETATM    7  C6  UNL     1     -23.176  17.023  11.861  1.00 20.00     0.077 C 
BRANCH   7   8
HETATM    8  S8  UNL     1     -24.588  15.891  11.796  1.00 20.00    -0.182 SA
HETATM    9  H20 UNL     1     -25.536  16.833  11.892  1.00 20.00     0.101 HD
ENDBRANCH   7   8
ENDBRANCH   5   7
TORSDOF 2
ENDMDL
MODEL 4
REMARK VINA RESULT:      -3.4      1.287      1.892
REMARK  2 active torsions:
REMARK  status: ('A' for Active; 'I' for Inactive)
REMARK    1  A    between atoms: C5_5  and  C6_6 
REMARK    2  A    between atoms: C6_6  and  S8_8 
ROOT
HETATM    1  C1  UNL     1     -34.832   4.937   5.553  1.00 20.00     0.027 C 
HETATM    2  C2  UNL     1     -34.675   5.021   4.039  1.00 20.00     0.009 C 
HETATM    3  C3  UNL     1     -34.627   6.303   6.192  1.00 20.00     0.167 C 
HETATM    4  C4  UNL     1     -33.240   7.046   4.419  1.00 20.00     0.172 C 
HETATM    5  C5  UNL     1     -33.359   5.715   3.670  1.00 20.00     0.019 C 
HETATM    6  O7  UNL     1     -33.357   6.844   5.829  1.00 20.00    -0.391 OA
ENDROOT
BRANCH   5   7
HETATM    7  C6  UNL     1     -33.246   5.919   2.164  1.00 20.00     0.077 C 
BRANCH   7   8
HETATM    8  S8  UNL     1     -32.517   7.536   1.800  1.00 20.00    -0.182 SA
HETATM    9  H20 UNL     1     -33.556   8.265   2.228  1.00 20.00     0.101 HD
ENDBRANCH   7   8
ENDBRANCH   5   7
TORSDOF 2
ENDMDL
MODEL 5
REMARK VINA RESULT:      -3.4     11.972     12.325
REMARK  2 active torsions:
REMARK  status: ('A' for Active; 'I' for Inactive)
REMARK    1  A    between atoms: C5_5  and  C6_6 
REMARK    2  A    between atoms: C6_6  and  S8_8 
ROOT
HETATM    1  C1  UNL     1     -35.073  16.648  -1.333  1.00 20.00     0.027 C 
HETATM    2  C2  UNL     1     -35.429  15.870  -2.596  1.00 20.00     0.009 C 
HETATM    3  C3  UNL     1     -33.980  17.668  -1.619  1.00 20.00     0.167 C 
HETATM    4  C4  UNL     1     -33.123  16.405  -3.433  1.00 20.00     0.172 C 
HETATM    5  C5  UNL     1     -34.168  15.299  -3.252  1.00 20.00     0.019 C 
HETATM    6  O7  UNL     1     -32.833  17.033  -2.183  1.00 20.00    -0.391 OA
ENDROOT
BRANCH   5   7
HETATM    7  C6  UNL     1     -34.494  14.627  -4.581  1.00 20.00     0.077 C 
BRANCH   7   8
HETATM    8  S8  UNL     1     -36.158  13.914  -4.534  1.00 20.00    -0.182 SA
HETATM    9  H20 UNL     1     -36.665  14.782  -3.648  1.00 20.00     0.101 HD
ENDBRANCH   7   8
ENDBRANCH   5   7
TORSDOF 2
ENDMDL
MODEL 6
REMARK VINA RESULT:      -3.3     11.919     12.308
REMARK  2 active torsions:
REMARK  status: ('A' for Active; 'I' for Inactive)
REMARK    1  A    between atoms: C5_5  and  C6_6 
REMARK    2  A    between atoms: C6_6  and  S8_8 
ROOT
HETATM    1  C1  UNL     1     -33.480  14.643  -4.320  1.00 20.00     0.027 C 
HETATM    2  C2  UNL     1     -33.256  15.870  -3.442  1.00 20.00     0.009 C 
HETATM    3  C3  UNL     1     -34.901  14.625  -4.867  1.00 20.00     0.167 C 
HETATM    4  C4  UNL     1     -35.735  15.892  -3.046  1.00 20.00     0.172 C 
HETATM    5  C5  UNL     1     -34.357  15.984  -2.382  1.00 20.00     0.019 C 
HETATM    6  O7  UNL     1     -35.851  14.686  -3.803  1.00 20.00    -0.391 OA
ENDROOT
BRANCH   5   7
HETATM    7  C6  UNL     1     -34.218  17.271  -1.579  1.00 20.00     0.077 C 
BRANCH   7   8
HETATM    8  S8  UNL     1     -35.401  17.289  -0.208  1.00 20.00    -0.182 SA
HETATM    9  H20 UNL     1     -35.271  15.995   0.115  1.00 20.00     0.101 HD
ENDBRANCH   7   8
ENDBRANCH   5   7
TORSDOF 2
ENDMDL
MODEL 7
REMARK VINA RESULT:      -3.3     12.025     12.447
REMARK  2 active torsions:
REMARK  status: ('A' for Active; 'I' for Inactive)
REMARK    1  A    between atoms: C5_5  and  C6_6 
REMARK    2  A    between atoms: C6_6  and  S8_8 
ROOT
HETATM    1  C1  UNL     1     -33.371  14.729  -4.392  1.00 20.00     0.027 C 
HETATM    2  C2  UNL     1     -33.197  15.883  -3.411  1.00 20.00     0.009 C 
HETATM    3  C3  UNL     1     -34.750  14.772  -5.035  1.00 20.00     0.167 C 
HETATM    4  C4  UNL     1     -35.697  15.913  -3.186  1.00 20.00     0.172 C 
HETATM    5  C5  UNL     1     -34.368  15.935  -2.424  1.00 20.00     0.019 C 
HETATM    6  O7  UNL     1     -35.771  14.768  -4.038  1.00 20.00    -0.391 OA
ENDROOT
BRANCH   5   7
HETATM    7  C6  UNL     1     -34.272  17.157  -1.518  1.00 20.00     0.077 C 
BRANCH   7   8
HETATM    8  S8  UNL     1     -32.665  17.967  -1.722  1.00 20.00    -0.182 SA
HETATM    9  H20 UNL     1     -33.115  19.222  -1.589  1.00 20.00     0.101 HD
ENDBRANCH   7   8
ENDBRANCH   5   7
TORSDOF 2
ENDMDL
MODEL 8
REMARK VINA RESULT:      -3.3     11.875     12.874
REMARK  2 active torsions:
REMARK  status: ('A' for Active; 'I' for Inactive)
REMARK    1  A    between atoms: C5_5  and  C6_6 
REMARK    2  A    between atoms: C6_6  and  S8_8 
ROOT
HETATM    1  C1  UNL     1     -34.287  15.110  -6.495  1.00 20.00     0.027 C 
HETATM    2  C2  UNL     1     -34.176  15.768  -5.124  1.00 20.00     0.009 C 
HETATM    3  C3  UNL     1     -35.696  14.584  -6.728  1.00 20.00     0.167 C 
HETATM    4  C4  UNL     1     -36.099  14.322  -4.408  1.00 20.00     0.172 C 
HETATM    5  C5  UNL     1     -34.705  14.831  -4.032  1.00 20.00     0.019 C 
HETATM    6  O7  UNL     1     -36.077  13.686  -5.687  1.00 20.00    -0.391 OA
ENDROOT
BRANCH   5   7
HETATM    7  C6  UNL     1     -34.718  15.520  -2.672  1.00 20.00     0.077 C 
BRANCH   7   8
HETATM    8  S8  UNL     1     -33.424  16.786  -2.597  1.00 20.00    -0.182 SA
HETATM    9  H20 UNL     1     -33.623  17.274  -3.829  1.00 20.00     0.101 HD
ENDBRANCH   7   8
ENDBRANCH   5   7
TORSDOF 2
ENDMDL
MODEL 9
REMARK VINA RESULT:      -3.2     12.040     12.364
REMARK  2 active torsions:
REMARK  status: ('A' for Active; 'I' for Inactive)
REMARK    1  A    between atoms: C5_5  and  C6_6 
REMARK    2  A    between atoms: C6_6  and  S8_8 
ROOT
HETATM    1  C1  UNL     1     -36.455  14.990  -3.808  1.00 20.00     0.027 C 
HETATM    2  C2  UNL     1     -35.411  15.711  -2.961  1.00 20.00     0.009 C 
HETATM    3  C3  UNL     1     -35.873  13.722  -4.415  1.00 20.00     0.167 C 
HETATM    4  C4  UNL     1     -33.664  14.579  -4.365  1.00 20.00     0.172 C 
HETATM    5  C5  UNL     1     -34.115  15.910  -3.755  1.00 20.00     0.019 C 
HETATM    6  O7  UNL     1     -34.699  14.017  -5.172  1.00 20.00    -0.391 OA
ENDROOT
BRANCH   5   7
HETATM    7  C6  UNL     1     -33.022  16.516  -2.882  1.00 20.00     0.077 C 
BRANCH   7   8
HETATM    8  S8  UNL     1     -32.975  18.314  -3.089  1.00 20.00    -0.182 SA
HETATM    9  H20 UNL     1     -33.739  18.604  -2.028  1.00 20.00     0.101 HD
ENDBRANCH   7   8
ENDBRANCH   5   7
TORSDOF 2
ENDMDL
