MODEL 1
REMARK VINA RESULT:      -5.0      0.000      0.000
REMARK  2 active torsions:
REMARK  status: ('A' for Active; 'I' for Inactive)
REMARK    1  A    between atoms: C1_1  and  C7_7 
REMARK    2  A    between atoms: C8_8  and  C11_11 
ROOT
HETATM    1  C2  UNL     1     -33.011  15.125  -4.202  1.00 20.00     0.001 C 
HETATM    2  C3  UNL     1     -34.246  15.308  -5.083  1.00 20.00     0.011 C 
HETATM    3  C4  UNL     1     -35.555  14.894  -2.863  1.00 20.00     0.012 C 
HETATM    4  C5  UNL     1     -32.795  16.212  -3.142  1.00 20.00     0.005 C 
HETATM    5  C6  UNL     1     -35.145  16.144  -2.086  1.00 20.00     0.005 C 
HETATM    6  C7  UNL     1     -35.597  15.056  -4.385  1.00 20.00     0.047 C 
HETATM    7  C8  UNL     1     -34.033  17.004  -2.699  1.00 20.00    -0.011 C 
ENDROOT
BRANCH   7   8
HETATM    8  C11 UNL     1     -33.621  18.095  -1.702  1.00 20.00    -0.019 C 
HETATM    9  C9  UNL     1     -34.320  17.881  -0.364  1.00 20.00     0.010 C 
HETATM   10  C10 UNL     1     -32.107  18.108  -1.528  1.00 20.00     0.010 C 
ENDBRANCH   7   8
BRANCH   6  11
HETATM   11  C1  UNL     1     -36.204  13.811  -4.965  1.00 20.00     0.235 C 
HETATM   12  O12 UNL     1     -35.887  12.678  -4.616  1.00 20.00    -0.306 OA
ENDBRANCH   6  11
TORSDOF 2
ENDMDL
MODEL 2
REMARK VINA RESULT:      -4.9      1.098      2.080
REMARK  2 active torsions:
REMARK  status: ('A' for Active; 'I' for Inactive)
REMARK    1  A    between atoms: C1_1  and  C7_7 
REMARK    2  A    between atoms: C8_8  and  C11_11 
ROOT
HETATM    1  C2  UNL     1     -35.870  17.263  -3.936  1.00 20.00     0.001 C 
HETATM    2  C3  UNL     1     -36.299  15.914  -3.361  1.00 20.00     0.011 C 
HETATM    3  C4  UNL     1     -33.959  15.120  -4.198  1.00 20.00     0.012 C 
HETATM    4  C5  UNL     1     -34.693  17.937  -3.220  1.00 20.00     0.005 C 
HETATM    5  C6  UNL     1     -33.062  15.941  -3.273  1.00 20.00     0.005 C 
HETATM    6  C7  UNL     1     -35.326  14.747  -3.619  1.00 20.00     0.047 C 
HETATM    7  C8  UNL     1     -33.748  17.021  -2.428  1.00 20.00    -0.011 C 
ENDROOT
BRANCH   7   8
HETATM    8  C11 UNL     1     -32.684  17.867  -1.716  1.00 20.00    -0.019 C 
HETATM    9  C9  UNL     1     -32.347  19.102  -2.544  1.00 20.00     0.010 C 
HETATM   10  C10 UNL     1     -33.163  18.260  -0.323  1.00 20.00     0.010 C 
ENDBRANCH   7   8
BRANCH   6  11
HETATM   11  C1  UNL     1     -35.982  13.786  -4.569  1.00 20.00     0.235 C 
HETATM   12  O12 UNL     1     -35.839  12.569  -4.505  1.00 20.00    -0.306 OA
ENDBRANCH   6  11
TORSDOF 2
ENDMDL
MODEL 3
REMARK VINA RESULT:      -4.9      1.221      2.191
REMARK  2 active torsions:
REMARK  status: ('A' for Active; 'I' for Inactive)
REMARK    1  A    between atoms: C1_1  and  C7_7 
REMARK    2  A    between atoms: C8_8  and  C11_11 
ROOT
HETATM    1  C2  UNL     1     -35.301  15.094  -2.932  1.00 20.00     0.001 C 
HETATM    2  C3  UNL     1     -34.487  14.432  -4.043  1.00 20.00     0.011 C 
HETATM    3  C4  UNL     1     -34.519  16.812  -5.112  1.00 20.00     0.012 C 
HETATM    4  C5  UNL     1     -34.552  16.153  -2.113  1.00 20.00     0.005 C 
HETATM    5  C6  UNL     1     -33.680  17.568  -4.083  1.00 20.00     0.005 C 
HETATM    6  C7  UNL     1     -34.186  15.325  -5.262  1.00 20.00     0.047 C 
HETATM    7  C8  UNL     1     -33.345  16.823  -2.785  1.00 20.00    -0.011 C 
ENDROOT
BRANCH   7   8
HETATM    8  C11 UNL     1     -32.673  17.788  -1.800  1.00 20.00    -0.019 C 
HETATM    9  C9  UNL     1     -32.348  19.108  -2.490  1.00 20.00     0.010 C 
HETATM   10  C10 UNL     1     -33.569  18.015  -0.587  1.00 20.00     0.010 C 
ENDBRANCH   7   8
BRANCH   6  11
HETATM   11  C1  UNL     1     -34.955  14.796  -6.439  1.00 20.00     0.235 C 
HETATM   12  O12 UNL     1     -35.884  14.002  -6.337  1.00 20.00    -0.306 OA
ENDBRANCH   6  11
TORSDOF 2
ENDMDL
MODEL 4
REMARK VINA RESULT:      -4.8      1.513      2.659
REMARK  2 active torsions:
REMARK  status: ('A' for Active; 'I' for Inactive)
REMARK    1  A    between atoms: C1_1  and  C7_7 
REMARK    2  A    between atoms: C8_8  and  C11_11 
ROOT
HETATM    1  C2  UNL     1     -35.357  16.548  -1.993  1.00 20.00     0.001 C 
HETATM    2  C3  UNL     1     -34.501  15.497  -2.699  1.00 20.00     0.011 C 
HETATM    3  C4  UNL     1     -33.468  17.554  -3.927  1.00 20.00     0.012 C 
HETATM    4  C5  UNL     1     -34.591  17.503  -1.069  1.00 20.00     0.005 C 
HETATM    5  C6  UNL     1     -32.778  18.238  -2.747  1.00 20.00     0.005 C 
HETATM    6  C7  UNL     1     -33.588  16.032  -3.819  1.00 20.00     0.047 C 
HETATM    7  C8  UNL     1     -33.093  17.688  -1.351  1.00 20.00    -0.011 C 
ENDROOT
BRANCH   7   8
HETATM    8  C11 UNL     1     -32.476  18.607  -0.288  1.00 20.00    -0.019 C 
HETATM    9  C9  UNL     1     -33.185  18.422   1.049  1.00 20.00     0.010 C 
HETATM   10  C10 UNL     1     -30.982  18.333  -0.154  1.00 20.00     0.010 C 
ENDBRANCH   7   8
BRANCH   6  11
HETATM   11  C1  UNL     1     -34.100  15.516  -5.134  1.00 20.00     0.235 C 
HETATM   12  O12 UNL     1     -33.804  14.416  -5.589  1.00 20.00    -0.306 OA
ENDBRANCH   6  11
TORSDOF 2
ENDMDL
MODEL 5
REMARK VINA RESULT:      -4.5      2.874      4.922
REMARK  2 active torsions:
REMARK  status: ('A' for Active; 'I' for Inactive)
REMARK    1  A    between atoms: C1_1  and  C7_7 
REMARK    2  A    between atoms: C8_8  and  C11_11 
ROOT
HETATM    1  C2  UNL     1     -32.887  18.264  -2.947  1.00 20.00     0.001 C 
HETATM    2  C3  UNL     1     -32.457  18.062  -1.494  1.00 20.00     0.011 C 
HETATM    3  C4  UNL     1     -34.988  17.568  -1.097  1.00 20.00     0.012 C 
HETATM    4  C5  UNL     1     -33.395  17.004  -3.660  1.00 20.00     0.005 C 
HETATM    5  C6  UNL     1     -35.127  16.274  -1.897  1.00 20.00     0.005 C 
HETATM    6  C7  UNL     1     -33.603  17.818  -0.494  1.00 20.00     0.047 C 
HETATM    7  C8  UNL     1     -33.933  15.873  -2.773  1.00 20.00    -0.011 C 
ENDROOT
BRANCH   7   8
HETATM    8  C11 UNL     1     -34.319  14.671  -3.643  1.00 20.00    -0.019 C 
HETATM    9  C9  UNL     1     -35.826  14.642  -3.871  1.00 20.00     0.010 C 
HETATM   10  C10 UNL     1     -33.569  14.715  -4.970  1.00 20.00     0.010 C 
ENDBRANCH   7   8
BRANCH   6  11
HETATM   11  C1  UNL     1     -33.703  19.012   0.412  1.00 20.00     0.235 C 
HETATM   12  O12 UNL     1     -32.964  19.194   1.374  1.00 20.00    -0.306 OA
ENDBRANCH   6  11
TORSDOF 2
ENDMDL
MODEL 6
REMARK VINA RESULT:      -4.5      2.679      4.824
REMARK  2 active torsions:
REMARK  status: ('A' for Active; 'I' for Inactive)
REMARK    1  A    between atoms: C1_1  and  C7_7 
REMARK    2  A    between atoms: C8_8  and  C11_11 
ROOT
HETATM    1  C2  UNL     1     -34.405  18.142  -4.340  1.00 20.00     0.001 C 
HETATM    2  C3  UNL     1     -33.020  17.878  -3.749  1.00 20.00     0.011 C 
HETATM    3  C4  UNL     1     -34.351  16.605  -1.900  1.00 20.00     0.012 C 
HETATM    4  C5  UNL     1     -35.146  16.900  -4.851  1.00 20.00     0.005 C 
HETATM    5  C6  UNL     1     -34.909  15.452  -2.732  1.00 20.00     0.005 C 
HETATM    6  C7  UNL     1     -33.011  17.168  -2.381  1.00 20.00     0.047 C 
HETATM    7  C8  UNL     1     -34.730  15.549  -4.252  1.00 20.00    -0.011 C 
ENDROOT
BRANCH   7   8
HETATM    8  C11 UNL     1     -35.513  14.418  -4.933  1.00 20.00    -0.019 C 
HETATM    9  C9  UNL     1     -36.899  14.285  -4.313  1.00 20.00     0.010 C 
HETATM   10  C10 UNL     1     -35.610  14.670  -6.433  1.00 20.00     0.010 C 
ENDBRANCH   7   8
BRANCH   6  11
HETATM   11  C1  UNL     1     -32.522  18.141  -1.346  1.00 20.00     0.235 C 
HETATM   12  O12 UNL     1     -31.486  18.788  -1.463  1.00 20.00    -0.306 OA
ENDBRANCH   6  11
TORSDOF 2
ENDMDL
MODEL 7
REMARK VINA RESULT:      -4.3      3.149      5.383
REMARK  2 active torsions:
REMARK  status: ('A' for Active; 'I' for Inactive)
REMARK    1  A    between atoms: C1_1  and  C7_7 
REMARK    2  A    between atoms: C8_8  and  C11_11 
ROOT
HETATM    1  C2  UNL     1     -32.279  19.050  -2.240  1.00 20.00     0.001 C 
HETATM    2  C3  UNL     1     -31.761  18.478  -0.921  1.00 20.00     0.011 C 
HETATM    3  C4  UNL     1     -34.286  18.036  -0.433  1.00 20.00     0.012 C 
HETATM    4  C5  UNL     1     -32.926  18.031  -3.186  1.00 20.00     0.005 C 
HETATM    5  C6  UNL     1     -34.575  16.985  -1.504  1.00 20.00     0.005 C 
HETATM    6  C7  UNL     1     -32.847  18.058   0.089  1.00 20.00     0.047 C 
HETATM    7  C8  UNL     1     -33.480  16.748  -2.551  1.00 20.00    -0.011 C 
ENDROOT
BRANCH   7   8
HETATM    8  C11 UNL     1     -34.012  15.815  -3.646  1.00 20.00    -0.019 C 
HETATM    9  C9  UNL     1     -32.907  14.885  -4.134  1.00 20.00     0.010 C 
HETATM   10  C10 UNL     1     -35.205  15.018  -3.130  1.00 20.00     0.010 C 
ENDBRANCH   7   8
BRANCH   6  11
HETATM   11  C1  UNL     1     -32.795  18.999   1.259  1.00 20.00     0.235 C 
HETATM   12  O12 UNL     1     -31.790  19.176   1.939  1.00 20.00    -0.306 OA
ENDBRANCH   6  11
TORSDOF 2
ENDMDL
MODEL 8
REMARK VINA RESULT:      -4.3      3.789      6.286
REMARK  2 active torsions:
REMARK  status: ('A' for Active; 'I' for Inactive)
REMARK    1  A    between atoms: C1_1  and  C7_7 
REMARK    2  A    between atoms: C8_8  and  C11_11 
ROOT
HETATM    1  C2  UNL     1     -31.245  19.101  -0.073  1.00 20.00     0.001 C 
HETATM    2  C3  UNL     1     -31.207  18.191   1.154  1.00 20.00     0.011 C 
HETATM    3  C4  UNL     1     -33.720  18.854   1.386  1.00 20.00     0.012 C 
HETATM    4  C5  UNL     1     -32.127  18.608  -1.227  1.00 20.00     0.005 C 
HETATM    5  C6  UNL     1     -34.279  18.190   0.128  1.00 20.00     0.005 C 
HETATM    6  C7  UNL     1     -32.496  18.166   1.998  1.00 20.00     0.047 C 
HETATM    7  C8  UNL     1     -33.257  17.632  -0.869  1.00 20.00    -0.011 C 
ENDROOT
BRANCH   7   8
HETATM    8  C11 UNL     1     -33.979  17.185  -2.146  1.00 20.00    -0.019 C 
HETATM    9  C9  UNL     1     -33.007  16.487  -3.090  1.00 20.00     0.010 C 
HETATM   10  C10 UNL     1     -35.151  16.273  -1.801  1.00 20.00     0.010 C 
ENDBRANCH   7   8
BRANCH   6  11
HETATM   11  C1  UNL     1     -32.210  18.824   3.318  1.00 20.00     0.235 C 
HETATM   12  O12 UNL     1     -32.018  18.199   4.356  1.00 20.00    -0.306 OA
ENDBRANCH   6  11
TORSDOF 2
ENDMDL
MODEL 9
REMARK VINA RESULT:      -4.2      1.486      2.713
REMARK  2 active torsions:
REMARK  status: ('A' for Active; 'I' for Inactive)
REMARK    1  A    between atoms: C1_1  and  C7_7 
REMARK    2  A    between atoms: C8_8  and  C11_11 
ROOT
HETATM    1  C2  UNL     1     -36.044  16.131  -3.392  1.00 20.00     0.001 C 
HETATM    2  C3  UNL     1     -35.218  14.851  -3.269  1.00 20.00     0.011 C 
HETATM    3  C4  UNL     1     -33.182  16.464  -3.520  1.00 20.00     0.012 C 
HETATM    4  C5  UNL     1     -35.891  17.124  -2.234  1.00 20.00     0.005 C 
HETATM    5  C6  UNL     1     -33.317  17.254  -2.220  1.00 20.00     0.005 C 
HETATM    6  C7  UNL     1     -33.699  15.024  -3.467  1.00 20.00     0.047 C 
HETATM    7  C8  UNL     1     -34.599  17.033  -1.408  1.00 20.00    -0.011 C 
ENDROOT
BRANCH   7   8
HETATM    8  C11 UNL     1     -34.653  18.039  -0.251  1.00 20.00    -0.019 C 
HETATM    9  C9  UNL     1     -35.469  19.263  -0.649  1.00 20.00     0.010 C 
HETATM   10  C10 UNL     1     -35.232  17.381   0.996  1.00 20.00     0.010 C 
ENDBRANCH   7   8
BRANCH   6  11
HETATM   11  C1  UNL     1     -33.308  14.346  -4.749  1.00 20.00     0.235 C 
HETATM   12  O12 UNL     1     -33.711  14.701  -5.851  1.00 20.00    -0.306 OA
ENDBRANCH   6  11
TORSDOF 2
ENDMDL
