MODEL 1
REMARK VINA RESULT:      -4.4      0.000      0.000
REMARK  1 active torsions:
REMARK  status: ('A' for Active; 'I' for Inactive)
REMARK    1  A    between atoms: C6_6  and  C10_10 
ROOT
HETATM    1  C1  UNL     1     -32.935  15.249  -3.950  1.00 20.00     0.001 C 
HETATM    2  C2  UNL     1     -33.028  16.572  -3.194  1.00 20.00     0.005 C 
HETATM    3  C3  UNL     1     -35.480  16.881  -2.605  1.00 20.00     0.006 C 
HETATM    4  C4  UNL     1     -34.149  14.325  -3.977  1.00 20.00     0.008 C 
HETATM    5  C5  UNL     1     -36.175  15.644  -3.170  1.00 20.00     0.009 C 
HETATM    6  C6  UNL     1     -34.061  16.646  -2.064  1.00 20.00    -0.001 C 
HETATM    7  C7  UNL     1     -35.517  14.926  -4.370  1.00 20.00    -0.048 C 
HETATM    8  C8  UNL     1     -35.422  15.843  -5.599  1.00 20.00     0.015 C 
HETATM    9  C9  UNL     1     -36.447  13.744  -4.747  1.00 20.00     0.015 C 
ENDROOT
BRANCH   6  10
HETATM   10  C10 UNL     1     -33.691  17.806  -1.127  1.00 20.00     0.119 C 
HETATM   11 CL11 UNL     1     -31.955  18.132  -1.232  1.00 20.00    -0.130 Cl
ENDBRANCH   6  10
TORSDOF 1
ENDMDL
MODEL 2
REMARK VINA RESULT:      -4.3      1.222      1.222
REMARK  1 active torsions:
REMARK  status: ('A' for Active; 'I' for Inactive)
REMARK    1  A    between atoms: C6_6  and  C10_10 
ROOT
HETATM    1  C1  UNL     1     -32.970  15.424  -3.768  1.00 20.00     0.001 C 
HETATM    2  C2  UNL     1     -33.258  16.652  -2.909  1.00 20.00     0.005 C 
HETATM    3  C3  UNL     1     -35.781  16.737  -2.616  1.00 20.00     0.006 C 
HETATM    4  C4  UNL     1     -34.096  14.430  -4.039  1.00 20.00     0.008 C 
HETATM    5  C5  UNL     1     -36.303  15.522  -3.380  1.00 20.00     0.009 C 
HETATM    6  C6  UNL     1     -34.425  16.541  -1.920  1.00 20.00    -0.001 C 
HETATM    7  C7  UNL     1     -35.448  14.977  -4.548  1.00 20.00    -0.048 C 
HETATM    8  C8  UNL     1     -35.276  16.021  -5.662  1.00 20.00     0.015 C 
HETATM    9  C9  UNL     1     -36.229  13.782  -5.152  1.00 20.00     0.015 C 
ENDROOT
BRANCH   6  10
HETATM   10  C10 UNL     1     -34.265  17.619  -0.838  1.00 20.00     0.119 C 
HETATM   11 CL11 UNL     1     -35.284  17.227   0.555  1.00 20.00    -0.130 Cl
ENDBRANCH   6  10
TORSDOF 1
ENDMDL
MODEL 3
REMARK VINA RESULT:      -4.2      2.475      4.570
REMARK  1 active torsions:
REMARK  status: ('A' for Active; 'I' for Inactive)
REMARK    1  A    between atoms: C6_6  and  C10_10 
ROOT
HETATM    1  C1  UNL     1     -35.801  17.036  -1.773  1.00 20.00     0.001 C 
HETATM    2  C2  UNL     1     -35.993  16.156  -3.006  1.00 20.00     0.005 C 
HETATM    3  C3  UNL     1     -33.670  15.722  -3.938  1.00 20.00     0.006 C 
HETATM    4  C4  UNL     1     -34.391  17.248  -1.229  1.00 20.00     0.008 C 
HETATM    5  C5  UNL     1     -32.726  16.461  -2.991  1.00 20.00     0.009 C 
HETATM    6  C6  UNL     1     -34.912  15.104  -3.276  1.00 20.00    -0.001 C 
HETATM    7  C7  UNL     1     -33.282  17.677  -2.215  1.00 20.00    -0.048 C 
HETATM    8  C8  UNL     1     -33.743  18.794  -3.164  1.00 20.00     0.015 C 
HETATM    9  C9  UNL     1     -32.110  18.241  -1.372  1.00 20.00     0.015 C 
ENDROOT
BRANCH   6  10
HETATM   10  C10 UNL     1     -35.486  14.028  -4.210  1.00 20.00     0.119 C 
HETATM   11 CL11 UNL     1     -37.235  14.244  -4.370  1.00 20.00    -0.130 Cl
ENDBRANCH   6  10
TORSDOF 1
ENDMDL
MODEL 4
REMARK VINA RESULT:      -4.2     11.300     13.405
REMARK  1 active torsions:
REMARK  status: ('A' for Active; 'I' for Inactive)
REMARK    1  A    between atoms: C6_6  and  C10_10 
ROOT
HETATM    1  C1  UNL     1     -41.982   5.691   1.076  1.00 20.00     0.001 C 
HETATM    2  C2  UNL     1     -42.878   4.986   0.061  1.00 20.00     0.005 C 
HETATM    3  C3  UNL     1     -43.131   6.586  -1.896  1.00 20.00     0.006 C 
HETATM    4  C4  UNL     1     -41.261   6.971   0.662  1.00 20.00     0.008 C 
HETATM    5  C5  UNL     1     -42.302   7.809  -1.509  1.00 20.00     0.009 C 
HETATM    6  C6  UNL     1     -42.570   5.237  -1.420  1.00 20.00    -0.001 C 
HETATM    7  C7  UNL     1     -42.087   8.094  -0.004  1.00 20.00    -0.048 C 
HETATM    8  C8  UNL     1     -43.417   8.350   0.721  1.00 20.00     0.015 C 
HETATM    9  C9  UNL     1     -41.252   9.396   0.089  1.00 20.00     0.015 C 
ENDROOT
BRANCH   6  10
HETATM   10  C10 UNL     1     -43.204   4.115  -2.257  1.00 20.00     0.119 C 
HETATM   11 CL11 UNL     1     -41.936   3.167  -3.047  1.00 20.00    -0.130 Cl
ENDBRANCH   6  10
TORSDOF 1
ENDMDL
MODEL 5
REMARK VINA RESULT:      -4.1      1.934      2.762
REMARK  1 active torsions:
REMARK  status: ('A' for Active; 'I' for Inactive)
REMARK    1  A    between atoms: C6_6  and  C10_10 
ROOT
HETATM    1  C1  UNL     1     -32.567  18.179  -2.343  1.00 20.00     0.001 C 
HETATM    2  C2  UNL     1     -33.338  18.889  -1.233  1.00 20.00     0.005 C 
HETATM    3  C3  UNL     1     -35.303  17.384  -0.660  1.00 20.00     0.006 C 
HETATM    4  C4  UNL     1     -32.920  16.733  -2.681  1.00 20.00     0.008 C 
HETATM    5  C5  UNL     1     -35.155  16.179  -1.587  1.00 20.00     0.009 C 
HETATM    6  C6  UNL     1     -33.983  17.998  -0.166  1.00 20.00    -0.001 C 
HETATM    7  C7  UNL     1     -34.404  16.380  -2.924  1.00 20.00    -0.048 C 
HETATM    8  C8  UNL     1     -35.111  17.406  -3.823  1.00 20.00     0.015 C 
HETATM    9  C9  UNL     1     -34.438  15.018  -3.663  1.00 20.00     0.015 C 
ENDROOT
BRANCH   6  10
HETATM   10  C10 UNL     1     -34.270  18.844   1.083  1.00 20.00     0.119 C 
HETATM   11 CL11 UNL     1     -33.594  18.051   2.514  1.00 20.00    -0.130 Cl
ENDBRANCH   6  10
TORSDOF 1
ENDMDL
MODEL 6
REMARK VINA RESULT:      -4.1      2.489      4.281
REMARK  1 active torsions:
REMARK  status: ('A' for Active; 'I' for Inactive)
REMARK    1  A    between atoms: C6_6  and  C10_10 
ROOT
HETATM    1  C1  UNL     1     -34.814  18.157  -4.588  1.00 20.00     0.001 C 
HETATM    2  C2  UNL     1     -34.516  16.981  -5.514  1.00 20.00     0.005 C 
HETATM    3  C3  UNL     1     -34.618  14.895  -4.068  1.00 20.00     0.006 C 
HETATM    4  C4  UNL     1     -35.327  17.877  -3.178  1.00 20.00     0.008 C 
HETATM    5  C5  UNL     1     -34.959  15.406  -2.670  1.00 20.00     0.009 C 
HETATM    6  C6  UNL     1     -35.262  15.673  -5.226  1.00 20.00    -0.001 C 
HETATM    7  C7  UNL     1     -34.559  16.856  -2.309  1.00 20.00    -0.048 C 
HETATM    8  C8  UNL     1     -33.038  17.058  -2.375  1.00 20.00     0.015 C 
HETATM    9  C9  UNL     1     -34.993  17.085  -0.839  1.00 20.00     0.015 C 
ENDROOT
BRANCH   6  10
HETATM   10  C10 UNL     1     -35.233  14.796  -6.487  1.00 20.00     0.119 C 
HETATM   11 CL11 UNL     1     -33.780  15.151  -7.433  1.00 20.00    -0.130 Cl
ENDBRANCH   6  10
TORSDOF 1
ENDMDL
MODEL 7
REMARK VINA RESULT:      -4.0      2.715      4.343
REMARK  1 active torsions:
REMARK  status: ('A' for Active; 'I' for Inactive)
REMARK    1  A    between atoms: C6_6  and  C10_10 
ROOT
HETATM    1  C1  UNL     1     -33.595  14.771  -4.207  1.00 20.00     0.001 C 
HETATM    2  C2  UNL     1     -34.683  15.092  -5.230  1.00 20.00     0.005 C 
HETATM    3  C3  UNL     1     -35.371  17.500  -4.801  1.00 20.00     0.006 C 
HETATM    4  C4  UNL     1     -32.996  15.907  -3.383  1.00 20.00     0.008 C 
HETATM    5  C5  UNL     1     -34.491  17.955  -3.638  1.00 20.00     0.009 C 
HETATM    6  C6  UNL     1     -34.706  16.522  -5.782  1.00 20.00    -0.001 C 
HETATM    7  C7  UNL     1     -33.959  16.878  -2.665  1.00 20.00    -0.048 C 
HETATM    8  C8  UNL     1     -35.103  16.144  -1.949  1.00 20.00     0.015 C 
HETATM    9  C9  UNL     1     -33.138  17.622  -1.582  1.00 20.00     0.015 C 
ENDROOT
BRANCH   6  10
HETATM   10  C10 UNL     1     -35.493  16.533  -7.101  1.00 20.00     0.119 C 
HETATM   11 CL11 UNL     1     -35.782  14.873  -7.642  1.00 20.00    -0.130 Cl
ENDBRANCH   6  10
TORSDOF 1
ENDMDL
MODEL 8
REMARK VINA RESULT:      -4.0      1.176      2.404
REMARK  1 active torsions:
REMARK  status: ('A' for Active; 'I' for Inactive)
REMARK    1  A    between atoms: C6_6  and  C10_10 
ROOT
HETATM    1  C1  UNL     1     -36.467  16.552  -3.348  1.00 20.00     0.001 C 
HETATM    2  C2  UNL     1     -35.269  16.578  -2.402  1.00 20.00     0.005 C 
HETATM    3  C3  UNL     1     -33.326  15.568  -3.691  1.00 20.00     0.006 C 
HETATM    4  C4  UNL     1     -36.242  16.213  -4.819  1.00 20.00     0.008 C 
HETATM    5  C5  UNL     1     -33.905  15.224  -5.062  1.00 20.00     0.009 C 
HETATM    6  C6  UNL     1     -33.898  16.836  -3.037  1.00 20.00    -0.001 C 
HETATM    7  C7  UNL     1     -35.423  14.948  -5.161  1.00 20.00    -0.048 C 
HETATM    8  C8  UNL     1     -35.836  13.736  -4.312  1.00 20.00     0.015 C 
HETATM    9  C9  UNL     1     -35.717  14.597  -6.641  1.00 20.00     0.015 C 
ENDROOT
BRANCH   6  10
HETATM   10  C10 UNL     1     -32.925  17.311  -1.947  1.00 20.00     0.119 C 
HETATM   11 CL11 UNL     1     -33.835  17.923  -0.557  1.00 20.00    -0.130 Cl
ENDBRANCH   6  10
TORSDOF 1
ENDMDL
MODEL 9
REMARK VINA RESULT:      -4.0     11.405     12.275
REMARK  1 active torsions:
REMARK  status: ('A' for Active; 'I' for Inactive)
REMARK    1  A    between atoms: C6_6  and  C10_10 
ROOT
HETATM    1  C1  UNL     1     -33.584   4.325   2.561  1.00 20.00     0.001 C 
HETATM    2  C2  UNL     1     -33.276   5.630   1.832  1.00 20.00     0.005 C 
HETATM    3  C3  UNL     1     -33.467   7.474   3.569  1.00 20.00     0.006 C 
HETATM    4  C4  UNL     1     -33.675   4.332   4.085  1.00 20.00     0.008 C 
HETATM    5  C5  UNL     1     -33.830   6.753   4.865  1.00 20.00     0.009 C 
HETATM    6  C6  UNL     1     -32.526   6.702   2.630  1.00 20.00    -0.001 C 
HETATM    7  C7  UNL     1     -34.566   5.398   4.760  1.00 20.00    -0.048 C 
HETATM    8  C8  UNL     1     -35.930   5.544   4.067  1.00 20.00     0.015 C 
HETATM    9  C9  UNL     1     -34.833   4.921   6.210  1.00 20.00     0.015 C 
ENDROOT
BRANCH   6  10
HETATM   10  C10 UNL     1     -31.884   7.695   1.649  1.00 20.00     0.119 C 
HETATM   11 CL11 UNL     1     -33.116   8.797   1.018  1.00 20.00    -0.130 Cl
ENDBRANCH   6  10
TORSDOF 1
ENDMDL
