MODEL 1
REMARK VINA RESULT:      -3.7      0.000      0.000
REMARK  4 active torsions:
REMARK  status: ('A' for Active; 'I' for Inactive)
REMARK    1  A    between atoms: C3_3  and  C6_6 
REMARK    2  A    between atoms: C4_4  and  C6_6 
REMARK    3  A    between atoms: C4_4  and  O7_7 
REMARK    4  A    between atoms: C5_5  and  C6_6 
ROOT
HETATM    1  C6  UNL     1     -33.841   6.502   3.790  1.00 20.00     0.023 C 
ENDROOT
BRANCH   1   2
HETATM    2  C3  UNL     1     -33.832   6.762   5.313  1.00 20.00     0.003 C 
HETATM    3  C1  UNL     1     -34.602   5.725   6.118  1.00 20.00     0.005 C 
ENDBRANCH   1   2
BRANCH   1   4
HETATM    4  C4  UNL     1     -32.520   6.968   3.155  1.00 20.00     0.172 C 
BRANCH   4   5
HETATM    5  O7  UNL     1     -32.754   8.096   2.320  1.00 20.00    -0.396 OA
HETATM    6  C2  UNL     1     -32.432   7.816   0.965  1.00 20.00     0.201 C 
ENDBRANCH   4   5
ENDBRANCH   1   4
BRANCH   1   7
HETATM    7  C5  UNL     1     -34.157   5.048   3.401  1.00 20.00     0.121 C 
HETATM    8 CL8  UNL     1     -33.025   4.370   2.208  1.00 20.00    -0.130 Cl
ENDBRANCH   1   7
TORSDOF 4
ENDMDL
MODEL 2
REMARK VINA RESULT:      -3.5      1.985      2.491
REMARK  4 active torsions:
REMARK  status: ('A' for Active; 'I' for Inactive)
REMARK    1  A    between atoms: C3_3  and  C6_6 
REMARK    2  A    between atoms: C4_4  and  C6_6 
REMARK    3  A    between atoms: C4_4  and  O7_7 
REMARK    4  A    between atoms: C5_5  and  C6_6 
ROOT
HETATM    1  C6  UNL     1     -32.900   6.420   3.461  1.00 20.00     0.023 C 
ENDROOT
BRANCH   1   2
HETATM    2  C3  UNL     1     -33.333   5.198   2.621  1.00 20.00     0.003 C 
HETATM    3  C1  UNL     1     -34.102   4.149   3.412  1.00 20.00     0.005 C 
ENDBRANCH   1   2
BRANCH   1   4
HETATM    4  C4  UNL     1     -32.241   7.483   2.568  1.00 20.00     0.172 C 
BRANCH   4   5
HETATM    5  O7  UNL     1     -32.875   7.509   1.294  1.00 20.00    -0.396 OA
HETATM    6  C2  UNL     1     -32.860   8.813   0.732  1.00 20.00     0.201 C 
ENDBRANCH   4   5
ENDBRANCH   1   4
BRANCH   1   7
HETATM    7  C5  UNL     1     -34.028   7.033   4.308  1.00 20.00     0.121 C 
HETATM    8 CL8  UNL     1     -33.925   6.618   6.036  1.00 20.00    -0.130 Cl
ENDBRANCH   1   7
TORSDOF 4
ENDMDL
MODEL 3
REMARK VINA RESULT:      -3.4     11.416     11.872
REMARK  4 active torsions:
REMARK  status: ('A' for Active; 'I' for Inactive)
REMARK    1  A    between atoms: C3_3  and  C6_6 
REMARK    2  A    between atoms: C4_4  and  C6_6 
REMARK    3  A    between atoms: C4_4  and  O7_7 
REMARK    4  A    between atoms: C5_5  and  C6_6 
ROOT
HETATM    1  C6  UNL     1     -34.904  14.458  -3.812  1.00 20.00     0.023 C 
ENDROOT
BRANCH   1   2
HETATM    2  C3  UNL     1     -35.035  15.532  -2.709  1.00 20.00     0.003 C 
HETATM    3  C1  UNL     1     -33.779  16.371  -2.517  1.00 20.00     0.005 C 
ENDBRANCH   1   2
BRANCH   1   4
HETATM    4  C4  UNL     1     -36.105  14.520  -4.770  1.00 20.00     0.172 C 
BRANCH   4   5
HETATM    5  O7  UNL     1     -37.215  13.836  -4.202  1.00 20.00    -0.396 OA
HETATM    6  C2  UNL     1     -38.388  14.637  -4.227  1.00 20.00     0.201 C 
ENDBRANCH   4   5
ENDBRANCH   1   4
BRANCH   1   7
HETATM    7  C5  UNL     1     -33.576  14.509  -4.586  1.00 20.00     0.121 C 
HETATM    8 CL8  UNL     1     -33.778  14.870  -6.317  1.00 20.00    -0.130 Cl
ENDBRANCH   1   7
TORSDOF 4
ENDMDL
MODEL 4
REMARK VINA RESULT:      -3.3     15.867     16.451
REMARK  4 active torsions:
REMARK  status: ('A' for Active; 'I' for Inactive)
REMARK    1  A    between atoms: C3_3  and  C6_6 
REMARK    2  A    between atoms: C4_4  and  C6_6 
REMARK    3  A    between atoms: C4_4  and  O7_7 
REMARK    4  A    between atoms: C5_5  and  C6_6 
ROOT
HETATM    1  C6  UNL     1     -24.068  18.027   9.710  1.00 20.00     0.023 C 
ENDROOT
BRANCH   1   2
HETATM    2  C3  UNL     1     -24.710  19.263   9.040  1.00 20.00     0.003 C 
HETATM    3  C1  UNL     1     -25.312  18.976   7.672  1.00 20.00     0.005 C 
ENDBRANCH   1   2
BRANCH   1   4
HETATM    4  C4  UNL     1     -22.557  18.237   9.896  1.00 20.00     0.172 C 
BRANCH   4   5
HETATM    5  O7  UNL     1     -21.952  18.545   8.645  1.00 20.00    -0.396 OA
HETATM    6  C2  UNL     1     -21.709  17.372   7.882  1.00 20.00     0.201 C 
ENDBRANCH   4   5
ENDBRANCH   1   4
BRANCH   1   7
HETATM    7  C5  UNL     1     -24.734  17.611  11.032  1.00 20.00     0.121 C 
HETATM    8 CL8  UNL     1     -24.592  15.872  11.383  1.00 20.00    -0.130 Cl
ENDBRANCH   1   7
TORSDOF 4
ENDMDL
MODEL 5
REMARK VINA RESULT:      -3.3     11.403     12.609
REMARK  4 active torsions:
REMARK  status: ('A' for Active; 'I' for Inactive)
REMARK    1  A    between atoms: C3_3  and  C6_6 
REMARK    2  A    between atoms: C4_4  and  C6_6 
REMARK    3  A    between atoms: C4_4  and  O7_7 
REMARK    4  A    between atoms: C5_5  and  C6_6 
ROOT
HETATM    1  C6  UNL     1     -35.630  14.923  -5.089  1.00 20.00     0.023 C 
ENDROOT
BRANCH   1   2
HETATM    2  C3  UNL     1     -35.406  14.756  -6.609  1.00 20.00     0.003 C 
HETATM    3  C1  UNL     1     -34.022  15.183  -7.076  1.00 20.00     0.005 C 
ENDBRANCH   1   2
BRANCH   1   4
HETATM    4  C4  UNL     1     -36.219  13.636  -4.486  1.00 20.00     0.172 C 
BRANCH   4   5
HETATM    5  O7  UNL     1     -37.641  13.689  -4.526  1.00 20.00    -0.396 OA
HETATM    6  C2  UNL     1     -38.124  14.975  -4.167  1.00 20.00     0.201 C 
ENDBRANCH   4   5
ENDBRANCH   1   4
BRANCH   1   7
HETATM    7  C5  UNL     1     -34.380  15.372  -4.314  1.00 20.00     0.121 C 
HETATM    8 CL8  UNL     1     -34.670  15.609  -2.574  1.00 20.00    -0.130 Cl
ENDBRANCH   1   7
TORSDOF 4
ENDMDL
MODEL 6
REMARK VINA RESULT:      -3.3     11.379     11.982
REMARK  4 active torsions:
REMARK  status: ('A' for Active; 'I' for Inactive)
REMARK    1  A    between atoms: C3_3  and  C6_6 
REMARK    2  A    between atoms: C4_4  and  C6_6 
REMARK    3  A    between atoms: C4_4  and  O7_7 
REMARK    4  A    between atoms: C5_5  and  C6_6 
ROOT
HETATM    1  C6  UNL     1     -34.751  14.382  -3.789  1.00 20.00     0.023 C 
ENDROOT
BRANCH   1   2
HETATM    2  C3  UNL     1     -35.971  13.692  -4.439  1.00 20.00     0.003 C 
HETATM    3  C1  UNL     1     -37.261  14.493  -4.328  1.00 20.00     0.005 C 
ENDBRANCH   1   2
BRANCH   1   4
HETATM    4  C4  UNL     1     -33.736  14.807  -4.863  1.00 20.00     0.172 C 
BRANCH   4   5
HETATM    5  O7  UNL     1     -34.216  14.449  -6.153  1.00 20.00    -0.396 OA
HETATM    6  C2  UNL     1     -34.184  15.555  -7.045  1.00 20.00     0.201 C 
ENDBRANCH   4   5
ENDBRANCH   1   4
BRANCH   1   7
HETATM    7  C5  UNL     1     -35.110  15.563  -2.871  1.00 20.00     0.121 C 
HETATM    8 CL8  UNL     1     -33.695  16.493  -2.325  1.00 20.00    -0.130 Cl
ENDBRANCH   1   7
TORSDOF 4
ENDMDL
MODEL 7
REMARK VINA RESULT:      -3.3     16.119     16.861
REMARK  4 active torsions:
REMARK  status: ('A' for Active; 'I' for Inactive)
REMARK    1  A    between atoms: C3_3  and  C6_6 
REMARK    2  A    between atoms: C4_4  and  C6_6 
REMARK    3  A    between atoms: C4_4  and  O7_7 
REMARK    4  A    between atoms: C5_5  and  C6_6 
ROOT
HETATM    1  C6  UNL     1     -24.148  18.107  10.203  1.00 20.00     0.023 C 
ENDROOT
BRANCH   1   2
HETATM    2  C3  UNL     1     -23.034  18.598   9.252  1.00 20.00     0.003 C 
HETATM    3  C1  UNL     1     -22.436  17.498   8.386  1.00 20.00     0.005 C 
ENDBRANCH   1   2
BRANCH   1   4
HETATM    4  C4  UNL     1     -23.594  17.904  11.623  1.00 20.00     0.172 C 
BRANCH   4   5
HETATM    5  O7  UNL     1     -23.378  16.518  11.867  1.00 20.00    -0.396 OA
HETATM    6  C2  UNL     1     -24.585  15.777  11.758  1.00 20.00     0.201 C 
ENDBRANCH   4   5
ENDBRANCH   1   4
BRANCH   1   7
HETATM    7  C5  UNL     1     -25.400  19.000  10.222  1.00 20.00     0.121 C 
HETATM    8 CL8  UNL     1     -26.110  19.193  11.842  1.00 20.00    -0.130 Cl
ENDBRANCH   1   7
TORSDOF 4
ENDMDL
MODEL 8
REMARK VINA RESULT:      -3.2      1.594      3.529
REMARK  4 active torsions:
REMARK  status: ('A' for Active; 'I' for Inactive)
REMARK    1  A    between atoms: C3_3  and  C6_6 
REMARK    2  A    between atoms: C4_4  and  C6_6 
REMARK    3  A    between atoms: C4_4  and  O7_7 
REMARK    4  A    between atoms: C5_5  and  C6_6 
ROOT
HETATM    1  C6  UNL     1     -32.840   6.339   3.397  1.00 20.00     0.023 C 
ENDROOT
BRANCH   1   2
HETATM    2  C3  UNL     1     -32.079   7.455   2.648  1.00 20.00     0.003 C 
HETATM    3  C1  UNL     1     -32.736   7.877   1.342  1.00 20.00     0.005 C 
ENDBRANCH   1   2
BRANCH   1   4
HETATM    4  C4  UNL     1     -34.021   6.927   4.188  1.00 20.00     0.172 C 
BRANCH   4   5
HETATM    5  O7  UNL     1     -33.799   6.764   5.584  1.00 20.00    -0.396 OA
HETATM    6  C2  UNL     1     -34.633   5.752   6.128  1.00 20.00     0.201 C 
ENDBRANCH   4   5
ENDBRANCH   1   4
BRANCH   1   7
HETATM    7  C5  UNL     1     -33.302   5.179   2.498  1.00 20.00     0.121 C 
HETATM    8 CL8  UNL     1     -34.039   3.832   3.398  1.00 20.00    -0.130 Cl
ENDBRANCH   1   7
TORSDOF 4
ENDMDL
MODEL 9
REMARK VINA RESULT:      -3.2      2.408      4.050
REMARK  4 active torsions:
REMARK  status: ('A' for Active; 'I' for Inactive)
REMARK    1  A    between atoms: C3_3  and  C6_6 
REMARK    2  A    between atoms: C4_4  and  C6_6 
REMARK    3  A    between atoms: C4_4  and  O7_7 
REMARK    4  A    between atoms: C5_5  and  C6_6 
ROOT
HETATM    1  C6  UNL     1     -32.927   7.058   2.654  1.00 20.00     0.023 C 
ENDROOT
BRANCH   1   2
HETATM    2  C3  UNL     1     -32.274   7.613   1.368  1.00 20.00     0.003 C 
HETATM    3  C1  UNL     1     -32.937   8.877   0.840  1.00 20.00     0.005 C 
ENDBRANCH   1   2
BRANCH   1   4
HETATM    4  C4  UNL     1     -33.058   5.528   2.575  1.00 20.00     0.172 C 
BRANCH   4   5
HETATM    5  O7  UNL     1     -34.344   5.126   3.034  1.00 20.00    -0.396 OA
HETATM    6  C2  UNL     1     -34.248   4.197   4.104  1.00 20.00     0.201 C 
ENDBRANCH   4   5
ENDBRANCH   1   4
BRANCH   1   7
HETATM    7  C5  UNL     1     -32.223   7.485   3.953  1.00 20.00     0.121 C 
HETATM    8 CL8  UNL     1     -33.229   7.277   5.407  1.00 20.00    -0.130 Cl
ENDBRANCH   1   7
TORSDOF 4
ENDMDL
