MODEL 1
REMARK VINA RESULT:      -3.9      0.000      0.000
REMARK  4 active torsions:
REMARK  status: ('A' for Active; 'I' for Inactive)
REMARK    1  A    between atoms: C5_5  and  C7_7 
REMARK    2  A    between atoms: C5_5  and  C8_8 
REMARK    3  A    between atoms: C6_6  and  C7_7 
REMARK    4  A    between atoms: C8_8  and  O9_9 
ROOT
HETATM    1  C5  UNL     1     -35.531  14.684  -3.492  1.00 20.00     0.042 C 
ENDROOT
BRANCH   1   2
HETATM    2  C7  UNL     1     -34.757  15.974  -3.124  1.00 20.00    -0.002 C 
HETATM    3  C1  UNL     1     -35.014  16.313  -1.648  1.00 20.00     0.011 C 
BRANCH   2   4
HETATM    4  C6  UNL     1     -33.251  15.956  -3.424  1.00 20.00     0.119 C 
HETATM    5 CL10 UNL     1     -32.719  14.517  -4.326  1.00 20.00    -0.130 Cl
ENDBRANCH   2   4
ENDBRANCH   1   2
BRANCH   1   6
HETATM    6  C8  UNL     1     -36.516  14.754  -4.682  1.00 20.00     0.053 C 
HETATM    7  C2  UNL     1     -37.030  16.192  -4.835  1.00 20.00     0.045 C 
HETATM    8  C3  UNL     1     -35.887  14.294  -5.997  1.00 20.00     0.045 C 
BRANCH   6   9
HETATM    9  O9  UNL     1     -37.652  13.927  -4.434  1.00 20.00    -0.386 OA
HETATM   10  C4  UNL     1     -38.819  14.705  -4.215  1.00 20.00     0.202 C 
ENDBRANCH   6   9
ENDBRANCH   1   6
TORSDOF 4
ENDMDL
MODEL 2
REMARK VINA RESULT:      -3.8      1.639      2.196
REMARK  4 active torsions:
REMARK  status: ('A' for Active; 'I' for Inactive)
REMARK    1  A    between atoms: C5_5  and  C7_7 
REMARK    2  A    between atoms: C5_5  and  C8_8 
REMARK    3  A    between atoms: C6_6  and  C7_7 
REMARK    4  A    between atoms: C8_8  and  O9_9 
ROOT
HETATM    1  C5  UNL     1     -35.898  15.569  -3.798  1.00 20.00     0.042 C 
ENDROOT
BRANCH   1   2
HETATM    2  C7  UNL     1     -34.792  15.624  -2.715  1.00 20.00    -0.002 C 
HETATM    3  C1  UNL     1     -33.476  16.083  -3.359  1.00 20.00     0.011 C 
BRANCH   2   4
HETATM    4  C6  UNL     1     -35.116  16.471  -1.475  1.00 20.00     0.119 C 
HETATM    5 CL10 UNL     1     -33.840  17.637  -1.053  1.00 20.00    -0.130 Cl
ENDBRANCH   2   4
ENDBRANCH   1   2
BRANCH   1   6
HETATM    6  C8  UNL     1     -36.081  14.240  -4.568  1.00 20.00     0.053 C 
HETATM    7  C2  UNL     1     -35.832  14.477  -6.063  1.00 20.00     0.045 C 
HETATM    8  C3  UNL     1     -35.153  13.134  -4.065  1.00 20.00     0.045 C 
BRANCH   6   9
HETATM    9  O9  UNL     1     -37.423  13.771  -4.435  1.00 20.00    -0.386 OA
HETATM   10  C4  UNL     1     -38.331  14.849  -4.269  1.00 20.00     0.202 C 
ENDBRANCH   6   9
ENDBRANCH   1   6
TORSDOF 4
ENDMDL
MODEL 3
REMARK VINA RESULT:      -3.8      2.328      2.868
REMARK  4 active torsions:
REMARK  status: ('A' for Active; 'I' for Inactive)
REMARK    1  A    between atoms: C5_5  and  C7_7 
REMARK    2  A    between atoms: C5_5  and  C8_8 
REMARK    3  A    between atoms: C6_6  and  C7_7 
REMARK    4  A    between atoms: C8_8  and  O9_9 
ROOT
HETATM    1  C5  UNL     1     -34.431  15.011  -3.296  1.00 20.00     0.042 C 
ENDROOT
BRANCH   1   2
HETATM    2  C7  UNL     1     -34.375  16.461  -2.754  1.00 20.00    -0.002 C 
HETATM    3  C1  UNL     1     -35.126  16.529  -1.415  1.00 20.00     0.011 C 
BRANCH   2   4
HETATM    4  C6  UNL     1     -32.971  17.069  -2.622  1.00 20.00     0.119 C 
HETATM    5 CL10 UNL     1     -32.711  17.942  -1.092  1.00 20.00    -0.130 Cl
ENDBRANCH   2   4
ENDBRANCH   1   2
BRANCH   1   6
HETATM    6  C8  UNL     1     -35.075  14.790  -4.684  1.00 20.00     0.053 C 
HETATM    7  C2  UNL     1     -36.155  13.706  -4.580  1.00 20.00     0.045 C 
HETATM    8  C3  UNL     1     -35.687  16.067  -5.262  1.00 20.00     0.045 C 
BRANCH   6   9
HETATM    9  O9  UNL     1     -34.099  14.321  -5.614  1.00 20.00    -0.386 OA
HETATM   10  C4  UNL     1     -34.097  15.103  -6.799  1.00 20.00     0.202 C 
ENDBRANCH   6   9
ENDBRANCH   1   6
TORSDOF 4
ENDMDL
MODEL 4
REMARK VINA RESULT:      -3.7      2.490      3.070
REMARK  4 active torsions:
REMARK  status: ('A' for Active; 'I' for Inactive)
REMARK    1  A    between atoms: C5_5  and  C7_7 
REMARK    2  A    between atoms: C5_5  and  C8_8 
REMARK    3  A    between atoms: C6_6  and  C7_7 
REMARK    4  A    between atoms: C8_8  and  O9_9 
ROOT
HETATM    1  C5  UNL     1     -34.458  16.069  -3.920  1.00 20.00     0.042 C 
ENDROOT
BRANCH   1   2
HETATM    2  C7  UNL     1     -34.089  16.202  -2.422  1.00 20.00    -0.002 C 
HETATM    3  C1  UNL     1     -32.987  17.261  -2.264  1.00 20.00     0.011 C 
BRANCH   2   4
HETATM    4  C6  UNL     1     -35.260  16.490  -1.471  1.00 20.00     0.119 C 
HETATM    5 CL10 UNL     1     -34.808  17.473  -0.057  1.00 20.00    -0.130 Cl
ENDBRANCH   2   4
ENDBRANCH   1   2
BRANCH   1   6
HETATM    6  C8  UNL     1     -34.081  14.752  -4.636  1.00 20.00     0.053 C 
HETATM    7  C2  UNL     1     -34.380  14.881  -6.136  1.00 20.00     0.045 C 
HETATM    8  C3  UNL     1     -32.614  14.371  -4.439  1.00 20.00     0.045 C 
BRANCH   6   9
HETATM    9  O9  UNL     1     -34.876  13.674  -4.142  1.00 20.00    -0.386 OA
HETATM   10  C4  UNL     1     -36.218  13.774  -4.594  1.00 20.00     0.202 C 
ENDBRANCH   6   9
ENDBRANCH   1   6
TORSDOF 4
ENDMDL
MODEL 5
REMARK VINA RESULT:      -3.6      1.992      2.885
REMARK  4 active torsions:
REMARK  status: ('A' for Active; 'I' for Inactive)
REMARK    1  A    between atoms: C5_5  and  C7_7 
REMARK    2  A    between atoms: C5_5  and  C8_8 
REMARK    3  A    between atoms: C6_6  and  C7_7 
REMARK    4  A    between atoms: C8_8  and  O9_9 
ROOT
HETATM    1  C5  UNL     1     -34.906  15.690  -5.044  1.00 20.00     0.042 C 
ENDROOT
BRANCH   1   2
HETATM    2  C7  UNL     1     -34.089  15.113  -3.861  1.00 20.00    -0.002 C 
HETATM    3  C1  UNL     1     -32.791  14.493  -4.397  1.00 20.00     0.011 C 
BRANCH   2   4
HETATM    4  C6  UNL     1     -33.792  16.094  -2.717  1.00 20.00     0.119 C 
HETATM    5 CL10 UNL     1     -35.149  16.307  -1.585  1.00 20.00    -0.130 Cl
ENDBRANCH   2   4
ENDBRANCH   1   2
BRANCH   1   6
HETATM    6  C8  UNL     1     -36.222  14.972  -5.423  1.00 20.00     0.053 C 
HETATM    7  C2  UNL     1     -36.446  13.783  -4.480  1.00 20.00     0.045 C 
HETATM    8  C3  UNL     1     -37.436  15.899  -5.372  1.00 20.00     0.045 C 
BRANCH   6   9
HETATM    9  O9  UNL     1     -36.136  14.447  -6.747  1.00 20.00    -0.386 OA
HETATM   10  C4  UNL     1     -35.230  15.196  -7.542  1.00 20.00     0.202 C 
ENDBRANCH   6   9
ENDBRANCH   1   6
TORSDOF 4
ENDMDL
MODEL 6
REMARK VINA RESULT:      -3.5      2.318      3.082
REMARK  4 active torsions:
REMARK  status: ('A' for Active; 'I' for Inactive)
REMARK    1  A    between atoms: C5_5  and  C7_7 
REMARK    2  A    between atoms: C5_5  and  C8_8 
REMARK    3  A    between atoms: C6_6  and  C7_7 
REMARK    4  A    between atoms: C8_8  and  O9_9 
ROOT
HETATM    1  C5  UNL     1     -35.215  16.073  -4.313  1.00 20.00     0.042 C 
ENDROOT
BRANCH   1   2
HETATM    2  C7  UNL     1     -34.450  15.768  -3.001  1.00 20.00    -0.002 C 
HETATM    3  C1  UNL     1     -33.016  16.308  -3.115  1.00 20.00     0.011 C 
BRANCH   2   4
HETATM    4  C6  UNL     1     -35.118  16.266  -1.710  1.00 20.00     0.119 C 
HETATM    5 CL10 UNL     1     -34.205  17.551  -0.882  1.00 20.00    -0.130 Cl
ENDBRANCH   2   4
ENDBRANCH   1   2
BRANCH   1   6
HETATM    6  C8  UNL     1     -35.461  14.899  -5.288  1.00 20.00     0.053 C 
HETATM    7  C2  UNL     1     -36.159  13.753  -4.543  1.00 20.00     0.045 C 
HETATM    8  C3  UNL     1     -36.299  15.304  -6.501  1.00 20.00     0.045 C 
BRANCH   6   9
HETATM    9  O9  UNL     1     -34.219  14.388  -5.772  1.00 20.00    -0.386 OA
HETATM   10  C4  UNL     1     -33.815  15.055  -6.958  1.00 20.00     0.202 C 
ENDBRANCH   6   9
ENDBRANCH   1   6
TORSDOF 4
ENDMDL
MODEL 7
REMARK VINA RESULT:      -3.5      2.726      3.359
REMARK  4 active torsions:
REMARK  status: ('A' for Active; 'I' for Inactive)
REMARK    1  A    between atoms: C5_5  and  C7_7 
REMARK    2  A    between atoms: C5_5  and  C8_8 
REMARK    3  A    between atoms: C6_6  and  C7_7 
REMARK    4  A    between atoms: C8_8  and  O9_9 
ROOT
HETATM    1  C5  UNL     1     -34.286  16.280  -3.895  1.00 20.00     0.042 C 
ENDROOT
BRANCH   1   2
HETATM    2  C7  UNL     1     -33.994  16.345  -2.376  1.00 20.00    -0.002 C 
HETATM    3  C1  UNL     1     -32.895  17.387  -2.117  1.00 20.00     0.011 C 
BRANCH   2   4
HETATM    4  C6  UNL     1     -35.211  16.602  -1.474  1.00 20.00     0.119 C 
HETATM    5 CL10 UNL     1     -34.826  17.519   0.002  1.00 20.00    -0.130 Cl
ENDBRANCH   2   4
ENDBRANCH   1   2
BRANCH   1   6
HETATM    6  C8  UNL     1     -34.145  14.907  -4.593  1.00 20.00     0.053 C 
HETATM    7  C2  UNL     1     -32.719  14.376  -4.395  1.00 20.00     0.045 C 
HETATM    8  C3  UNL     1     -35.150  13.876  -4.078  1.00 20.00     0.045 C 
BRANCH   6   9
HETATM    9  O9  UNL     1     -34.350  15.043  -5.999  1.00 20.00    -0.386 OA
HETATM   10  C4  UNL     1     -35.677  14.697  -6.363  1.00 20.00     0.202 C 
ENDBRANCH   6   9
ENDBRANCH   1   6
TORSDOF 4
ENDMDL
MODEL 8
REMARK VINA RESULT:      -3.5      2.289      2.574
REMARK  4 active torsions:
REMARK  status: ('A' for Active; 'I' for Inactive)
REMARK    1  A    between atoms: C5_5  and  C7_7 
REMARK    2  A    between atoms: C5_5  and  C8_8 
REMARK    3  A    between atoms: C6_6  and  C7_7 
REMARK    4  A    between atoms: C8_8  and  O9_9 
ROOT
HETATM    1  C5  UNL     1     -34.613  15.345  -2.708  1.00 20.00     0.042 C 
ENDROOT
BRANCH   1   2
HETATM    2  C7  UNL     1     -34.418  16.861  -2.458  1.00 20.00    -0.002 C 
HETATM    3  C1  UNL     1     -35.275  17.291  -1.259  1.00 20.00     0.011 C 
BRANCH   2   4
HETATM    4  C6  UNL     1     -32.964  17.324  -2.282  1.00 20.00     0.119 C 
HETATM    5 CL10 UNL     1     -32.659  18.146  -0.733  1.00 20.00    -0.130 Cl
ENDBRANCH   2   4
ENDBRANCH   1   2
BRANCH   1   6
HETATM    6  C8  UNL     1     -34.411  14.824  -4.149  1.00 20.00     0.053 C 
HETATM    7  C2  UNL     1     -34.926  15.869  -5.148  1.00 20.00     0.045 C 
HETATM    8  C3  UNL     1     -32.949  14.498  -4.460  1.00 20.00     0.045 C 
BRANCH   6   9
HETATM    9  O9  UNL     1     -35.171  13.634  -4.358  1.00 20.00    -0.386 OA
HETATM   10  C4  UNL     1     -36.546  13.928  -4.552  1.00 20.00     0.202 C 
ENDBRANCH   6   9
ENDBRANCH   1   6
TORSDOF 4
ENDMDL
MODEL 9
REMARK VINA RESULT:      -3.3      2.491      3.929
REMARK  4 active torsions:
REMARK  status: ('A' for Active; 'I' for Inactive)
REMARK    1  A    between atoms: C5_5  and  C7_7 
REMARK    2  A    between atoms: C5_5  and  C8_8 
REMARK    3  A    between atoms: C6_6  and  C7_7 
REMARK    4  A    between atoms: C8_8  and  O9_9 
ROOT
HETATM    1  C5  UNL     1     -34.598  15.582  -2.666  1.00 20.00     0.042 C 
ENDROOT
BRANCH   1   2
HETATM    2  C7  UNL     1     -34.261  15.464  -4.173  1.00 20.00    -0.002 C 
HETATM    3  C1  UNL     1     -33.040  14.548  -4.348  1.00 20.00     0.011 C 
BRANCH   2   4
HETATM    4  C6  UNL     1     -35.415  15.011  -5.080  1.00 20.00     0.119 C 
HETATM    5 CL10 UNL     1     -36.142  13.462  -4.591  1.00 20.00    -0.130 Cl
ENDBRANCH   2   4
ENDBRANCH   1   2
BRANCH   1   6
HETATM    6  C8  UNL     1     -34.549  16.991  -2.030  1.00 20.00     0.053 C 
HETATM    7  C2  UNL     1     -35.251  16.960  -0.666  1.00 20.00     0.045 C 
HETATM    8  C3  UNL     1     -33.122  17.512  -1.858  1.00 20.00     0.045 C 
BRANCH   6   9
HETATM    9  O9  UNL     1     -35.255  17.927  -2.843  1.00 20.00    -0.386 OA
HETATM   10  C4  UNL     1     -36.631  17.973  -2.501  1.00 20.00     0.202 C 
ENDBRANCH   6   9
ENDBRANCH   1   6
TORSDOF 4
ENDMDL
