MODEL 1
REMARK VINA RESULT:      -4.0      0.000      0.000
REMARK  3 active torsions:
REMARK  status: ('A' for Active; 'I' for Inactive)
REMARK    1  A    between atoms: C6_6  and  C8_8 
REMARK    2  A    between atoms: C6_6  and  C9_9 
REMARK    3  A    between atoms: C7_7  and  C9_9 
ROOT
HETATM    1  C4  UNL     1     -35.062  13.995  -3.904  1.00 20.00     0.015 C 
HETATM    2  C5  UNL     1     -32.654  14.331  -4.398  1.00 20.00     0.015 C 
HETATM    3  C9  UNL     1     -33.969  15.078  -4.087  1.00 20.00    -0.043 C 
ENDROOT
BRANCH   3   4
HETATM    4  C6  UNL     1     -34.408  15.944  -5.319  1.00 20.00     0.029 C 
BRANCH   4   5
HETATM    5  C8  UNL     1     -34.934  15.230  -6.580  1.00 20.00     0.079 C 
HETATM    6  C3  UNL     1     -33.948  15.392  -7.736  1.00 20.00     0.026 C 
HETATM    7 CL10 UNL     1     -36.512  15.880  -7.111  1.00 20.00    -0.125 Cl
ENDBRANCH   4   5
ENDBRANCH   3   4
BRANCH   3   8
HETATM    8  C7  UNL     1     -33.796  15.940  -2.781  1.00 20.00    -0.015 C 
HETATM    9  C1  UNL     1     -33.122  17.301  -3.016  1.00 20.00     0.010 C 
HETATM   10  C2  UNL     1     -35.106  16.181  -2.010  1.00 20.00     0.010 C 
ENDBRANCH   3   8
TORSDOF 3
ENDMDL
MODEL 2
REMARK VINA RESULT:      -3.9     17.159     18.410
REMARK  3 active torsions:
REMARK  status: ('A' for Active; 'I' for Inactive)
REMARK    1  A    between atoms: C6_6  and  C8_8 
REMARK    2  A    between atoms: C6_6  and  C9_9 
REMARK    3  A    between atoms: C7_7  and  C9_9 
ROOT
HETATM    1  C4  UNL     1     -23.996  16.367  10.961  1.00 20.00     0.015 C 
HETATM    2  C5  UNL     1     -22.889  18.128  12.315  1.00 20.00     0.015 C 
HETATM    3  C9  UNL     1     -24.076  17.862  11.363  1.00 20.00    -0.043 C 
ENDROOT
BRANCH   3   4
HETATM    4  C6  UNL     1     -23.907  18.684  10.038  1.00 20.00     0.029 C 
BRANCH   4   5
HETATM    5  C8  UNL     1     -23.884  17.930   8.693  1.00 20.00     0.079 C 
HETATM    6  C3  UNL     1     -22.445  17.662   8.255  1.00 20.00     0.026 C 
HETATM    7 CL10 UNL     1     -24.690  18.854   7.392  1.00 20.00    -0.125 Cl
ENDBRANCH   4   5
ENDBRANCH   3   4
BRANCH   3   8
HETATM    8  C7  UNL     1     -25.431  18.183  12.098  1.00 20.00    -0.015 C 
HETATM    9  C1  UNL     1     -26.276  19.263  11.404  1.00 20.00     0.010 C 
HETATM   10  C2  UNL     1     -26.325  16.953  12.332  1.00 20.00     0.010 C 
ENDBRANCH   3   8
TORSDOF 3
ENDMDL
MODEL 3
REMARK VINA RESULT:      -3.9      1.576      2.389
REMARK  3 active torsions:
REMARK  status: ('A' for Active; 'I' for Inactive)
REMARK    1  A    between atoms: C6_6  and  C8_8 
REMARK    2  A    between atoms: C6_6  and  C9_9 
REMARK    3  A    between atoms: C7_7  and  C9_9 
ROOT
HETATM    1  C4  UNL     1     -32.872  14.870  -4.181  1.00 20.00     0.015 C 
HETATM    2  C5  UNL     1     -34.210  16.886  -4.731  1.00 20.00     0.015 C 
HETATM    3  C9  UNL     1     -34.061  15.742  -3.704  1.00 20.00    -0.043 C 
ENDROOT
BRANCH   3   4
HETATM    4  C6  UNL     1     -35.327  14.816  -3.734  1.00 20.00     0.029 C 
BRANCH   4   5
HETATM    5  C8  UNL     1     -36.394  15.050  -4.821  1.00 20.00     0.079 C 
HETATM    6  C3  UNL     1     -37.755  14.536  -4.354  1.00 20.00     0.026 C 
HETATM    7 CL10 UNL     1     -35.989  14.218  -6.351  1.00 20.00    -0.125 Cl
ENDBRANCH   4   5
ENDBRANCH   3   4
BRANCH   3   8
HETATM    8  C7  UNL     1     -33.792  16.341  -2.274  1.00 20.00    -0.015 C 
HETATM    9  C1  UNL     1     -32.912  17.601  -2.280  1.00 20.00     0.010 C 
HETATM   10  C2  UNL     1     -35.069  16.653  -1.474  1.00 20.00     0.010 C 
ENDBRANCH   3   8
TORSDOF 3
ENDMDL
MODEL 4
REMARK VINA RESULT:      -3.8     16.530     18.168
REMARK  3 active torsions:
REMARK  status: ('A' for Active; 'I' for Inactive)
REMARK    1  A    between atoms: C6_6  and  C8_8 
REMARK    2  A    between atoms: C6_6  and  C9_9 
REMARK    3  A    between atoms: C7_7  and  C9_9 
ROOT
HETATM    1  C4  UNL     1     -23.073  16.740   9.077  1.00 20.00     0.015 C 
HETATM    2  C5  UNL     1     -21.334  18.379   9.743  1.00 20.00     0.015 C 
HETATM    3  C9  UNL     1     -22.848  18.086   9.810  1.00 20.00    -0.043 C 
ENDROOT
BRANCH   3   4
HETATM    4  C6  UNL     1     -23.648  19.167   9.001  1.00 20.00     0.029 C 
BRANCH   4   5
HETATM    5  C8  UNL     1     -24.794  18.708   8.078  1.00 20.00     0.079 C 
HETATM    6  C3  UNL     1     -24.596  19.256   6.666  1.00 20.00     0.026 C 
HETATM    7 CL10 UNL     1     -26.390  19.263   8.663  1.00 20.00    -0.125 Cl
ENDBRANCH   4   5
ENDBRANCH   3   4
BRANCH   3   8
HETATM    8  C7  UNL     1     -23.309  18.002  11.313  1.00 20.00    -0.015 C 
HETATM    9  C1  UNL     1     -24.400  16.951  11.573  1.00 20.00     0.010 C 
HETATM   10  C2  UNL     1     -22.162  17.758  12.308  1.00 20.00     0.010 C 
ENDBRANCH   3   8
TORSDOF 3
ENDMDL
MODEL 5
REMARK VINA RESULT:      -3.8      2.309      3.415
REMARK  3 active torsions:
REMARK  status: ('A' for Active; 'I' for Inactive)
REMARK    1  A    between atoms: C6_6  and  C8_8 
REMARK    2  A    between atoms: C6_6  and  C9_9 
REMARK    3  A    between atoms: C7_7  and  C9_9 
ROOT
HETATM    1  C4  UNL     1     -35.598  17.762  -3.050  1.00 20.00     0.015 C 
HETATM    2  C5  UNL     1     -35.117  17.141  -0.696  1.00 20.00     0.015 C 
HETATM    3  C9  UNL     1     -34.667  16.905  -2.154  1.00 20.00    -0.043 C 
ENDROOT
BRANCH   3   4
HETATM    4  C6  UNL     1     -34.913  15.411  -2.565  1.00 20.00     0.029 C 
BRANCH   4   5
HETATM    5  C8  UNL     1     -34.791  15.019  -4.051  1.00 20.00     0.079 C 
HETATM    6  C3  UNL     1     -35.780  13.907  -4.393  1.00 20.00     0.026 C 
HETATM    7 CL10 UNL     1     -33.150  14.438  -4.460  1.00 20.00    -0.125 Cl
ENDBRANCH   4   5
ENDBRANCH   3   4
BRANCH   3   8
HETATM    8  C7  UNL     1     -33.161  17.333  -2.323  1.00 20.00    -0.015 C 
HETATM    9  C1  UNL     1     -32.894  18.198  -3.565  1.00 20.00     0.010 C 
HETATM   10  C2  UNL     1     -32.573  18.056  -1.099  1.00 20.00     0.010 C 
ENDBRANCH   3   8
TORSDOF 3
ENDMDL
MODEL 6
REMARK VINA RESULT:      -3.8      1.266      1.280
REMARK  3 active torsions:
REMARK  status: ('A' for Active; 'I' for Inactive)
REMARK    1  A    between atoms: C6_6  and  C8_8 
REMARK    2  A    between atoms: C6_6  and  C9_9 
REMARK    3  A    between atoms: C7_7  and  C9_9 
ROOT
HETATM    1  C4  UNL     1     -35.198  14.066  -3.891  1.00 20.00     0.015 C 
HETATM    2  C5  UNL     1     -32.813  14.479  -4.434  1.00 20.00     0.015 C 
HETATM    3  C9  UNL     1     -34.124  15.177  -4.014  1.00 20.00    -0.043 C 
ENDROOT
BRANCH   3   4
HETATM    4  C6  UNL     1     -34.616  16.141  -5.150  1.00 20.00     0.029 C 
BRANCH   4   5
HETATM    5  C8  UNL     1     -36.086  16.061  -5.609  1.00 20.00     0.079 C 
HETATM    6  C3  UNL     1     -36.173  16.099  -7.134  1.00 20.00     0.026 C 
HETATM    7 CL10 UNL     1     -37.063  17.414  -4.970  1.00 20.00    -0.125 Cl
ENDBRANCH   4   5
ENDBRANCH   3   4
BRANCH   3   8
HETATM    8  C7  UNL     1     -33.916  15.924  -2.644  1.00 20.00    -0.015 C 
HETATM    9  C1  UNL     1     -33.051  17.190  -2.749  1.00 20.00     0.010 C 
HETATM   10  C2  UNL     1     -35.225  16.296  -1.927  1.00 20.00     0.010 C 
ENDBRANCH   3   8
TORSDOF 3
ENDMDL
MODEL 7
REMARK VINA RESULT:      -3.8      3.070      4.549
REMARK  3 active torsions:
REMARK  status: ('A' for Active; 'I' for Inactive)
REMARK    1  A    between atoms: C6_6  and  C8_8 
REMARK    2  A    between atoms: C6_6  and  C9_9 
REMARK    3  A    between atoms: C7_7  and  C9_9 
ROOT
HETATM    1  C4  UNL     1     -35.306  16.491  -1.721  1.00 20.00     0.015 C 
HETATM    2  C5  UNL     1     -35.228  17.155  -4.111  1.00 20.00     0.015 C 
HETATM    3  C9  UNL     1     -34.509  16.309  -3.038  1.00 20.00    -0.043 C 
ENDROOT
BRANCH   3   4
HETATM    4  C6  UNL     1     -33.073  16.881  -2.765  1.00 20.00     0.029 C 
BRANCH   4   5
HETATM    5  C8  UNL     1     -32.936  18.312  -2.210  1.00 20.00     0.079 C 
HETATM    6  C3  UNL     1     -32.440  19.263  -3.299  1.00 20.00     0.026 C 
HETATM    7 CL10 UNL     1     -31.785  18.395  -0.845  1.00 20.00    -0.125 Cl
ENDBRANCH   4   5
ENDBRANCH   3   4
BRANCH   3   8
HETATM    8  C7  UNL     1     -34.477  14.799  -3.482  1.00 20.00    -0.015 C 
HETATM    9  C1  UNL     1     -35.795  14.302  -4.095  1.00 20.00     0.010 C 
HETATM   10  C2  UNL     1     -33.336  14.456  -4.456  1.00 20.00     0.010 C 
ENDBRANCH   3   8
TORSDOF 3
ENDMDL
MODEL 8
REMARK VINA RESULT:      -3.7      2.468      4.216
REMARK  3 active torsions:
REMARK  status: ('A' for Active; 'I' for Inactive)
REMARK    1  A    between atoms: C6_6  and  C8_8 
REMARK    2  A    between atoms: C6_6  and  C9_9 
REMARK    3  A    between atoms: C7_7  and  C9_9 
ROOT
HETATM    1  C4  UNL     1     -36.054  14.077  -4.224  1.00 20.00     0.015 C 
HETATM    2  C5  UNL     1     -36.213  16.538  -4.498  1.00 20.00     0.015 C 
HETATM    3  C9  UNL     1     -35.265  15.401  -4.059  1.00 20.00    -0.043 C 
ENDROOT
BRANCH   3   4
HETATM    4  C6  UNL     1     -34.933  15.529  -2.531  1.00 20.00     0.029 C 
BRANCH   4   5
HETATM    5  C8  UNL     1     -34.781  16.935  -1.918  1.00 20.00     0.079 C 
HETATM    6  C3  UNL     1     -33.314  17.360  -1.913  1.00 20.00     0.026 C 
HETATM    7 CL10 UNL     1     -35.376  17.000  -0.233  1.00 20.00    -0.125 Cl
ENDBRANCH   4   5
ENDBRANCH   3   4
BRANCH   3   8
HETATM    8  C7  UNL     1     -33.971  15.410  -4.955  1.00 20.00    -0.015 C 
HETATM    9  C1  UNL     1     -32.839  14.516  -4.425  1.00 20.00     0.010 C 
HETATM   10  C2  UNL     1     -34.224  15.040  -6.427  1.00 20.00     0.010 C 
ENDBRANCH   3   8
TORSDOF 3
ENDMDL
MODEL 9
REMARK VINA RESULT:      -3.7      2.710      4.793
REMARK  3 active torsions:
REMARK  status: ('A' for Active; 'I' for Inactive)
REMARK    1  A    between atoms: C6_6  and  C8_8 
REMARK    2  A    between atoms: C6_6  and  C9_9 
REMARK    3  A    between atoms: C7_7  and  C9_9 
ROOT
HETATM    1  C4  UNL     1     -35.171  17.220  -3.833  1.00 20.00     0.015 C 
HETATM    2  C5  UNL     1     -32.989  16.824  -2.720  1.00 20.00     0.015 C 
HETATM    3  C9  UNL     1     -34.419  16.262  -2.875  1.00 20.00    -0.043 C 
ENDROOT
BRANCH   3   4
HETATM    4  C6  UNL     1     -35.180  16.323  -1.504  1.00 20.00     0.029 C 
BRANCH   4   5
HETATM    5  C8  UNL     1     -35.401  17.695  -0.837  1.00 20.00     0.079 C 
HETATM    6  C3  UNL     1     -34.733  17.736   0.536  1.00 20.00     0.026 C 
HETATM    7 CL10 UNL     1     -37.136  18.061  -0.614  1.00 20.00    -0.125 Cl
ENDBRANCH   4   5
ENDBRANCH   3   4
BRANCH   3   8
HETATM    8  C7  UNL     1     -34.357  14.802  -3.460  1.00 20.00    -0.015 C 
HETATM    9  C1  UNL     1     -35.661  14.343  -4.133  1.00 20.00     0.010 C 
HETATM   10  C2  UNL     1     -33.201  14.571  -4.449  1.00 20.00     0.010 C 
ENDBRANCH   3   8
TORSDOF 3
ENDMDL
