MODEL 1
REMARK VINA RESULT:      -4.3      0.000      0.000
REMARK  4 active torsions:
REMARK  status: ('A' for Active; 'I' for Inactive)
REMARK    1  A    between atoms: C5_5  and  C7_7 
REMARK    2  A    between atoms: C5_5  and  C8_8 
REMARK    3  A    between atoms: C6_6  and  C8_8 
REMARK    4  A    between atoms: C6_6  and  C9_9 
ROOT
HETATM    1  C3  UNL     1     -33.061   5.003   2.156  1.00 20.00     0.010 C 
HETATM    2  C8  UNL     1     -32.979   6.147   3.170  1.00 20.00    -0.017 C 
ENDROOT
BRANCH   2   3
HETATM    3  C5  UNL     1     -34.381   6.564   3.677  1.00 20.00     0.008 C 
BRANCH   3   4
HETATM    4  C7  UNL     1     -34.666   6.329   5.174  1.00 20.00    -0.023 C 
HETATM    5  C1  UNL     1     -33.599   6.943   6.080  1.00 20.00     0.009 C 
HETATM    6  C2  UNL     1     -34.771   4.825   5.446  1.00 20.00     0.009 C 
ENDBRANCH   3   4
ENDBRANCH   2   3
BRANCH   2   7
HETATM    7  C6  UNL     1     -32.284   7.395   2.569  1.00 20.00     0.024 C 
BRANCH   7   8
HETATM    8  C9  UNL     1     -32.789   7.856   1.192  1.00 20.00     0.078 C 
HETATM    9  C4  UNL     1     -33.142   9.340   1.213  1.00 20.00     0.026 C 
HETATM   10 CL10 UNL     1     -31.558   7.576  -0.074  1.00 20.00    -0.125 Cl
ENDBRANCH   7   8
ENDBRANCH   2   7
TORSDOF 4
ENDMDL
MODEL 2
REMARK VINA RESULT:      -4.0     10.548     11.383
REMARK  4 active torsions:
REMARK  status: ('A' for Active; 'I' for Inactive)
REMARK    1  A    between atoms: C5_5  and  C7_7 
REMARK    2  A    between atoms: C5_5  and  C8_8 
REMARK    3  A    between atoms: C6_6  and  C8_8 
REMARK    4  A    between atoms: C6_6  and  C9_9 
ROOT
HETATM    1  C3  UNL     1     -32.727  14.535  -4.399  1.00 20.00     0.010 C 
HETATM    2  C8  UNL     1     -34.102  15.068  -3.988  1.00 20.00    -0.017 C 
ENDROOT
BRANCH   2   3
HETATM    3  C5  UNL     1     -34.029  15.887  -2.676  1.00 20.00     0.008 C 
BRANCH   3   4
HETATM    4  C7  UNL     1     -35.361  16.458  -2.149  1.00 20.00    -0.023 C 
HETATM    5  C1  UNL     1     -35.921  17.563  -3.044  1.00 20.00     0.009 C 
HETATM    6  C2  UNL     1     -35.164  16.995  -0.728  1.00 20.00     0.009 C 
ENDBRANCH   3   4
ENDBRANCH   2   3
BRANCH   2   7
HETATM    7  C6  UNL     1     -35.125  13.921  -3.791  1.00 20.00     0.024 C 
BRANCH   7   8
HETATM    8  C9  UNL     1     -36.228  13.804  -4.856  1.00 20.00     0.078 C 
HETATM    9  C4  UNL     1     -37.523  14.445  -4.367  1.00 20.00     0.026 C 
HETATM   10 CL10 UNL     1     -35.738  14.591  -6.384  1.00 20.00    -0.125 Cl
ENDBRANCH   7   8
ENDBRANCH   2   7
TORSDOF 4
ENDMDL
MODEL 3
REMARK VINA RESULT:      -3.9      2.186      4.592
REMARK  4 active torsions:
REMARK  status: ('A' for Active; 'I' for Inactive)
REMARK    1  A    between atoms: C5_5  and  C7_7 
REMARK    2  A    between atoms: C5_5  and  C8_8 
REMARK    3  A    between atoms: C6_6  and  C8_8 
REMARK    4  A    between atoms: C6_6  and  C9_9 
ROOT
HETATM    1  C3  UNL     1     -33.012   5.094   2.281  1.00 20.00     0.010 C 
HETATM    2  C8  UNL     1     -33.286   6.595   2.406  1.00 20.00    -0.017 C 
ENDROOT
BRANCH   2   3
HETATM    3  C5  UNL     1     -32.113   7.439   1.850  1.00 20.00     0.008 C 
BRANCH   3   4
HETATM    4  C7  UNL     1     -32.467   8.474   0.763  1.00 20.00    -0.023 C 
HETATM    5  C1  UNL     1     -33.181   9.701   1.330  1.00 20.00     0.009 C 
HETATM    6  C2  UNL     1     -33.345   7.815  -0.306  1.00 20.00     0.009 C 
ENDBRANCH   3   4
ENDBRANCH   2   3
BRANCH   2   7
HETATM    7  C6  UNL     1     -33.533   7.011   3.878  1.00 20.00     0.024 C 
BRANCH   7   8
HETATM    8  C9  UNL     1     -34.112   5.928   4.802  1.00 20.00     0.078 C 
HETATM    9  C4  UNL     1     -34.244   6.447   6.230  1.00 20.00     0.026 C 
HETATM   10 CL10 UNL     1     -35.719   5.387   4.237  1.00 20.00    -0.125 Cl
ENDBRANCH   7   8
ENDBRANCH   2   7
TORSDOF 4
ENDMDL
MODEL 4
REMARK VINA RESULT:      -3.8      2.628      4.895
REMARK  4 active torsions:
REMARK  status: ('A' for Active; 'I' for Inactive)
REMARK    1  A    between atoms: C5_5  and  C7_7 
REMARK    2  A    between atoms: C5_5  and  C8_8 
REMARK    3  A    between atoms: C6_6  and  C8_8 
REMARK    4  A    between atoms: C6_6  and  C9_9 
ROOT
HETATM    1  C3  UNL     1     -31.698   7.557   3.760  1.00 20.00     0.010 C 
HETATM    2  C8  UNL     1     -32.838   6.692   3.214  1.00 20.00    -0.017 C 
ENDROOT
BRANCH   2   3
HETATM    3  C5  UNL     1     -33.228   7.104   1.774  1.00 20.00     0.008 C 
BRANCH   3   4
HETATM    4  C7  UNL     1     -32.404   8.243   1.140  1.00 20.00    -0.023 C 
HETATM    5  C1  UNL     1     -33.260   9.458   0.782  1.00 20.00     0.009 C 
HETATM    6  C2  UNL     1     -31.692   7.727  -0.114  1.00 20.00     0.009 C 
ENDBRANCH   3   4
ENDBRANCH   2   3
BRANCH   2   7
HETATM    7  C6  UNL     1     -34.101   6.781   4.107  1.00 20.00     0.024 C 
BRANCH   7   8
HETATM    8  C9  UNL     1     -34.806   5.452   4.423  1.00 20.00     0.078 C 
HETATM    9  C4  UNL     1     -34.120   4.291   3.710  1.00 20.00     0.026 C 
HETATM   10 CL10 UNL     1     -34.809   5.125   6.180  1.00 20.00    -0.125 Cl
ENDBRANCH   7   8
ENDBRANCH   2   7
TORSDOF 4
ENDMDL
MODEL 5
REMARK VINA RESULT:      -3.8     10.916     12.008
REMARK  4 active torsions:
REMARK  status: ('A' for Active; 'I' for Inactive)
REMARK    1  A    between atoms: C5_5  and  C7_7 
REMARK    2  A    between atoms: C5_5  and  C8_8 
REMARK    3  A    between atoms: C6_6  and  C8_8 
REMARK    4  A    between atoms: C6_6  and  C9_9 
ROOT
HETATM    1  C3  UNL     1     -35.248  16.854  -1.181  1.00 20.00     0.010 C 
HETATM    2  C8  UNL     1     -34.463  16.015  -2.194  1.00 20.00    -0.017 C 
ENDROOT
BRANCH   2   3
HETATM    3  C5  UNL     1     -33.133  16.699  -2.595  1.00 20.00     0.008 C 
BRANCH   3   4
HETATM    4  C7  UNL     1     -32.953  18.163  -2.143  1.00 20.00    -0.023 C 
HETATM    5  C1  UNL     1     -32.647  19.104  -3.308  1.00 20.00     0.009 C 
HETATM    6  C2  UNL     1     -31.829  18.245  -1.105  1.00 20.00     0.009 C 
ENDBRANCH   3   4
ENDBRANCH   2   3
BRANCH   2   7
HETATM    7  C6  UNL     1     -35.287  15.756  -3.481  1.00 20.00     0.024 C 
BRANCH   7   8
HETATM    8  C9  UNL     1     -34.932  14.486  -4.271  1.00 20.00     0.078 C 
HETATM    9  C4  UNL     1     -36.185  13.678  -4.591  1.00 20.00     0.026 C 
HETATM   10 CL10 UNL     1     -34.100  14.887  -5.801  1.00 20.00    -0.125 Cl
ENDBRANCH   7   8
ENDBRANCH   2   7
TORSDOF 4
ENDMDL
MODEL 6
REMARK VINA RESULT:      -3.7     10.924     12.073
REMARK  4 active torsions:
REMARK  status: ('A' for Active; 'I' for Inactive)
REMARK    1  A    between atoms: C5_5  and  C7_7 
REMARK    2  A    between atoms: C5_5  and  C8_8 
REMARK    3  A    between atoms: C6_6  and  C8_8 
REMARK    4  A    between atoms: C6_6  and  C9_9 
ROOT
HETATM    1  C3  UNL     1     -36.293  13.664  -4.487  1.00 20.00     0.010 C 
HETATM    2  C8  UNL     1     -35.128  14.579  -4.873  1.00 20.00    -0.017 C 
ENDROOT
BRANCH   2   3
HETATM    3  C5  UNL     1     -34.206  14.870  -3.665  1.00 20.00     0.008 C 
BRANCH   3   4
HETATM    4  C7  UNL     1     -34.310  16.280  -3.048  1.00 20.00    -0.023 C 
HETATM    5  C1  UNL     1     -32.942  16.911  -2.787  1.00 20.00     0.009 C 
HETATM    6  C2  UNL     1     -35.104  16.210  -1.739  1.00 20.00     0.009 C 
ENDBRANCH   3   4
ENDBRANCH   2   3
BRANCH   2   7
HETATM    7  C6  UNL     1     -35.628  15.930  -5.444  1.00 20.00     0.024 C 
BRANCH   7   8
HETATM    8  C9  UNL     1     -34.993  16.385  -6.768  1.00 20.00     0.078 C 
HETATM    9  C4  UNL     1     -34.300  17.734  -6.603  1.00 20.00     0.026 C 
HETATM   10 CL10 UNL     1     -33.796  15.193  -7.354  1.00 20.00    -0.125 Cl
ENDBRANCH   7   8
ENDBRANCH   2   7
TORSDOF 4
ENDMDL
MODEL 7
REMARK VINA RESULT:      -3.7     10.789     11.841
REMARK  4 active torsions:
REMARK  status: ('A' for Active; 'I' for Inactive)
REMARK    1  A    between atoms: C5_5  and  C7_7 
REMARK    2  A    between atoms: C5_5  and  C8_8 
REMARK    3  A    between atoms: C6_6  and  C8_8 
REMARK    4  A    between atoms: C6_6  and  C9_9 
ROOT
HETATM    1  C3  UNL     1     -34.762  17.865  -3.784  1.00 20.00     0.010 C 
HETATM    2  C8  UNL     1     -34.367  17.121  -2.505  1.00 20.00    -0.017 C 
ENDROOT
BRANCH   2   3
HETATM    3  C5  UNL     1     -32.884  17.370  -2.135  1.00 20.00     0.008 C 
BRANCH   3   4
HETATM    4  C7  UNL     1     -32.619  18.425  -1.042  1.00 20.00    -0.023 C 
HETATM    5  C1  UNL     1     -31.212  18.320  -0.452  1.00 20.00     0.009 C 
HETATM    6  C2  UNL     1     -33.658  18.280   0.075  1.00 20.00     0.009 C 
ENDBRANCH   3   4
ENDBRANCH   2   3
BRANCH   2   7
HETATM    7  C6  UNL     1     -34.587  15.593  -2.642  1.00 20.00     0.024 C 
BRANCH   7   8
HETATM    8  C9  UNL     1     -34.558  15.027  -4.071  1.00 20.00     0.078 C 
HETATM    9  C4  UNL     1     -33.177  14.473  -4.407  1.00 20.00     0.026 C 
HETATM   10 CL10 UNL     1     -35.765  13.724  -4.274  1.00 20.00    -0.125 Cl
ENDBRANCH   7   8
ENDBRANCH   2   7
TORSDOF 4
ENDMDL
MODEL 8
REMARK VINA RESULT:      -3.7     11.224     11.970
REMARK  4 active torsions:
REMARK  status: ('A' for Active; 'I' for Inactive)
REMARK    1  A    between atoms: C5_5  and  C7_7 
REMARK    2  A    between atoms: C5_5  and  C8_8 
REMARK    3  A    between atoms: C6_6  and  C8_8 
REMARK    4  A    between atoms: C6_6  and  C9_9 
ROOT
HETATM    1  C3  UNL     1     -38.056  14.607  -4.265  1.00 20.00     0.010 C 
HETATM    2  C8  UNL     1     -36.530  14.525  -4.164  1.00 20.00    -0.017 C 
ENDROOT
BRANCH   2   3
HETATM    3  C5  UNL     1     -35.922  15.844  -3.629  1.00 20.00     0.008 C 
BRANCH   3   4
HETATM    4  C7  UNL     1     -34.836  15.706  -2.543  1.00 20.00    -0.023 C 
HETATM    5  C1  UNL     1     -35.089  16.614  -1.339  1.00 20.00     0.009 C 
HETATM    6  C2  UNL     1     -33.463  16.021  -3.146  1.00 20.00     0.009 C 
ENDBRANCH   3   4
ENDBRANCH   2   3
BRANCH   2   7
HETATM    7  C6  UNL     1     -35.883  14.210  -5.537  1.00 20.00     0.024 C 
BRANCH   7   8
HETATM    8  C9  UNL     1     -35.361  15.415  -6.335  1.00 20.00     0.078 C 
HETATM    9  C4  UNL     1     -34.005  15.105  -6.962  1.00 20.00     0.026 C 
HETATM   10 CL10 UNL     1     -36.502  15.875  -7.632  1.00 20.00    -0.125 Cl
ENDBRANCH   7   8
ENDBRANCH   2   7
TORSDOF 4
ENDMDL
MODEL 9
REMARK VINA RESULT:      -3.7      2.707      4.469
REMARK  4 active torsions:
REMARK  status: ('A' for Active; 'I' for Inactive)
REMARK    1  A    between atoms: C5_5  and  C7_7 
REMARK    2  A    between atoms: C5_5  and  C8_8 
REMARK    3  A    between atoms: C6_6  and  C8_8 
REMARK    4  A    between atoms: C6_6  and  C9_9 
ROOT
HETATM    1  C3  UNL     1     -33.786   3.739   3.630  1.00 20.00     0.010 C 
HETATM    2  C8  UNL     1     -34.100   5.111   3.028  1.00 20.00    -0.017 C 
ENDROOT
BRANCH   2   3
HETATM    3  C5  UNL     1     -32.857   5.733   2.346  1.00 20.00     0.008 C 
BRANCH   3   4
HETATM    4  C7  UNL     1     -32.710   7.265   2.456  1.00 20.00    -0.023 C 
HETATM    5  C1  UNL     1     -32.523   7.937   1.096  1.00 20.00     0.009 C 
HETATM    6  C2  UNL     1     -31.525   7.603   3.367  1.00 20.00     0.009 C 
ENDBRANCH   3   4
ENDBRANCH   2   3
BRANCH   2   7
HETATM    7  C6  UNL     1     -34.616   6.102   4.101  1.00 20.00     0.024 C 
BRANCH   7   8
HETATM    8  C9  UNL     1     -34.056   5.919   5.521  1.00 20.00     0.078 C 
HETATM    9  C4  UNL     1     -33.787   7.269   6.177  1.00 20.00     0.026 C 
HETATM   10 CL10 UNL     1     -35.192   4.997   6.550  1.00 20.00    -0.125 Cl
ENDBRANCH   7   8
ENDBRANCH   2   7
TORSDOF 4
ENDMDL
