MODEL 1
REMARK VINA RESULT:      -5.6      0.000      0.000
REMARK  0 active torsions:
REMARK  status: ('A' for Active; 'I' for Inactive)
ROOT
HETATM    1  C1  UNL     1     -33.407   6.543   3.741  1.00 20.00    -0.085 C 
HETATM    2  C2  UNL     1     -32.469   6.924   2.866  1.00 20.00     0.014 C 
HETATM    3  C3  UNL     1     -33.615   7.171   5.095  1.00 20.00     0.034 C 
HETATM    4  C4  UNL     1     -34.142   6.142   6.115  1.00 20.00     0.009 C 
HETATM    5  C5  UNL     1     -34.026   4.196   4.434  1.00 20.00     0.013 C 
HETATM    6  C6  UNL     1     -35.687   5.464   4.136  1.00 20.00     0.013 C 
HETATM    7  C7  UNL     1     -34.287   5.369   3.436  1.00 20.00     0.014 C 
HETATM    8  C8  UNL     1     -34.920   5.014   5.418  1.00 20.00    -0.013 C 
ENDROOT
TORSDOF 0
ENDMDL
MODEL 2
REMARK VINA RESULT:      -4.5      8.835      9.672
REMARK  0 active torsions:
REMARK  status: ('A' for Active; 'I' for Inactive)
ROOT
HETATM    1  C1  UNL     1     -41.472   6.332  -0.414  1.00 20.00    -0.085 C 
HETATM    2  C2  UNL     1     -40.902   5.316  -1.074  1.00 20.00     0.014 C 
HETATM    3  C3  UNL     1     -42.211   6.193   0.891  1.00 20.00     0.034 C 
HETATM    4  C4  UNL     1     -43.343   7.233   1.009  1.00 20.00     0.009 C 
HETATM    5  C5  UNL     1     -42.921   8.175  -1.349  1.00 20.00     0.013 C 
HETATM    6  C6  UNL     1     -41.516   8.836   0.081  1.00 20.00     0.013 C 
HETATM    7  C7  UNL     1     -41.470   7.708  -1.007  1.00 20.00     0.014 C 
HETATM    8  C8  UNL     1     -43.035   8.488   0.176  1.00 20.00    -0.013 C 
ENDROOT
TORSDOF 0
ENDMDL
MODEL 3
REMARK VINA RESULT:      -4.5      8.432      9.616
REMARK  0 active torsions:
REMARK  status: ('A' for Active; 'I' for Inactive)
ROOT
HETATM    1  C1  UNL     1     -41.741   8.020  -0.281  1.00 20.00    -0.085 C 
HETATM    2  C2  UNL     1     -41.490   9.183   0.331  1.00 20.00     0.014 C 
HETATM    3  C3  UNL     1     -42.651   7.862  -1.472  1.00 20.00     0.034 C 
HETATM    4  C4  UNL     1     -43.338   6.482  -1.475  1.00 20.00     0.009 C 
HETATM    5  C5  UNL     1     -42.290   5.793   0.773  1.00 20.00     0.013 C 
HETATM    6  C6  UNL     1     -40.950   5.661  -0.852  1.00 20.00     0.013 C 
HETATM    7  C7  UNL     1     -41.165   6.746   0.258  1.00 20.00     0.014 C 
HETATM    8  C8  UNL     1     -42.489   5.436  -0.733  1.00 20.00    -0.013 C 
ENDROOT
TORSDOF 0
ENDMDL
MODEL 4
REMARK VINA RESULT:      -4.4      0.912      2.148
REMARK  0 active torsions:
REMARK  status: ('A' for Active; 'I' for Inactive)
ROOT
HETATM    1  C1  UNL     1     -33.165   6.276   3.145  1.00 20.00    -0.085 C 
HETATM    2  C2  UNL     1     -32.705   7.218   2.313  1.00 20.00     0.014 C 
HETATM    3  C3  UNL     1     -32.946   4.797   2.962  1.00 20.00     0.034 C 
HETATM    4  C4  UNL     1     -34.127   3.981   3.524  1.00 20.00     0.009 C 
HETATM    5  C5  UNL     1     -35.470   6.085   4.155  1.00 20.00     0.013 C 
HETATM    6  C6  UNL     1     -33.907   5.651   5.506  1.00 20.00     0.013 C 
HETATM    7  C7  UNL     1     -34.026   6.658   4.310  1.00 20.00     0.014 C 
HETATM    8  C8  UNL     1     -34.844   4.743   4.651  1.00 20.00    -0.013 C 
ENDROOT
TORSDOF 0
ENDMDL
MODEL 5
REMARK VINA RESULT:      -4.2      8.812      9.876
REMARK  0 active torsions:
REMARK  status: ('A' for Active; 'I' for Inactive)
ROOT
HETATM    1  C1  UNL     1     -42.902   6.199   0.708  1.00 20.00    -0.085 C 
HETATM    2  C2  UNL     1     -43.417   5.633   1.806  1.00 20.00     0.014 C 
HETATM    3  C3  UNL     1     -42.225   5.441  -0.405  1.00 20.00     0.034 C 
HETATM    4  C4  UNL     1     -41.123   6.289  -1.071  1.00 20.00     0.009 C 
HETATM    5  C5  UNL     1     -41.450   8.258   0.555  1.00 20.00     0.013 C 
HETATM    6  C6  UNL     1     -42.937   8.149  -0.939  1.00 20.00     0.013 C 
HETATM    7  C7  UNL     1     -42.905   7.690   0.559  1.00 20.00     0.014 C 
HETATM    8  C8  UNL     1     -41.418   7.792  -0.935  1.00 20.00    -0.013 C 
ENDROOT
TORSDOF 0
ENDMDL
MODEL 6
REMARK VINA RESULT:      -4.1     16.063     17.250
REMARK  0 active torsions:
REMARK  status: ('A' for Active; 'I' for Inactive)
ROOT
HETATM    1  C1  UNL     1     -24.861  18.218  11.267  1.00 20.00    -0.085 C 
HETATM    2  C2  UNL     1     -25.996  18.884  11.507  1.00 20.00     0.014 C 
HETATM    3  C3  UNL     1     -23.890  17.777  12.332  1.00 20.00     0.034 C 
HETATM    4  C4  UNL     1     -22.443  17.765  11.801  1.00 20.00     0.009 C 
HETATM    5  C5  UNL     1     -23.124  18.690   9.498  1.00 20.00     0.013 C 
HETATM    6  C6  UNL     1     -23.561  16.640   9.740  1.00 20.00     0.013 C 
HETATM    7  C7  UNL     1     -24.441  17.931   9.858  1.00 20.00     0.014 C 
HETATM    8  C8  UNL     1     -22.409  17.544  10.280  1.00 20.00    -0.013 C 
ENDROOT
TORSDOF 0
ENDMDL
MODEL 7
REMARK VINA RESULT:      -4.1     15.891     16.875
REMARK  0 active torsions:
REMARK  status: ('A' for Active; 'I' for Inactive)
ROOT
HETATM    1  C1  UNL     1     -25.413  18.620  11.283  1.00 20.00    -0.085 C 
HETATM    2  C2  UNL     1     -26.561  19.262  11.530  1.00 20.00     0.014 C 
HETATM    3  C3  UNL     1     -24.688  18.646   9.963  1.00 20.00     0.034 C 
HETATM    4  C4  UNL     1     -23.930  17.327   9.713  1.00 20.00     0.009 C 
HETATM    5  C5  UNL     1     -24.801  16.245  11.880  1.00 20.00     0.013 C 
HETATM    6  C6  UNL     1     -23.246  17.634  12.203  1.00 20.00     0.013 C 
HETATM    7  C7  UNL     1     -24.804  17.740  12.332  1.00 20.00     0.014 C 
HETATM    8  C8  UNL     1     -23.550  16.644  11.036  1.00 20.00    -0.013 C 
ENDROOT
TORSDOF 0
ENDMDL
MODEL 8
REMARK VINA RESULT:      -4.1     15.744     16.944
REMARK  0 active torsions:
REMARK  status: ('A' for Active; 'I' for Inactive)
ROOT
HETATM    1  C1  UNL     1     -22.831  17.371   9.829  1.00 20.00    -0.085 C 
HETATM    2  C2  UNL     1     -22.302  16.977   8.665  1.00 20.00     0.014 C 
HETATM    3  C3  UNL     1     -22.047  17.989  10.957  1.00 20.00     0.034 C 
HETATM    4  C4  UNL     1     -22.659  17.634  12.326  1.00 20.00     0.009 C 
HETATM    5  C5  UNL     1     -24.472  16.128  11.291  1.00 20.00     0.013 C 
HETATM    6  C6  UNL     1     -24.886  18.189  11.103  1.00 20.00     0.013 C 
HETATM    7  C7  UNL     1     -24.284  17.135  10.112  1.00 20.00     0.014 C 
HETATM    8  C8  UNL     1     -24.166  17.354  12.207  1.00 20.00    -0.013 C 
ENDROOT
TORSDOF 0
ENDMDL
MODEL 9
REMARK VINA RESULT:      -4.0      0.724      2.430
REMARK  0 active torsions:
REMARK  status: ('A' for Active; 'I' for Inactive)
ROOT
HETATM    1  C1  UNL     1     -33.822   6.572   5.377  1.00 20.00    -0.085 C 
HETATM    2  C2  UNL     1     -33.976   7.456   6.370  1.00 20.00     0.014 C 
HETATM    3  C3  UNL     1     -32.910   6.769   4.194  1.00 20.00     0.034 C 
HETATM    4  C4  UNL     1     -33.465   6.074   2.935  1.00 20.00     0.009 C 
HETATM    5  C5  UNL     1     -35.614   5.307   4.128  1.00 20.00     0.013 C 
HETATM    6  C6  UNL     1     -33.924   4.139   4.612  1.00 20.00     0.013 C 
HETATM    7  C7  UNL     1     -34.643   5.319   5.351  1.00 20.00     0.014 C 
HETATM    8  C8  UNL     1     -34.357   4.878   3.307  1.00 20.00    -0.013 C 
ENDROOT
TORSDOF 0
ENDMDL
