MODEL 1
REMARK VINA RESULT:      -5.1      0.000      0.000
REMARK  2 active torsions:
REMARK  status: ('A' for Active; 'I' for Inactive)
REMARK    1  A    between atoms: C5_5  and  C6_6 
REMARK    2  A    between atoms: C6_6  and  C7_7 
ROOT
HETATM    1  C1  UNL     1     -32.826   8.825   0.493  1.00 20.00     0.012 C 
HETATM    2  C2  UNL     1     -32.611   8.068   1.399  1.00 20.00    -0.117 C 
HETATM    3  C5  UNL     1     -32.341   7.138   2.509  1.00 20.00     0.098 C 
ENDROOT
BRANCH   3   4
HETATM    4  C6  UNL     1     -33.562   6.249   2.830  1.00 20.00     0.006 C 
HETATM    5  C3  UNL     1     -33.192   4.762   2.702  1.00 20.00     0.012 C 
BRANCH   4   6
HETATM    6  C7  UNL     1     -34.165   6.516   4.229  1.00 20.00     0.058 C 
HETATM    7  C4  UNL     1     -33.227   7.150   5.246  1.00 20.00     0.022 C 
HETATM    8 BR8  UNL     1     -34.854   4.833   4.985  1.00 20.00    -0.091 Br
ENDBRANCH   4   6
ENDBRANCH   3   4
TORSDOF 2
ENDMDL
MODEL 2
REMARK VINA RESULT:      -4.9      1.260      1.513
REMARK  2 active torsions:
REMARK  status: ('A' for Active; 'I' for Inactive)
REMARK    1  A    between atoms: C5_5  and  C6_6 
REMARK    2  A    between atoms: C6_6  and  C7_7 
ROOT
HETATM    1  C1  UNL     1     -32.612   8.418   0.640  1.00 20.00     0.012 C 
HETATM    2  C2  UNL     1     -32.563   7.774   1.652  1.00 20.00    -0.117 C 
HETATM    3  C5  UNL     1     -32.494   6.985   2.894  1.00 20.00     0.098 C 
ENDROOT
BRANCH   3   4
HETATM    4  C6  UNL     1     -33.577   5.886   2.942  1.00 20.00     0.006 C 
HETATM    5  C3  UNL     1     -33.090   4.620   2.219  1.00 20.00     0.012 C 
BRANCH   4   6
HETATM    6  C7  UNL     1     -34.024   5.526   4.377  1.00 20.00     0.058 C 
HETATM    7  C4  UNL     1     -35.486   5.136   4.539  1.00 20.00     0.022 C 
HETATM    8 BR8  UNL     1     -33.647   7.033   5.587  1.00 20.00    -0.091 Br
ENDBRANCH   4   6
ENDBRANCH   3   4
TORSDOF 2
ENDMDL
MODEL 3
REMARK VINA RESULT:      -3.8     15.794     16.255
REMARK  2 active torsions:
REMARK  status: ('A' for Active; 'I' for Inactive)
REMARK    1  A    between atoms: C5_5  and  C6_6 
REMARK    2  A    between atoms: C6_6  and  C7_7 
ROOT
HETATM    1  C1  UNL     1     -21.639  17.376   7.781  1.00 20.00     0.012 C 
HETATM    2  C2  UNL     1     -22.382  17.116   8.687  1.00 20.00    -0.117 C 
HETATM    3  C5  UNL     1     -23.296  16.789   9.795  1.00 20.00     0.098 C 
ENDROOT
BRANCH   3   4
HETATM    4  C6  UNL     1     -23.862  18.056  10.472  1.00 20.00     0.006 C 
HETATM    5  C3  UNL     1     -24.751  18.838   9.490  1.00 20.00     0.012 C 
BRANCH   4   6
HETATM    6  C7  UNL     1     -24.653  17.761  11.766  1.00 20.00     0.058 C 
HETATM    7  C4  UNL     1     -25.066  16.312  11.975  1.00 20.00     0.022 C 
HETATM    8 BR8  UNL     1     -26.271  18.881  11.825  1.00 20.00    -0.091 Br
ENDBRANCH   4   6
ENDBRANCH   3   4
TORSDOF 2
ENDMDL
MODEL 4
REMARK VINA RESULT:      -3.8     15.347     16.023
REMARK  2 active torsions:
REMARK  status: ('A' for Active; 'I' for Inactive)
REMARK    1  A    between atoms: C5_5  and  C6_6 
REMARK    2  A    between atoms: C6_6  and  C7_7 
ROOT
HETATM    1  C1  UNL     1     -25.604  19.253   6.615  1.00 20.00     0.012 C 
HETATM    2  C2  UNL     1     -25.415  19.231   7.801  1.00 20.00    -0.117 C 
HETATM    3  C5  UNL     1     -25.183  19.213   9.255  1.00 20.00     0.098 C 
ENDROOT
BRANCH   3   4
HETATM    4  C6  UNL     1     -24.215  18.084   9.672  1.00 20.00     0.006 C 
HETATM    5  C3  UNL     1     -22.758  18.502   9.412  1.00 20.00     0.012 C 
BRANCH   4   6
HETATM    6  C7  UNL     1     -24.376  17.651  11.147  1.00 20.00     0.058 C 
HETATM    7  C4  UNL     1     -24.519  16.155  11.387  1.00 20.00     0.022 C 
HETATM    8 BR8  UNL     1     -25.934  18.557  11.939  1.00 20.00    -0.091 Br
ENDBRANCH   4   6
ENDBRANCH   3   4
TORSDOF 2
ENDMDL
MODEL 5
REMARK VINA RESULT:      -3.7     16.003     16.864
REMARK  2 active torsions:
REMARK  status: ('A' for Active; 'I' for Inactive)
REMARK    1  A    between atoms: C5_5  and  C6_6 
REMARK    2  A    between atoms: C6_6  and  C7_7 
ROOT
HETATM    1  C1  UNL     1     -27.841  17.874  12.322  1.00 20.00     0.012 C 
HETATM    2  C2  UNL     1     -26.672  18.121  12.205  1.00 20.00    -0.117 C 
HETATM    3  C5  UNL     1     -25.240  18.431  12.065  1.00 20.00     0.098 C 
ENDROOT
BRANCH   3   4
HETATM    4  C6  UNL     1     -24.612  17.728  10.842  1.00 20.00     0.006 C 
HETATM    5  C3  UNL     1     -24.705  18.629   9.599  1.00 20.00     0.012 C 
BRANCH   4   6
HETATM    6  C7  UNL     1     -23.143  17.300  11.065  1.00 20.00     0.058 C 
HETATM    7  C4  UNL     1     -22.484  17.828  12.331  1.00 20.00     0.022 C 
HETATM    8 BR8  UNL     1     -22.051  17.851   9.523  1.00 20.00    -0.091 Br
ENDBRANCH   4   6
ENDBRANCH   3   4
TORSDOF 2
ENDMDL
MODEL 6
REMARK VINA RESULT:      -3.7      2.402      3.842
REMARK  2 active torsions:
REMARK  status: ('A' for Active; 'I' for Inactive)
REMARK    1  A    between atoms: C5_5  and  C6_6 
REMARK    2  A    between atoms: C6_6  and  C7_7 
ROOT
HETATM    1  C1  UNL     1     -34.838   5.276   6.183  1.00 20.00     0.012 C 
HETATM    2  C2  UNL     1     -34.655   5.680   5.068  1.00 20.00    -0.117 C 
HETATM    3  C5  UNL     1     -34.437   6.176   3.698  1.00 20.00     0.098 C 
ENDROOT
BRANCH   3   4
HETATM    4  C6  UNL     1     -33.065   5.743   3.137  1.00 20.00     0.006 C 
HETATM    5  C3  UNL     1     -33.249   4.864   1.889  1.00 20.00     0.012 C 
BRANCH   4   6
HETATM    6  C7  UNL     1     -32.135   6.932   2.802  1.00 20.00     0.058 C 
HETATM    7  C4  UNL     1     -31.857   7.898   3.944  1.00 20.00     0.022 C 
HETATM    8 BR8  UNL     1     -32.882   7.954   1.294  1.00 20.00    -0.091 Br
ENDBRANCH   4   6
ENDBRANCH   3   4
TORSDOF 2
ENDMDL
MODEL 7
REMARK VINA RESULT:      -3.7     10.962     12.070
REMARK  2 active torsions:
REMARK  status: ('A' for Active; 'I' for Inactive)
REMARK    1  A    between atoms: C5_5  and  C6_6 
REMARK    2  A    between atoms: C6_6  and  C7_7 
ROOT
HETATM    1  C1  UNL     1     -35.064  16.538  -1.552  1.00 20.00     0.012 C 
HETATM    2  C2  UNL     1     -34.254  16.209  -2.375  1.00 20.00    -0.117 C 
HETATM    3  C5  UNL     1     -33.256  15.812  -3.382  1.00 20.00     0.098 C 
ENDROOT
BRANCH   3   4
HETATM    4  C6  UNL     1     -33.880  14.969  -4.515  1.00 20.00     0.006 C 
HETATM    5  C3  UNL     1     -34.796  13.880  -3.931  1.00 20.00     0.012 C 
BRANCH   4   6
HETATM    6  C7  UNL     1     -34.666  15.810  -5.546  1.00 20.00     0.058 C 
HETATM    7  C4  UNL     1     -36.181  15.672  -5.499  1.00 20.00     0.022 C 
HETATM    8 BR8  UNL     1     -34.060  15.364  -7.366  1.00 20.00    -0.091 Br
ENDBRANCH   4   6
ENDBRANCH   3   4
TORSDOF 2
ENDMDL
MODEL 8
REMARK VINA RESULT:      -3.6     10.845     11.622
REMARK  2 active torsions:
REMARK  status: ('A' for Active; 'I' for Inactive)
REMARK    1  A    between atoms: C5_5  and  C6_6 
REMARK    2  A    between atoms: C6_6  and  C7_7 
ROOT
HETATM    1  C1  UNL     1     -32.453  18.081  -1.266  1.00 20.00     0.012 C 
HETATM    2  C2  UNL     1     -32.798  17.448  -2.225  1.00 20.00    -0.117 C 
HETATM    3  C5  UNL     1     -33.221  16.677  -3.407  1.00 20.00     0.098 C 
ENDROOT
BRANCH   3   4
HETATM    4  C6  UNL     1     -34.115  15.478  -3.026  1.00 20.00     0.006 C 
HETATM    5  C3  UNL     1     -35.476  15.967  -2.503  1.00 20.00     0.012 C 
BRANCH   4   6
HETATM    6  C7  UNL     1     -34.333  14.480  -4.186  1.00 20.00     0.058 C 
HETATM    7  C4  UNL     1     -33.815  14.922  -5.547  1.00 20.00     0.022 C 
HETATM    8 BR8  UNL     1     -36.251  14.070  -4.357  1.00 20.00    -0.091 Br
ENDBRANCH   4   6
ENDBRANCH   3   4
TORSDOF 2
ENDMDL
MODEL 9
REMARK VINA RESULT:      -3.6      1.795      4.167
REMARK  2 active torsions:
REMARK  status: ('A' for Active; 'I' for Inactive)
REMARK    1  A    between atoms: C5_5  and  C6_6 
REMARK    2  A    between atoms: C6_6  and  C7_7 
ROOT
HETATM    1  C1  UNL     1     -34.851   4.706   6.457  1.00 20.00     0.012 C 
HETATM    2  C2  UNL     1     -34.892   5.240   5.383  1.00 20.00    -0.117 C 
HETATM    3  C5  UNL     1     -34.944   5.889   4.062  1.00 20.00     0.098 C 
ENDROOT
BRANCH   3   4
HETATM    4  C6  UNL     1     -33.848   6.965   3.901  1.00 20.00     0.006 C 
HETATM    5  C3  UNL     1     -33.230   7.309   5.266  1.00 20.00     0.012 C 
BRANCH   4   6
HETATM    6  C7  UNL     1     -32.731   6.562   2.912  1.00 20.00     0.058 C 
HETATM    7  C4  UNL     1     -32.480   7.530   1.764  1.00 20.00     0.022 C 
HETATM    8 BR8  UNL     1     -33.126   4.789   2.151  1.00 20.00    -0.091 Br
ENDBRANCH   4   6
ENDBRANCH   3   4
TORSDOF 2
ENDMDL
