MODEL 1
REMARK VINA RESULT:      -4.5      0.000      0.000
REMARK  3 active torsions:
REMARK  status: ('A' for Active; 'I' for Inactive)
REMARK    1  A    between atoms: C3_3  and  N7_7 
REMARK    2  A    between atoms: C5_5  and  C6_6 
REMARK    3  A    between atoms: C5_5  and  N7_7 
ROOT
HETATM    1  N7  UNL     1     -32.606   5.952   2.398  1.00 20.00     0.093 N 
HETATM    2  H20 UNL     1     -32.500   5.566   1.461  1.00 20.00     0.316 HD
ENDROOT
BRANCH   1   3
HETATM    3  C3  UNL     1     -33.974   5.745   2.849  1.00 20.00     0.223 C 
HETATM    4  C1  UNL     1     -34.042   4.459   3.702  1.00 20.00     0.055 C 
HETATM    5  C4  UNL     1     -34.932   5.267   4.683  1.00 20.00     0.086 C 
HETATM    6  C2  UNL     1     -34.205   6.533   4.158  1.00 20.00     0.055 C 
HETATM    7 CL10 UNL     1     -34.855   4.891   6.424  1.00 20.00    -0.125 Cl
ENDBRANCH   1   3
BRANCH   1   8
HETATM    8  C5  UNL     1     -32.274   7.369   2.375  1.00 20.00     0.340 C 
BRANCH   8   9
HETATM    9  C6  UNL     1     -32.593   7.968   1.020  1.00 20.00     0.381 C 
HETATM   10  F8  UNL     1     -31.528   7.832   0.192  1.00 20.00    -0.213 F 
HETATM   11  F9  UNL     1     -32.801   9.302   1.163  1.00 20.00    -0.213 F 
ENDBRANCH   8   9
ENDBRANCH   1   8
TORSDOF 3
ENDMDL
MODEL 2
REMARK VINA RESULT:      -4.4      3.830      4.765
REMARK  3 active torsions:
REMARK  status: ('A' for Active; 'I' for Inactive)
REMARK    1  A    between atoms: C3_3  and  N7_7 
REMARK    2  A    between atoms: C5_5  and  C6_6 
REMARK    3  A    between atoms: C5_5  and  N7_7 
ROOT
HETATM    1  N7  UNL     1     -34.368   4.775   3.737  1.00 20.00     0.093 N 
HETATM    2  H20 UNL     1     -34.187   3.951   4.307  1.00 20.00     0.316 HD
ENDROOT
BRANCH   1   3
HETATM    3  C3  UNL     1     -33.102   5.385   3.358  1.00 20.00     0.223 C 
HETATM    4  C1  UNL     1     -33.092   5.637   1.835  1.00 20.00     0.055 C 
HETATM    5  C4  UNL     1     -32.484   7.026   2.161  1.00 20.00     0.086 C 
HETATM    6  C2  UNL     1     -33.201   6.917   3.533  1.00 20.00     0.055 C 
HETATM    7 CL10 UNL     1     -32.868   8.405   1.098  1.00 20.00    -0.125 Cl
ENDBRANCH   1   3
BRANCH   1   8
HETATM    8  C5  UNL     1     -35.191   5.710   4.492  1.00 20.00     0.340 C 
BRANCH   8   9
HETATM    9  C6  UNL     1     -34.992   5.510   5.981  1.00 20.00     0.381 C 
HETATM   10  F8  UNL     1     -34.418   6.613   6.523  1.00 20.00    -0.213 F 
HETATM   11  F9  UNL     1     -34.122   4.487   6.179  1.00 20.00    -0.213 F 
ENDBRANCH   8   9
ENDBRANCH   1   8
TORSDOF 3
ENDMDL
MODEL 3
REMARK VINA RESULT:      -4.1      3.880      4.757
REMARK  3 active torsions:
REMARK  status: ('A' for Active; 'I' for Inactive)
REMARK    1  A    between atoms: C3_3  and  N7_7 
REMARK    2  A    between atoms: C5_5  and  C6_6 
REMARK    3  A    between atoms: C5_5  and  N7_7 
ROOT
HETATM    1  N7  UNL     1     -34.077   5.040   3.533  1.00 20.00     0.093 N 
HETATM    2  H20 UNL     1     -33.809   4.232   4.093  1.00 20.00     0.316 HD
ENDROOT
BRANCH   1   3
HETATM    3  C3  UNL     1     -32.891   5.604   2.906  1.00 20.00     0.223 C 
HETATM    4  C1  UNL     1     -33.236   6.047   1.467  1.00 20.00     0.055 C 
HETATM    5  C4  UNL     1     -32.430   7.338   1.770  1.00 20.00     0.086 C 
HETATM    6  C2  UNL     1     -32.790   7.104   3.261  1.00 20.00     0.055 C 
HETATM    7 CL10 UNL     1     -32.928   8.865   0.995  1.00 20.00    -0.125 Cl
ENDBRANCH   1   3
BRANCH   1   8
HETATM    8  C5  UNL     1     -34.731   6.021   4.388  1.00 20.00     0.340 C 
BRANCH   8   9
HETATM    9  C6  UNL     1     -34.394   5.766   5.843  1.00 20.00     0.381 C 
HETATM   10  F8  UNL     1     -35.344   4.979   6.407  1.00 20.00    -0.213 F 
HETATM   11  F9  UNL     1     -34.422   6.945   6.518  1.00 20.00    -0.213 F 
ENDBRANCH   8   9
ENDBRANCH   1   8
TORSDOF 3
ENDMDL
MODEL 4
REMARK VINA RESULT:      -4.0      9.975     10.364
REMARK  3 active torsions:
REMARK  status: ('A' for Active; 'I' for Inactive)
REMARK    1  A    between atoms: C3_3  and  N7_7 
REMARK    2  A    between atoms: C5_5  and  C6_6 
REMARK    3  A    between atoms: C5_5  and  N7_7 
ROOT
HETATM    1  N7  UNL     1     -43.095   4.652  -0.174  1.00 20.00     0.093 N 
HETATM    2  H20 UNL     1     -44.054   4.847   0.111  1.00 20.00     0.316 HD
ENDROOT
BRANCH   1   3
HETATM    3  C3  UNL     1     -42.182   5.437   0.643  1.00 20.00     0.223 C 
HETATM    4  C1  UNL     1     -41.272   6.282  -0.275  1.00 20.00     0.055 C 
HETATM    5  C4  UNL     1     -41.526   7.455   0.709  1.00 20.00     0.086 C 
HETATM    6  C2  UNL     1     -42.869   6.760   1.050  1.00 20.00     0.055 C 
HETATM    7 CL10 UNL     1     -41.557   9.120   0.072  1.00 20.00    -0.125 Cl
ENDBRANCH   1   3
BRANCH   1   8
HETATM    8  C5  UNL     1     -42.939   4.975  -1.586  1.00 20.00     0.340 C 
BRANCH   8   9
HETATM    9  C6  UNL     1     -42.792   3.711  -2.407  1.00 20.00     0.381 C 
HETATM   10  F8  UNL     1     -41.483   3.490  -2.687  1.00 20.00    -0.213 F 
HETATM   11  F9  UNL     1     -43.416   3.883  -3.601  1.00 20.00    -0.213 F 
ENDBRANCH   8   9
ENDBRANCH   1   8
TORSDOF 3
ENDMDL
MODEL 5
REMARK VINA RESULT:      -3.8     11.238     11.713
REMARK  3 active torsions:
REMARK  status: ('A' for Active; 'I' for Inactive)
REMARK    1  A    between atoms: C3_3  and  N7_7 
REMARK    2  A    between atoms: C5_5  and  C6_6 
REMARK    3  A    between atoms: C5_5  and  N7_7 
ROOT
HETATM    1  N7  UNL     1     -32.907  15.609  -3.813  1.00 20.00     0.093 N 
HETATM    2  H20 UNL     1     -32.502  15.235  -2.956  1.00 20.00     0.316 HD
ENDROOT
BRANCH   1   3
HETATM    3  C3  UNL     1     -34.023  16.480  -3.476  1.00 20.00     0.223 C 
HETATM    4  C1  UNL     1     -34.985  15.733  -2.526  1.00 20.00     0.055 C 
HETATM    5  C4  UNL     1     -35.049  17.049  -1.706  1.00 20.00     0.086 C 
HETATM    6  C2  UNL     1     -33.637  17.361  -2.267  1.00 20.00     0.055 C 
HETATM    7 CL10 UNL     1     -35.270  16.952   0.060  1.00 20.00    -0.125 Cl
ENDBRANCH   1   3
BRANCH   1   8
HETATM    8  C5  UNL     1     -33.343  14.507  -4.659  1.00 20.00     0.340 C 
BRANCH   8   9
HETATM    9  C6  UNL     1     -34.046  15.030  -5.894  1.00 20.00     0.381 C 
HETATM   10  F8  UNL     1     -35.243  14.410  -6.043  1.00 20.00    -0.213 F 
HETATM   11  F9  UNL     1     -33.310  14.713  -6.991  1.00 20.00    -0.213 F 
ENDBRANCH   8   9
ENDBRANCH   1   8
TORSDOF 3
ENDMDL
MODEL 6
REMARK VINA RESULT:      -3.8     11.269     11.875
REMARK  3 active torsions:
REMARK  status: ('A' for Active; 'I' for Inactive)
REMARK    1  A    between atoms: C3_3  and  N7_7 
REMARK    2  A    between atoms: C5_5  and  C6_6 
REMARK    3  A    between atoms: C5_5  and  N7_7 
ROOT
HETATM    1  N7  UNL     1     -35.961  15.664  -2.913  1.00 20.00     0.093 N 
HETATM    2  H20 UNL     1     -36.462  16.548  -2.827  1.00 20.00     0.316 HD
ENDROOT
BRANCH   1   3
HETATM    3  C3  UNL     1     -34.666  15.782  -2.260  1.00 20.00     0.223 C 
HETATM    4  C1  UNL     1     -33.612  16.239  -3.292  1.00 20.00     0.055 C 
HETATM    5  C4  UNL     1     -33.099  17.213  -2.199  1.00 20.00     0.086 C 
HETATM    6  C2  UNL     1     -34.539  17.184  -1.625  1.00 20.00     0.055 C 
HETATM    7 CL10 UNL     1     -32.403  18.777  -2.698  1.00 20.00    -0.125 Cl
ENDBRANCH   1   3
BRANCH   1   8
HETATM    8  C5  UNL     1     -35.805  15.336  -4.323  1.00 20.00     0.340 C 
BRANCH   8   9
HETATM    9  C6  UNL     1     -36.187  13.893  -4.579  1.00 20.00     0.381 C 
HETATM   10  F8  UNL     1     -35.311  13.065  -3.958  1.00 20.00    -0.213 F 
HETATM   11  F9  UNL     1     -36.083  13.635  -5.908  1.00 20.00    -0.213 F 
ENDBRANCH   8   9
ENDBRANCH   1   8
TORSDOF 3
ENDMDL
MODEL 7
REMARK VINA RESULT:      -3.8     11.026     11.716
REMARK  3 active torsions:
REMARK  status: ('A' for Active; 'I' for Inactive)
REMARK    1  A    between atoms: C3_3  and  N7_7 
REMARK    2  A    between atoms: C5_5  and  C6_6 
REMARK    3  A    between atoms: C5_5  and  N7_7 
ROOT
HETATM    1  N7  UNL     1     -35.152  15.637  -2.344  1.00 20.00     0.093 N 
HETATM    2  H20 UNL     1     -35.720  15.607  -1.498  1.00 20.00     0.316 HD
ENDROOT
BRANCH   1   3
HETATM    3  C3  UNL     1     -34.589  16.970  -2.498  1.00 20.00     0.223 C 
HETATM    4  C1  UNL     1     -34.248  17.544  -1.105  1.00 20.00     0.055 C 
HETATM    5  C4  UNL     1     -32.915  18.029  -1.732  1.00 20.00     0.086 C 
HETATM    6  C2  UNL     1     -33.067  16.857  -2.737  1.00 20.00     0.055 C 
HETATM    7 CL10 UNL     1     -31.457  18.100  -0.708  1.00 20.00    -0.125 Cl
ENDBRANCH   1   3
BRANCH   1   8
HETATM    8  C5  UNL     1     -35.978  15.285  -3.490  1.00 20.00     0.340 C 
BRANCH   8   9
HETATM    9  C6  UNL     1     -35.321  14.190  -4.304  1.00 20.00     0.381 C 
HETATM   10  F8  UNL     1     -36.100  13.080  -4.303  1.00 20.00    -0.213 F 
HETATM   11  F9  UNL     1     -34.150  13.839  -3.712  1.00 20.00    -0.213 F 
ENDBRANCH   8   9
ENDBRANCH   1   8
TORSDOF 3
ENDMDL
MODEL 8
REMARK VINA RESULT:      -3.8     10.863     11.708
REMARK  3 active torsions:
REMARK  status: ('A' for Active; 'I' for Inactive)
REMARK    1  A    between atoms: C3_3  and  N7_7 
REMARK    2  A    between atoms: C5_5  and  C6_6 
REMARK    3  A    between atoms: C5_5  and  N7_7 
ROOT
HETATM    1  N7  UNL     1     -32.891  15.683  -3.970  1.00 20.00     0.093 N 
HETATM    2  H20 UNL     1     -31.977  15.817  -4.400  1.00 20.00     0.316 HD
ENDROOT
BRANCH   1   3
HETATM    3  C3  UNL     1     -33.709  14.844  -4.834  1.00 20.00     0.223 C 
HETATM    4  C1  UNL     1     -34.624  13.954  -3.964  1.00 20.00     0.055 C 
HETATM    5  C4  UNL     1     -35.760  14.307  -4.961  1.00 20.00     0.086 C 
HETATM    6  C2  UNL     1     -34.981  15.619  -5.242  1.00 20.00     0.055 C 
HETATM    7 CL10 UNL     1     -37.433  14.413  -4.355  1.00 20.00    -0.125 Cl
ENDBRANCH   1   3
BRANCH   1   8
HETATM    8  C5  UNL     1     -33.518  16.980  -3.759  1.00 20.00     0.340 C 
BRANCH   8   9
HETATM    9  C6  UNL     1     -33.598  17.298  -2.280  1.00 20.00     0.381 C 
HETATM   10  F8  UNL     1     -32.354  17.300  -1.739  1.00 20.00    -0.213 F 
HETATM   11  F9  UNL     1     -34.288  16.311  -1.651  1.00 20.00    -0.213 F 
ENDBRANCH   8   9
ENDBRANCH   1   8
TORSDOF 3
ENDMDL
MODEL 9
REMARK VINA RESULT:      -3.8      9.208      9.602
REMARK  3 active torsions:
REMARK  status: ('A' for Active; 'I' for Inactive)
REMARK    1  A    between atoms: C3_3  and  N7_7 
REMARK    2  A    between atoms: C5_5  and  C6_6 
REMARK    3  A    between atoms: C5_5  and  N7_7 
ROOT
HETATM    1  N7  UNL     1     -41.154   6.947   0.798  1.00 20.00     0.093 N 
HETATM    2  H20 UNL     1     -40.400   7.282   0.200  1.00 20.00     0.316 HD
ENDROOT
BRANCH   1   3
HETATM    3  C3  UNL     1     -41.516   5.594   0.400  1.00 20.00     0.223 C 
HETATM    4  C1  UNL     1     -42.999   5.568  -0.030  1.00 20.00     0.055 C 
HETATM    5  C4  UNL     1     -42.540   4.692  -1.226  1.00 20.00     0.086 C 
HETATM    6  C2  UNL     1     -41.160   5.387  -1.089  1.00 20.00     0.055 C 
HETATM    7 CL10 UNL     1     -43.417   4.822  -2.773  1.00 20.00    -0.125 Cl
ENDBRANCH   1   3
BRANCH   1   8
HETATM    8  C5  UNL     1     -42.294   7.846   0.683  1.00 20.00     0.340 C 
BRANCH   8   9
HETATM    9  C6  UNL     1     -41.918   9.082  -0.109  1.00 20.00     0.381 C 
HETATM   10  F8  UNL     1     -41.198   8.729  -1.203  1.00 20.00    -0.213 F 
HETATM   11  F9  UNL     1     -41.108   9.864   0.650  1.00 20.00    -0.213 F 
ENDBRANCH   8   9
ENDBRANCH   1   8
TORSDOF 3
ENDMDL
