MODEL 1
REMARK VINA RESULT:      -4.9      0.000      0.000
REMARK  4 active torsions:
REMARK  status: ('A' for Active; 'I' for Inactive)
REMARK    1  A    between atoms: C2_2  and  C8_8 
REMARK    2  A    between atoms: C5_5  and  C9_9 
REMARK    3  A    between atoms: C8_8  and  N10_10 
REMARK    4  A    between atoms: C9_9  and  N10_10 
ROOT
HETATM    1  C1  UNL     1     -32.722   8.193   1.188  1.00 20.00    -0.109 C 
HETATM    2  C2  UNL     1     -32.622   7.211   1.873  1.00 20.00    -0.077 C 
HETATM    3  C7  UNL     1     -32.844   9.387   0.354  1.00 20.00     0.112 C 
ENDROOT
BRANCH   2   4
HETATM    4  C8  UNL     1     -32.496   6.011   2.704  1.00 20.00     0.362 C 
BRANCH   4   5
HETATM    5  N10 UNL     1     -33.665   5.139   2.546  1.00 20.00     0.094 N 
HETATM    6  H25 UNL     1     -34.500   5.737   2.478  1.00 20.00     0.317 HD
BRANCH   5   7
HETATM    7  C9  UNL     1     -33.793   4.215   3.628  1.00 20.00     0.275 C 
BRANCH   7   8
HETATM    8  C5  UNL     1     -34.877   4.677   4.590  1.00 20.00     0.018 C 
HETATM    9  C3  UNL     1     -34.442   4.859   6.062  1.00 20.00     0.041 C 
HETATM   10  C6  UNL     1     -34.535   6.389   5.900  1.00 20.00     0.161 C 
HETATM   11  C4  UNL     1     -35.230   6.181   4.539  1.00 20.00     0.041 C 
HETATM   12  O11 UNL     1     -33.279   7.011   5.790  1.00 20.00    -0.235 OA
ENDBRANCH   7   8
ENDBRANCH   5   7
ENDBRANCH   4   5
ENDBRANCH   2   4
TORSDOF 4
ENDMDL
MODEL 2
REMARK VINA RESULT:      -4.5      1.545      2.161
REMARK  4 active torsions:
REMARK  status: ('A' for Active; 'I' for Inactive)
REMARK    1  A    between atoms: C2_2  and  C8_8 
REMARK    2  A    between atoms: C5_5  and  C9_9 
REMARK    3  A    between atoms: C8_8  and  N10_10 
REMARK    4  A    between atoms: C9_9  and  N10_10 
ROOT
HETATM    1  C1  UNL     1     -32.892   8.443   0.673  1.00 20.00    -0.109 C 
HETATM    2  C2  UNL     1     -32.421   7.956   1.665  1.00 20.00    -0.077 C 
HETATM    3  C7  UNL     1     -33.467   9.035  -0.534  1.00 20.00     0.112 C 
ENDROOT
BRANCH   2   4
HETATM    4  C8  UNL     1     -31.849   7.356   2.873  1.00 20.00     0.362 C 
BRANCH   4   5
HETATM    5  N10 UNL     1     -32.850   6.557   3.587  1.00 20.00     0.094 N 
HETATM    6  H25 UNL     1     -33.684   6.486   2.988  1.00 20.00     0.317 HD
BRANCH   5   7
HETATM    7  C9  UNL     1     -33.185   7.128   4.852  1.00 20.00     0.275 C 
BRANCH   7   8
HETATM    8  C5  UNL     1     -34.506   6.563   5.352  1.00 20.00     0.018 C 
HETATM    9  C3  UNL     1     -35.428   5.944   4.276  1.00 20.00     0.041 C 
HETATM   10  C6  UNL     1     -35.113   4.535   4.818  1.00 20.00     0.161 C 
HETATM   11  C4  UNL     1     -34.432   5.180   6.041  1.00 20.00     0.041 C 
HETATM   12  O11 UNL     1     -34.219   3.817   4.003  1.00 20.00    -0.235 OA
ENDBRANCH   7   8
ENDBRANCH   5   7
ENDBRANCH   4   5
ENDBRANCH   2   4
TORSDOF 4
ENDMDL
MODEL 3
REMARK VINA RESULT:      -4.5     11.766     12.543
REMARK  4 active torsions:
REMARK  status: ('A' for Active; 'I' for Inactive)
REMARK    1  A    between atoms: C2_2  and  C8_8 
REMARK    2  A    between atoms: C5_5  and  C9_9 
REMARK    3  A    between atoms: C8_8  and  N10_10 
REMARK    4  A    between atoms: C9_9  and  N10_10 
ROOT
HETATM    1  C1  UNL     1     -31.887  18.175  -0.980  1.00 20.00    -0.109 C 
HETATM    2  C2  UNL     1     -32.585  17.902  -1.920  1.00 20.00    -0.077 C 
HETATM    3  C7  UNL     1     -31.038  18.508   0.162  1.00 20.00     0.112 C 
ENDROOT
BRANCH   2   4
HETATM    4  C8  UNL     1     -33.430  17.570  -3.070  1.00 20.00     0.362 C 
BRANCH   4   5
HETATM    5  N10 UNL     1     -32.828  16.499  -3.871  1.00 20.00     0.094 N 
HETATM    6  H25 UNL     1     -32.744  16.837  -4.840  1.00 20.00     0.317 HD
BRANCH   5   7
HETATM    7  C9  UNL     1     -33.596  15.297  -3.820  1.00 20.00     0.275 C 
BRANCH   7   8
HETATM    8  C5  UNL     1     -34.975  15.527  -4.418  1.00 20.00     0.018 C 
HETATM    9  C3  UNL     1     -35.324  14.676  -5.661  1.00 20.00     0.041 C 
HETATM   10  C6  UNL     1     -36.303  13.839  -4.813  1.00 20.00     0.161 C 
HETATM   11  C4  UNL     1     -36.155  14.864  -3.671  1.00 20.00     0.041 C 
HETATM   12  O11 UNL     1     -35.802  12.568  -4.484  1.00 20.00    -0.235 OA
ENDBRANCH   7   8
ENDBRANCH   5   7
ENDBRANCH   4   5
ENDBRANCH   2   4
TORSDOF 4
ENDMDL
MODEL 4
REMARK VINA RESULT:      -4.4     15.518     16.390
REMARK  4 active torsions:
REMARK  status: ('A' for Active; 'I' for Inactive)
REMARK    1  A    between atoms: C2_2  and  C8_8 
REMARK    2  A    between atoms: C5_5  and  C9_9 
REMARK    3  A    between atoms: C8_8  and  N10_10 
REMARK    4  A    between atoms: C9_9  and  N10_10 
ROOT
HETATM    1  C1  UNL     1     -25.829  19.211   4.761  1.00 20.00    -0.109 C 
HETATM    2  C2  UNL     1     -25.802  19.173   5.961  1.00 20.00    -0.077 C 
HETATM    3  C7  UNL     1     -25.860  19.258   3.300  1.00 20.00     0.112 C 
ENDROOT
BRANCH   2   4
HETATM    4  C8  UNL     1     -25.765  19.132   7.425  1.00 20.00     0.362 C 
BRANCH   4   5
HETATM    5  N10 UNL     1     -24.403  18.884   7.909  1.00 20.00     0.094 N 
HETATM    6  H25 UNL     1     -24.102  17.966   7.552  1.00 20.00     0.317 HD
BRANCH   5   7
HETATM    7  C9  UNL     1     -24.326  18.922   9.334  1.00 20.00     0.275 C 
BRANCH   7   8
HETATM    8  C5  UNL     1     -23.107  18.153   9.817  1.00 20.00     0.018 C 
HETATM    9  C3  UNL     1     -22.853  16.789   9.135  1.00 20.00     0.041 C 
HETATM   10  C6  UNL     1     -21.646  17.387   8.387  1.00 20.00     0.161 C 
HETATM   11  C4  UNL     1     -21.742  18.641   9.279  1.00 20.00     0.041 C 
HETATM   12  O11 UNL     1     -21.911  17.651   7.032  1.00 20.00    -0.235 OA
ENDBRANCH   7   8
ENDBRANCH   5   7
ENDBRANCH   4   5
ENDBRANCH   2   4
TORSDOF 4
ENDMDL
MODEL 5
REMARK VINA RESULT:      -4.3      9.867     10.680
REMARK  4 active torsions:
REMARK  status: ('A' for Active; 'I' for Inactive)
REMARK    1  A    between atoms: C2_2  and  C8_8 
REMARK    2  A    between atoms: C5_5  and  C9_9 
REMARK    3  A    between atoms: C8_8  and  N10_10 
REMARK    4  A    between atoms: C9_9  and  N10_10 
ROOT
HETATM    1  C1  UNL     1     -42.181   2.808  -3.364  1.00 20.00    -0.109 C 
HETATM    2  C2  UNL     1     -42.567   3.593  -2.540  1.00 20.00    -0.077 C 
HETATM    3  C7  UNL     1     -41.712   1.853  -4.366  1.00 20.00     0.112 C 
ENDROOT
BRANCH   2   4
HETATM    4  C8  UNL     1     -43.031   4.553  -1.536  1.00 20.00     0.362 C 
BRANCH   4   5
HETATM    5  N10 UNL     1     -41.900   5.147  -0.816  1.00 20.00     0.094 N 
HETATM    6  H25 UNL     1     -41.145   4.447  -0.780  1.00 20.00     0.317 HD
BRANCH   5   7
HETATM    7  C9  UNL     1     -42.264   5.565   0.500  1.00 20.00     0.275 C 
BRANCH   7   8
HETATM    8  C5  UNL     1     -41.988   7.050   0.676  1.00 20.00     0.018 C 
HETATM    9  C3  UNL     1     -41.358   7.770  -0.539  1.00 20.00     0.041 C 
HETATM   10  C6  UNL     1     -42.695   8.488  -0.807  1.00 20.00     0.161 C 
HETATM   11  C4  UNL     1     -43.214   7.985   0.555  1.00 20.00     0.041 C 
HETATM   12  O11 UNL     1     -43.401   7.954  -1.899  1.00 20.00    -0.235 OA
ENDBRANCH   7   8
ENDBRANCH   5   7
ENDBRANCH   4   5
ENDBRANCH   2   4
TORSDOF 4
ENDMDL
MODEL 6
REMARK VINA RESULT:      -4.3     14.889     16.054
REMARK  4 active torsions:
REMARK  status: ('A' for Active; 'I' for Inactive)
REMARK    1  A    between atoms: C2_2  and  C8_8 
REMARK    2  A    between atoms: C5_5  and  C9_9 
REMARK    3  A    between atoms: C8_8  and  N10_10 
REMARK    4  A    between atoms: C9_9  and  N10_10 
ROOT
HETATM    1  C1  UNL     1     -26.693  19.179   4.576  1.00 20.00    -0.109 C 
HETATM    2  C2  UNL     1     -25.972  19.192   5.537  1.00 20.00    -0.077 C 
HETATM    3  C7  UNL     1     -27.570  19.163   3.406  1.00 20.00     0.112 C 
ENDROOT
BRANCH   2   4
HETATM    4  C8  UNL     1     -25.094  19.216   6.709  1.00 20.00     0.362 C 
BRANCH   4   5
HETATM    5  N10 UNL     1     -25.822  18.813   7.918  1.00 20.00     0.094 N 
HETATM    6  H25 UNL     1     -26.660  19.406   7.995  1.00 20.00     0.317 HD
BRANCH   5   7
HETATM    7  C9  UNL     1     -25.015  18.925   9.090  1.00 20.00     0.275 C 
BRANCH   7   8
HETATM    8  C5  UNL     1     -23.850  17.950   9.023  1.00 20.00     0.018 C 
HETATM    9  C3  UNL     1     -22.509  18.456   9.603  1.00 20.00     0.041 C 
HETATM   10  C6  UNL     1     -22.673  17.510  10.809  1.00 20.00     0.161 C 
HETATM   11  C4  UNL     1     -23.848  16.825  10.084  1.00 20.00     0.041 C 
HETATM   12  O11 UNL     1     -23.062  18.176  11.984  1.00 20.00    -0.235 OA
ENDBRANCH   7   8
ENDBRANCH   5   7
ENDBRANCH   4   5
ENDBRANCH   2   4
TORSDOF 4
ENDMDL
MODEL 7
REMARK VINA RESULT:      -4.3     11.692     12.492
REMARK  4 active torsions:
REMARK  status: ('A' for Active; 'I' for Inactive)
REMARK    1  A    between atoms: C2_2  and  C8_8 
REMARK    2  A    between atoms: C5_5  and  C9_9 
REMARK    3  A    between atoms: C8_8  and  N10_10 
REMARK    4  A    between atoms: C9_9  and  N10_10 
ROOT
HETATM    1  C1  UNL     1     -34.531  16.583  -1.698  1.00 20.00    -0.109 C 
HETATM    2  C2  UNL     1     -33.813  16.242  -2.599  1.00 20.00    -0.077 C 
HETATM    3  C7  UNL     1     -35.404  16.999  -0.602  1.00 20.00     0.112 C 
ENDROOT
BRANCH   2   4
HETATM    4  C8  UNL     1     -32.939  15.818  -3.696  1.00 20.00     0.362 C 
BRANCH   4   5
HETATM    5  N10 UNL     1     -33.693  15.688  -4.947  1.00 20.00     0.094 N 
HETATM    6  H25 UNL     1     -33.053  15.896  -5.726  1.00 20.00     0.317 HD
BRANCH   5   7
HETATM    7  C9  UNL     1     -34.828  16.553  -4.980  1.00 20.00     0.275 C 
BRANCH   7   8
HETATM    8  C5  UNL     1     -36.072  15.776  -5.384  1.00 20.00     0.018 C 
HETATM    9  C3  UNL     1     -35.824  14.432  -6.106  1.00 20.00     0.041 C 
HETATM   10  C6  UNL     1     -36.282  13.671  -4.846  1.00 20.00     0.161 C 
HETATM   11  C4  UNL     1     -36.783  15.001  -4.250  1.00 20.00     0.041 C 
HETATM   12  O11 UNL     1     -35.215  13.108  -4.123  1.00 20.00    -0.235 OA
ENDBRANCH   7   8
ENDBRANCH   5   7
ENDBRANCH   4   5
ENDBRANCH   2   4
TORSDOF 4
ENDMDL
MODEL 8
REMARK VINA RESULT:      -4.2     11.699     12.943
REMARK  4 active torsions:
REMARK  status: ('A' for Active; 'I' for Inactive)
REMARK    1  A    between atoms: C2_2  and  C8_8 
REMARK    2  A    between atoms: C5_5  and  C9_9 
REMARK    3  A    between atoms: C8_8  and  N10_10 
REMARK    4  A    between atoms: C9_9  and  N10_10 
ROOT
HETATM    1  C1  UNL     1     -31.585  18.452  -0.553  1.00 20.00    -0.109 C 
HETATM    2  C2  UNL     1     -32.266  18.678  -1.516  1.00 20.00    -0.077 C 
HETATM    3  C7  UNL     1     -30.756  18.177   0.620  1.00 20.00     0.112 C 
ENDROOT
BRANCH   2   4
HETATM    4  C8  UNL     1     -33.092  18.958  -2.694  1.00 20.00     0.362 C 
BRANCH   4   5
HETATM    5  N10 UNL     1     -32.698  18.110  -3.824  1.00 20.00     0.094 N 
HETATM    6  H25 UNL     1     -32.466  18.725  -4.616  1.00 20.00     0.317 HD
BRANCH   5   7
HETATM    7  C9  UNL     1     -33.726  17.187  -4.184  1.00 20.00     0.275 C 
BRANCH   7   8
HETATM    8  C5  UNL     1     -33.549  15.879  -3.429  1.00 20.00     0.018 C 
HETATM    9  C3  UNL     1     -34.850  15.128  -3.061  1.00 20.00     0.041 C 
HETATM   10  C6  UNL     1     -34.534  14.060  -4.127  1.00 20.00     0.161 C 
HETATM   11  C4  UNL     1     -33.123  14.660  -4.281  1.00 20.00     0.041 C 
HETATM   12  O11 UNL     1     -35.319  14.187  -5.287  1.00 20.00    -0.235 OA
ENDBRANCH   7   8
ENDBRANCH   5   7
ENDBRANCH   4   5
ENDBRANCH   2   4
TORSDOF 4
ENDMDL
MODEL 9
REMARK VINA RESULT:      -4.2     11.740     12.339
REMARK  4 active torsions:
REMARK  status: ('A' for Active; 'I' for Inactive)
REMARK    1  A    between atoms: C2_2  and  C8_8 
REMARK    2  A    between atoms: C5_5  and  C9_9 
REMARK    3  A    between atoms: C8_8  and  N10_10 
REMARK    4  A    between atoms: C9_9  and  N10_10 
ROOT
HETATM    1  C1  UNL     1     -32.839  18.029  -0.906  1.00 20.00    -0.109 C 
HETATM    2  C2  UNL     1     -33.961  17.647  -1.104  1.00 20.00    -0.077 C 
HETATM    3  C7  UNL     1     -31.475  18.496  -0.665  1.00 20.00     0.112 C 
ENDROOT
BRANCH   2   4
HETATM    4  C8  UNL     1     -35.327  17.181  -1.352  1.00 20.00     0.362 C 
BRANCH   4   5
HETATM    5  N10 UNL     1     -35.327  15.813  -1.880  1.00 20.00     0.094 N 
HETATM    6  H25 UNL     1     -34.926  15.195  -1.161  1.00 20.00     0.317 HD
BRANCH   5   7
HETATM    7  C9  UNL     1     -34.591  15.711  -3.100  1.00 20.00     0.275 C 
BRANCH   7   8
HETATM    8  C5  UNL     1     -35.540  15.687  -4.288  1.00 20.00     0.018 C 
HETATM    9  C3  UNL     1     -35.139  14.757  -5.456  1.00 20.00     0.041 C 
HETATM   10  C6  UNL     1     -36.275  13.787  -5.075  1.00 20.00     0.161 C 
HETATM   11  C4  UNL     1     -36.829  14.851  -4.106  1.00 20.00     0.041 C 
HETATM   12  O11 UNL     1     -35.818  12.629  -4.422  1.00 20.00    -0.235 OA
ENDBRANCH   7   8
ENDBRANCH   5   7
ENDBRANCH   4   5
ENDBRANCH   2   4
TORSDOF 4
ENDMDL
