MODEL 1
REMARK VINA RESULT:      -4.4      0.000      0.000
REMARK  2 active torsions:
REMARK  status: ('A' for Active; 'I' for Inactive)
REMARK    1  A    between atoms: C8_8  and  C9_9 
REMARK    2  A    between atoms: C9_9  and  O11_11 
ROOT
HETATM    1  C1  UNL     1     -32.984  16.020  -3.447  1.00 20.00     0.003 C 
HETATM    2  C2  UNL     1     -34.187  16.343  -2.558  1.00 20.00     0.003 C 
HETATM    3  C3  UNL     1     -33.331  14.725  -4.172  1.00 20.00     0.038 C 
HETATM    4  C4  UNL     1     -35.204  15.233  -2.802  1.00 20.00     0.038 C 
HETATM    5  C9  UNL     1     -34.858  14.679  -4.182  1.00 20.00     0.063 C 
ENDROOT
BRANCH   5   6
HETATM    6  C8  UNL     1     -35.467  15.507  -5.313  1.00 20.00     0.046 C 
HETATM    7  C5  UNL     1     -36.879  15.982  -5.043  1.00 20.00     0.036 C 
HETATM    8  C6  UNL     1     -37.366  16.305  -6.439  1.00 20.00     0.168 C 
HETATM    9  O10 UNL     1     -36.700  15.399  -7.331  1.00 20.00    -0.391 OA
HETATM   10  C7  UNL     1     -35.655  14.733  -6.606  1.00 20.00     0.175 C 
ENDBRANCH   5   6
BRANCH   5  11
HETATM   11  O11 UNL     1     -35.317  13.340  -4.294  1.00 20.00    -0.389 OA
HETATM   12  H27 UNL     1     -36.118  13.369  -4.839  1.00 20.00     0.210 HD
ENDBRANCH   5  11
TORSDOF 2
ENDMDL
MODEL 2
REMARK VINA RESULT:      -4.4      1.319      1.567
REMARK  2 active torsions:
REMARK  status: ('A' for Active; 'I' for Inactive)
REMARK    1  A    between atoms: C8_8  and  C9_9 
REMARK    2  A    between atoms: C9_9  and  O11_11 
ROOT
HETATM    1  C1  UNL     1     -33.860  16.690  -2.721  1.00 20.00     0.003 C 
HETATM    2  C2  UNL     1     -35.149  15.892  -2.516  1.00 20.00     0.003 C 
HETATM    3  C3  UNL     1     -32.939  15.799  -3.548  1.00 20.00     0.038 C 
HETATM    4  C4  UNL     1     -34.946  14.565  -3.239  1.00 20.00     0.038 C 
HETATM    5  C9  UNL     1     -33.878  14.851  -4.293  1.00 20.00     0.063 C 
ENDROOT
BRANCH   5   6
HETATM    6  C8  UNL     1     -34.462  15.472  -5.562  1.00 20.00     0.046 C 
HETATM    7  C5  UNL     1     -35.861  15.003  -5.895  1.00 20.00     0.036 C 
HETATM    8  C6  UNL     1     -35.963  15.361  -7.362  1.00 20.00     0.168 C 
HETATM    9  O10 UNL     1     -34.642  15.244  -7.911  1.00 20.00    -0.391 OA
HETATM   10  C7  UNL     1     -33.711  15.098  -6.828  1.00 20.00     0.175 C 
ENDBRANCH   5   6
BRANCH   5  11
HETATM   11  O11 UNL     1     -33.205  13.650  -4.637  1.00 20.00    -0.389 OA
HETATM   12  H27 UNL     1     -33.538  13.388  -5.509  1.00 20.00     0.210 HD
ENDBRANCH   5  11
TORSDOF 2
ENDMDL
MODEL 3
REMARK VINA RESULT:      -4.4      2.113      4.056
REMARK  2 active torsions:
REMARK  status: ('A' for Active; 'I' for Inactive)
REMARK    1  A    between atoms: C8_8  and  C9_9 
REMARK    2  A    between atoms: C9_9  and  O11_11 
ROOT
HETATM    1  C1  UNL     1     -36.109  13.843  -4.695  1.00 20.00     0.003 C 
HETATM    2  C2  UNL     1     -35.866  14.738  -5.911  1.00 20.00     0.003 C 
HETATM    3  C3  UNL     1     -34.743  13.622  -4.054  1.00 20.00     0.038 C 
HETATM    4  C4  UNL     1     -34.368  15.023  -5.936  1.00 20.00     0.038 C 
HETATM    5  C9  UNL     1     -33.906  14.822  -4.494  1.00 20.00     0.063 C 
ENDROOT
BRANCH   5   6
HETATM    6  C8  UNL     1     -34.142  16.058  -3.628  1.00 20.00     0.046 C 
HETATM    7  C5  UNL     1     -32.876  16.716  -3.126  1.00 20.00     0.036 C 
HETATM    8  C6  UNL     1     -33.395  17.536  -1.964  1.00 20.00     0.168 C 
HETATM    9  O10 UNL     1     -34.511  16.819  -1.417  1.00 20.00    -0.391 OA
HETATM   10  C7  UNL     1     -34.863  15.763  -2.323  1.00 20.00     0.175 C 
ENDBRANCH   5   6
BRANCH   5  11
HETATM   11  O11 UNL     1     -32.523  14.502  -4.471  1.00 20.00    -0.389 OA
HETATM   12  H27 UNL     1     -32.079  15.159  -5.029  1.00 20.00     0.210 HD
ENDBRANCH   5  11
TORSDOF 2
ENDMDL
MODEL 4
REMARK VINA RESULT:      -4.2      1.486      3.642
REMARK  2 active torsions:
REMARK  status: ('A' for Active; 'I' for Inactive)
REMARK    1  A    between atoms: C8_8  and  C9_9 
REMARK    2  A    between atoms: C9_9  and  O11_11 
ROOT
HETATM    1  C1  UNL     1     -37.322  15.860  -4.900  1.00 20.00     0.003 C 
HETATM    2  C2  UNL     1     -36.339  15.804  -6.071  1.00 20.00     0.003 C 
HETATM    3  C3  UNL     1     -37.234  14.504  -4.210  1.00 20.00     0.038 C 
HETATM    4  C4  UNL     1     -35.699  14.421  -6.021  1.00 20.00     0.038 C 
HETATM    5  C9  UNL     1     -35.848  13.971  -4.569  1.00 20.00     0.063 C 
ENDROOT
BRANCH   5   6
HETATM    6  C8  UNL     1     -34.748  14.530  -3.668  1.00 20.00     0.046 C 
HETATM    7  C5  UNL     1     -35.199  15.654  -2.762  1.00 20.00     0.036 C 
HETATM    8  C6  UNL     1     -33.881  16.301  -2.395  1.00 20.00     0.168 C 
HETATM    9  O10 UNL     1     -33.006  16.126  -3.520  1.00 20.00    -0.391 OA
HETATM   10  C7  UNL     1     -33.614  15.196  -4.429  1.00 20.00     0.175 C 
ENDBRANCH   5   6
BRANCH   5  11
HETATM   11  O11 UNL     1     -35.824  12.553  -4.498  1.00 20.00    -0.389 OA
HETATM   12  H27 UNL     1     -34.892  12.297  -4.424  1.00 20.00     0.210 HD
ENDBRANCH   5  11
TORSDOF 2
ENDMDL
MODEL 5
REMARK VINA RESULT:      -4.1      1.915      2.405
REMARK  2 active torsions:
REMARK  status: ('A' for Active; 'I' for Inactive)
REMARK    1  A    between atoms: C8_8  and  C9_9 
REMARK    2  A    between atoms: C9_9  and  O11_11 
ROOT
HETATM    1  C1  UNL     1     -34.154  16.376  -2.527  1.00 20.00     0.003 C 
HETATM    2  C2  UNL     1     -35.220  15.289  -2.675  1.00 20.00     0.003 C 
HETATM    3  C3  UNL     1     -33.086  16.064  -3.570  1.00 20.00     0.038 C 
HETATM    4  C4  UNL     1     -34.748  14.383  -3.806  1.00 20.00     0.038 C 
HETATM    5  C9  UNL     1     -33.812  15.253  -4.642  1.00 20.00     0.063 C 
ENDROOT
BRANCH   5   6
HETATM    6  C8  UNL     1     -34.566  16.132  -5.639  1.00 20.00     0.046 C 
HETATM    7  C5  UNL     1     -34.343  15.758  -7.088  1.00 20.00     0.036 C 
HETATM    8  C6  UNL     1     -34.766  17.024  -7.801  1.00 20.00     0.168 C 
HETATM    9  O10 UNL     1     -34.457  18.117  -6.923  1.00 20.00    -0.391 OA
HETATM   10  C7  UNL     1     -34.121  17.584  -5.633  1.00 20.00     0.175 C 
ENDBRANCH   5   6
BRANCH   5  11
HETATM   11  O11 UNL     1     -32.897  14.432  -5.353  1.00 20.00    -0.389 OA
HETATM   12  H27 UNL     1     -32.061  14.464  -4.864  1.00 20.00     0.210 HD
ENDBRANCH   5  11
TORSDOF 2
ENDMDL
MODEL 6
REMARK VINA RESULT:      -4.1      0.989      1.183
REMARK  2 active torsions:
REMARK  status: ('A' for Active; 'I' for Inactive)
REMARK    1  A    between atoms: C8_8  and  C9_9 
REMARK    2  A    between atoms: C9_9  and  O11_11 
ROOT
HETATM    1  C1  UNL     1     -33.604  14.757  -3.833  1.00 20.00     0.003 C 
HETATM    2  C2  UNL     1     -33.964  16.008  -3.030  1.00 20.00     0.003 C 
HETATM    3  C3  UNL     1     -34.911  14.002  -4.047  1.00 20.00     0.038 C 
HETATM    4  C4  UNL     1     -35.472  15.951  -2.810  1.00 20.00     0.038 C 
HETATM    5  C9  UNL     1     -36.000  15.067  -3.938  1.00 20.00     0.063 C 
ENDROOT
BRANCH   5   6
HETATM    6  C8  UNL     1     -36.203  15.841  -5.240  1.00 20.00     0.046 C 
HETATM    7  C5  UNL     1     -37.610  16.361  -5.441  1.00 20.00     0.036 C 
HETATM    8  C6  UNL     1     -37.635  16.612  -6.933  1.00 20.00     0.168 C 
HETATM    9  O10 UNL     1     -36.762  15.643  -7.532  1.00 20.00    -0.391 OA
HETATM   10  C7  UNL     1     -36.015  14.998  -6.490  1.00 20.00     0.175 C 
ENDBRANCH   5   6
BRANCH   5  11
HETATM   11  O11 UNL     1     -37.235  14.482  -3.554  1.00 20.00    -0.389 OA
HETATM   12  H27 UNL     1     -37.906  15.177  -3.636  1.00 20.00     0.210 HD
ENDBRANCH   5  11
TORSDOF 2
ENDMDL
MODEL 7
REMARK VINA RESULT:      -4.1      1.621      2.173
REMARK  2 active torsions:
REMARK  status: ('A' for Active; 'I' for Inactive)
REMARK    1  A    between atoms: C8_8  and  C9_9 
REMARK    2  A    between atoms: C9_9  and  O11_11 
ROOT
HETATM    1  C1  UNL     1     -33.198  16.775  -2.608  1.00 20.00     0.003 C 
HETATM    2  C2  UNL     1     -33.625  17.907  -3.544  1.00 20.00     0.003 C 
HETATM    3  C3  UNL     1     -34.468  16.000  -2.276  1.00 20.00     0.038 C 
HETATM    4  C4  UNL     1     -35.129  17.750  -3.740  1.00 20.00     0.038 C 
HETATM    5  C9  UNL     1     -35.413  16.279  -3.444  1.00 20.00     0.063 C 
ENDROOT
BRANCH   5   6
HETATM    6  C8  UNL     1     -35.146  15.379  -4.649  1.00 20.00     0.046 C 
HETATM    7  C5  UNL     1     -35.578  15.971  -5.973  1.00 20.00     0.036 C 
HETATM    8  C6  UNL     1     -35.659  14.738  -6.848  1.00 20.00     0.168 C 
HETATM    9  O10 UNL     1     -36.038  13.648  -5.995  1.00 20.00    -0.391 OA
HETATM   10  C7  UNL     1     -35.934  14.081  -4.630  1.00 20.00     0.175 C 
ENDBRANCH   5   6
BRANCH   5  11
HETATM   11  O11 UNL     1     -36.765  16.120  -3.042  1.00 20.00    -0.389 OA
HETATM   12  H27 UNL     1     -36.921  15.167  -2.972  1.00 20.00     0.210 HD
ENDBRANCH   5  11
TORSDOF 2
ENDMDL
MODEL 8
REMARK VINA RESULT:      -4.0      1.764      2.391
REMARK  2 active torsions:
REMARK  status: ('A' for Active; 'I' for Inactive)
REMARK    1  A    between atoms: C8_8  and  C9_9 
REMARK    2  A    between atoms: C9_9  and  O11_11 
ROOT
HETATM    1  C1  UNL     1     -34.618  18.449  -3.224  1.00 20.00     0.003 C 
HETATM    2  C2  UNL     1     -34.780  17.535  -2.008  1.00 20.00     0.003 C 
HETATM    3  C3  UNL     1     -33.660  17.731  -4.168  1.00 20.00     0.038 C 
HETATM    4  C4  UNL     1     -33.922  16.305  -2.285  1.00 20.00     0.038 C 
HETATM    5  C9  UNL     1     -33.790  16.252  -3.806  1.00 20.00     0.063 C 
ENDROOT
BRANCH   5   6
HETATM    6  C8  UNL     1     -34.991  15.583  -4.473  1.00 20.00     0.046 C 
HETATM    7  C5  UNL     1     -35.483  14.341  -3.762  1.00 20.00     0.036 C 
HETATM    8  C6  UNL     1     -36.282  13.660  -4.852  1.00 20.00     0.168 C 
HETATM    9  O10 UNL     1     -35.654  13.995  -6.099  1.00 20.00    -0.391 OA
HETATM   10  C7  UNL     1     -34.696  15.037  -5.860  1.00 20.00     0.175 C 
ENDBRANCH   5   6
BRANCH   5  11
HETATM   11  O11 UNL     1     -32.612  15.544  -4.164  1.00 20.00    -0.389 OA
HETATM   12  H27 UNL     1     -32.569  15.554  -5.132  1.00 20.00     0.210 HD
ENDBRANCH   5  11
TORSDOF 2
ENDMDL
MODEL 9
REMARK VINA RESULT:      -4.0      2.718      4.521
REMARK  2 active torsions:
REMARK  status: ('A' for Active; 'I' for Inactive)
REMARK    1  A    between atoms: C8_8  and  C9_9 
REMARK    2  A    between atoms: C9_9  and  O11_11 
ROOT
HETATM    1  C1  UNL     1     -34.457  14.008  -3.895  1.00 20.00     0.003 C 
HETATM    2  C2  UNL     1     -35.754  14.818  -3.932  1.00 20.00     0.003 C 
HETATM    3  C3  UNL     1     -33.332  15.001  -4.166  1.00 20.00     0.038 C 
HETATM    4  C4  UNL     1     -35.345  16.261  -4.212  1.00 20.00     0.038 C 
HETATM    5  C9  UNL     1     -33.895  16.356  -3.742  1.00 20.00     0.063 C 
ENDROOT
BRANCH   5   6
HETATM    6  C8  UNL     1     -33.783  16.599  -2.238  1.00 20.00     0.046 C 
HETATM    7  C5  UNL     1     -35.017  17.217  -1.616  1.00 20.00     0.036 C 
HETATM    8  C6  UNL     1     -34.462  17.775  -0.323  1.00 20.00     0.168 C 
HETATM    9  O10 UNL     1     -33.100  18.147  -0.582  1.00 20.00    -0.391 OA
HETATM   10  C7  UNL     1     -32.717  17.613  -1.859  1.00 20.00     0.175 C 
ENDBRANCH   5   6
BRANCH   5  11
HETATM   11  O11 UNL     1     -33.234  17.409  -4.428  1.00 20.00    -0.389 OA
HETATM   12  H27 UNL     1     -33.834  17.697  -5.132  1.00 20.00     0.210 HD
ENDBRANCH   5  11
TORSDOF 2
ENDMDL
