MODEL 1
REMARK VINA RESULT:      -4.3      0.000      0.000
REMARK  3 active torsions:
REMARK  status: ('A' for Active; 'I' for Inactive)
REMARK    1  A    between atoms: C5_5  and  S11_11 
REMARK    2  A    between atoms: C7_7  and  C8_8 
REMARK    3  A    between atoms: C8_8  and  S11_11 
ROOT
HETATM    1  C1  UNL     1     -22.605  18.591   9.527  1.00 20.00     0.080 C 
HETATM    2  C2  UNL     1     -23.958  18.048  11.618  1.00 20.00     0.071 C 
HETATM    3  C3  UNL     1     -24.200  16.659  10.001  1.00 20.00     0.071 C 
HETATM    4  C4  UNL     1     -23.659  16.538  11.448  1.00 20.00     0.165 C 
HETATM    5  C5  UNL     1     -23.877  18.176  10.073  1.00 20.00     0.101 C 
HETATM    6  N9  UNL     1     -21.584  18.926   9.089  1.00 20.00    -0.196 NA
HETATM    7  O10 UNL     1     -24.446  15.718  12.269  1.00 20.00    -0.235 OA
ENDROOT
BRANCH   5   8
HETATM    8  S11 UNL     1     -25.227  19.204   9.394  1.00 20.00    -0.144 SA
BRANCH   8   9
HETATM    9  C8  UNL     1     -24.803  19.051   7.646  1.00 20.00     0.075 C 
BRANCH   9  10
HETATM   10  C7  UNL     1     -26.065  18.911   6.801  1.00 20.00     0.006 C 
HETATM   11  C6  UNL     1     -25.783  19.225   5.339  1.00 20.00     0.006 C 
ENDBRANCH   9  10
ENDBRANCH   8   9
ENDBRANCH   5   8
TORSDOF 3
ENDMDL
MODEL 2
REMARK VINA RESULT:      -4.2     14.467     16.991
REMARK  3 active torsions:
REMARK  status: ('A' for Active; 'I' for Inactive)
REMARK    1  A    between atoms: C5_5  and  S11_11 
REMARK    2  A    between atoms: C7_7  and  C8_8 
REMARK    3  A    between atoms: C8_8  and  S11_11 
ROOT
HETATM    1  C1  UNL     1     -34.789  16.831  -4.635  1.00 20.00     0.080 C 
HETATM    2  C2  UNL     1     -34.297  14.410  -4.008  1.00 20.00     0.071 C 
HETATM    3  C3  UNL     1     -36.364  14.971  -3.883  1.00 20.00     0.071 C 
HETATM    4  C4  UNL     1     -35.583  13.937  -4.731  1.00 20.00     0.165 C 
HETATM    5  C5  UNL     1     -35.030  15.746  -3.712  1.00 20.00     0.101 C 
HETATM    6  N9  UNL     1     -34.596  17.702  -5.377  1.00 20.00    -0.196 NA
HETATM    7  O10 UNL     1     -35.927  12.609  -4.444  1.00 20.00    -0.235 OA
ENDROOT
BRANCH   5   8
HETATM    8  S11 UNL     1     -34.772  16.306  -1.991  1.00 20.00    -0.144 SA
BRANCH   8   9
HETATM    9  C8  UNL     1     -33.192  17.147  -2.235  1.00 20.00     0.075 C 
BRANCH   9  10
HETATM   10  C7  UNL     1     -32.990  18.222  -1.174  1.00 20.00     0.006 C 
HETATM   11  C6  UNL     1     -31.533  18.299  -0.743  1.00 20.00     0.006 C 
ENDBRANCH   9  10
ENDBRANCH   8   9
ENDBRANCH   5   8
TORSDOF 3
ENDMDL
MODEL 3
REMARK VINA RESULT:      -4.2     16.585     18.218
REMARK  3 active torsions:
REMARK  status: ('A' for Active; 'I' for Inactive)
REMARK    1  A    between atoms: C5_5  and  S11_11 
REMARK    2  A    between atoms: C7_7  and  C8_8 
REMARK    3  A    between atoms: C8_8  and  S11_11 
ROOT
HETATM    1  C1  UNL     1     -35.637  13.915  -4.439  1.00 20.00     0.080 C 
HETATM    2  C2  UNL     1     -33.822  15.658  -4.030  1.00 20.00     0.071 C 
HETATM    3  C3  UNL     1     -35.692  16.058  -3.057  1.00 20.00     0.071 C 
HETATM    4  C4  UNL     1     -34.253  15.793  -2.548  1.00 20.00     0.165 C 
HETATM    5  C5  UNL     1     -35.299  15.318  -4.364  1.00 20.00     0.101 C 
HETATM    6  N9  UNL     1     -35.908  12.788  -4.499  1.00 20.00    -0.196 NA
HETATM    7  O10 UNL     1     -33.680  16.896  -1.900  1.00 20.00    -0.235 OA
ENDROOT
BRANCH   5   8
HETATM    8  S11 UNL     1     -35.886  16.194  -5.857  1.00 20.00    -0.144 SA
BRANCH   8   9
HETATM    9  C8  UNL     1     -35.421  14.947  -7.078  1.00 20.00     0.075 C 
BRANCH   9  10
HETATM   10  C7  UNL     1     -34.165  15.377  -7.827  1.00 20.00     0.006 C 
HETATM   11  C6  UNL     1     -34.057  16.894  -7.889  1.00 20.00     0.006 C 
ENDBRANCH   9  10
ENDBRANCH   8   9
ENDBRANCH   5   8
TORSDOF 3
ENDMDL
MODEL 4
REMARK VINA RESULT:      -4.1     15.052     17.464
REMARK  3 active torsions:
REMARK  status: ('A' for Active; 'I' for Inactive)
REMARK    1  A    between atoms: C5_5  and  S11_11 
REMARK    2  A    between atoms: C7_7  and  C8_8 
REMARK    3  A    between atoms: C8_8  and  S11_11 
ROOT
HETATM    1  C1  UNL     1     -33.548  14.602  -4.543  1.00 20.00     0.080 C 
HETATM    2  C2  UNL     1     -35.830  14.782  -3.421  1.00 20.00     0.071 C 
HETATM    3  C3  UNL     1     -35.873  14.842  -5.565  1.00 20.00     0.071 C 
HETATM    4  C4  UNL     1     -36.462  13.876  -4.506  1.00 20.00     0.165 C 
HETATM    5  C5  UNL     1     -34.828  15.272  -4.500  1.00 20.00     0.101 C 
HETATM    6  N9  UNL     1     -32.521  14.065  -4.577  1.00 20.00    -0.196 NA
HETATM    7  O10 UNL     1     -37.863  13.868  -4.480  1.00 20.00    -0.235 OA
ENDROOT
BRANCH   5   8
HETATM    8  S11 UNL     1     -34.596  17.085  -4.452  1.00 20.00    -0.144 SA
BRANCH   8   9
HETATM    9  C8  UNL     1     -33.091  17.119  -3.456  1.00 20.00     0.075 C 
BRANCH   9  10
HETATM   10  C7  UNL     1     -33.427  17.374  -1.990  1.00 20.00     0.006 C 
HETATM   11  C6  UNL     1     -32.309  18.142  -1.299  1.00 20.00     0.006 C 
ENDBRANCH   9  10
ENDBRANCH   8   9
ENDBRANCH   5   8
TORSDOF 3
ENDMDL
MODEL 5
REMARK VINA RESULT:      -4.0     16.763     18.903
REMARK  3 active torsions:
REMARK  status: ('A' for Active; 'I' for Inactive)
REMARK    1  A    between atoms: C5_5  and  S11_11 
REMARK    2  A    between atoms: C7_7  and  C8_8 
REMARK    3  A    between atoms: C8_8  and  S11_11 
ROOT
HETATM    1  C1  UNL     1     -37.039  14.457  -4.655  1.00 20.00     0.080 C 
HETATM    2  C2  UNL     1     -35.912  16.572  -5.523  1.00 20.00     0.071 C 
HETATM    3  C3  UNL     1     -35.412  14.780  -6.592  1.00 20.00     0.071 C 
HETATM    4  C4  UNL     1     -36.111  16.105  -6.987  1.00 20.00     0.165 C 
HETATM    5  C5  UNL     1     -35.820  15.075  -5.123  1.00 20.00     0.101 C 
HETATM    6  N9  UNL     1     -38.018  13.961  -4.278  1.00 20.00    -0.196 NA
HETATM    7  O10 UNL     1     -35.384  16.861  -7.917  1.00 20.00    -0.235 OA
ENDROOT
BRANCH   5   8
HETATM    8  S11 UNL     1     -34.455  14.759  -3.949  1.00 20.00    -0.144 SA
BRANCH   8   9
HETATM    9  C8  UNL     1     -35.166  15.586  -2.510  1.00 20.00     0.075 C 
BRANCH   9  10
HETATM   10  C7  UNL     1     -34.210  16.648  -1.979  1.00 20.00     0.006 C 
HETATM   11  C6  UNL     1     -33.030  16.842  -2.920  1.00 20.00     0.006 C 
ENDBRANCH   9  10
ENDBRANCH   8   9
ENDBRANCH   5   8
TORSDOF 3
ENDMDL
MODEL 6
REMARK VINA RESULT:      -4.0     16.629     18.465
REMARK  3 active torsions:
REMARK  status: ('A' for Active; 'I' for Inactive)
REMARK    1  A    between atoms: C5_5  and  S11_11 
REMARK    2  A    between atoms: C7_7  and  C8_8 
REMARK    3  A    between atoms: C8_8  and  S11_11 
ROOT
HETATM    1  C1  UNL     1     -35.714  13.897  -4.289  1.00 20.00     0.080 C 
HETATM    2  C2  UNL     1     -34.288  15.997  -4.529  1.00 20.00     0.071 C 
HETATM    3  C3  UNL     1     -35.108  15.683  -2.571  1.00 20.00     0.071 C 
HETATM    4  C4  UNL     1     -33.666  15.762  -3.130  1.00 20.00     0.165 C 
HETATM    5  C5  UNL     1     -35.576  15.307  -4.003  1.00 20.00     0.101 C 
HETATM    6  N9  UNL     1     -35.825  12.765  -4.519  1.00 20.00    -0.196 NA
HETATM    7  O10 UNL     1     -32.943  16.863  -2.649  1.00 20.00    -0.235 OA
ENDROOT
BRANCH   5   8
HETATM    8  S11 UNL     1     -37.089  16.207  -4.495  1.00 20.00    -0.144 SA
BRANCH   8   9
HETATM    9  C8  UNL     1     -38.272  14.867  -4.240  1.00 20.00     0.075 C 
BRANCH   9  10
HETATM   10  C7  UNL     1     -39.640  15.426  -3.866  1.00 20.00     0.006 C 
HETATM   11  C6  UNL     1     -40.705  14.972  -4.853  1.00 20.00     0.006 C 
ENDBRANCH   9  10
ENDBRANCH   8   9
ENDBRANCH   5   8
TORSDOF 3
ENDMDL
MODEL 7
REMARK VINA RESULT:      -3.9     15.569     17.438
REMARK  3 active torsions:
REMARK  status: ('A' for Active; 'I' for Inactive)
REMARK    1  A    between atoms: C5_5  and  S11_11 
REMARK    2  A    between atoms: C7_7  and  C8_8 
REMARK    3  A    between atoms: C8_8  and  S11_11 
ROOT
HETATM    1  C1  UNL     1     -35.341  17.020  -4.814  1.00 20.00     0.080 C 
HETATM    2  C2  UNL     1     -34.491  14.642  -5.162  1.00 20.00     0.071 C 
HETATM    3  C3  UNL     1     -35.762  14.904  -3.454  1.00 20.00     0.071 C 
HETATM    4  C4  UNL     1     -35.869  14.065  -4.751  1.00 20.00     0.165 C 
HETATM    5  C5  UNL     1     -34.776  15.835  -4.211  1.00 20.00     0.101 C 
HETATM    6  N9  UNL     1     -35.794  17.972  -5.298  1.00 20.00    -0.196 NA
HETATM    7  O10 UNL     1     -35.847  12.682  -4.522  1.00 20.00    -0.235 OA
ENDROOT
BRANCH   5   8
HETATM    8  S11 UNL     1     -33.319  16.270  -3.196  1.00 20.00    -0.144 SA
BRANCH   8   9
HETATM    9  C8  UNL     1     -33.955  17.804  -2.488  1.00 20.00     0.075 C 
BRANCH   9  10
HETATM   10  C7  UNL     1     -34.020  17.704  -0.968  1.00 20.00     0.006 C 
HETATM   11  C6  UNL     1     -35.309  17.031  -0.519  1.00 20.00     0.006 C 
ENDBRANCH   9  10
ENDBRANCH   8   9
ENDBRANCH   5   8
TORSDOF 3
ENDMDL
MODEL 8
REMARK VINA RESULT:      -3.8     22.818     24.152
REMARK  3 active torsions:
REMARK  status: ('A' for Active; 'I' for Inactive)
REMARK    1  A    between atoms: C5_5  and  S11_11 
REMARK    2  A    between atoms: C7_7  and  C8_8 
REMARK    3  A    between atoms: C8_8  and  S11_11 
ROOT
HETATM    1  C1  UNL     1     -43.077   6.146   1.048  1.00 20.00     0.080 C 
HETATM    2  C2  UNL     1     -41.361   7.633  -0.113  1.00 20.00     0.071 C 
HETATM    3  C3  UNL     1     -43.293   8.528   0.159  1.00 20.00     0.071 C 
HETATM    4  C4  UNL     1     -41.871   8.870   0.669  1.00 20.00     0.165 C 
HETATM    5  C5  UNL     1     -42.804   7.066  -0.033  1.00 20.00     0.101 C 
HETATM    6  N9  UNL     1     -43.295   5.408   1.915  1.00 20.00    -0.196 NA
HETATM    7  O10 UNL     1     -41.379  10.085   0.170  1.00 20.00    -0.235 OA
ENDROOT
BRANCH   5   8
HETATM    8  S11 UNL     1     -43.354   6.357  -1.626  1.00 20.00    -0.144 SA
BRANCH   8   9
HETATM    9  C8  UNL     1     -42.504   4.769  -1.499  1.00 20.00     0.075 C 
BRANCH   9  10
HETATM   10  C7  UNL     1     -43.216   3.714  -2.340  1.00 20.00     0.006 C 
HETATM   11  C6  UNL     1     -42.228   2.946  -3.205  1.00 20.00     0.006 C 
ENDBRANCH   9  10
ENDBRANCH   8   9
ENDBRANCH   5   8
TORSDOF 3
ENDMDL
MODEL 9
REMARK VINA RESULT:      -3.8     16.626     18.313
REMARK  3 active torsions:
REMARK  status: ('A' for Active; 'I' for Inactive)
REMARK    1  A    between atoms: C5_5  and  S11_11 
REMARK    2  A    between atoms: C7_7  and  C8_8 
REMARK    3  A    between atoms: C8_8  and  S11_11 
ROOT
HETATM    1  C1  UNL     1     -35.514  13.975  -4.429  1.00 20.00     0.080 C 
HETATM    2  C2  UNL     1     -33.836  15.525  -3.298  1.00 20.00     0.071 C 
HETATM    3  C3  UNL     1     -35.852  16.257  -3.340  1.00 20.00     0.071 C 
HETATM    4  C4  UNL     1     -34.870  15.883  -2.202  1.00 20.00     0.165 C 
HETATM    5  C5  UNL     1     -35.028  15.327  -4.272  1.00 20.00     0.101 C 
HETATM    6  N9  UNL     1     -35.904  12.890  -4.556  1.00 20.00    -0.196 NA
HETATM    7  O10 UNL     1     -34.490  16.979  -1.414  1.00 20.00    -0.235 OA
ENDROOT
BRANCH   5   8
HETATM    8  S11 UNL     1     -34.716  16.085  -5.906  1.00 20.00    -0.144 SA
BRANCH   8   9
HETATM    9  C8  UNL     1     -36.213  15.512  -6.738  1.00 20.00     0.075 C 
BRANCH   9  10
HETATM   10  C7  UNL     1     -37.172  16.674  -6.971  1.00 20.00     0.006 C 
HETATM   11  C6  UNL     1     -38.397  16.561  -6.075  1.00 20.00     0.006 C 
ENDBRANCH   9  10
ENDBRANCH   8   9
ENDBRANCH   5   8
TORSDOF 3
ENDMDL
