MODEL 1
REMARK VINA RESULT:      -4.5      0.000      0.000
REMARK  5 active torsions:
REMARK  status: ('A' for Active; 'I' for Inactive)
REMARK    1  A    between atoms: C2_2  and  C5_5 
REMARK    2  A    between atoms: C2_2  and  C6_6 
REMARK    3  A    between atoms: C6_6  and  C7_7 
REMARK    4  A    between atoms: C7_7  and  C8_8 
REMARK    5  A    between atoms: C8_8  and  C9_9 
ROOT
HETATM    1  C6  UNL     1     -33.643   6.869   3.365  1.00 20.00     0.033 C 
ENDROOT
BRANCH   1   2
HETATM    2  C2  UNL     1     -33.921   5.379   3.399  1.00 20.00    -0.090 C 
HETATM    3  C1  UNL     1     -33.295   4.563   2.535  1.00 20.00     0.014 C 
BRANCH   2   4
HETATM    4  C5  UNL     1     -34.943   4.925   4.421  1.00 20.00     0.029 C 
HETATM    5  C3  UNL     1     -34.733   5.375   5.863  1.00 20.00     0.010 C 
ENDBRANCH   2   4
ENDBRANCH   1   2
BRANCH   1   6
HETATM    6  C7  UNL     1     -32.186   7.190   3.013  1.00 20.00     0.006 C 
BRANCH   6   7
HETATM    7  C8  UNL     1     -32.056   7.624   1.549  1.00 20.00     0.020 C 
BRANCH   7   8
HETATM    8  C9  UNL     1     -33.190   8.547   1.083  1.00 20.00     0.078 C 
HETATM    9  C4  UNL     1     -33.376   8.468  -0.429  1.00 20.00     0.026 C 
HETATM   10 CL10 UNL     1     -32.864  10.246   1.537  1.00 20.00    -0.125 Cl
ENDBRANCH   7   8
ENDBRANCH   6   7
ENDBRANCH   1   6
TORSDOF 5
ENDMDL
MODEL 2
REMARK VINA RESULT:      -4.5      1.489      2.491
REMARK  5 active torsions:
REMARK  status: ('A' for Active; 'I' for Inactive)
REMARK    1  A    between atoms: C2_2  and  C5_5 
REMARK    2  A    between atoms: C2_2  and  C6_6 
REMARK    3  A    between atoms: C6_6  and  C7_7 
REMARK    4  A    between atoms: C7_7  and  C8_8 
REMARK    5  A    between atoms: C8_8  and  C9_9 
ROOT
HETATM    1  C6  UNL     1     -34.021   4.203   3.846  1.00 20.00     0.033 C 
ENDROOT
BRANCH   1   2
HETATM    2  C2  UNL     1     -34.978   5.136   4.560  1.00 20.00    -0.090 C 
HETATM    3  C1  UNL     1     -36.042   5.630   3.906  1.00 20.00     0.014 C 
BRANCH   2   4
HETATM    4  C5  UNL     1     -34.621   5.471   5.994  1.00 20.00     0.029 C 
HETATM    5  C3  UNL     1     -33.980   6.830   6.252  1.00 20.00     0.010 C 
ENDBRANCH   2   4
ENDBRANCH   1   2
BRANCH   1   6
HETATM    6  C7  UNL     1     -33.689   4.671   2.425  1.00 20.00     0.006 C 
BRANCH   6   7
HETATM    7  C8  UNL     1     -32.446   5.568   2.416  1.00 20.00     0.020 C 
BRANCH   7   8
HETATM    8  C9  UNL     1     -32.767   7.056   2.611  1.00 20.00     0.078 C 
HETATM    9  C4  UNL     1     -32.569   7.835   1.316  1.00 20.00     0.026 C 
HETATM   10 CL10 UNL     1     -31.733   7.776   3.882  1.00 20.00    -0.125 Cl
ENDBRANCH   7   8
ENDBRANCH   6   7
ENDBRANCH   1   6
TORSDOF 5
ENDMDL
MODEL 3
REMARK VINA RESULT:      -4.2      2.610      5.006
REMARK  5 active torsions:
REMARK  status: ('A' for Active; 'I' for Inactive)
REMARK    1  A    between atoms: C2_2  and  C5_5 
REMARK    2  A    between atoms: C2_2  and  C6_6 
REMARK    3  A    between atoms: C6_6  and  C7_7 
REMARK    4  A    between atoms: C7_7  and  C8_8 
REMARK    5  A    between atoms: C8_8  and  C9_9 
ROOT
HETATM    1  C6  UNL     1     -33.452   5.881   2.041  1.00 20.00     0.033 C 
ENDROOT
BRANCH   1   2
HETATM    2  C2  UNL     1     -32.551   7.098   2.101  1.00 20.00    -0.090 C 
HETATM    3  C1  UNL     1     -31.959   7.434   3.259  1.00 20.00     0.014 C 
BRANCH   2   4
HETATM    4  C5  UNL     1     -32.417   7.880   0.810  1.00 20.00     0.029 C 
HETATM    5  C3  UNL     1     -33.001   9.288   0.786  1.00 20.00     0.010 C 
ENDBRANCH   2   4
ENDBRANCH   1   2
BRANCH   1   6
HETATM    6  C7  UNL     1     -33.597   5.185   3.399  1.00 20.00     0.006 C 
BRANCH   6   7
HETATM    7  C8  UNL     1     -34.938   5.531   4.055  1.00 20.00     0.020 C 
BRANCH   7   8
HETATM    8  C9  UNL     1     -34.843   5.716   5.576  1.00 20.00     0.078 C 
HETATM    9  C4  UNL     1     -34.094   6.996   5.928  1.00 20.00     0.026 C 
HETATM   10 CL10 UNL     1     -34.010   4.330   6.341  1.00 20.00    -0.125 Cl
ENDBRANCH   7   8
ENDBRANCH   6   7
ENDBRANCH   1   6
TORSDOF 5
ENDMDL
MODEL 4
REMARK VINA RESULT:      -4.2      0.963      1.690
REMARK  5 active torsions:
REMARK  status: ('A' for Active; 'I' for Inactive)
REMARK    1  A    between atoms: C2_2  and  C5_5 
REMARK    2  A    between atoms: C2_2  and  C6_6 
REMARK    3  A    between atoms: C6_6  and  C7_7 
REMARK    4  A    between atoms: C7_7  and  C8_8 
REMARK    5  A    between atoms: C8_8  and  C9_9 
ROOT
HETATM    1  C6  UNL     1     -33.106   7.258   3.956  1.00 20.00     0.033 C 
ENDROOT
BRANCH   1   2
HETATM    2  C2  UNL     1     -34.053   6.438   4.809  1.00 20.00    -0.090 C 
HETATM    3  C1  UNL     1     -34.124   6.660   6.132  1.00 20.00     0.014 C 
BRANCH   2   4
HETATM    4  C5  UNL     1     -34.844   5.374   4.075  1.00 20.00     0.029 C 
HETATM    5  C3  UNL     1     -34.285   3.955   4.094  1.00 20.00     0.010 C 
ENDBRANCH   2   4
ENDBRANCH   1   2
BRANCH   1   6
HETATM    6  C7  UNL     1     -32.799   6.594   2.609  1.00 20.00     0.006 C 
BRANCH   6   7
HETATM    7  C8  UNL     1     -32.184   7.599   1.628  1.00 20.00     0.020 C 
BRANCH   7   8
HETATM    8  C9  UNL     1     -33.210   8.564   1.021  1.00 20.00     0.078 C 
HETATM    9  C4  UNL     1     -33.282   8.409  -0.494  1.00 20.00     0.026 C 
HETATM   10 CL10 UNL     1     -32.803  10.263   1.408  1.00 20.00    -0.125 Cl
ENDBRANCH   7   8
ENDBRANCH   6   7
ENDBRANCH   1   6
TORSDOF 5
ENDMDL
MODEL 5
REMARK VINA RESULT:      -4.1     10.515     11.624
REMARK  5 active torsions:
REMARK  status: ('A' for Active; 'I' for Inactive)
REMARK    1  A    between atoms: C2_2  and  C5_5 
REMARK    2  A    between atoms: C2_2  and  C6_6 
REMARK    3  A    between atoms: C6_6  and  C7_7 
REMARK    4  A    between atoms: C7_7  and  C8_8 
REMARK    5  A    between atoms: C8_8  and  C9_9 
ROOT
HETATM    1  C6  UNL     1     -33.012  16.911  -2.663  1.00 20.00     0.033 C 
ENDROOT
BRANCH   1   2
HETATM    2  C2  UNL     1     -34.290  16.121  -2.461  1.00 20.00    -0.090 C 
HETATM    3  C1  UNL     1     -35.132  16.455  -1.469  1.00 20.00     0.014 C 
BRANCH   2   4
HETATM    4  C5  UNL     1     -34.499  14.957  -3.408  1.00 20.00     0.029 C 
HETATM    5  C3  UNL     1     -33.337  14.589  -4.324  1.00 20.00     0.010 C 
ENDBRANCH   2   4
ENDBRANCH   1   2
BRANCH   1   6
HETATM    6  C7  UNL     1     -32.953  18.172  -1.794  1.00 20.00     0.006 C 
BRANCH   6   7
HETATM    7  C8  UNL     1     -31.635  18.243  -1.014  1.00 20.00     0.020 C 
BRANCH   7   8
HETATM    8  C9  UNL     1     -31.783  18.873   0.377  1.00 20.00     0.078 C 
HETATM    9  C4  UNL     1     -30.586  18.540   1.261  1.00 20.00     0.026 C 
HETATM   10 CL10 UNL     1     -33.274  18.305   1.186  1.00 20.00    -0.125 Cl
ENDBRANCH   7   8
ENDBRANCH   6   7
ENDBRANCH   1   6
TORSDOF 5
ENDMDL
MODEL 6
REMARK VINA RESULT:      -4.1     10.587     11.630
REMARK  5 active torsions:
REMARK  status: ('A' for Active; 'I' for Inactive)
REMARK    1  A    between atoms: C2_2  and  C5_5 
REMARK    2  A    between atoms: C2_2  and  C6_6 
REMARK    3  A    between atoms: C6_6  and  C7_7 
REMARK    4  A    between atoms: C7_7  and  C8_8 
REMARK    5  A    between atoms: C8_8  and  C9_9 
ROOT
HETATM    1  C6  UNL     1     -33.053  15.913  -3.550  1.00 20.00     0.033 C 
ENDROOT
BRANCH   1   2
HETATM    2  C2  UNL     1     -33.889  16.448  -2.404  1.00 20.00    -0.090 C 
HETATM    3  C1  UNL     1     -35.111  15.939  -2.174  1.00 20.00     0.014 C 
BRANCH   2   4
HETATM    4  C5  UNL     1     -33.266  17.577  -1.609  1.00 20.00     0.029 C 
HETATM    5  C3  UNL     1     -32.438  18.598  -2.382  1.00 20.00     0.010 C 
ENDBRANCH   2   4
ENDBRANCH   1   2
BRANCH   1   6
HETATM    6  C7  UNL     1     -33.668  14.667  -4.198  1.00 20.00     0.006 C 
BRANCH   6   7
HETATM    7  C8  UNL     1     -34.149  14.967  -5.621  1.00 20.00     0.020 C 
BRANCH   7   8
HETATM    8  C9  UNL     1     -35.628  14.625  -5.850  1.00 20.00     0.078 C 
HETATM    9  C4  UNL     1     -36.491  15.881  -5.838  1.00 20.00     0.026 C 
HETATM   10 CL10 UNL     1     -36.228  13.500  -4.595  1.00 20.00    -0.125 Cl
ENDBRANCH   7   8
ENDBRANCH   6   7
ENDBRANCH   1   6
TORSDOF 5
ENDMDL
MODEL 7
REMARK VINA RESULT:      -4.0     10.586     11.486
REMARK  5 active torsions:
REMARK  status: ('A' for Active; 'I' for Inactive)
REMARK    1  A    between atoms: C2_2  and  C5_5 
REMARK    2  A    between atoms: C2_2  and  C6_6 
REMARK    3  A    between atoms: C6_6  and  C7_7 
REMARK    4  A    between atoms: C7_7  and  C8_8 
REMARK    5  A    between atoms: C8_8  and  C9_9 
ROOT
HETATM    1  C6  UNL     1     -32.969  15.608  -3.636  1.00 20.00     0.033 C 
ENDROOT
BRANCH   1   2
HETATM    2  C2  UNL     1     -33.618  16.452  -2.559  1.00 20.00    -0.090 C 
HETATM    3  C1  UNL     1     -32.936  17.468  -2.004  1.00 20.00     0.014 C 
BRANCH   2   4
HETATM    4  C5  UNL     1     -35.021  16.043  -2.159  1.00 20.00     0.029 C 
HETATM    5  C3  UNL     1     -36.128  17.073  -2.354  1.00 20.00     0.010 C 
ENDBRANCH   2   4
ENDBRANCH   1   2
BRANCH   1   6
HETATM    6  C7  UNL     1     -33.912  14.537  -4.197  1.00 20.00     0.006 C 
BRANCH   6   7
HETATM    7  C8  UNL     1     -34.338  14.875  -5.630  1.00 20.00     0.020 C 
BRANCH   7   8
HETATM    8  C9  UNL     1     -35.849  14.738  -5.865  1.00 20.00     0.078 C 
HETATM    9  C4  UNL     1     -36.513  16.106  -5.979  1.00 20.00     0.026 C 
HETATM   10 CL10 UNL     1     -36.626  13.828  -4.536  1.00 20.00    -0.125 Cl
ENDBRANCH   7   8
ENDBRANCH   6   7
ENDBRANCH   1   6
TORSDOF 5
ENDMDL
MODEL 8
REMARK VINA RESULT:      -3.9     10.503     11.355
REMARK  5 active torsions:
REMARK  status: ('A' for Active; 'I' for Inactive)
REMARK    1  A    between atoms: C2_2  and  C5_5 
REMARK    2  A    between atoms: C2_2  and  C6_6 
REMARK    3  A    between atoms: C6_6  and  C7_7 
REMARK    4  A    between atoms: C7_7  and  C8_8 
REMARK    5  A    between atoms: C8_8  and  C9_9 
ROOT
HETATM    1  C6  UNL     1     -35.145  15.317  -2.767  1.00 20.00     0.033 C 
ENDROOT
BRANCH   1   2
HETATM    2  C2  UNL     1     -34.036  16.328  -2.555  1.00 20.00    -0.090 C 
HETATM    3  C1  UNL     1     -32.931  16.278  -3.318  1.00 20.00     0.014 C 
BRANCH   2   4
HETATM    4  C5  UNL     1     -34.261  17.325  -1.436  1.00 20.00     0.029 C 
HETATM    5  C3  UNL     1     -35.375  17.014  -0.442  1.00 20.00     0.010 C 
ENDBRANCH   2   4
ENDBRANCH   1   2
BRANCH   1   6
HETATM    6  C7  UNL     1     -34.791  14.265  -3.825  1.00 20.00     0.006 C 
BRANCH   6   7
HETATM    7  C8  UNL     1     -35.954  14.054  -4.802  1.00 20.00     0.020 C 
BRANCH   7   8
HETATM    8  C9  UNL     1     -35.810  14.856  -6.102  1.00 20.00     0.078 C 
HETATM    9  C4  UNL     1     -34.347  14.977  -6.514  1.00 20.00     0.026 C 
HETATM   10 CL10 UNL     1     -36.499  16.497  -5.925  1.00 20.00    -0.125 Cl
ENDBRANCH   7   8
ENDBRANCH   6   7
ENDBRANCH   1   6
TORSDOF 5
ENDMDL
MODEL 9
REMARK VINA RESULT:      -3.9     15.937     16.932
REMARK  5 active torsions:
REMARK  status: ('A' for Active; 'I' for Inactive)
REMARK    1  A    between atoms: C2_2  and  C5_5 
REMARK    2  A    between atoms: C2_2  and  C6_6 
REMARK    3  A    between atoms: C6_6  and  C7_7 
REMARK    4  A    between atoms: C7_7  and  C8_8 
REMARK    5  A    between atoms: C8_8  and  C9_9 
ROOT
HETATM    1  C6  UNL     1     -22.983  17.067   9.750  1.00 20.00     0.033 C 
ENDROOT
BRANCH   1   2
HETATM    2  C2  UNL     1     -22.689  17.799   8.455  1.00 20.00    -0.090 C 
HETATM    3  C1  UNL     1     -21.694  17.374   7.659  1.00 20.00     0.014 C 
BRANCH   2   4
HETATM    4  C5  UNL     1     -23.553  19.012   8.177  1.00 20.00     0.029 C 
HETATM    5  C3  UNL     1     -25.060  18.847   8.346  1.00 20.00     0.010 C 
ENDBRANCH   2   4
ENDBRANCH   1   2
BRANCH   1   6
HETATM    6  C7  UNL     1     -22.378  17.765  10.974  1.00 20.00     0.006 C 
BRANCH   6   7
HETATM    7  C8  UNL     1     -23.383  17.817  12.130  1.00 20.00     0.020 C 
BRANCH   7   8
HETATM    8  C9  UNL     1     -24.836  17.605  11.685  1.00 20.00     0.078 C 
HETATM    9  C4  UNL     1     -25.726  18.753  12.149  1.00 20.00     0.026 C 
HETATM   10 CL10 UNL     1     -25.490  16.070  12.332  1.00 20.00    -0.125 Cl
ENDBRANCH   7   8
ENDBRANCH   6   7
ENDBRANCH   1   6
TORSDOF 5
ENDMDL
