MODEL 1
REMARK VINA RESULT:      -4.2      0.000      0.000
REMARK  4 active torsions:
REMARK  status: ('A' for Active; 'I' for Inactive)
REMARK    1  A    between atoms: C3_3  and  C5_5 
REMARK    2  A    between atoms: C3_3  and  C6_6 
REMARK    3  A    between atoms: C5_5  and  C7_7 
REMARK    4  A    between atoms: C7_7  and  O8_8 
ROOT
HETATM    1  C1  UNL     1     -35.394   5.415   3.995  1.00 20.00     0.011 A 
HETATM    2  C2  UNL     1     -34.325   4.404   4.294  1.00 20.00     0.011 A 
HETATM    3  C3  UNL     1     -33.940   5.812   3.903  1.00 20.00    -0.026 A 
ENDROOT
BRANCH   3   4
HETATM    4  C5  UNL     1     -33.354   6.027   2.534  1.00 20.00     0.037 C 
BRANCH   4   5
HETATM    5  C7  UNL     1     -32.508   7.296   2.460  1.00 20.00     0.167 C 
BRANCH   5   6
HETATM    6  O8  UNL     1     -32.294   7.640   1.098  1.00 20.00    -0.396 OA
HETATM    7  C4  UNL     1     -32.856   8.908   0.787  1.00 20.00     0.201 C 
ENDBRANCH   5   6
ENDBRANCH   4   5
ENDBRANCH   3   4
BRANCH   3   8
HETATM    8  C6  UNL     1     -33.386   6.714   4.971  1.00 20.00     0.124 C 
HETATM    9 CL9  UNL     1     -34.424   6.696   6.416  1.00 20.00    -0.130 Cl
ENDBRANCH   3   8
TORSDOF 4
ENDMDL
MODEL 2
REMARK VINA RESULT:      -4.0     10.996     11.779
REMARK  4 active torsions:
REMARK  status: ('A' for Active; 'I' for Inactive)
REMARK    1  A    between atoms: C3_3  and  C5_5 
REMARK    2  A    between atoms: C3_3  and  C6_6 
REMARK    3  A    between atoms: C5_5  and  C7_7 
REMARK    4  A    between atoms: C7_7  and  O8_8 
ROOT
HETATM    1  C1  UNL     1     -35.604  16.750  -3.114  1.00 20.00     0.011 A 
HETATM    2  C2  UNL     1     -35.074  16.120  -1.859  1.00 20.00     0.011 A 
HETATM    3  C3  UNL     1     -34.689  15.552  -3.205  1.00 20.00    -0.026 A 
ENDROOT
BRANCH   3   4
HETATM    4  C5  UNL     1     -35.291  14.235  -3.612  1.00 20.00     0.037 C 
BRANCH   4   5
HETATM    5  C7  UNL     1     -36.271  14.380  -4.772  1.00 20.00     0.167 C 
BRANCH   5   6
HETATM    6  O8  UNL     1     -37.501  13.755  -4.431  1.00 20.00    -0.396 OA
HETATM    7  C4  UNL     1     -38.538  14.710  -4.249  1.00 20.00     0.201 C 
ENDBRANCH   5   6
ENDBRANCH   4   5
ENDBRANCH   3   4
BRANCH   3   8
HETATM    8  C6  UNL     1     -33.282  15.773  -3.687  1.00 20.00     0.124 C 
HETATM    9 CL9  UNL     1     -32.634  14.300  -4.446  1.00 20.00    -0.130 Cl
ENDBRANCH   3   8
TORSDOF 4
ENDMDL
MODEL 3
REMARK VINA RESULT:      -4.0     11.411     12.213
REMARK  4 active torsions:
REMARK  status: ('A' for Active; 'I' for Inactive)
REMARK    1  A    between atoms: C3_3  and  C5_5 
REMARK    2  A    between atoms: C3_3  and  C6_6 
REMARK    3  A    between atoms: C5_5  and  C7_7 
REMARK    4  A    between atoms: C7_7  and  O8_8 
ROOT
HETATM    1  C1  UNL     1     -34.757  16.119  -2.318  1.00 20.00     0.011 A 
HETATM    2  C2  UNL     1     -33.483  15.851  -3.065  1.00 20.00     0.011 A 
HETATM    3  C3  UNL     1     -34.814  15.601  -3.736  1.00 20.00    -0.026 A 
ENDROOT
BRANCH   3   4
HETATM    4  C5  UNL     1     -35.237  14.173  -3.948  1.00 20.00     0.037 C 
BRANCH   4   5
HETATM    5  C7  UNL     1     -36.304  14.040  -5.031  1.00 20.00     0.167 C 
BRANCH   5   6
HETATM    6  O8  UNL     1     -37.531  13.640  -4.436  1.00 20.00    -0.396 OA
HETATM    7  C4  UNL     1     -38.409  14.743  -4.260  1.00 20.00     0.201 C 
ENDBRANCH   5   6
ENDBRANCH   4   5
ENDBRANCH   3   4
BRANCH   3   8
HETATM    8  C6  UNL     1     -35.248  16.550  -4.817  1.00 20.00     0.124 C 
HETATM    9 CL9  UNL     1     -36.394  17.754  -4.181  1.00 20.00    -0.130 Cl
ENDBRANCH   3   8
TORSDOF 4
ENDMDL
MODEL 4
REMARK VINA RESULT:      -3.9     15.354     16.367
REMARK  4 active torsions:
REMARK  status: ('A' for Active; 'I' for Inactive)
REMARK    1  A    between atoms: C3_3  and  C5_5 
REMARK    2  A    between atoms: C3_3  and  C6_6 
REMARK    3  A    between atoms: C5_5  and  C7_7 
REMARK    4  A    between atoms: C7_7  and  O8_8 
ROOT
HETATM    1  C1  UNL     1     -22.295  17.081   8.658  1.00 20.00     0.011 A 
HETATM    2  C2  UNL     1     -21.398  18.108   9.286  1.00 20.00     0.011 A 
HETATM    3  C3  UNL     1     -22.890  18.168   9.522  1.00 20.00    -0.026 A 
ENDROOT
BRANCH   3   4
HETATM    4  C5  UNL     1     -23.666  19.263   8.843  1.00 20.00     0.037 C 
BRANCH   4   5
HETATM    5  C7  UNL     1     -24.885  18.729   8.094  1.00 20.00     0.167 C 
BRANCH   5   6
HETATM    6  O8  UNL     1     -24.688  18.893   6.696  1.00 20.00    -0.396 OA
HETATM    7  C4  UNL     1     -25.916  19.128   6.021  1.00 20.00     0.201 C 
ENDBRANCH   5   6
ENDBRANCH   4   5
ENDBRANCH   3   4
BRANCH   3   8
HETATM    8  C6  UNL     1     -23.404  17.786  10.882  1.00 20.00     0.124 C 
HETATM    9 CL9  UNL     1     -24.334  16.271  10.805  1.00 20.00    -0.130 Cl
ENDBRANCH   3   8
TORSDOF 4
ENDMDL
MODEL 5
REMARK VINA RESULT:      -3.9     11.618     12.359
REMARK  4 active torsions:
REMARK  status: ('A' for Active; 'I' for Inactive)
REMARK    1  A    between atoms: C3_3  and  C5_5 
REMARK    2  A    between atoms: C3_3  and  C6_6 
REMARK    3  A    between atoms: C5_5  and  C7_7 
REMARK    4  A    between atoms: C7_7  and  O8_8 
ROOT
HETATM    1  C1  UNL     1     -34.244  16.923  -3.978  1.00 20.00     0.011 A 
HETATM    2  C2  UNL     1     -33.424  16.036  -3.086  1.00 20.00     0.011 A 
HETATM    3  C3  UNL     1     -34.372  15.422  -4.090  1.00 20.00    -0.026 A 
ENDROOT
BRANCH   3   4
HETATM    4  C5  UNL     1     -35.630  14.781  -3.570  1.00 20.00     0.037 C 
BRANCH   4   5
HETATM    5  C7  UNL     1     -36.137  13.672  -4.488  1.00 20.00     0.167 C 
BRANCH   5   6
HETATM    6  O8  UNL     1     -37.557  13.643  -4.452  1.00 20.00    -0.396 OA
HETATM    7  C4  UNL     1     -38.102  14.948  -4.321  1.00 20.00     0.201 C 
ENDBRANCH   5   6
ENDBRANCH   4   5
ENDBRANCH   3   4
BRANCH   3   8
HETATM    8  C6  UNL     1     -33.781  14.752  -5.299  1.00 20.00     0.124 C 
HETATM    9 CL9  UNL     1     -34.191  15.645  -6.783  1.00 20.00    -0.130 Cl
ENDBRANCH   3   8
TORSDOF 4
ENDMDL
MODEL 6
REMARK VINA RESULT:      -3.8     15.508     16.059
REMARK  4 active torsions:
REMARK  status: ('A' for Active; 'I' for Inactive)
REMARK    1  A    between atoms: C3_3  and  C5_5 
REMARK    2  A    between atoms: C3_3  and  C6_6 
REMARK    3  A    between atoms: C5_5  and  C7_7 
REMARK    4  A    between atoms: C7_7  and  O8_8 
ROOT
HETATM    1  C1  UNL     1     -24.555  15.978  11.478  1.00 20.00     0.011 A 
HETATM    2  C2  UNL     1     -23.366  16.763  11.954  1.00 20.00     0.011 A 
HETATM    3  C3  UNL     1     -24.179  17.267  10.784  1.00 20.00    -0.026 A 
ENDROOT
BRANCH   3   4
HETATM    4  C5  UNL     1     -23.569  17.176   9.412  1.00 20.00     0.037 C 
BRANCH   4   5
HETATM    5  C7  UNL     1     -23.280  18.551   8.815  1.00 20.00     0.167 C 
BRANCH   5   6
HETATM    6  O8  UNL     1     -23.529  18.519   7.416  1.00 20.00    -0.396 OA
HETATM    7  C4  UNL     1     -24.778  19.116   7.095  1.00 20.00     0.201 C 
ENDBRANCH   5   6
ENDBRANCH   4   5
ENDBRANCH   3   4
BRANCH   3   8
HETATM    8  C6  UNL     1     -25.058  18.467  11.001  1.00 20.00     0.124 C 
HETATM    9 CL9  UNL     1     -26.481  18.042  11.981  1.00 20.00    -0.130 Cl
ENDBRANCH   3   8
TORSDOF 4
ENDMDL
MODEL 7
REMARK VINA RESULT:      -3.8     11.351     12.075
REMARK  4 active torsions:
REMARK  status: ('A' for Active; 'I' for Inactive)
REMARK    1  A    between atoms: C3_3  and  C5_5 
REMARK    2  A    between atoms: C3_3  and  C6_6 
REMARK    3  A    between atoms: C5_5  and  C7_7 
REMARK    4  A    between atoms: C7_7  and  O8_8 
ROOT
HETATM    1  C1  UNL     1     -34.874  16.251  -1.908  1.00 20.00     0.011 A 
HETATM    2  C2  UNL     1     -33.668  17.143  -1.849  1.00 20.00     0.011 A 
HETATM    3  C3  UNL     1     -34.080  16.523  -3.164  1.00 20.00    -0.026 A 
ENDROOT
BRANCH   3   4
HETATM    4  C5  UNL     1     -33.230  15.412  -3.716  1.00 20.00     0.037 C 
BRANCH   4   5
HETATM    5  C7  UNL     1     -33.953  14.612  -4.798  1.00 20.00     0.167 C 
BRANCH   5   6
HETATM    6  O8  UNL     1     -34.694  13.563  -4.191  1.00 20.00    -0.396 OA
HETATM    7  C4  UNL     1     -36.072  13.635  -4.530  1.00 20.00     0.201 C 
ENDBRANCH   5   6
ENDBRANCH   4   5
ENDBRANCH   3   4
BRANCH   3   8
HETATM    8  C6  UNL     1     -34.692  17.420  -4.205  1.00 20.00     0.124 C 
HETATM    9 CL9  UNL     1     -36.465  17.270  -4.207  1.00 20.00    -0.130 Cl
ENDBRANCH   3   8
TORSDOF 4
ENDMDL
MODEL 8
REMARK VINA RESULT:      -3.8     11.279     12.303
REMARK  4 active torsions:
REMARK  status: ('A' for Active; 'I' for Inactive)
REMARK    1  A    between atoms: C3_3  and  C5_5 
REMARK    2  A    between atoms: C3_3  and  C6_6 
REMARK    3  A    between atoms: C5_5  and  C7_7 
REMARK    4  A    between atoms: C7_7  and  O8_8 
ROOT
HETATM    1  C1  UNL     1     -34.259  15.063  -6.140  1.00 20.00     0.011 A 
HETATM    2  C2  UNL     1     -34.535  16.505  -5.826  1.00 20.00     0.011 A 
HETATM    3  C3  UNL     1     -34.492  15.487  -4.710  1.00 20.00    -0.026 A 
ENDROOT
BRANCH   3   4
HETATM    4  C5  UNL     1     -35.794  15.098  -4.062  1.00 20.00     0.037 C 
BRANCH   4   5
HETATM    5  C7  UNL     1     -36.262  13.710  -4.492  1.00 20.00     0.167 C 
BRANCH   5   6
HETATM    6  O8  UNL     1     -37.681  13.659  -4.452  1.00 20.00    -0.396 OA
HETATM    7  C4  UNL     1     -38.245  14.950  -4.269  1.00 20.00     0.201 C 
ENDBRANCH   5   6
ENDBRANCH   4   5
ENDBRANCH   3   4
BRANCH   3   8
HETATM    8  C6  UNL     1     -33.312  15.511  -3.779  1.00 20.00     0.124 C 
HETATM    9 CL9  UNL     1     -33.682  16.447  -2.311  1.00 20.00    -0.130 Cl
ENDBRANCH   3   8
TORSDOF 4
ENDMDL
MODEL 9
REMARK VINA RESULT:      -3.7     11.513     12.058
REMARK  4 active torsions:
REMARK  status: ('A' for Active; 'I' for Inactive)
REMARK    1  A    between atoms: C3_3  and  C5_5 
REMARK    2  A    between atoms: C3_3  and  C6_6 
REMARK    3  A    between atoms: C5_5  and  C7_7 
REMARK    4  A    between atoms: C7_7  and  O8_8 
ROOT
HETATM    1  C1  UNL     1     -35.510  16.989  -2.894  1.00 20.00     0.011 A 
HETATM    2  C2  UNL     1     -35.138  16.277  -1.626  1.00 20.00     0.011 A 
HETATM    3  C3  UNL     1     -34.302  16.083  -2.869  1.00 20.00    -0.026 A 
ENDROOT
BRANCH   3   4
HETATM    4  C5  UNL     1     -34.396  14.762  -3.582  1.00 20.00     0.037 C 
BRANCH   4   5
HETATM    5  C7  UNL     1     -34.329  14.916  -5.099  1.00 20.00     0.167 C 
BRANCH   5   6
HETATM    6  O8  UNL     1     -35.319  14.092  -5.700  1.00 20.00    -0.396 OA
HETATM    7  C4  UNL     1     -36.322  13.717  -4.766  1.00 20.00     0.201 C 
ENDBRANCH   5   6
ENDBRANCH   4   5
ENDBRANCH   3   4
BRANCH   3   8
HETATM    8  C6  UNL     1     -32.941  16.720  -2.909  1.00 20.00     0.124 C 
HETATM    9 CL9  UNL     1     -32.987  18.255  -3.809  1.00 20.00    -0.130 Cl
ENDBRANCH   3   8
TORSDOF 4
ENDMDL
