MODEL 1
REMARK VINA RESULT:      -4.5      0.000      0.000
REMARK  5 active torsions:
REMARK  status: ('A' for Active; 'I' for Inactive)
REMARK    1  A    between atoms: C2_2  and  C8_8 
REMARK    2  A    between atoms: C2_2  and  C9_9 
REMARK    3  A    between atoms: C3_3  and  C10_10 
REMARK    4  A    between atoms: C9_9  and  C10_10 
REMARK    5  A    between atoms: C10_10  and  C11_11 
ROOT
HETATM    1  C10 UNL     1     -35.535  15.227  -4.660  1.00 20.00     0.062 C 
ENDROOT
BRANCH   1   2
HETATM    2  C3  UNL     1     -36.502  14.048  -4.519  1.00 20.00     0.127 C 
HETATM    3  C4  UNL     1     -37.956  14.383  -4.306  1.00 20.00     0.091 C 
HETATM    4  O12 UNL     1     -36.127  12.877  -4.591  1.00 20.00    -0.298 OA
ENDBRANCH   1   2
BRANCH   1   5
HETATM    5  C9  UNL     1     -34.306  15.012  -3.750  1.00 20.00     0.045 C 
BRANCH   5   6
HETATM    6  C2  UNL     1     -34.153  16.055  -2.658  1.00 20.00    -0.089 C 
HETATM    7  C1  UNL     1     -35.087  16.191  -1.703  1.00 20.00     0.014 C 
BRANCH   6   8
HETATM    8  C8  UNL     1     -32.929  16.944  -2.672  1.00 20.00     0.029 C 
HETATM    9  C5  UNL     1     -33.032  18.087  -3.671  1.00 20.00     0.010 C 
ENDBRANCH   6   8
ENDBRANCH   5   6
ENDBRANCH   1   5
BRANCH   1  10
HETATM   10  C11 UNL     1     -35.130  15.494  -6.134  1.00 20.00    -0.011 C 
HETATM   11  C6  UNL     1     -33.757  14.946  -6.533  1.00 20.00     0.010 C 
HETATM   12  C7  UNL     1     -35.213  16.984  -6.484  1.00 20.00     0.010 C 
ENDBRANCH   1  10
TORSDOF 5
ENDMDL
MODEL 2
REMARK VINA RESULT:      -4.5      0.471      1.436
REMARK  5 active torsions:
REMARK  status: ('A' for Active; 'I' for Inactive)
REMARK    1  A    between atoms: C2_2  and  C8_8 
REMARK    2  A    between atoms: C2_2  and  C9_9 
REMARK    3  A    between atoms: C3_3  and  C10_10 
REMARK    4  A    between atoms: C9_9  and  C10_10 
REMARK    5  A    between atoms: C10_10  and  C11_11 
ROOT
HETATM    1  C10 UNL     1     -35.523  15.217  -4.654  1.00 20.00     0.062 C 
ENDROOT
BRANCH   1   2
HETATM    2  C3  UNL     1     -36.483  14.030  -4.534  1.00 20.00     0.127 C 
HETATM    3  C4  UNL     1     -37.939  14.354  -4.313  1.00 20.00     0.091 C 
HETATM    4  O12 UNL     1     -36.103  12.863  -4.628  1.00 20.00    -0.298 OA
ENDBRANCH   1   2
BRANCH   1   5
HETATM    5  C9  UNL     1     -34.283  14.984  -3.763  1.00 20.00     0.045 C 
BRANCH   5   6
HETATM    6  C2  UNL     1     -34.055  16.065  -2.723  1.00 20.00    -0.089 C 
HETATM    7  C1  UNL     1     -32.934  16.805  -2.736  1.00 20.00     0.014 C 
BRANCH   6   8
HETATM    8  C8  UNL     1     -35.113  16.287  -1.666  1.00 20.00     0.029 C 
HETATM    9  C5  UNL     1     -34.746  17.380  -0.673  1.00 20.00     0.010 C 
ENDBRANCH   6   8
ENDBRANCH   5   6
ENDBRANCH   1   5
BRANCH   1  10
HETATM   10  C11 UNL     1     -35.135  15.524  -6.125  1.00 20.00    -0.011 C 
HETATM   11  C6  UNL     1     -33.795  14.935  -6.573  1.00 20.00     0.010 C 
HETATM   12  C7  UNL     1     -35.160  17.029  -6.416  1.00 20.00     0.010 C 
ENDBRANCH   1  10
TORSDOF 5
ENDMDL
MODEL 3
REMARK VINA RESULT:      -4.2      1.064      3.399
REMARK  5 active torsions:
REMARK  status: ('A' for Active; 'I' for Inactive)
REMARK    1  A    between atoms: C2_2  and  C8_8 
REMARK    2  A    between atoms: C2_2  and  C9_9 
REMARK    3  A    between atoms: C3_3  and  C10_10 
REMARK    4  A    between atoms: C9_9  and  C10_10 
REMARK    5  A    between atoms: C10_10  and  C11_11 
ROOT
HETATM    1  C10 UNL     1     -34.479  15.030  -4.376  1.00 20.00     0.062 C 
ENDROOT
BRANCH   1   2
HETATM    2  C3  UNL     1     -35.405  13.816  -4.254  1.00 20.00     0.127 C 
HETATM    3  C4  UNL     1     -36.873  14.053  -4.506  1.00 20.00     0.091 C 
HETATM    4  O12 UNL     1     -34.985  12.691  -3.980  1.00 20.00    -0.298 OA
ENDBRANCH   1   2
BRANCH   1   5
HETATM    5  C9  UNL     1     -35.147  16.116  -5.247  1.00 20.00     0.045 C 
BRANCH   5   6
HETATM    6  C2  UNL     1     -34.478  16.329  -6.592  1.00 20.00    -0.089 C 
HETATM    7  C1  UNL     1     -34.024  15.285  -7.306  1.00 20.00     0.014 C 
BRANCH   6   8
HETATM    8  C8  UNL     1     -34.327  17.741  -7.111  1.00 20.00     0.029 C 
HETATM    9  C5  UNL     1     -34.201  18.775  -6.002  1.00 20.00     0.010 C 
ENDBRANCH   6   8
ENDBRANCH   5   6
ENDBRANCH   1   5
BRANCH   1  10
HETATM   10  C11 UNL     1     -34.035  15.580  -2.995  1.00 20.00    -0.011 C 
HETATM   11  C6  UNL     1     -35.177  16.071  -2.100  1.00 20.00     0.010 C 
HETATM   12  C7  UNL     1     -32.981  16.684  -3.137  1.00 20.00     0.010 C 
ENDBRANCH   1  10
TORSDOF 5
ENDMDL
MODEL 4
REMARK VINA RESULT:      -4.1      1.045      3.696
REMARK  5 active torsions:
REMARK  status: ('A' for Active; 'I' for Inactive)
REMARK    1  A    between atoms: C2_2  and  C8_8 
REMARK    2  A    between atoms: C2_2  and  C9_9 
REMARK    3  A    between atoms: C3_3  and  C10_10 
REMARK    4  A    between atoms: C9_9  and  C10_10 
REMARK    5  A    between atoms: C10_10  and  C11_11 
ROOT
HETATM    1  C10 UNL     1     -34.513  15.257  -4.187  1.00 20.00     0.062 C 
ENDROOT
BRANCH   1   2
HETATM    2  C3  UNL     1     -35.287  13.936  -4.176  1.00 20.00     0.127 C 
HETATM    3  C4  UNL     1     -36.766  14.013  -4.458  1.00 20.00     0.091 C 
HETATM    4  O12 UNL     1     -34.740  12.853  -3.965  1.00 20.00    -0.298 OA
ENDBRANCH   1   2
BRANCH   1   5
HETATM    5  C9  UNL     1     -35.326  16.339  -4.931  1.00 20.00     0.045 C 
BRANCH   5   6
HETATM    6  C2  UNL     1     -34.673  16.835  -6.208  1.00 20.00    -0.089 C 
HETATM    7  C1  UNL     1     -34.435  18.144  -6.394  1.00 20.00     0.014 C 
BRANCH   6   8
HETATM    8  C8  UNL     1     -34.302  15.826  -7.271  1.00 20.00     0.029 C 
HETATM    9  C5  UNL     1     -35.507  15.105  -7.857  1.00 20.00     0.010 C 
ENDBRANCH   6   8
ENDBRANCH   5   6
ENDBRANCH   1   5
BRANCH   1  10
HETATM   10  C11 UNL     1     -34.098  15.716  -2.763  1.00 20.00    -0.011 C 
HETATM   11  C6  UNL     1     -35.252  16.204  -1.883  1.00 20.00     0.010 C 
HETATM   12  C7  UNL     1     -32.998  16.782  -2.809  1.00 20.00     0.010 C 
ENDBRANCH   1  10
TORSDOF 5
ENDMDL
MODEL 5
REMARK VINA RESULT:      -4.1      1.060      1.276
REMARK  5 active torsions:
REMARK  status: ('A' for Active; 'I' for Inactive)
REMARK    1  A    between atoms: C2_2  and  C8_8 
REMARK    2  A    between atoms: C2_2  and  C9_9 
REMARK    3  A    between atoms: C3_3  and  C10_10 
REMARK    4  A    between atoms: C9_9  and  C10_10 
REMARK    5  A    between atoms: C10_10  and  C11_11 
ROOT
HETATM    1  C10 UNL     1     -35.574  15.379  -4.163  1.00 20.00     0.062 C 
ENDROOT
BRANCH   1   2
HETATM    2  C3  UNL     1     -36.969  14.760  -4.288  1.00 20.00     0.127 C 
HETATM    3  C4  UNL     1     -38.143  15.699  -4.171  1.00 20.00     0.091 C 
HETATM    4  O12 UNL     1     -37.141  13.557  -4.491  1.00 20.00    -0.298 OA
ENDBRANCH   1   2
BRANCH   1   5
HETATM    5  C9  UNL     1     -35.098  15.312  -2.695  1.00 20.00     0.045 C 
BRANCH   5   6
HETATM    6  C2  UNL     1     -34.834  16.668  -2.068  1.00 20.00    -0.089 C 
HETATM    7  C1  UNL     1     -35.843  17.406  -1.576  1.00 20.00     0.014 C 
BRANCH   6   8
HETATM    8  C8  UNL     1     -33.410  17.176  -2.014  1.00 20.00     0.029 C 
HETATM    9  C5  UNL     1     -32.998  17.934  -3.267  1.00 20.00     0.010 C 
ENDBRANCH   6   8
ENDBRANCH   5   6
ENDBRANCH   1   5
BRANCH   1  10
HETATM   10  C11 UNL     1     -34.550  14.741  -5.138  1.00 20.00    -0.011 C 
HETATM   11  C6  UNL     1     -33.187  14.419  -4.520  1.00 20.00     0.010 C 
HETATM   12  C7  UNL     1     -34.356  15.595  -6.397  1.00 20.00     0.010 C 
ENDBRANCH   1  10
TORSDOF 5
ENDMDL
MODEL 6
REMARK VINA RESULT:      -4.1      1.314      1.651
REMARK  5 active torsions:
REMARK  status: ('A' for Active; 'I' for Inactive)
REMARK    1  A    between atoms: C2_2  and  C8_8 
REMARK    2  A    between atoms: C2_2  and  C9_9 
REMARK    3  A    between atoms: C3_3  and  C10_10 
REMARK    4  A    between atoms: C9_9  and  C10_10 
REMARK    5  A    between atoms: C10_10  and  C11_11 
ROOT
HETATM    1  C10 UNL     1     -36.232  15.586  -3.818  1.00 20.00     0.062 C 
ENDROOT
BRANCH   1   2
HETATM    2  C3  UNL     1     -36.792  14.225  -4.241  1.00 20.00     0.127 C 
HETATM    3  C4  UNL     1     -35.789  13.134  -4.521  1.00 20.00     0.091 C 
HETATM    4  O12 UNL     1     -38.001  14.010  -4.337  1.00 20.00    -0.298 OA
ENDBRANCH   1   2
BRANCH   1   5
HETATM    5  C9  UNL     1     -34.767  15.431  -3.352  1.00 20.00     0.045 C 
BRANCH   5   6
HETATM    6  C2  UNL     1     -34.371  16.376  -2.233  1.00 20.00    -0.089 C 
HETATM    7  C1  UNL     1     -35.212  16.627  -1.216  1.00 20.00     0.014 C 
BRANCH   6   8
HETATM    8  C8  UNL     1     -33.010  17.035  -2.289  1.00 20.00     0.029 C 
HETATM    9  C5  UNL     1     -32.954  18.209  -3.254  1.00 20.00     0.010 C 
ENDBRANCH   6   8
ENDBRANCH   5   6
ENDBRANCH   1   5
BRANCH   1  10
HETATM   10  C11 UNL     1     -36.381  16.661  -4.926  1.00 20.00    -0.011 C 
HETATM   11  C6  UNL     1     -35.167  16.809  -5.848  1.00 20.00     0.010 C 
HETATM   12  C7  UNL     1     -36.754  18.029  -4.343  1.00 20.00     0.010 C 
ENDBRANCH   1  10
TORSDOF 5
ENDMDL
MODEL 7
REMARK VINA RESULT:      -4.1      1.068      1.780
REMARK  5 active torsions:
REMARK  status: ('A' for Active; 'I' for Inactive)
REMARK    1  A    between atoms: C2_2  and  C8_8 
REMARK    2  A    between atoms: C2_2  and  C9_9 
REMARK    3  A    between atoms: C3_3  and  C10_10 
REMARK    4  A    between atoms: C9_9  and  C10_10 
REMARK    5  A    between atoms: C10_10  and  C11_11 
ROOT
HETATM    1  C10 UNL     1     -34.860  15.474  -4.395  1.00 20.00     0.062 C 
ENDROOT
BRANCH   1   2
HETATM    2  C3  UNL     1     -35.240  13.994  -4.283  1.00 20.00     0.127 C 
HETATM    3  C4  UNL     1     -36.669  13.633  -4.601  1.00 20.00     0.091 C 
HETATM    4  O12 UNL     1     -34.425  13.127  -3.964  1.00 20.00    -0.298 OA
ENDBRANCH   1   2
BRANCH   1   5
HETATM    5  C9  UNL     1     -33.547  15.740  -3.628  1.00 20.00     0.045 C 
BRANCH   5   6
HETATM    6  C2  UNL     1     -33.721  16.577  -2.374  1.00 20.00    -0.089 C 
HETATM    7  C1  UNL     1     -32.784  17.465  -2.005  1.00 20.00     0.014 C 
BRANCH   6   8
HETATM    8  C8  UNL     1     -34.970  16.385  -1.543  1.00 20.00     0.029 C 
HETATM    9  C5  UNL     1     -35.402  17.648  -0.813  1.00 20.00     0.010 C 
ENDBRANCH   6   8
ENDBRANCH   5   6
ENDBRANCH   1   5
BRANCH   1  10
HETATM   10  C11 UNL     1     -34.784  15.958  -5.867  1.00 20.00    -0.011 C 
HETATM   11  C6  UNL     1     -33.896  15.109  -6.780  1.00 20.00     0.010 C 
HETATM   12  C7  UNL     1     -34.361  17.429  -5.959  1.00 20.00     0.010 C 
ENDBRANCH   1  10
TORSDOF 5
ENDMDL
MODEL 8
REMARK VINA RESULT:      -4.0      3.068      5.109
REMARK  5 active torsions:
REMARK  status: ('A' for Active; 'I' for Inactive)
REMARK    1  A    between atoms: C2_2  and  C8_8 
REMARK    2  A    between atoms: C2_2  and  C9_9 
REMARK    3  A    between atoms: C3_3  and  C10_10 
REMARK    4  A    between atoms: C9_9  and  C10_10 
REMARK    5  A    between atoms: C10_10  and  C11_11 
ROOT
HETATM    1  C10 UNL     1     -32.735  17.868  -2.127  1.00 20.00     0.062 C 
ENDROOT
BRANCH   1   2
HETATM    2  C3  UNL     1     -31.958  18.266  -0.869  1.00 20.00     0.127 C 
HETATM    3  C4  UNL     1     -32.764  18.490   0.385  1.00 20.00     0.091 C 
HETATM    4  O12 UNL     1     -30.732  18.385  -0.862  1.00 20.00    -0.298 OA
ENDBRANCH   1   2
BRANCH   1   5
HETATM    5  C9  UNL     1     -33.869  16.887  -1.758  1.00 20.00     0.045 C 
BRANCH   5   6
HETATM    6  C2  UNL     1     -34.166  15.853  -2.828  1.00 20.00    -0.089 C 
HETATM    7  C1  UNL     1     -35.397  15.330  -2.955  1.00 20.00     0.014 C 
BRANCH   6   8
HETATM    8  C8  UNL     1     -33.046  15.417  -3.746  1.00 20.00     0.029 C 
HETATM    9  C5  UNL     1     -33.543  14.848  -5.066  1.00 20.00     0.010 C 
ENDBRANCH   6   8
ENDBRANCH   5   6
ENDBRANCH   1   5
BRANCH   1  10
HETATM   10  C11 UNL     1     -33.261  19.097  -2.916  1.00 20.00    -0.011 C 
HETATM   11  C6  UNL     1     -34.783  19.262  -2.910  1.00 20.00     0.010 C 
HETATM   12  C7  UNL     1     -32.746  19.107  -4.360  1.00 20.00     0.010 C 
ENDBRANCH   1  10
TORSDOF 5
ENDMDL
MODEL 9
REMARK VINA RESULT:      -3.9      1.649      3.893
REMARK  5 active torsions:
REMARK  status: ('A' for Active; 'I' for Inactive)
REMARK    1  A    between atoms: C2_2  and  C8_8 
REMARK    2  A    between atoms: C2_2  and  C9_9 
REMARK    3  A    between atoms: C3_3  and  C10_10 
REMARK    4  A    between atoms: C9_9  and  C10_10 
REMARK    5  A    between atoms: C10_10  and  C11_11 
ROOT
HETATM    1  C10 UNL     1     -34.863  15.477  -4.017  1.00 20.00     0.062 C 
ENDROOT
BRANCH   1   2
HETATM    2  C3  UNL     1     -33.939  14.695  -4.954  1.00 20.00     0.127 C 
HETATM    3  C4  UNL     1     -34.004  15.043  -6.419  1.00 20.00     0.091 C 
HETATM    4  O12 UNL     1     -33.163  13.831  -4.544  1.00 20.00    -0.298 OA
ENDBRANCH   1   2
BRANCH   1   5
HETATM    5  C9  UNL     1     -36.171  14.687  -3.787  1.00 20.00     0.045 C 
BRANCH   5   6
HETATM    6  C2  UNL     1     -37.411  15.373  -4.328  1.00 20.00    -0.089 C 
HETATM    7  C1  UNL     1     -38.613  14.777  -4.253  1.00 20.00     0.014 C 
BRANCH   6   8
HETATM    8  C8  UNL     1     -37.267  16.739  -4.960  1.00 20.00     0.029 C 
HETATM    9  C5  UNL     1     -37.719  17.870  -4.048  1.00 20.00     0.010 C 
ENDBRANCH   6   8
ENDBRANCH   5   6
ENDBRANCH   1   5
BRANCH   1  10
HETATM   10  C11 UNL     1     -34.172  15.861  -2.682  1.00 20.00    -0.011 C 
HETATM   11  C6  UNL     1     -35.117  16.365  -1.589  1.00 20.00     0.010 C 
HETATM   12  C7  UNL     1     -33.045  16.878  -2.899  1.00 20.00     0.010 C 
ENDBRANCH   1  10
TORSDOF 5
ENDMDL
