MODEL 1
REMARK VINA RESULT:      -4.2      0.000      0.000
REMARK  3 active torsions:
REMARK  status: ('A' for Active; 'I' for Inactive)
REMARK    1  A    between atoms: C1_1  and  C6_6 
REMARK    2  A    between atoms: C5_5  and  C6_6 
REMARK    3  A    between atoms: C6_6  and  O8_8 
ROOT
HETATM    1  C4  UNL     1     -37.189  14.567  -4.225  1.00 20.00     0.054 C 
HETATM    2  C6  UNL     1     -35.792  14.063  -4.593  1.00 20.00     0.110 C 
ENDROOT
BRANCH   2   3
HETATM    3  C1  UNL     1     -35.470  14.513  -6.012  1.00 20.00     0.268 C 
HETATM    4  O7  UNL     1     -36.217  14.350  -6.973  1.00 20.00    -0.304 OA
ENDBRANCH   2   3
BRANCH   2   5
HETATM    5  C5  UNL     1     -34.704  14.517  -3.586  1.00 20.00     0.018 C 
HETATM    6  C2  UNL     1     -35.110  15.711  -2.716  1.00 20.00     0.013 C 
HETATM    7  C3  UNL     1     -33.362  14.817  -4.272  1.00 20.00     0.013 C 
ENDBRANCH   2   5
BRANCH   2   8
HETATM    8  O8  UNL     1     -35.827  12.636  -4.591  1.00 20.00    -0.383 OA
HETATM    9  H20 UNL     1     -35.854  12.361  -5.520  1.00 20.00     0.211 HD
ENDBRANCH   2   8
TORSDOF 3
ENDMDL
MODEL 2
REMARK VINA RESULT:      -4.1      1.424      1.821
REMARK  3 active torsions:
REMARK  status: ('A' for Active; 'I' for Inactive)
REMARK    1  A    between atoms: C1_1  and  C6_6 
REMARK    2  A    between atoms: C5_5  and  C6_6 
REMARK    3  A    between atoms: C6_6  and  O8_8 
ROOT
HETATM    1  C4  UNL     1     -36.251  16.240  -5.007  1.00 20.00     0.054 C 
HETATM    2  C6  UNL     1     -36.109  15.001  -4.121  1.00 20.00     0.110 C 
ENDROOT
BRANCH   2   3
HETATM    3  C1  UNL     1     -35.977  13.775  -5.014  1.00 20.00     0.268 C 
HETATM    4  O7  UNL     1     -35.869  12.626  -4.595  1.00 20.00    -0.304 OA
ENDBRANCH   2   3
BRANCH   2   5
HETATM    5  C5  UNL     1     -34.929  15.111  -3.119  1.00 20.00     0.018 C 
HETATM    6  C2  UNL     1     -35.129  16.164  -2.024  1.00 20.00     0.013 C 
HETATM    7  C3  UNL     1     -33.586  15.356  -3.824  1.00 20.00     0.013 C 
ENDBRANCH   2   5
BRANCH   2   8
HETATM    8  O8  UNL     1     -37.313  14.859  -3.368  1.00 20.00    -0.383 OA
HETATM    9  H20 UNL     1     -37.100  15.121  -2.459  1.00 20.00     0.211 HD
ENDBRANCH   2   8
TORSDOF 3
ENDMDL
MODEL 3
REMARK VINA RESULT:      -3.9      9.312     10.568
REMARK  3 active torsions:
REMARK  status: ('A' for Active; 'I' for Inactive)
REMARK    1  A    between atoms: C1_1  and  C6_6 
REMARK    2  A    between atoms: C5_5  and  C6_6 
REMARK    3  A    between atoms: C6_6  and  O8_8 
ROOT
HETATM    1  C4  UNL     1     -43.287   8.244  -0.641  1.00 20.00     0.054 C 
HETATM    2  C6  UNL     1     -41.791   8.010  -0.426  1.00 20.00     0.110 C 
ENDROOT
BRANCH   2   3
HETATM    3  C1  UNL     1     -41.235   9.151   0.414  1.00 20.00     0.268 C 
HETATM    4  O7  UNL     1     -41.590  10.322   0.307  1.00 20.00    -0.304 OA
ENDBRANCH   2   3
BRANCH   2   5
HETATM    5  C5  UNL     1     -41.483   6.627   0.208  1.00 20.00     0.018 C 
HETATM    6  C2  UNL     1     -40.968   5.580  -0.785  1.00 20.00     0.013 C 
HETATM    7  C3  UNL     1     -42.687   6.057   0.975  1.00 20.00     0.013 C 
ENDBRANCH   2   5
BRANCH   2   8
HETATM    8  O8  UNL     1     -41.152   8.061  -1.701  1.00 20.00    -0.383 OA
HETATM    9  H20 UNL     1     -41.601   7.408  -2.260  1.00 20.00     0.211 HD
ENDBRANCH   2   8
TORSDOF 3
ENDMDL
MODEL 4
REMARK VINA RESULT:      -3.8      1.711      1.885
REMARK  3 active torsions:
REMARK  status: ('A' for Active; 'I' for Inactive)
REMARK    1  A    between atoms: C1_1  and  C6_6 
REMARK    2  A    between atoms: C5_5  and  C6_6 
REMARK    3  A    between atoms: C6_6  and  O8_8 
ROOT
HETATM    1  C4  UNL     1     -35.552  13.784  -4.249  1.00 20.00     0.054 C 
HETATM    2  C6  UNL     1     -34.194  14.476  -4.381  1.00 20.00     0.110 C 
ENDROOT
BRANCH   2   3
HETATM    3  C1  UNL     1     -34.150  15.212  -5.713  1.00 20.00     0.268 C 
HETATM    4  O7  UNL     1     -33.691  14.737  -6.748  1.00 20.00    -0.304 OA
ENDBRANCH   2   3
BRANCH   2   5
HETATM    5  C5  UNL     1     -33.883  15.422  -3.191  1.00 20.00     0.018 C 
HETATM    6  C2  UNL     1     -35.109  15.807  -2.356  1.00 20.00     0.013 C 
HETATM    7  C3  UNL     1     -33.147  16.696  -3.635  1.00 20.00     0.013 C 
ENDBRANCH   2   5
BRANCH   2   8
HETATM    8  O8  UNL     1     -33.188  13.465  -4.413  1.00 20.00    -0.383 OA
HETATM    9  H20 UNL     1     -32.690  13.599  -5.234  1.00 20.00     0.211 HD
ENDBRANCH   2   8
TORSDOF 3
ENDMDL
MODEL 5
REMARK VINA RESULT:      -3.8      9.756     10.995
REMARK  3 active torsions:
REMARK  status: ('A' for Active; 'I' for Inactive)
REMARK    1  A    between atoms: C1_1  and  C6_6 
REMARK    2  A    between atoms: C5_5  and  C6_6 
REMARK    3  A    between atoms: C6_6  and  O8_8 
ROOT
HETATM    1  C4  UNL     1     -42.897   5.871   1.190  1.00 20.00     0.054 C 
HETATM    2  C6  UNL     1     -41.975   6.795   0.391  1.00 20.00     0.110 C 
ENDROOT
BRANCH   2   3
HETATM    3  C1  UNL     1     -41.659   6.133  -0.943  1.00 20.00     0.268 C 
HETATM    4  O7  UNL     1     -40.644   5.478  -1.164  1.00 20.00    -0.304 OA
ENDBRANCH   2   3
BRANCH   2   5
HETATM    5  C5  UNL     1     -42.567   8.217   0.200  1.00 20.00     0.018 C 
HETATM    6  C2  UNL     1     -43.415   8.381  -1.065  1.00 20.00     0.013 C 
HETATM    7  C3  UNL     1     -41.486   9.308   0.236  1.00 20.00     0.013 C 
ENDBRANCH   2   5
BRANCH   2   8
HETATM    8  O8  UNL     1     -40.750   6.922   1.111  1.00 20.00    -0.383 OA
HETATM    9  H20 UNL     1     -40.292   7.692   0.741  1.00 20.00     0.211 HD
ENDBRANCH   2   8
TORSDOF 3
ENDMDL
MODEL 6
REMARK VINA RESULT:      -3.8      1.454      2.619
REMARK  3 active torsions:
REMARK  status: ('A' for Active; 'I' for Inactive)
REMARK    1  A    between atoms: C1_1  and  C6_6 
REMARK    2  A    between atoms: C5_5  and  C6_6 
REMARK    3  A    between atoms: C6_6  and  O8_8 
ROOT
HETATM    1  C4  UNL     1     -34.438  15.425  -3.033  1.00 20.00     0.054 C 
HETATM    2  C6  UNL     1     -34.585  14.688  -4.366  1.00 20.00     0.110 C 
ENDROOT
BRANCH   2   3
HETATM    3  C1  UNL     1     -35.837  13.824  -4.310  1.00 20.00     0.268 C 
HETATM    4  O7  UNL     1     -35.853  12.618  -4.541  1.00 20.00    -0.304 OA
ENDBRANCH   2   3
BRANCH   2   5
HETATM    5  C5  UNL     1     -34.603  15.648  -5.585  1.00 20.00     0.018 C 
HETATM    6  C2  UNL     1     -36.001  16.136  -5.980  1.00 20.00     0.013 C 
HETATM    7  C3  UNL     1     -33.906  15.045  -6.814  1.00 20.00     0.013 C 
ENDBRANCH   2   5
BRANCH   2   8
HETATM    8  O8  UNL     1     -33.464  13.816  -4.511  1.00 20.00    -0.383 OA
HETATM    9  H20 UNL     1     -33.649  13.038  -3.962  1.00 20.00     0.211 HD
ENDBRANCH   2   8
TORSDOF 3
ENDMDL
MODEL 7
REMARK VINA RESULT:      -3.8     11.783     12.767
REMARK  3 active torsions:
REMARK  status: ('A' for Active; 'I' for Inactive)
REMARK    1  A    between atoms: C1_1  and  C6_6 
REMARK    2  A    between atoms: C5_5  and  C6_6 
REMARK    3  A    between atoms: C6_6  and  O8_8 
ROOT
HETATM    1  C4  UNL     1     -34.092   4.164   4.900  1.00 20.00     0.054 C 
HETATM    2  C6  UNL     1     -34.427   5.518   4.272  1.00 20.00     0.110 C 
ENDROOT
BRANCH   2   3
HETATM    3  C1  UNL     1     -34.039   6.618   5.251  1.00 20.00     0.268 C 
HETATM    4  O7  UNL     1     -34.404   6.658   6.423  1.00 20.00    -0.304 OA
ENDBRANCH   2   3
BRANCH   2   5
HETATM    5  C5  UNL     1     -33.759   5.721   2.887  1.00 20.00     0.018 C 
HETATM    6  C2  UNL     1     -33.118   4.456   2.306  1.00 20.00     0.013 C 
HETATM    7  C3  UNL     1     -32.726   6.858   2.897  1.00 20.00     0.013 C 
ENDBRANCH   2   5
BRANCH   2   8
HETATM    8  O8  UNL     1     -35.841   5.580   4.092  1.00 20.00    -0.383 OA
HETATM    9  H20 UNL     1     -36.192   4.721   4.375  1.00 20.00     0.211 HD
ENDBRANCH   2   8
TORSDOF 3
ENDMDL
MODEL 8
REMARK VINA RESULT:      -3.6      1.919      2.451
REMARK  3 active torsions:
REMARK  status: ('A' for Active; 'I' for Inactive)
REMARK    1  A    between atoms: C1_1  and  C6_6 
REMARK    2  A    between atoms: C5_5  and  C6_6 
REMARK    3  A    between atoms: C6_6  and  O8_8 
ROOT
HETATM    1  C4  UNL     1     -36.622  16.469  -5.261  1.00 20.00     0.054 C 
HETATM    2  C6  UNL     1     -36.137  15.563  -4.127  1.00 20.00     0.110 C 
ENDROOT
BRANCH   2   3
HETATM    3  C1  UNL     1     -36.521  14.126  -4.453  1.00 20.00     0.268 C 
HETATM    4  O7  UNL     1     -37.672  13.699  -4.432  1.00 20.00    -0.304 OA
ENDBRANCH   2   3
BRANCH   2   5
HETATM    5  C5  UNL     1     -34.616  15.703  -3.855  1.00 20.00     0.018 C 
HETATM    6  C2  UNL     1     -33.783  14.497  -4.301  1.00 20.00     0.013 C 
HETATM    7  C3  UNL     1     -34.313  16.016  -2.381  1.00 20.00     0.013 C 
ENDBRANCH   2   5
BRANCH   2   8
HETATM    8  O8  UNL     1     -36.833  15.937  -2.939  1.00 20.00    -0.383 OA
HETATM    9  H20 UNL     1     -37.640  16.392  -3.225  1.00 20.00     0.211 HD
ENDBRANCH   2   8
TORSDOF 3
ENDMDL
MODEL 9
REMARK VINA RESULT:      -3.5      1.483      3.059
REMARK  3 active torsions:
REMARK  status: ('A' for Active; 'I' for Inactive)
REMARK    1  A    between atoms: C1_1  and  C6_6 
REMARK    2  A    between atoms: C5_5  and  C6_6 
REMARK    3  A    between atoms: C6_6  and  O8_8 
ROOT
HETATM    1  C4  UNL     1     -34.208  14.898  -5.609  1.00 20.00     0.054 C 
HETATM    2  C6  UNL     1     -35.702  14.607  -5.757  1.00 20.00     0.110 C 
ENDROOT
BRANCH   2   3
HETATM    3  C1  UNL     1     -36.141  13.714  -4.605  1.00 20.00     0.268 C 
HETATM    4  O7  UNL     1     -35.798  12.542  -4.472  1.00 20.00    -0.304 OA
ENDBRANCH   2   3
BRANCH   2   5
HETATM    5  C5  UNL     1     -36.561  15.896  -5.844  1.00 20.00     0.018 C 
HETATM    6  C2  UNL     1     -35.805  17.181  -5.488  1.00 20.00     0.013 C 
HETATM    7  C3  UNL     1     -37.839  15.804  -4.996  1.00 20.00     0.013 C 
ENDBRANCH   2   5
BRANCH   2   8
HETATM    8  O8  UNL     1     -35.888  13.873  -6.967  1.00 20.00    -0.383 OA
HETATM    9  H20 UNL     1     -36.711  13.372  -6.860  1.00 20.00     0.211 HD
ENDBRANCH   2   8
TORSDOF 3
ENDMDL
