MODEL 1
REMARK VINA RESULT:      -4.3      0.000      0.000
REMARK  5 active torsions:
REMARK  status: ('A' for Active; 'I' for Inactive)
REMARK    1  A    between atoms: C3_3  and  C6_6 
REMARK    2  A    between atoms: C3_3  and  C7_7 
REMARK    3  A    between atoms: C6_6  and  C10_10 
REMARK    4  A    between atoms: C8_8  and  C9_9 
REMARK    5  A    between atoms: C9_9  and  C10_10 
ROOT
HETATM    1  C6  UNL     1     -24.076  16.971   9.870  1.00 20.00     0.015 C 
ENDROOT
BRANCH   1   2
HETATM    2  C3  UNL     1     -23.104  17.931   9.200  1.00 20.00    -0.027 A 
HETATM    3  C1  UNL     1     -21.692  17.995   9.732  1.00 20.00     0.011 A 
HETATM    4  C2  UNL     1     -21.961  17.341   8.407  1.00 20.00     0.011 A 
BRANCH   2   5
HETATM    5  C7  UNL     1     -23.727  19.204   8.698  1.00 20.00     0.124 C 
HETATM    6 CL11 UNL     1     -25.260  18.869   7.857  1.00 20.00    -0.130 Cl
ENDBRANCH   2   5
ENDBRANCH   1   2
BRANCH   1   7
HETATM    7  C10 UNL     1     -23.901  16.881  11.398  1.00 20.00    -0.018 C 
HETATM    8  C5  UNL     1     -24.574  15.607  11.921  1.00 20.00     0.010 C 
BRANCH   7   9
HETATM    9  C9  UNL     1     -24.379  18.128  12.172  1.00 20.00     0.004 C 
BRANCH   9  10
HETATM   10  C8  UNL     1     -25.898  18.306  12.249  1.00 20.00    -0.004 C 
HETATM   11  C4  UNL     1     -26.396  19.263  11.176  1.00 20.00     0.005 C 
ENDBRANCH   9  10
ENDBRANCH   7   9
ENDBRANCH   1   7
TORSDOF 5
ENDMDL
MODEL 2
REMARK VINA RESULT:      -3.9     16.526     17.514
REMARK  5 active torsions:
REMARK  status: ('A' for Active; 'I' for Inactive)
REMARK    1  A    between atoms: C3_3  and  C6_6 
REMARK    2  A    between atoms: C3_3  and  C7_7 
REMARK    3  A    between atoms: C6_6  and  C10_10 
REMARK    4  A    between atoms: C8_8  and  C9_9 
REMARK    5  A    between atoms: C9_9  and  C10_10 
ROOT
HETATM    1  C6  UNL     1     -35.428  16.026  -3.605  1.00 20.00     0.015 C 
ENDROOT
BRANCH   1   2
HETATM    2  C3  UNL     1     -35.192  14.858  -4.552  1.00 20.00    -0.027 A 
HETATM    3  C1  UNL     1     -34.887  13.508  -3.948  1.00 20.00     0.011 A 
HETATM    4  C2  UNL     1     -36.224  13.755  -4.586  1.00 20.00     0.011 A 
BRANCH   2   5
HETATM    5  C7  UNL     1     -34.510  15.224  -5.841  1.00 20.00     0.124 C 
HETATM    6 CL11 UNL     1     -34.472  16.992  -6.056  1.00 20.00    -0.130 Cl
ENDBRANCH   2   5
ENDBRANCH   1   2
BRANCH   1   7
HETATM    7  C10 UNL     1     -34.490  16.031  -2.384  1.00 20.00    -0.018 C 
HETATM    8  C5  UNL     1     -35.197  16.683  -1.191  1.00 20.00     0.010 C 
BRANCH   7   9
HETATM    9  C9  UNL     1     -33.109  16.673  -2.640  1.00 20.00     0.004 C 
BRANCH   9  10
HETATM   10  C8  UNL     1     -32.962  18.118  -2.154  1.00 20.00    -0.004 C 
HETATM   11  C4  UNL     1     -31.839  18.244  -1.135  1.00 20.00     0.005 C 
ENDBRANCH   9  10
ENDBRANCH   7   9
ENDBRANCH   1   7
TORSDOF 5
ENDMDL
MODEL 3
REMARK VINA RESULT:      -3.9     17.641     18.723
REMARK  5 active torsions:
REMARK  status: ('A' for Active; 'I' for Inactive)
REMARK    1  A    between atoms: C3_3  and  C6_6 
REMARK    2  A    between atoms: C3_3  and  C7_7 
REMARK    3  A    between atoms: C6_6  and  C10_10 
REMARK    4  A    between atoms: C8_8  and  C9_9 
REMARK    5  A    between atoms: C9_9  and  C10_10 
ROOT
HETATM    1  C6  UNL     1     -35.293  14.685  -3.514  1.00 20.00     0.015 C 
ENDROOT
BRANCH   1   2
HETATM    2  C3  UNL     1     -34.586  15.909  -2.948  1.00 20.00    -0.027 A 
HETATM    3  C1  UNL     1     -35.386  17.180  -2.794  1.00 20.00     0.011 A 
HETATM    4  C2  UNL     1     -34.996  16.392  -1.576  1.00 20.00     0.011 A 
BRANCH   2   5
HETATM    5  C7  UNL     1     -33.137  16.029  -3.334  1.00 20.00     0.124 C 
HETATM    6 CL11 UNL     1     -32.614  14.611  -4.277  1.00 20.00    -0.130 Cl
ENDBRANCH   2   5
ENDBRANCH   1   2
BRANCH   1   7
HETATM    7  C10 UNL     1     -36.229  15.003  -4.694  1.00 20.00    -0.018 C 
HETATM    8  C5  UNL     1     -37.663  14.594  -4.342  1.00 20.00     0.010 C 
BRANCH   7   9
HETATM    9  C9  UNL     1     -35.786  14.397  -6.043  1.00 20.00     0.004 C 
BRANCH   9  10
HETATM   10  C8  UNL     1     -34.961  15.327  -6.937  1.00 20.00    -0.004 C 
HETATM   11  C4  UNL     1     -35.175  16.786  -6.560  1.00 20.00     0.005 C 
ENDBRANCH   9  10
ENDBRANCH   7   9
ENDBRANCH   1   7
TORSDOF 5
ENDMDL
MODEL 4
REMARK VINA RESULT:      -3.8     16.787     17.698
REMARK  5 active torsions:
REMARK  status: ('A' for Active; 'I' for Inactive)
REMARK    1  A    between atoms: C3_3  and  C6_6 
REMARK    2  A    between atoms: C3_3  and  C7_7 
REMARK    3  A    between atoms: C6_6  and  C10_10 
REMARK    4  A    between atoms: C8_8  and  C9_9 
REMARK    5  A    between atoms: C9_9  and  C10_10 
ROOT
HETATM    1  C6  UNL     1     -33.849  15.154  -3.658  1.00 20.00     0.015 C 
ENDROOT
BRANCH   1   2
HETATM    2  C3  UNL     1     -34.803  14.865  -4.808  1.00 20.00    -0.027 A 
HETATM    3  C1  UNL     1     -35.207  16.015  -5.699  1.00 20.00     0.011 A 
HETATM    4  C2  UNL     1     -34.265  14.966  -6.217  1.00 20.00     0.011 A 
BRANCH   2   5
HETATM    5  C7  UNL     1     -35.827  13.802  -4.520  1.00 20.00     0.124 C 
HETATM    6 CL11 UNL     1     -37.420  14.530  -4.197  1.00 20.00    -0.130 Cl
ENDBRANCH   2   5
ENDBRANCH   1   2
BRANCH   1   7
HETATM    7  C10 UNL     1     -34.200  16.430  -2.870  1.00 20.00    -0.018 C 
HETATM    8  C5  UNL     1     -32.914  17.118  -2.399  1.00 20.00     0.010 C 
BRANCH   7   9
HETATM    9  C9  UNL     1     -35.181  16.210  -1.699  1.00 20.00     0.004 C 
BRANCH   9  10
HETATM   10  C8  UNL     1     -35.531  17.466  -0.896  1.00 20.00    -0.004 C 
HETATM   11  C4  UNL     1     -35.415  17.213   0.600  1.00 20.00     0.005 C 
ENDBRANCH   9  10
ENDBRANCH   7   9
ENDBRANCH   1   7
TORSDOF 5
ENDMDL
MODEL 5
REMARK VINA RESULT:      -3.7     17.124     18.234
REMARK  5 active torsions:
REMARK  status: ('A' for Active; 'I' for Inactive)
REMARK    1  A    between atoms: C3_3  and  C6_6 
REMARK    2  A    between atoms: C3_3  and  C7_7 
REMARK    3  A    between atoms: C6_6  and  C10_10 
REMARK    4  A    between atoms: C8_8  and  C9_9 
REMARK    5  A    between atoms: C9_9  and  C10_10 
ROOT
HETATM    1  C6  UNL     1     -34.417  14.933  -3.267  1.00 20.00     0.015 C 
ENDROOT
BRANCH   1   2
HETATM    2  C3  UNL     1     -34.352  16.297  -2.595  1.00 20.00    -0.027 A 
HETATM    3  C1  UNL     1     -35.599  17.148  -2.598  1.00 20.00     0.011 A 
HETATM    4  C2  UNL     1     -35.142  16.499  -1.323  1.00 20.00     0.011 A 
BRANCH   2   5
HETATM    5  C7  UNL     1     -33.023  16.991  -2.717  1.00 20.00     0.124 C 
HETATM    6 CL11 UNL     1     -33.093  18.281  -3.943  1.00 20.00    -0.130 Cl
ENDBRANCH   2   5
ENDBRANCH   1   2
BRANCH   1   7
HETATM    7  C10 UNL     1     -35.224  14.929  -4.579  1.00 20.00    -0.018 C 
HETATM    8  C5  UNL     1     -36.158  13.715  -4.608  1.00 20.00     0.010 C 
BRANCH   7   9
HETATM    9  C9  UNL     1     -34.364  15.007  -5.859  1.00 20.00     0.004 C 
BRANCH   9  10
HETATM   10  C8  UNL     1     -34.520  16.295  -6.672  1.00 20.00    -0.004 C 
HETATM   11  C4  UNL     1     -35.794  17.035  -6.291  1.00 20.00     0.005 C 
ENDBRANCH   9  10
ENDBRANCH   7   9
ENDBRANCH   1   7
TORSDOF 5
ENDMDL
MODEL 6
REMARK VINA RESULT:      -3.7     15.388     16.658
REMARK  5 active torsions:
REMARK  status: ('A' for Active; 'I' for Inactive)
REMARK    1  A    between atoms: C3_3  and  C6_6 
REMARK    2  A    between atoms: C3_3  and  C7_7 
REMARK    3  A    between atoms: C6_6  and  C10_10 
REMARK    4  A    between atoms: C8_8  and  C9_9 
REMARK    5  A    between atoms: C9_9  and  C10_10 
ROOT
HETATM    1  C6  UNL     1     -33.998   6.984   3.719  1.00 20.00     0.015 C 
ENDROOT
BRANCH   1   2
HETATM    2  C3  UNL     1     -34.431   5.771   4.531  1.00 20.00    -0.027 A 
HETATM    3  C1  UNL     1     -35.688   5.049   4.109  1.00 20.00     0.011 A 
HETATM    4  C2  UNL     1     -34.347   4.413   3.873  1.00 20.00     0.011 A 
BRANCH   2   5
HETATM    5  C7  UNL     1     -34.129   5.862   6.001  1.00 20.00     0.124 C 
HETATM    6 CL11 UNL     1     -33.796   7.546   6.475  1.00 20.00    -0.130 Cl
ENDBRANCH   2   5
ENDBRANCH   1   2
BRANCH   1   7
HETATM    7  C10 UNL     1     -32.627   6.815   3.038  1.00 20.00    -0.018 C 
HETATM    8  C5  UNL     1     -31.583   7.676   3.756  1.00 20.00     0.010 C 
BRANCH   7   9
HETATM    9  C9  UNL     1     -32.630   7.085   1.518  1.00 20.00     0.004 C 
BRANCH   9  10
HETATM   10  C8  UNL     1     -32.735   8.559   1.117  1.00 20.00    -0.004 C 
HETATM   11  C4  UNL     1     -33.339   8.712  -0.271  1.00 20.00     0.005 C 
ENDBRANCH   9  10
ENDBRANCH   7   9
ENDBRANCH   1   7
TORSDOF 5
ENDMDL
MODEL 7
REMARK VINA RESULT:      -3.7     15.977     16.957
REMARK  5 active torsions:
REMARK  status: ('A' for Active; 'I' for Inactive)
REMARK    1  A    between atoms: C3_3  and  C6_6 
REMARK    2  A    between atoms: C3_3  and  C7_7 
REMARK    3  A    between atoms: C6_6  and  C10_10 
REMARK    4  A    between atoms: C8_8  and  C9_9 
REMARK    5  A    between atoms: C9_9  and  C10_10 
ROOT
HETATM    1  C6  UNL     1     -34.645  16.257  -3.658  1.00 20.00     0.015 C 
ENDROOT
BRANCH   1   2
HETATM    2  C3  UNL     1     -34.380  14.902  -4.298  1.00 20.00    -0.027 A 
HETATM    3  C1  UNL     1     -33.793  14.878  -5.688  1.00 20.00     0.011 A 
HETATM    4  C2  UNL     1     -32.943  14.490  -4.513  1.00 20.00     0.011 A 
BRANCH   2   5
HETATM    5  C7  UNL     1     -35.373  13.833  -3.932  1.00 20.00     0.124 C 
HETATM    6 CL11 UNL     1     -37.039  14.393  -4.219  1.00 20.00    -0.130 Cl
ENDBRANCH   2   5
ENDBRANCH   1   2
BRANCH   1   7
HETATM    7  C10 UNL     1     -34.054  16.399  -2.243  1.00 20.00    -0.018 C 
HETATM    8  C5  UNL     1     -35.169  16.738  -1.248  1.00 20.00     0.010 C 
BRANCH   7   9
HETATM    9  C9  UNL     1     -32.882  17.398  -2.136  1.00 20.00     0.004 C 
BRANCH   9  10
HETATM   10  C8  UNL     1     -32.768  18.128  -0.795  1.00 20.00    -0.004 C 
HETATM   11  C4  UNL     1     -31.313  18.383  -0.428  1.00 20.00     0.005 C 
ENDBRANCH   9  10
ENDBRANCH   7   9
ENDBRANCH   1   7
TORSDOF 5
ENDMDL
MODEL 8
REMARK VINA RESULT:      -3.7     16.704     17.622
REMARK  5 active torsions:
REMARK  status: ('A' for Active; 'I' for Inactive)
REMARK    1  A    between atoms: C3_3  and  C6_6 
REMARK    2  A    between atoms: C3_3  and  C7_7 
REMARK    3  A    between atoms: C6_6  and  C10_10 
REMARK    4  A    between atoms: C8_8  and  C9_9 
REMARK    5  A    between atoms: C9_9  and  C10_10 
ROOT
HETATM    1  C6  UNL     1     -34.716  15.035  -3.139  1.00 20.00     0.015 C 
ENDROOT
BRANCH   1   2
HETATM    2  C3  UNL     1     -35.617  14.940  -4.362  1.00 20.00    -0.027 A 
HETATM    3  C1  UNL     1     -36.247  13.604  -4.675  1.00 20.00     0.011 A 
HETATM    4  C2  UNL     1     -37.095  14.720  -4.137  1.00 20.00     0.011 A 
BRANCH   2   5
HETATM    5  C7  UNL     1     -35.202  15.812  -5.515  1.00 20.00     0.124 C 
HETATM    6 CL11 UNL     1     -33.936  15.018  -6.483  1.00 20.00    -0.130 Cl
ENDBRANCH   2   5
ENDBRANCH   1   2
BRANCH   1   7
HETATM    7  C10 UNL     1     -34.542  16.472  -2.611  1.00 20.00    -0.018 C 
HETATM    8  C5  UNL     1     -33.056  16.848  -2.617  1.00 20.00     0.010 C 
BRANCH   7   9
HETATM    9  C9  UNL     1     -35.181  16.727  -1.229  1.00 20.00     0.004 C 
BRANCH   9  10
HETATM   10  C8  UNL     1     -34.723  18.008  -0.526  1.00 20.00    -0.004 C 
HETATM   11  C4  UNL     1     -34.586  17.794   0.974  1.00 20.00     0.005 C 
ENDBRANCH   9  10
ENDBRANCH   7   9
ENDBRANCH   1   7
TORSDOF 5
ENDMDL
MODEL 9
REMARK VINA RESULT:      -3.7     15.667     16.635
REMARK  5 active torsions:
REMARK  status: ('A' for Active; 'I' for Inactive)
REMARK    1  A    between atoms: C3_3  and  C6_6 
REMARK    2  A    between atoms: C3_3  and  C7_7 
REMARK    3  A    between atoms: C6_6  and  C10_10 
REMARK    4  A    between atoms: C8_8  and  C9_9 
REMARK    5  A    between atoms: C9_9  and  C10_10 
ROOT
HETATM    1  C6  UNL     1     -33.754   6.383   2.326  1.00 20.00     0.015 C 
ENDROOT
BRANCH   1   2
HETATM    2  C3  UNL     1     -32.626   7.384   2.128  1.00 20.00    -0.027 A 
HETATM    3  C1  UNL     1     -32.084   7.575   0.732  1.00 20.00     0.011 A 
HETATM    4  C2  UNL     1     -32.928   8.648   1.357  1.00 20.00     0.011 A 
BRANCH   2   5
HETATM    5  C7  UNL     1     -31.661   7.474   3.278  1.00 20.00     0.124 C 
HETATM    6 CL11 UNL     1     -32.527   7.740   4.811  1.00 20.00    -0.130 Cl
ENDBRANCH   2   5
ENDBRANCH   1   2
BRANCH   1   7
HETATM    7  C10 UNL     1     -33.279   5.008   2.833  1.00 20.00    -0.018 C 
HETATM    8  C5  UNL     1     -32.997   4.086   1.642  1.00 20.00     0.010 C 
BRANCH   7   9
HETATM    9  C9  UNL     1     -34.228   4.339   3.850  1.00 20.00     0.004 C 
BRANCH   9  10
HETATM   10  C8  UNL     1     -35.163   5.294   4.597  1.00 20.00    -0.004 C 
HETATM   11  C4  UNL     1     -34.786   5.396   6.068  1.00 20.00     0.005 C 
ENDBRANCH   9  10
ENDBRANCH   7   9
ENDBRANCH   1   7
TORSDOF 5
ENDMDL
