MODEL 1
REMARK VINA RESULT:      -4.7      0.000      0.000
REMARK  5 active torsions:
REMARK  status: ('A' for Active; 'I' for Inactive)
REMARK    1  A    between atoms: C2_2  and  C7_7 
REMARK    2  A    between atoms: C2_2  and  C8_8 
REMARK    3  A    between atoms: C3_3  and  C10_10 
REMARK    4  A    between atoms: C8_8  and  C10_10 
REMARK    5  A    between atoms: C9_9  and  C10_10 
ROOT
HETATM    1  C10 UNL     1     -34.701  14.599  -3.776  1.00 20.00     0.058 C 
ENDROOT
BRANCH   1   2
HETATM    2  C3  UNL     1     -35.880  13.745  -4.248  1.00 20.00     0.127 C 
HETATM    3  C4  UNL     1     -37.208  14.443  -4.390  1.00 20.00     0.091 C 
HETATM    4  O11 UNL     1     -35.773  12.541  -4.478  1.00 20.00    -0.298 OA
ENDBRANCH   1   2
BRANCH   1   5
HETATM    5  C8  UNL     1     -35.134  16.039  -3.434  1.00 20.00     0.045 C 
BRANCH   5   6
HETATM    6  C2  UNL     1     -34.465  16.614  -2.198  1.00 20.00    -0.089 C 
HETATM    7  C1  UNL     1     -35.141  16.729  -1.043  1.00 20.00     0.014 C 
BRANCH   6   8
HETATM    8  C7  UNL     1     -33.025  17.066  -2.294  1.00 20.00     0.029 C 
HETATM    9  C5  UNL     1     -32.636  18.062  -1.210  1.00 20.00     0.010 C 
ENDBRANCH   6   8
ENDBRANCH   5   6
ENDBRANCH   1   5
BRANCH   1  10
HETATM   10  C9  UNL     1     -33.564  14.552  -4.813  1.00 20.00     0.008 C 
HETATM   11  C6  UNL     1     -33.939  15.030  -6.209  1.00 20.00     0.006 C 
ENDBRANCH   1  10
TORSDOF 5
ENDMDL
MODEL 2
REMARK VINA RESULT:      -4.5      1.108      1.849
REMARK  5 active torsions:
REMARK  status: ('A' for Active; 'I' for Inactive)
REMARK    1  A    between atoms: C2_2  and  C7_7 
REMARK    2  A    between atoms: C2_2  and  C8_8 
REMARK    3  A    between atoms: C3_3  and  C10_10 
REMARK    4  A    between atoms: C8_8  and  C10_10 
REMARK    5  A    between atoms: C9_9  and  C10_10 
ROOT
HETATM    1  C10 UNL     1     -34.903  14.745  -5.033  1.00 20.00     0.058 C 
ENDROOT
BRANCH   1   2
HETATM    2  C3  UNL     1     -36.060  13.830  -4.627  1.00 20.00     0.127 C 
HETATM    3  C4  UNL     1     -37.390  14.490  -4.372  1.00 20.00     0.091 C 
HETATM    4  O11 UNL     1     -35.922  12.615  -4.486  1.00 20.00    -0.298 OA
ENDBRANCH   1   2
BRANCH   1   5
HETATM    5  C8  UNL     1     -33.789  14.772  -3.966  1.00 20.00     0.045 C 
BRANCH   5   6
HETATM    6  C2  UNL     1     -33.889  15.930  -2.990  1.00 20.00    -0.089 C 
HETATM    7  C1  UNL     1     -32.968  16.909  -2.990  1.00 20.00     0.014 C 
BRANCH   6   8
HETATM    8  C7  UNL     1     -35.038  15.957  -2.007  1.00 20.00     0.029 C 
HETATM    9  C5  UNL     1     -34.955  17.113  -1.020  1.00 20.00     0.010 C 
ENDBRANCH   6   8
ENDBRANCH   5   6
ENDBRANCH   1   5
BRANCH   1  10
HETATM   10  C9  UNL     1     -35.432  16.150  -5.373  1.00 20.00     0.008 C 
HETATM   11  C6  UNL     1     -34.684  16.873  -6.486  1.00 20.00     0.006 C 
ENDBRANCH   1  10
TORSDOF 5
ENDMDL
MODEL 3
REMARK VINA RESULT:      -4.4      1.321      2.611
REMARK  5 active torsions:
REMARK  status: ('A' for Active; 'I' for Inactive)
REMARK    1  A    between atoms: C2_2  and  C7_7 
REMARK    2  A    between atoms: C2_2  and  C8_8 
REMARK    3  A    between atoms: C3_3  and  C10_10 
REMARK    4  A    between atoms: C8_8  and  C10_10 
REMARK    5  A    between atoms: C9_9  and  C10_10 
ROOT
HETATM    1  C10 UNL     1     -35.732  14.921  -4.786  1.00 20.00     0.058 C 
ENDROOT
BRANCH   1   2
HETATM    2  C3  UNL     1     -35.342  14.736  -6.254  1.00 20.00     0.127 C 
HETATM    3  C4  UNL     1     -33.909  15.028  -6.616  1.00 20.00     0.091 C 
HETATM    4  O11 UNL     1     -36.152  14.393  -7.114  1.00 20.00    -0.298 OA
ENDBRANCH   1   2
BRANCH   1   5
HETATM    5  C8  UNL     1     -34.545  14.656  -3.837  1.00 20.00     0.045 C 
BRANCH   5   6
HETATM    6  C2  UNL     1     -34.252  15.790  -2.872  1.00 20.00    -0.089 C 
HETATM    7  C1  UNL     1     -35.123  16.104  -1.898  1.00 20.00     0.014 C 
BRANCH   6   8
HETATM    8  C7  UNL     1     -32.966  16.570  -3.034  1.00 20.00     0.029 C 
HETATM    9  C5  UNL     1     -32.756  17.612  -1.944  1.00 20.00     0.010 C 
ENDBRANCH   6   8
ENDBRANCH   5   6
ENDBRANCH   1   5
BRANCH   1  10
HETATM   10  C9  UNL     1     -36.963  14.060  -4.451  1.00 20.00     0.008 C 
HETATM   11  C6  UNL     1     -38.257  14.835  -4.234  1.00 20.00     0.006 C 
ENDBRANCH   1  10
TORSDOF 5
ENDMDL
MODEL 4
REMARK VINA RESULT:      -4.4      1.154      1.403
REMARK  5 active torsions:
REMARK  status: ('A' for Active; 'I' for Inactive)
REMARK    1  A    between atoms: C2_2  and  C7_7 
REMARK    2  A    between atoms: C2_2  and  C8_8 
REMARK    3  A    between atoms: C3_3  and  C10_10 
REMARK    4  A    between atoms: C8_8  and  C10_10 
REMARK    5  A    between atoms: C9_9  and  C10_10 
ROOT
HETATM    1  C10 UNL     1     -34.872  14.744  -4.921  1.00 20.00     0.058 C 
ENDROOT
BRANCH   1   2
HETATM    2  C3  UNL     1     -36.040  13.812  -4.589  1.00 20.00     0.127 C 
HETATM    3  C4  UNL     1     -37.385  14.458  -4.381  1.00 20.00     0.091 C 
HETATM    4  O11 UNL     1     -35.900  12.595  -4.469  1.00 20.00    -0.298 OA
ENDBRANCH   1   2
BRANCH   1   5
HETATM    5  C8  UNL     1     -33.839  14.801  -3.778  1.00 20.00     0.045 C 
BRANCH   5   6
HETATM    6  C2  UNL     1     -34.001  15.991  -2.849  1.00 20.00    -0.089 C 
HETATM    7  C1  UNL     1     -35.019  16.044  -1.973  1.00 20.00     0.014 C 
BRANCH   6   8
HETATM    8  C7  UNL     1     -33.001  17.122  -2.934  1.00 20.00     0.029 C 
HETATM    9  C5  UNL     1     -33.651  18.499  -2.915  1.00 20.00     0.010 C 
ENDBRANCH   6   8
ENDBRANCH   5   6
ENDBRANCH   1   5
BRANCH   1  10
HETATM   10  C9  UNL     1     -35.399  16.136  -5.314  1.00 20.00     0.008 C 
HETATM   11  C6  UNL     1     -34.711  16.775  -6.514  1.00 20.00     0.006 C 
ENDBRANCH   1  10
TORSDOF 5
ENDMDL
MODEL 5
REMARK VINA RESULT:      -4.3      2.917      5.131
REMARK  5 active torsions:
REMARK  status: ('A' for Active; 'I' for Inactive)
REMARK    1  A    between atoms: C2_2  and  C7_7 
REMARK    2  A    between atoms: C2_2  and  C8_8 
REMARK    3  A    between atoms: C3_3  and  C10_10 
REMARK    4  A    between atoms: C8_8  and  C10_10 
REMARK    5  A    between atoms: C9_9  and  C10_10 
ROOT
HETATM    1  C10 UNL     1     -32.827  18.250  -1.973  1.00 20.00     0.058 C 
ENDROOT
BRANCH   1   2
HETATM    2  C3  UNL     1     -31.926  18.384  -0.743  1.00 20.00     0.127 C 
HETATM    3  C4  UNL     1     -32.613  18.488   0.593  1.00 20.00     0.091 C 
HETATM    4  O11 UNL     1     -30.699  18.434  -0.826  1.00 20.00    -0.298 OA
ENDBRANCH   1   2
BRANCH   1   5
HETATM    5  C8  UNL     1     -32.870  16.802  -2.500  1.00 20.00     0.045 C 
BRANCH   5   6
HETATM    6  C2  UNL     1     -34.236  16.146  -2.413  1.00 20.00    -0.089 C 
HETATM    7  C1  UNL     1     -35.134  16.550  -1.498  1.00 20.00     0.014 C 
BRANCH   6   8
HETATM    8  C7  UNL     1     -34.566  15.021  -3.368  1.00 20.00     0.029 C 
HETATM    9  C5  UNL     1     -33.433  14.702  -4.333  1.00 20.00     0.010 C 
ENDBRANCH   6   8
ENDBRANCH   5   6
ENDBRANCH   1   5
BRANCH   1  10
HETATM   10  C9  UNL     1     -32.405  19.263  -3.053  1.00 20.00     0.008 C 
HETATM   11  C6  UNL     1     -33.135  19.133  -4.384  1.00 20.00     0.006 C 
ENDBRANCH   1  10
TORSDOF 5
ENDMDL
MODEL 6
REMARK VINA RESULT:      -4.2      1.482      2.695
REMARK  5 active torsions:
REMARK  status: ('A' for Active; 'I' for Inactive)
REMARK    1  A    between atoms: C2_2  and  C7_7 
REMARK    2  A    between atoms: C2_2  and  C8_8 
REMARK    3  A    between atoms: C3_3  and  C10_10 
REMARK    4  A    between atoms: C8_8  and  C10_10 
REMARK    5  A    between atoms: C9_9  and  C10_10 
ROOT
HETATM    1  C10 UNL     1     -36.398  15.683  -4.010  1.00 20.00     0.058 C 
ENDROOT
BRANCH   1   2
HETATM    2  C3  UNL     1     -37.428  14.586  -4.290  1.00 20.00     0.127 C 
HETATM    3  C4  UNL     1     -38.880  14.980  -4.200  1.00 20.00     0.091 C 
HETATM    4  O11 UNL     1     -37.105  13.428  -4.551  1.00 20.00    -0.298 OA
ENDBRANCH   1   2
BRANCH   1   5
HETATM    5  C8  UNL     1     -35.330  15.223  -2.997  1.00 20.00     0.045 C 
BRANCH   5   6
HETATM    6  C2  UNL     1     -33.900  15.443  -3.457  1.00 20.00    -0.089 C 
HETATM    7  C1  UNL     1     -33.333  14.617  -4.353  1.00 20.00     0.014 C 
BRANCH   6   8
HETATM    8  C7  UNL     1     -33.119  16.603  -2.880  1.00 20.00     0.029 C 
HETATM    9  C5  UNL     1     -33.810  17.258  -1.692  1.00 20.00     0.010 C 
ENDBRANCH   6   8
ENDBRANCH   5   6
ENDBRANCH   1   5
BRANCH   1  10
HETATM   10  C9  UNL     1     -37.107  16.979  -3.577  1.00 20.00     0.008 C 
HETATM   11  C6  UNL     1     -36.512  18.263  -4.141  1.00 20.00     0.006 C 
ENDBRANCH   1  10
TORSDOF 5
ENDMDL
MODEL 7
REMARK VINA RESULT:      -4.1      1.487      2.328
REMARK  5 active torsions:
REMARK  status: ('A' for Active; 'I' for Inactive)
REMARK    1  A    between atoms: C2_2  and  C7_7 
REMARK    2  A    between atoms: C2_2  and  C8_8 
REMARK    3  A    between atoms: C3_3  and  C10_10 
REMARK    4  A    between atoms: C8_8  and  C10_10 
REMARK    5  A    between atoms: C9_9  and  C10_10 
ROOT
HETATM    1  C10 UNL     1     -34.436  15.401  -4.259  1.00 20.00     0.058 C 
ENDROOT
BRANCH   1   2
HETATM    2  C3  UNL     1     -34.161  15.557  -5.756  1.00 20.00     0.127 C 
HETATM    3  C4  UNL     1     -34.580  16.857  -6.391  1.00 20.00     0.091 C 
HETATM    4  O11 UNL     1     -33.648  14.663  -6.429  1.00 20.00    -0.298 OA
ENDBRANCH   1   2
BRANCH   1   5
HETATM    5  C8  UNL     1     -33.224  15.823  -3.404  1.00 20.00     0.045 C 
BRANCH   5   6
HETATM    6  C2  UNL     1     -33.523  16.915  -2.393  1.00 20.00    -0.089 C 
HETATM    7  C1  UNL     1     -34.578  16.815  -1.567  1.00 20.00     0.014 C 
BRANCH   6   8
HETATM    8  C7  UNL     1     -32.617  18.125  -2.339  1.00 20.00     0.029 C 
HETATM    9  C5  UNL     1     -31.834  18.230  -1.038  1.00 20.00     0.010 C 
ENDBRANCH   6   8
ENDBRANCH   5   6
ENDBRANCH   1   5
BRANCH   1  10
HETATM   10  C9  UNL     1     -34.909  13.969  -3.952  1.00 20.00     0.008 C 
HETATM   11  C6  UNL     1     -36.280  13.605  -4.506  1.00 20.00     0.006 C 
ENDBRANCH   1  10
TORSDOF 5
ENDMDL
MODEL 8
REMARK VINA RESULT:      -4.1      3.262      6.293
REMARK  5 active torsions:
REMARK  status: ('A' for Active; 'I' for Inactive)
REMARK    1  A    between atoms: C2_2  and  C7_7 
REMARK    2  A    between atoms: C2_2  and  C8_8 
REMARK    3  A    between atoms: C3_3  and  C10_10 
REMARK    4  A    between atoms: C8_8  and  C10_10 
REMARK    5  A    between atoms: C9_9  and  C10_10 
ROOT
HETATM    1  C10 UNL     1     -32.714  18.142   0.194  1.00 20.00     0.058 C 
ENDROOT
BRANCH   1   2
HETATM    2  C3  UNL     1     -31.208  18.413   0.201  1.00 20.00     0.127 C 
HETATM    3  C4  UNL     1     -30.591  18.778   1.526  1.00 20.00     0.091 C 
HETATM    4  O11 UNL     1     -30.524  18.366  -0.821  1.00 20.00    -0.298 OA
ENDBRANCH   1   2
BRANCH   1   5
HETATM    5  C8  UNL     1     -33.331  18.357  -1.203  1.00 20.00     0.045 C 
BRANCH   5   6
HETATM    6  C2  UNL     1     -33.943  17.109  -1.814  1.00 20.00    -0.089 C 
HETATM    7  C1  UNL     1     -35.127  16.644  -1.382  1.00 20.00     0.014 C 
BRANCH   6   8
HETATM    8  C7  UNL     1     -33.190  16.390  -2.911  1.00 20.00     0.029 C 
HETATM    9  C5  UNL     1     -33.969  15.229  -3.512  1.00 20.00     0.010 C 
ENDBRANCH   6   8
ENDBRANCH   5   6
ENDBRANCH   1   5
BRANCH   1  10
HETATM   10  C9  UNL     1     -33.409  18.977   1.284  1.00 20.00     0.008 C 
HETATM   11  C6  UNL     1     -34.397  18.213   2.156  1.00 20.00     0.006 C 
ENDBRANCH   1  10
TORSDOF 5
ENDMDL
MODEL 9
REMARK VINA RESULT:      -4.0      1.328      2.850
REMARK  5 active torsions:
REMARK  status: ('A' for Active; 'I' for Inactive)
REMARK    1  A    between atoms: C2_2  and  C7_7 
REMARK    2  A    between atoms: C2_2  and  C8_8 
REMARK    3  A    between atoms: C3_3  and  C10_10 
REMARK    4  A    between atoms: C8_8  and  C10_10 
REMARK    5  A    between atoms: C9_9  and  C10_10 
ROOT
HETATM    1  C10 UNL     1     -34.923  15.725  -4.329  1.00 20.00     0.058 C 
ENDROOT
BRANCH   1   2
HETATM    2  C3  UNL     1     -33.957  14.877  -5.159  1.00 20.00     0.127 C 
HETATM    3  C4  UNL     1     -32.736  14.351  -4.450  1.00 20.00     0.091 C 
HETATM    4  O11 UNL     1     -34.139  14.649  -6.355  1.00 20.00    -0.298 OA
ENDBRANCH   1   2
BRANCH   1   5
HETATM    5  C8  UNL     1     -34.835  15.393  -2.826  1.00 20.00     0.045 C 
BRANCH   5   6
HETATM    6  C2  UNL     1     -34.416  16.561  -1.953  1.00 20.00    -0.089 C 
HETATM    7  C1  UNL     1     -33.264  17.212  -2.184  1.00 20.00     0.014 C 
BRANCH   6   8
HETATM    8  C7  UNL     1     -35.315  16.974  -0.809  1.00 20.00     0.029 C 
HETATM    9  C5  UNL     1     -36.471  17.864  -1.245  1.00 20.00     0.010 C 
ENDBRANCH   6   8
ENDBRANCH   5   6
ENDBRANCH   1   5
BRANCH   1  10
HETATM   10  C9  UNL     1     -36.354  15.595  -4.883  1.00 20.00     0.008 C 
HETATM   11  C6  UNL     1     -37.152  14.414  -4.346  1.00 20.00     0.006 C 
ENDBRANCH   1  10
TORSDOF 5
ENDMDL
