MODEL 1
REMARK VINA RESULT:      -4.7      0.000      0.000
REMARK  5 active torsions:
REMARK  status: ('A' for Active; 'I' for Inactive)
REMARK    1  A    between atoms: C2_2  and  C7_7 
REMARK    2  A    between atoms: C2_2  and  C8_8 
REMARK    3  A    between atoms: C3_3  and  C10_10 
REMARK    4  A    between atoms: C8_8  and  C10_10 
REMARK    5  A    between atoms: C9_9  and  C10_10 
ROOT
HETATM    1  C10 UNL     1     -35.046  14.961  -4.815  1.00 20.00     0.058 C 
ENDROOT
BRANCH   1   2
HETATM    2  C3  UNL     1     -36.116  13.893  -4.580  1.00 20.00     0.127 C 
HETATM    3  C4  UNL     1     -37.514  14.383  -4.298  1.00 20.00     0.091 C 
HETATM    4  O11 UNL     1     -35.861  12.689  -4.591  1.00 20.00    -0.298 OA
ENDBRANCH   1   2
BRANCH   1   5
HETATM    5  C8  UNL     1     -33.937  14.910  -3.745  1.00 20.00     0.045 C 
BRANCH   5   6
HETATM    6  C2  UNL     1     -33.987  16.047  -2.741  1.00 20.00    -0.089 C 
HETATM    7  C1  UNL     1     -32.974  16.926  -2.649  1.00 20.00     0.014 C 
BRANCH   6   8
HETATM    8  C7  UNL     1     -35.192  16.167  -1.836  1.00 20.00     0.029 C 
HETATM    9  C5  UNL     1     -35.000  17.172  -0.708  1.00 20.00     0.010 C 
ENDBRANCH   6   8
ENDBRANCH   5   6
ENDBRANCH   1   5
BRANCH   1  10
HETATM   10  C9  UNL     1     -34.488  14.849  -6.246  1.00 20.00     0.008 C 
HETATM   11  C6  UNL     1     -35.496  15.108  -7.357  1.00 20.00     0.006 C 
ENDBRANCH   1  10
TORSDOF 5
ENDMDL
MODEL 2
REMARK VINA RESULT:      -4.7      0.483      1.274
REMARK  5 active torsions:
REMARK  status: ('A' for Active; 'I' for Inactive)
REMARK    1  A    between atoms: C2_2  and  C7_7 
REMARK    2  A    between atoms: C2_2  and  C8_8 
REMARK    3  A    between atoms: C3_3  and  C10_10 
REMARK    4  A    between atoms: C8_8  and  C10_10 
REMARK    5  A    between atoms: C9_9  and  C10_10 
ROOT
HETATM    1  C10 UNL     1     -35.094  14.967  -4.768  1.00 20.00     0.058 C 
ENDROOT
BRANCH   1   2
HETATM    2  C3  UNL     1     -36.174  13.902  -4.567  1.00 20.00     0.127 C 
HETATM    3  C4  UNL     1     -37.574  14.396  -4.306  1.00 20.00     0.091 C 
HETATM    4  O11 UNL     1     -35.925  12.697  -4.589  1.00 20.00    -0.298 OA
ENDBRANCH   1   2
BRANCH   1   5
HETATM    5  C8  UNL     1     -34.008  14.901  -3.676  1.00 20.00     0.045 C 
BRANCH   5   6
HETATM    6  C2  UNL     1     -34.055  16.045  -2.680  1.00 20.00    -0.089 C 
HETATM    7  C1  UNL     1     -35.089  16.173  -1.831  1.00 20.00     0.014 C 
BRANCH   6   8
HETATM    8  C7  UNL     1     -32.923  17.048  -2.668  1.00 20.00     0.029 C 
HETATM    9  C5  UNL     1     -32.880  17.891  -1.402  1.00 20.00     0.010 C 
ENDBRANCH   6   8
ENDBRANCH   5   6
ENDBRANCH   1   5
BRANCH   1  10
HETATM   10  C9  UNL     1     -34.506  14.867  -6.188  1.00 20.00     0.008 C 
HETATM   11  C6  UNL     1     -35.494  15.118  -7.319  1.00 20.00     0.006 C 
ENDBRANCH   1  10
TORSDOF 5
ENDMDL
MODEL 3
REMARK VINA RESULT:      -4.5      1.118      1.816
REMARK  5 active torsions:
REMARK  status: ('A' for Active; 'I' for Inactive)
REMARK    1  A    between atoms: C2_2  and  C7_7 
REMARK    2  A    between atoms: C2_2  and  C8_8 
REMARK    3  A    between atoms: C3_3  and  C10_10 
REMARK    4  A    between atoms: C8_8  and  C10_10 
REMARK    5  A    between atoms: C9_9  and  C10_10 
ROOT
HETATM    1  C10 UNL     1     -35.920  15.169  -4.704  1.00 20.00     0.058 C 
ENDROOT
BRANCH   1   2
HETATM    2  C3  UNL     1     -37.389  14.877  -4.396  1.00 20.00     0.127 C 
HETATM    3  C4  UNL     1     -38.265  16.062  -4.075  1.00 20.00     0.091 C 
HETATM    4  O11 UNL     1     -37.846  13.733  -4.379  1.00 20.00    -0.298 OA
ENDBRANCH   1   2
BRANCH   1   5
HETATM    5  C8  UNL     1     -34.987  14.689  -3.576  1.00 20.00     0.045 C 
BRANCH   5   6
HETATM    6  C2  UNL     1     -34.442  15.803  -2.701  1.00 20.00    -0.089 C 
HETATM    7  C1  UNL     1     -35.156  16.272  -1.664  1.00 20.00     0.014 C 
BRANCH   6   8
HETATM    8  C7  UNL     1     -33.083  16.385  -3.023  1.00 20.00     0.029 C 
HETATM    9  C5  UNL     1     -32.742  17.612  -2.190  1.00 20.00     0.010 C 
ENDBRANCH   6   8
ENDBRANCH   5   6
ENDBRANCH   1   5
BRANCH   1  10
HETATM   10  C9  UNL     1     -35.537  14.580  -6.075  1.00 20.00     0.008 C 
HETATM   11  C6  UNL     1     -34.220  15.080  -6.652  1.00 20.00     0.006 C 
ENDBRANCH   1  10
TORSDOF 5
ENDMDL
MODEL 4
REMARK VINA RESULT:      -4.5     15.772     18.039
REMARK  5 active torsions:
REMARK  status: ('A' for Active; 'I' for Inactive)
REMARK    1  A    between atoms: C2_2  and  C7_7 
REMARK    2  A    between atoms: C2_2  and  C8_8 
REMARK    3  A    between atoms: C3_3  and  C10_10 
REMARK    4  A    between atoms: C8_8  and  C10_10 
REMARK    5  A    between atoms: C9_9  and  C10_10 
ROOT
HETATM    1  C10 UNL     1     -23.662  18.070   8.915  1.00 20.00     0.058 C 
ENDROOT
BRANCH   1   2
HETATM    2  C3  UNL     1     -22.421  17.758   8.077  1.00 20.00     0.127 C 
HETATM    3  C4  UNL     1     -21.293  17.041   8.775  1.00 20.00     0.091 C 
HETATM    4  O11 UNL     1     -22.320  18.093   6.897  1.00 20.00    -0.298 OA
ENDBRANCH   1   2
BRANCH   1   5
HETATM    5  C8  UNL     1     -23.316  18.288  10.401  1.00 20.00     0.045 C 
BRANCH   5   6
HETATM    6  C2  UNL     1     -24.269  17.613  11.370  1.00 20.00    -0.089 C 
HETATM    7  C1  UNL     1     -24.415  16.277  11.369  1.00 20.00     0.014 C 
BRANCH   6   8
HETATM    8  C7  UNL     1     -25.062  18.471  12.330  1.00 20.00     0.029 C 
HETATM    9  C5  UNL     1     -26.299  19.095  11.698  1.00 20.00     0.010 C 
ENDBRANCH   6   8
ENDBRANCH   5   6
ENDBRANCH   1   5
BRANCH   1  10
HETATM   10  C9  UNL     1     -24.428  19.261   8.308  1.00 20.00     0.008 C 
HETATM   11  C6  UNL     1     -25.834  18.946   7.817  1.00 20.00     0.006 C 
ENDBRANCH   1  10
TORSDOF 5
ENDMDL
MODEL 5
REMARK VINA RESULT:      -4.2      1.245      3.449
REMARK  5 active torsions:
REMARK  status: ('A' for Active; 'I' for Inactive)
REMARK    1  A    between atoms: C2_2  and  C7_7 
REMARK    2  A    between atoms: C2_2  and  C8_8 
REMARK    3  A    between atoms: C3_3  and  C10_10 
REMARK    4  A    between atoms: C8_8  and  C10_10 
REMARK    5  A    between atoms: C9_9  and  C10_10 
ROOT
HETATM    1  C10 UNL     1     -34.821  14.546  -3.565  1.00 20.00     0.058 C 
ENDROOT
BRANCH   1   2
HETATM    2  C3  UNL     1     -35.977  13.820  -4.254  1.00 20.00     0.127 C 
HETATM    3  C4  UNL     1     -37.287  14.562  -4.348  1.00 20.00     0.091 C 
HETATM    4  O11 UNL     1     -35.870  12.674  -4.693  1.00 20.00    -0.298 OA
ENDBRANCH   1   2
BRANCH   1   5
HETATM    5  C8  UNL     1     -33.696  14.909  -4.555  1.00 20.00     0.045 C 
BRANCH   5   6
HETATM    6  C2  UNL     1     -34.169  15.641  -5.796  1.00 20.00    -0.089 C 
HETATM    7  C1  UNL     1     -34.184  15.026  -6.991  1.00 20.00     0.014 C 
BRANCH   6   8
HETATM    8  C7  UNL     1     -34.614  17.081  -5.669  1.00 20.00     0.029 C 
HETATM    9  C5  UNL     1     -35.918  17.374  -6.397  1.00 20.00     0.010 C 
ENDBRANCH   6   8
ENDBRANCH   5   6
ENDBRANCH   1   5
BRANCH   1  10
HETATM   10  C9  UNL     1     -35.347  15.773  -2.797  1.00 20.00     0.008 C 
HETATM   11  C6  UNL     1     -34.297  16.545  -2.010  1.00 20.00     0.006 C 
ENDBRANCH   1  10
TORSDOF 5
ENDMDL
MODEL 6
REMARK VINA RESULT:      -4.2      1.421      2.261
REMARK  5 active torsions:
REMARK  status: ('A' for Active; 'I' for Inactive)
REMARK    1  A    between atoms: C2_2  and  C7_7 
REMARK    2  A    between atoms: C2_2  and  C8_8 
REMARK    3  A    between atoms: C3_3  and  C10_10 
REMARK    4  A    between atoms: C8_8  and  C10_10 
REMARK    5  A    between atoms: C9_9  and  C10_10 
ROOT
HETATM    1  C10 UNL     1     -36.091  15.189  -3.910  1.00 20.00     0.058 C 
ENDROOT
BRANCH   1   2
HETATM    2  C3  UNL     1     -35.985  14.051  -4.927  1.00 20.00     0.127 C 
HETATM    3  C4  UNL     1     -35.845  14.445  -6.375  1.00 20.00     0.091 C 
HETATM    4  O11 UNL     1     -36.035  12.865  -4.599  1.00 20.00    -0.298 OA
ENDBRANCH   1   2
BRANCH   1   5
HETATM    5  C8  UNL     1     -34.955  15.141  -2.870  1.00 20.00     0.045 C 
BRANCH   5   6
HETATM    6  C2  UNL     1     -33.616  15.635  -3.385  1.00 20.00    -0.089 C 
HETATM    7  C1  UNL     1     -32.878  14.877  -4.213  1.00 20.00     0.014 C 
BRANCH   6   8
HETATM    8  C7  UNL     1     -33.120  16.993  -2.941  1.00 20.00     0.029 C 
HETATM    9  C5  UNL     1     -33.717  17.448  -1.617  1.00 20.00     0.010 C 
ENDBRANCH   6   8
ENDBRANCH   5   6
ENDBRANCH   1   5
BRANCH   1  10
HETATM   10  C9  UNL     1     -36.167  16.545  -4.636  1.00 20.00     0.008 C 
HETATM   11  C6  UNL     1     -36.799  17.676  -3.836  1.00 20.00     0.006 C 
ENDBRANCH   1  10
TORSDOF 5
ENDMDL
MODEL 7
REMARK VINA RESULT:      -4.2      1.470      2.242
REMARK  5 active torsions:
REMARK  status: ('A' for Active; 'I' for Inactive)
REMARK    1  A    between atoms: C2_2  and  C7_7 
REMARK    2  A    between atoms: C2_2  and  C8_8 
REMARK    3  A    between atoms: C3_3  and  C10_10 
REMARK    4  A    between atoms: C8_8  and  C10_10 
REMARK    5  A    between atoms: C9_9  and  C10_10 
ROOT
HETATM    1  C10 UNL     1     -36.254  15.507  -3.621  1.00 20.00     0.058 C 
ENDROOT
BRANCH   1   2
HETATM    2  C3  UNL     1     -36.815  14.212  -4.211  1.00 20.00     0.127 C 
HETATM    3  C4  UNL     1     -35.813  13.159  -4.613  1.00 20.00     0.091 C 
HETATM    4  O11 UNL     1     -38.021  14.032  -4.382  1.00 20.00    -0.298 OA
ENDBRANCH   1   2
BRANCH   1   5
HETATM    5  C8  UNL     1     -34.822  15.323  -3.082  1.00 20.00     0.045 C 
BRANCH   5   6
HETATM    6  C2  UNL     1     -34.369  16.415  -2.130  1.00 20.00    -0.089 C 
HETATM    7  C1  UNL     1     -35.162  16.819  -1.123  1.00 20.00     0.014 C 
BRANCH   6   8
HETATM    8  C7  UNL     1     -33.013  17.050  -2.342  1.00 20.00     0.029 C 
HETATM    9  C5  UNL     1     -33.063  18.302  -3.205  1.00 20.00     0.010 C 
ENDBRANCH   6   8
ENDBRANCH   5   6
ENDBRANCH   1   5
BRANCH   1  10
HETATM   10  C9  UNL     1     -36.354  16.648  -4.651  1.00 20.00     0.008 C 
HETATM   11  C6  UNL     1     -35.302  16.622  -5.752  1.00 20.00     0.006 C 
ENDBRANCH   1  10
TORSDOF 5
ENDMDL
MODEL 8
REMARK VINA RESULT:      -4.0      1.541      2.304
REMARK  5 active torsions:
REMARK  status: ('A' for Active; 'I' for Inactive)
REMARK    1  A    between atoms: C2_2  and  C7_7 
REMARK    2  A    between atoms: C2_2  and  C8_8 
REMARK    3  A    between atoms: C3_3  and  C10_10 
REMARK    4  A    between atoms: C8_8  and  C10_10 
REMARK    5  A    between atoms: C9_9  and  C10_10 
ROOT
HETATM    1  C10 UNL     1     -34.935  15.603  -3.505  1.00 20.00     0.058 C 
ENDROOT
BRANCH   1   2
HETATM    2  C3  UNL     1     -34.936  14.194  -4.100  1.00 20.00     0.127 C 
HETATM    3  C4  UNL     1     -36.265  13.655  -4.566  1.00 20.00     0.091 C 
HETATM    4  O11 UNL     1     -33.916  13.509  -4.177  1.00 20.00    -0.298 OA
ENDBRANCH   1   2
BRANCH   1   5
HETATM    5  C8  UNL     1     -33.543  16.008  -2.981  1.00 20.00     0.045 C 
BRANCH   5   6
HETATM    6  C2  UNL     1     -33.560  17.154  -1.988  1.00 20.00    -0.089 C 
HETATM    7  C1  UNL     1     -34.522  17.238  -1.053  1.00 20.00     0.014 C 
BRANCH   6   8
HETATM    8  C7  UNL     1     -32.480  18.210  -2.075  1.00 20.00     0.029 C 
HETATM    9  C5  UNL     1     -31.627  18.304  -0.817  1.00 20.00     0.010 C 
ENDBRANCH   6   8
ENDBRANCH   5   6
ENDBRANCH   1   5
BRANCH   1  10
HETATM   10  C9  UNL     1     -35.494  16.612  -4.527  1.00 20.00     0.008 C 
HETATM   11  C6  UNL     1     -34.536  17.006  -5.641  1.00 20.00     0.006 C 
ENDBRANCH   1  10
TORSDOF 5
ENDMDL
MODEL 9
REMARK VINA RESULT:      -4.0     15.332     17.755
REMARK  5 active torsions:
REMARK  status: ('A' for Active; 'I' for Inactive)
REMARK    1  A    between atoms: C2_2  and  C7_7 
REMARK    2  A    between atoms: C2_2  and  C8_8 
REMARK    3  A    between atoms: C3_3  and  C10_10 
REMARK    4  A    between atoms: C8_8  and  C10_10 
REMARK    5  A    between atoms: C9_9  and  C10_10 
ROOT
HETATM    1  C10 UNL     1     -23.331  17.393   9.407  1.00 20.00     0.058 C 
ENDROOT
BRANCH   1   2
HETATM    2  C3  UNL     1     -23.573  16.976  10.858  1.00 20.00     0.127 C 
HETATM    3  C4  UNL     1     -22.749  17.673  11.911  1.00 20.00     0.091 C 
HETATM    4  O11 UNL     1     -24.378  16.098  11.168  1.00 20.00    -0.298 OA
ENDBRANCH   1   2
BRANCH   1   5
HETATM    5  C8  UNL     1     -23.653  18.882   9.172  1.00 20.00     0.045 C 
BRANCH   5   6
HETATM    6  C2  UNL     1     -24.976  19.131   8.472  1.00 20.00    -0.089 C 
HETATM    7  C1  UNL     1     -26.112  19.263   9.179  1.00 20.00     0.014 C 
BRANCH   6   8
HETATM    8  C7  UNL     1     -24.998  19.218   6.963  1.00 20.00     0.029 C 
HETATM    9  C5  UNL     1     -26.361  18.904   6.362  1.00 20.00     0.010 C 
ENDBRANCH   6   8
ENDBRANCH   5   6
ENDBRANCH   1   5
BRANCH   1  10
HETATM   10  C9  UNL     1     -21.897  17.027   8.980  1.00 20.00     0.008 C 
HETATM   11  C6  UNL     1     -21.526  17.409   7.554  1.00 20.00     0.006 C 
ENDBRANCH   1  10
TORSDOF 5
ENDMDL
