MODEL 1
REMARK VINA RESULT:      -3.7      0.000      0.000
REMARK  4 active torsions:
REMARK  status: ('A' for Active; 'I' for Inactive)
REMARK    1  A    between atoms: C3_3  and  C6_6 
REMARK    2  A    between atoms: C3_3  and  C7_7 
REMARK    3  A    between atoms: C6_6  and  C9_9 
REMARK    4  A    between atoms: C8_8  and  C9_9 
ROOT
HETATM    1  C1  UNL     1     -33.727  14.831  -5.749  1.00 20.00     0.011 A 
HETATM    2  C2  UNL     1     -32.947  14.388  -4.544  1.00 20.00     0.011 A 
HETATM    3  C3  UNL     1     -34.391  14.810  -4.392  1.00 20.00    -0.027 A 
ENDROOT
BRANCH   3   4
HETATM    4  C6  UNL     1     -34.677  16.144  -3.716  1.00 20.00     0.015 C 
BRANCH   4   5
HETATM    5  C9  UNL     1     -34.093  16.263  -2.293  1.00 20.00    -0.018 C 
HETATM    6  C5  UNL     1     -35.169  16.636  -1.270  1.00 20.00     0.010 C 
BRANCH   5   7
HETATM    7  C8  UNL     1     -32.943  17.292  -2.309  1.00 20.00    -0.000 C 
HETATM    8  C4  UNL     1     -32.918  18.168  -3.555  1.00 20.00     0.005 C 
ENDBRANCH   5   7
ENDBRANCH   4   5
ENDBRANCH   3   4
BRANCH   3   9
HETATM    9  C7  UNL     1     -35.414  13.741  -4.123  1.00 20.00     0.124 C 
HETATM   10 CL10 UNL     1     -37.064  14.398  -4.254  1.00 20.00    -0.130 Cl
ENDBRANCH   3   9
TORSDOF 4
ENDMDL
MODEL 2
REMARK VINA RESULT:      -3.6     11.182     12.188
REMARK  4 active torsions:
REMARK  status: ('A' for Active; 'I' for Inactive)
REMARK    1  A    between atoms: C3_3  and  C6_6 
REMARK    2  A    between atoms: C3_3  and  C7_7 
REMARK    3  A    between atoms: C6_6  and  C9_9 
REMARK    4  A    between atoms: C8_8  and  C9_9 
ROOT
HETATM    1  C1  UNL     1     -35.697   5.012   4.068  1.00 20.00     0.011 A 
HETATM    2  C2  UNL     1     -34.348   4.373   3.897  1.00 20.00     0.011 A 
HETATM    3  C3  UNL     1     -34.456   5.746   4.519  1.00 20.00    -0.027 A 
ENDROOT
BRANCH   3   4
HETATM    4  C6  UNL     1     -33.995   6.941   3.696  1.00 20.00     0.015 C 
BRANCH   4   5
HETATM    5  C9  UNL     1     -32.614   6.749   3.036  1.00 20.00    -0.018 C 
HETATM    6  C5  UNL     1     -31.557   7.662   3.664  1.00 20.00     0.010 C 
BRANCH   5   7
HETATM    7  C8  UNL     1     -32.747   6.994   1.518  1.00 20.00    -0.000 C 
HETATM    8  C4  UNL     1     -32.811   8.467   1.135  1.00 20.00     0.005 C 
ENDBRANCH   5   7
ENDBRANCH   4   5
ENDBRANCH   3   4
BRANCH   3   9
HETATM    9  C7  UNL     1     -34.210   5.873   5.997  1.00 20.00     0.124 C 
HETATM   10 CL10 UNL     1     -33.751   7.541   6.421  1.00 20.00    -0.130 Cl
ENDBRANCH   3   9
TORSDOF 4
ENDMDL
MODEL 3
REMARK VINA RESULT:      -3.6      1.636      2.722
REMARK  4 active torsions:
REMARK  status: ('A' for Active; 'I' for Inactive)
REMARK    1  A    between atoms: C3_3  and  C6_6 
REMARK    2  A    between atoms: C3_3  and  C7_7 
REMARK    3  A    between atoms: C6_6  and  C9_9 
REMARK    4  A    between atoms: C8_8  and  C9_9 
ROOT
HETATM    1  C1  UNL     1     -36.260  13.696  -4.784  1.00 20.00     0.011 A 
HETATM    2  C2  UNL     1     -36.635  15.151  -4.749  1.00 20.00     0.011 A 
HETATM    3  C3  UNL     1     -35.178  14.749  -4.717  1.00 20.00    -0.027 A 
ENDROOT
BRANCH   3   4
HETATM    4  C6  UNL     1     -34.422  14.912  -3.406  1.00 20.00     0.015 C 
BRANCH   4   5
HETATM    5  C9  UNL     1     -34.403  16.359  -2.869  1.00 20.00    -0.018 C 
HETATM    6  C5  UNL     1     -32.975  16.895  -2.741  1.00 20.00     0.010 C 
BRANCH   5   7
HETATM    7  C8  UNL     1     -35.150  16.401  -1.520  1.00 20.00    -0.000 C 
HETATM    8  C4  UNL     1     -34.649  17.483  -0.572  1.00 20.00     0.005 C 
ENDBRANCH   5   7
ENDBRANCH   4   5
ENDBRANCH   3   4
BRANCH   3   9
HETATM    9  C7  UNL     1     -34.352  14.992  -5.949  1.00 20.00     0.124 C 
HETATM   10 CL10 UNL     1     -34.539  16.670  -6.517  1.00 20.00    -0.130 Cl
ENDBRANCH   3   9
TORSDOF 4
ENDMDL
MODEL 4
REMARK VINA RESULT:      -3.5      1.316      2.505
REMARK  4 active torsions:
REMARK  status: ('A' for Active; 'I' for Inactive)
REMARK    1  A    between atoms: C3_3  and  C6_6 
REMARK    2  A    between atoms: C3_3  and  C7_7 
REMARK    3  A    between atoms: C6_6  and  C9_9 
REMARK    4  A    between atoms: C8_8  and  C9_9 
ROOT
HETATM    1  C1  UNL     1     -33.259  14.536  -4.568  1.00 20.00     0.011 A 
HETATM    2  C2  UNL     1     -34.565  14.435  -3.831  1.00 20.00     0.011 A 
HETATM    3  C3  UNL     1     -33.868  15.771  -3.944  1.00 20.00    -0.027 A 
ENDROOT
BRANCH   3   4
HETATM    4  C6  UNL     1     -33.207  16.339  -2.696  1.00 20.00     0.015 C 
BRANCH   4   5
HETATM    5  C9  UNL     1     -34.064  17.388  -1.957  1.00 20.00    -0.018 C 
HETATM    6  C5  UNL     1     -33.212  18.268  -1.039  1.00 20.00     0.010 C 
BRANCH   5   7
HETATM    7  C8  UNL     1     -35.179  16.662  -1.176  1.00 20.00    -0.000 C 
HETATM    8  C4  UNL     1     -35.409  17.215   0.225  1.00 20.00     0.005 C 
ENDBRANCH   5   7
ENDBRANCH   4   5
ENDBRANCH   3   4
BRANCH   3   9
HETATM    9  C7  UNL     1     -34.464  16.803  -4.860  1.00 20.00     0.124 C 
HETATM   10 CL10 UNL     1     -36.243  16.736  -4.816  1.00 20.00    -0.130 Cl
ENDBRANCH   3   9
TORSDOF 4
ENDMDL
MODEL 5
REMARK VINA RESULT:      -3.5      1.827      2.901
REMARK  4 active torsions:
REMARK  status: ('A' for Active; 'I' for Inactive)
REMARK    1  A    between atoms: C3_3  and  C6_6 
REMARK    2  A    between atoms: C3_3  and  C7_7 
REMARK    3  A    between atoms: C6_6  and  C9_9 
REMARK    4  A    between atoms: C8_8  and  C9_9 
ROOT
HETATM    1  C1  UNL     1     -36.741  14.616  -4.190  1.00 20.00     0.011 A 
HETATM    2  C2  UNL     1     -36.674  16.113  -4.308  1.00 20.00     0.011 A 
HETATM    3  C3  UNL     1     -35.421  15.328  -3.998  1.00 20.00    -0.027 A 
ENDROOT
BRANCH   3   4
HETATM    4  C6  UNL     1     -34.855  15.413  -2.587  1.00 20.00     0.015 C 
BRANCH   4   5
HETATM    5  C9  UNL     1     -34.653  16.857  -2.081  1.00 20.00    -0.018 C 
HETATM    6  C5  UNL     1     -33.177  17.263  -2.111  1.00 20.00     0.010 C 
BRANCH   5   7
HETATM    7  C8  UNL     1     -35.247  16.978  -0.663  1.00 20.00    -0.000 C 
HETATM    8  C4  UNL     1     -34.505  17.960   0.234  1.00 20.00     0.005 C 
ENDBRANCH   5   7
ENDBRANCH   4   5
ENDBRANCH   3   4
BRANCH   3   9
HETATM    9  C7  UNL     1     -34.384  15.196  -5.079  1.00 20.00     0.124 C 
HETATM   10 CL10 UNL     1     -32.893  14.463  -4.441  1.00 20.00    -0.130 Cl
ENDBRANCH   3   9
TORSDOF 4
ENDMDL
MODEL 6
REMARK VINA RESULT:      -3.5      1.612      2.845
REMARK  4 active torsions:
REMARK  status: ('A' for Active; 'I' for Inactive)
REMARK    1  A    between atoms: C3_3  and  C6_6 
REMARK    2  A    between atoms: C3_3  and  C7_7 
REMARK    3  A    between atoms: C6_6  and  C9_9 
REMARK    4  A    between atoms: C8_8  and  C9_9 
ROOT
HETATM    1  C1  UNL     1     -37.212  17.071  -3.199  1.00 20.00     0.011 A 
HETATM    2  C2  UNL     1     -36.416  17.190  -4.468  1.00 20.00     0.011 A 
HETATM    3  C3  UNL     1     -36.412  15.890  -3.699  1.00 20.00    -0.027 A 
ENDROOT
BRANCH   3   4
HETATM    4  C6  UNL     1     -35.147  15.513  -2.939  1.00 20.00     0.015 C 
BRANCH   4   5
HETATM    5  C9  UNL     1     -33.850  16.051  -3.579  1.00 20.00    -0.018 C 
HETATM    6  C5  UNL     1     -32.990  14.919  -4.148  1.00 20.00     0.010 C 
BRANCH   5   7
HETATM    7  C8  UNL     1     -33.080  16.877  -2.529  1.00 20.00    -0.000 C 
HETATM    8  C4  UNL     1     -33.958  17.425  -1.411  1.00 20.00     0.005 C 
ENDBRANCH   5   7
ENDBRANCH   4   5
ENDBRANCH   3   4
BRANCH   3   9
HETATM    9  C7  UNL     1     -37.162  14.723  -4.280  1.00 20.00     0.124 C 
HETATM   10 CL10 UNL     1     -36.088  13.318  -4.485  1.00 20.00    -0.130 Cl
ENDBRANCH   3   9
TORSDOF 4
ENDMDL
MODEL 7
REMARK VINA RESULT:      -3.4      2.072      3.961
REMARK  4 active torsions:
REMARK  status: ('A' for Active; 'I' for Inactive)
REMARK    1  A    between atoms: C3_3  and  C6_6 
REMARK    2  A    between atoms: C3_3  and  C7_7 
REMARK    3  A    between atoms: C6_6  and  C9_9 
REMARK    4  A    between atoms: C8_8  and  C9_9 
ROOT
HETATM    1  C1  UNL     1     -32.777  17.500  -1.897  1.00 20.00     0.011 A 
HETATM    2  C2  UNL     1     -33.590  17.998  -3.058  1.00 20.00     0.011 A 
HETATM    3  C3  UNL     1     -34.278  17.319  -1.896  1.00 20.00    -0.027 A 
ENDROOT
BRANCH   3   4
HETATM    4  C6  UNL     1     -34.827  15.915  -2.113  1.00 20.00     0.015 C 
BRANCH   4   5
HETATM    5  C9  UNL     1     -35.173  15.600  -3.584  1.00 20.00    -0.018 C 
HETATM    6  C5  UNL     1     -36.685  15.497  -3.797  1.00 20.00     0.010 C 
BRANCH   5   7
HETATM    7  C8  UNL     1     -34.450  14.303  -4.000  1.00 20.00    -0.000 C 
HETATM    8  C4  UNL     1     -32.998  14.512  -4.412  1.00 20.00     0.005 C 
ENDBRANCH   5   7
ENDBRANCH   4   5
ENDBRANCH   3   4
BRANCH   3   9
HETATM    9  C7  UNL     1     -35.091  18.170  -0.961  1.00 20.00     0.124 C 
HETATM   10 CL10 UNL     1     -35.644  17.221   0.441  1.00 20.00    -0.130 Cl
ENDBRANCH   3   9
TORSDOF 4
ENDMDL
MODEL 8
REMARK VINA RESULT:      -3.4      2.787      4.796
REMARK  4 active torsions:
REMARK  status: ('A' for Active; 'I' for Inactive)
REMARK    1  A    between atoms: C3_3  and  C6_6 
REMARK    2  A    between atoms: C3_3  and  C7_7 
REMARK    3  A    between atoms: C6_6  and  C9_9 
REMARK    4  A    between atoms: C8_8  and  C9_9 
ROOT
HETATM    1  C1  UNL     1     -34.840  18.625  -1.270  1.00 20.00     0.011 A 
HETATM    2  C2  UNL     1     -34.245  17.831  -0.141  1.00 20.00     0.011 A 
HETATM    3  C3  UNL     1     -33.713  17.657  -1.545  1.00 20.00    -0.027 A 
ENDROOT
BRANCH   3   4
HETATM    4  C6  UNL     1     -34.045  16.366  -2.280  1.00 20.00     0.015 C 
BRANCH   4   5
HETATM    5  C9  UNL     1     -33.453  16.286  -3.702  1.00 20.00    -0.018 C 
HETATM    6  C5  UNL     1     -34.245  17.144  -4.692  1.00 20.00     0.010 C 
BRANCH   5   7
HETATM    7  C8  UNL     1     -33.406  14.808  -4.142  1.00 20.00    -0.000 C 
HETATM    8  C4  UNL     1     -34.718  14.063  -3.937  1.00 20.00     0.005 C 
ENDBRANCH   5   7
ENDBRANCH   4   5
ENDBRANCH   3   4
BRANCH   3   9
HETATM    9  C7  UNL     1     -32.357  18.225  -1.861  1.00 20.00     0.124 C 
HETATM   10 CL10 UNL     1     -31.321  18.235  -0.412  1.00 20.00    -0.130 Cl
ENDBRANCH   3   9
TORSDOF 4
ENDMDL
MODEL 9
REMARK VINA RESULT:      -3.4      1.859      3.854
REMARK  4 active torsions:
REMARK  status: ('A' for Active; 'I' for Inactive)
REMARK    1  A    between atoms: C3_3  and  C6_6 
REMARK    2  A    between atoms: C3_3  and  C7_7 
REMARK    3  A    between atoms: C6_6  and  C9_9 
REMARK    4  A    between atoms: C8_8  and  C9_9 
ROOT
HETATM    1  C1  UNL     1     -33.973  17.258  -1.460  1.00 20.00     0.011 A 
HETATM    2  C2  UNL     1     -32.933  17.075  -2.530  1.00 20.00     0.011 A 
HETATM    3  C3  UNL     1     -34.384  16.775  -2.832  1.00 20.00    -0.027 A 
ENDROOT
BRANCH   3   4
HETATM    4  C6  UNL     1     -34.795  15.317  -2.981  1.00 20.00     0.015 C 
BRANCH   4   5
HETATM    5  C9  UNL     1     -35.150  14.912  -4.427  1.00 20.00    -0.018 C 
HETATM    6  C5  UNL     1     -36.077  13.693  -4.461  1.00 20.00     0.010 C 
BRANCH   5   7
HETATM    7  C8  UNL     1     -33.845  14.656  -5.209  1.00 20.00    -0.000 C 
HETATM    8  C4  UNL     1     -33.910  15.077  -6.671  1.00 20.00     0.005 C 
ENDBRANCH   5   7
ENDBRANCH   4   5
ENDBRANCH   3   4
BRANCH   3   9
HETATM    9  C7  UNL     1     -35.131  17.729  -3.722  1.00 20.00     0.124 C 
HETATM   10 CL10 UNL     1     -34.053  18.413  -4.964  1.00 20.00    -0.130 Cl
ENDBRANCH   3   9
TORSDOF 4
ENDMDL
