MODEL 1
REMARK VINA RESULT:      -4.1      0.000      0.000
REMARK  2 active torsions:
REMARK  status: ('A' for Active; 'I' for Inactive)
REMARK    1  A    between atoms: C5_5  and  O9_9 
REMARK    2  A    between atoms: C7_7  and  O9_9 
ROOT
HETATM    1  C1  UNL     1     -35.535  13.934  -4.381  1.00 20.00     0.098 C 
HETATM    2  C2  UNL     1     -35.007  15.920  -2.185  1.00 20.00     0.008 C 
HETATM    3  C3  UNL     1     -35.999  16.192  -3.331  1.00 20.00     0.054 C 
HETATM    4  C4  UNL     1     -33.954  15.557  -3.249  1.00 20.00     0.054 C 
HETATM    5  C5  UNL     1     -35.112  15.315  -4.259  1.00 20.00     0.148 C 
HETATM    6  N8  UNL     1     -35.875  12.829  -4.478  1.00 20.00    -0.194 NA
ENDROOT
BRANCH   5   7
HETATM    7  O9  UNL     1     -34.895  15.840  -5.584  1.00 20.00    -0.366 OA
BRANCH   7   8
HETATM    8  C7  UNL     1     -34.071  14.972  -6.337  1.00 20.00     0.165 C 
HETATM    9  C6  UNL     1     -34.028  15.455  -7.771  1.00 20.00     0.033 C 
ENDBRANCH   7   8
ENDBRANCH   5   7
TORSDOF 2
ENDMDL
MODEL 2
REMARK VINA RESULT:      -4.0     18.706     19.554
REMARK  2 active torsions:
REMARK  status: ('A' for Active; 'I' for Inactive)
REMARK    1  A    between atoms: C5_5  and  O9_9 
REMARK    2  A    between atoms: C7_7  and  O9_9 
ROOT
HETATM    1  C1  UNL     1     -22.564  17.757  11.782  1.00 20.00     0.098 C 
HETATM    2  C2  UNL     1     -25.269  16.517  12.217  1.00 20.00     0.008 C 
HETATM    3  C3  UNL     1     -24.431  16.261  10.951  1.00 20.00     0.054 C 
HETATM    4  C4  UNL     1     -25.075  18.026  11.980  1.00 20.00     0.054 C 
HETATM    5  C5  UNL     1     -23.840  17.691  11.096  1.00 20.00     0.148 C 
HETATM    6  N8  UNL     1     -21.543  17.809  12.331  1.00 20.00    -0.194 NA
ENDROOT
BRANCH   5   7
HETATM    7  O9  UNL     1     -23.734  18.445   9.872  1.00 20.00    -0.366 OA
BRANCH   7   8
HETATM    8  C7  UNL     1     -22.407  18.426   9.386  1.00 20.00     0.165 C 
HETATM    9  C6  UNL     1     -22.358  17.605   8.115  1.00 20.00     0.033 C 
ENDBRANCH   7   8
ENDBRANCH   5   7
TORSDOF 2
ENDMDL
MODEL 3
REMARK VINA RESULT:      -4.0     17.261     18.531
REMARK  2 active torsions:
REMARK  status: ('A' for Active; 'I' for Inactive)
REMARK    1  A    between atoms: C5_5  and  O9_9 
REMARK    2  A    between atoms: C7_7  and  O9_9 
ROOT
HETATM    1  C1  UNL     1     -22.409  17.090   9.076  1.00 20.00     0.098 C 
HETATM    2  C2  UNL     1     -23.491  16.539  11.827  1.00 20.00     0.008 C 
HETATM    3  C3  UNL     1     -24.399  16.702  10.595  1.00 20.00     0.054 C 
HETATM    4  C4  UNL     1     -22.822  17.873  11.449  1.00 20.00     0.054 C 
HETATM    5  C5  UNL     1     -23.354  17.687  10.000  1.00 20.00     0.148 C 
HETATM    6  N8  UNL     1     -21.655  16.613   8.336  1.00 20.00    -0.194 NA
ENDROOT
BRANCH   5   7
HETATM    7  O9  UNL     1     -23.900  18.871   9.386  1.00 20.00    -0.366 OA
BRANCH   7   8
HETATM    8  C7  UNL     1     -24.020  18.701   7.987  1.00 20.00     0.165 C 
HETATM    9  C6  UNL     1     -25.440  19.016   7.571  1.00 20.00     0.033 C 
ENDBRANCH   7   8
ENDBRANCH   5   7
TORSDOF 2
ENDMDL
MODEL 4
REMARK VINA RESULT:      -3.9     18.404     19.069
REMARK  2 active torsions:
REMARK  status: ('A' for Active; 'I' for Inactive)
REMARK    1  A    between atoms: C5_5  and  O9_9 
REMARK    2  A    between atoms: C7_7  and  O9_9 
ROOT
HETATM    1  C1  UNL     1     -24.672  18.600   9.944  1.00 20.00     0.098 C 
HETATM    2  C2  UNL     1     -25.206  16.522  12.051  1.00 20.00     0.008 C 
HETATM    3  C3  UNL     1     -24.396  17.800  12.332  1.00 20.00     0.054 C 
HETATM    4  C4  UNL     1     -24.287  16.263  10.843  1.00 20.00     0.054 C 
HETATM    5  C5  UNL     1     -23.907  17.771  10.856  1.00 20.00     0.148 C 
HETATM    6  N8  UNL     1     -25.283  19.263   9.215  1.00 20.00    -0.194 NA
ENDROOT
BRANCH   5   7
HETATM    7  O9  UNL     1     -22.508  18.057  10.661  1.00 20.00    -0.366 OA
BRANCH   7   8
HETATM    8  C7  UNL     1     -22.257  18.442   9.325  1.00 20.00     0.165 C 
HETATM    9  C6  UNL     1     -21.401  17.386   8.659  1.00 20.00     0.033 C 
ENDBRANCH   7   8
ENDBRANCH   5   7
TORSDOF 2
ENDMDL
MODEL 5
REMARK VINA RESULT:      -3.8      1.731      2.824
REMARK  2 active torsions:
REMARK  status: ('A' for Active; 'I' for Inactive)
REMARK    1  A    between atoms: C5_5  and  O9_9 
REMARK    2  A    between atoms: C7_7  and  O9_9 
ROOT
HETATM    1  C1  UNL     1     -35.689  13.897  -4.206  1.00 20.00     0.098 C 
HETATM    2  C2  UNL     1     -33.493  15.842  -3.544  1.00 20.00     0.008 C 
HETATM    3  C3  UNL     1     -34.670  15.564  -2.592  1.00 20.00     0.054 C 
HETATM    4  C4  UNL     1     -34.520  16.098  -4.662  1.00 20.00     0.054 C 
HETATM    5  C5  UNL     1     -35.564  15.294  -3.836  1.00 20.00     0.148 C 
HETATM    6  N8  UNL     1     -35.789  12.780  -4.501  1.00 20.00    -0.194 NA
ENDROOT
BRANCH   5   7
HETATM    7  O9  UNL     1     -36.885  15.868  -3.784  1.00 20.00    -0.366 OA
BRANCH   7   8
HETATM    8  C7  UNL     1     -37.721  15.290  -4.767  1.00 20.00     0.165 C 
HETATM    9  C6  UNL     1     -39.093  15.055  -4.172  1.00 20.00     0.033 C 
ENDBRANCH   7   8
ENDBRANCH   5   7
TORSDOF 2
ENDMDL
MODEL 6
REMARK VINA RESULT:      -3.7      1.220      3.324
REMARK  2 active torsions:
REMARK  status: ('A' for Active; 'I' for Inactive)
REMARK    1  A    between atoms: C5_5  and  O9_9 
REMARK    2  A    between atoms: C7_7  and  O9_9 
ROOT
HETATM    1  C1  UNL     1     -35.834  13.855  -4.783  1.00 20.00     0.098 C 
HETATM    2  C2  UNL     1     -35.207  15.205  -7.396  1.00 20.00     0.008 C 
HETATM    3  C3  UNL     1     -34.261  15.265  -6.183  1.00 20.00     0.054 C 
HETATM    4  C4  UNL     1     -36.345  15.674  -6.471  1.00 20.00     0.054 C 
HETATM    5  C5  UNL     1     -35.506  15.187  -5.255  1.00 20.00     0.148 C 
HETATM    6  N8  UNL     1     -36.095  12.790  -4.406  1.00 20.00    -0.194 NA
ENDROOT
BRANCH   5   7
HETATM    7  O9  UNL     1     -35.489  16.077  -4.121  1.00 20.00    -0.366 OA
BRANCH   7   8
HETATM    8  C7  UNL     1     -34.864  15.462  -3.012  1.00 20.00     0.165 C 
HETATM    9  C6  UNL     1     -33.673  16.297  -2.591  1.00 20.00     0.033 C 
ENDBRANCH   7   8
ENDBRANCH   5   7
TORSDOF 2
ENDMDL
MODEL 7
REMARK VINA RESULT:      -3.7     19.014     19.805
REMARK  2 active torsions:
REMARK  status: ('A' for Active; 'I' for Inactive)
REMARK    1  A    between atoms: C5_5  and  O9_9 
REMARK    2  A    between atoms: C7_7  and  O9_9 
ROOT
HETATM    1  C1  UNL     1     -24.207  16.401  11.553  1.00 20.00     0.098 C 
HETATM    2  C2  UNL     1     -21.852  17.761  10.270  1.00 20.00     0.008 C 
HETATM    3  C3  UNL     1     -22.092  17.776  11.790  1.00 20.00     0.054 C 
HETATM    4  C4  UNL     1     -23.299  18.255  10.085  1.00 20.00     0.054 C 
HETATM    5  C5  UNL     1     -23.622  17.727  11.512  1.00 20.00     0.148 C 
HETATM    6  N8  UNL     1     -24.675  15.341  11.586  1.00 20.00    -0.194 NA
ENDROOT
BRANCH   5   7
HETATM    7  O9  UNL     1     -24.427  18.602  12.327  1.00 20.00    -0.366 OA
BRANCH   7   8
HETATM    8  C7  UNL     1     -25.781  18.195  12.311  1.00 20.00     0.165 C 
HETATM    9  C6  UNL     1     -26.609  19.263  11.628  1.00 20.00     0.033 C 
ENDBRANCH   7   8
ENDBRANCH   5   7
TORSDOF 2
ENDMDL
MODEL 8
REMARK VINA RESULT:      -3.6     17.999     18.955
REMARK  2 active torsions:
REMARK  status: ('A' for Active; 'I' for Inactive)
REMARK    1  A    between atoms: C5_5  and  O9_9 
REMARK    2  A    between atoms: C7_7  and  O9_9 
ROOT
HETATM    1  C1  UNL     1     -24.499  18.742   9.215  1.00 20.00     0.098 C 
HETATM    2  C2  UNL     1     -21.949  17.402   8.353  1.00 20.00     0.008 C 
HETATM    3  C3  UNL     1     -22.996  16.702   9.237  1.00 20.00     0.054 C 
HETATM    4  C4  UNL     1     -21.974  18.582   9.342  1.00 20.00     0.054 C 
HETATM    5  C5  UNL     1     -23.363  18.089   9.837  1.00 20.00     0.148 C 
HETATM    6  N8  UNL     1     -25.408  19.263   8.718  1.00 20.00    -0.194 NA
ENDROOT
BRANCH   5   7
HETATM    7  O9  UNL     1     -23.554  18.114  11.266  1.00 20.00    -0.366 OA
BRANCH   7   8
HETATM    8  C7  UNL     1     -24.927  18.015  11.589  1.00 20.00     0.165 C 
HETATM    9  C6  UNL     1     -25.186  16.673  12.239  1.00 20.00     0.033 C 
ENDBRANCH   7   8
ENDBRANCH   5   7
TORSDOF 2
ENDMDL
MODEL 9
REMARK VINA RESULT:      -3.6     18.266     19.144
REMARK  2 active torsions:
REMARK  status: ('A' for Active; 'I' for Inactive)
REMARK    1  A    between atoms: C5_5  and  O9_9 
REMARK    2  A    between atoms: C7_7  and  O9_9 
ROOT
HETATM    1  C1  UNL     1     -24.831  18.557  10.165  1.00 20.00     0.098 C 
HETATM    2  C2  UNL     1     -23.572  16.452  11.906  1.00 20.00     0.008 C 
HETATM    3  C3  UNL     1     -25.095  16.567  11.712  1.00 20.00     0.054 C 
HETATM    4  C4  UNL     1     -23.553  17.949  12.267  1.00 20.00     0.054 C 
HETATM    5  C5  UNL     1     -24.920  18.103  11.540  1.00 20.00     0.148 C 
HETATM    6  N8  UNL     1     -24.760  18.919   9.066  1.00 20.00    -0.194 NA
ENDROOT
BRANCH   5   7
HETATM    7  O9  UNL     1     -25.894  18.917  12.222  1.00 20.00    -0.366 OA
BRANCH   7   8
HETATM    8  C7  UNL     1     -26.954  19.263  11.353  1.00 20.00     0.165 C 
HETATM    9  C6  UNL     1     -28.211  18.546  11.798  1.00 20.00     0.033 C 
ENDBRANCH   7   8
ENDBRANCH   5   7
TORSDOF 2
ENDMDL
