MODEL 1
REMARK VINA RESULT:      -4.3      0.000      0.000
REMARK  3 active torsions:
REMARK  status: ('A' for Active; 'I' for Inactive)
REMARK    1  A    between atoms: C5_5  and  C6_6 
REMARK    2  A    between atoms: C5_5  and  C7_7 
REMARK    3  A    between atoms: C6_6  and  O9_9 
ROOT
HETATM    1  C1  UNL     1     -36.842  14.123  -4.357  1.00 20.00     0.091 C 
HETATM    2  C6  UNL     1     -35.387  14.323  -4.305  1.00 20.00     0.227 C 
HETATM    3  N8  UNL     1     -37.990  13.964  -4.397  1.00 20.00    -0.195 NA
ENDROOT
BRANCH   2   4
HETATM    4  C5  UNL     1     -35.007  15.756  -3.910  1.00 20.00     0.050 C 
BRANCH   4   5
HETATM    5  C7  UNL     1     -34.271  15.901  -2.564  1.00 20.00    -0.019 C 
HETATM    6  C2  UNL     1     -33.013  16.754  -2.752  1.00 20.00     0.009 C 
HETATM    7  C3  UNL     1     -35.155  16.519  -1.480  1.00 20.00     0.009 C 
ENDBRANCH   4   5
ENDBRANCH   2   4
BRANCH   2   8
HETATM    8  O9  UNL     1     -34.827  14.046  -5.590  1.00 20.00    -0.376 OA
HETATM    9  C4  UNL     1     -34.438  15.239  -6.249  1.00 20.00     0.203 C 
ENDBRANCH   2   8
TORSDOF 3
ENDMDL
MODEL 2
REMARK VINA RESULT:      -4.2      0.730      1.408
REMARK  3 active torsions:
REMARK  status: ('A' for Active; 'I' for Inactive)
REMARK    1  A    between atoms: C5_5  and  C6_6 
REMARK    2  A    between atoms: C5_5  and  C7_7 
REMARK    3  A    between atoms: C6_6  and  O9_9 
ROOT
HETATM    1  C1  UNL     1     -36.756  14.092  -4.587  1.00 20.00     0.091 C 
HETATM    2  C6  UNL     1     -35.328  14.272  -4.887  1.00 20.00     0.227 C 
HETATM    3  N8  UNL     1     -37.882  13.949  -4.351  1.00 20.00    -0.195 NA
ENDROOT
BRANCH   2   4
HETATM    4  C5  UNL     1     -34.494  14.537  -3.627  1.00 20.00     0.050 C 
BRANCH   4   5
HETATM    5  C7  UNL     1     -34.425  16.008  -3.174  1.00 20.00    -0.019 C 
HETATM    6  C2  UNL     1     -35.142  16.169  -1.831  1.00 20.00     0.009 C 
HETATM    7  C3  UNL     1     -32.987  16.515  -3.054  1.00 20.00     0.009 C 
ENDBRANCH   4   5
ENDBRANCH   2   4
BRANCH   2   8
HETATM    8  O9  UNL     1     -35.170  15.381  -5.774  1.00 20.00    -0.376 OA
HETATM    9  C4  UNL     1     -34.185  15.114  -6.760  1.00 20.00     0.203 C 
ENDBRANCH   2   8
TORSDOF 3
ENDMDL
MODEL 3
REMARK VINA RESULT:      -3.9      1.051      1.389
REMARK  3 active torsions:
REMARK  status: ('A' for Active; 'I' for Inactive)
REMARK    1  A    between atoms: C5_5  and  C6_6 
REMARK    2  A    between atoms: C5_5  and  C7_7 
REMARK    3  A    between atoms: C6_6  and  O9_9 
ROOT
HETATM    1  C1  UNL     1     -36.075  13.918  -4.308  1.00 20.00     0.091 C 
HETATM    2  C6  UNL     1     -34.664  14.188  -4.002  1.00 20.00     0.227 C 
HETATM    3  N8  UNL     1     -37.189  13.703  -4.549  1.00 20.00    -0.195 NA
ENDROOT
BRANCH   2   4
HETATM    4  C5  UNL     1     -34.445  15.605  -3.454  1.00 20.00     0.050 C 
BRANCH   4   5
HETATM    5  C7  UNL     1     -35.600  16.176  -2.608  1.00 20.00    -0.019 C 
HETATM    6  C2  UNL     1     -35.068  16.630  -1.246  1.00 20.00     0.009 C 
HETATM    7  C3  UNL     1     -36.308  17.342  -3.300  1.00 20.00     0.009 C 
ENDBRANCH   4   5
ENDBRANCH   2   4
BRANCH   2   8
HETATM    8  O9  UNL     1     -33.887  14.040  -5.191  1.00 20.00    -0.376 OA
HETATM    9  C4  UNL     1     -34.165  15.076  -6.119  1.00 20.00     0.203 C 
ENDBRANCH   2   8
TORSDOF 3
ENDMDL
MODEL 4
REMARK VINA RESULT:      -3.9      1.850      2.394
REMARK  3 active torsions:
REMARK  status: ('A' for Active; 'I' for Inactive)
REMARK    1  A    between atoms: C5_5  and  C6_6 
REMARK    2  A    between atoms: C5_5  and  C7_7 
REMARK    3  A    between atoms: C6_6  and  O9_9 
ROOT
HETATM    1  C1  UNL     1     -36.077  14.668  -6.041  1.00 20.00     0.091 C 
HETATM    2  C6  UNL     1     -36.258  14.771  -4.586  1.00 20.00     0.227 C 
HETATM    3  N8  UNL     1     -35.934  14.590  -7.190  1.00 20.00    -0.195 NA
ENDROOT
BRANCH   2   4
HETATM    4  C5  UNL     1     -35.012  14.326  -3.808  1.00 20.00     0.050 C 
BRANCH   4   5
HETATM    5  C7  UNL     1     -34.434  15.367  -2.830  1.00 20.00    -0.019 C 
HETATM    6  C2  UNL     1     -33.211  16.041  -3.457  1.00 20.00     0.009 C 
HETATM    7  C3  UNL     1     -35.462  16.429  -2.435  1.00 20.00     0.009 C 
ENDBRANCH   4   5
ENDBRANCH   2   4
BRANCH   2   8
HETATM    8  O9  UNL     1     -37.356  13.946  -4.190  1.00 20.00    -0.376 OA
HETATM    9  C4  UNL     1     -38.579  14.661  -4.237  1.00 20.00     0.203 C 
ENDBRANCH   2   8
TORSDOF 3
ENDMDL
MODEL 5
REMARK VINA RESULT:      -3.9      2.043      2.577
REMARK  3 active torsions:
REMARK  status: ('A' for Active; 'I' for Inactive)
REMARK    1  A    between atoms: C5_5  and  C6_6 
REMARK    2  A    between atoms: C5_5  and  C7_7 
REMARK    3  A    between atoms: C6_6  and  O9_9 
ROOT
HETATM    1  C1  UNL     1     -34.116  15.063  -6.447  1.00 20.00     0.091 C 
HETATM    2  C6  UNL     1     -34.567  14.941  -5.054  1.00 20.00     0.227 C 
HETATM    3  N8  UNL     1     -33.761  15.162  -7.547  1.00 20.00    -0.195 NA
ENDROOT
BRANCH   2   4
HETATM    4  C5  UNL     1     -33.400  14.966  -4.057  1.00 20.00     0.050 C 
BRANCH   4   5
HETATM    5  C7  UNL     1     -33.485  16.049  -2.964  1.00 20.00    -0.019 C 
HETATM    6  C2  UNL     1     -33.291  17.432  -3.591  1.00 20.00     0.009 C 
HETATM    7  C3  UNL     1     -34.813  16.009  -2.206  1.00 20.00     0.009 C 
ENDBRANCH   4   5
ENDBRANCH   2   4
BRANCH   2   8
HETATM    8  O9  UNL     1     -35.270  13.708  -4.894  1.00 20.00    -0.376 OA
HETATM    9  C4  UNL     1     -36.642  13.931  -4.611  1.00 20.00     0.203 C 
ENDBRANCH   2   8
TORSDOF 3
ENDMDL
MODEL 6
REMARK VINA RESULT:      -3.8      1.367      1.829
REMARK  3 active torsions:
REMARK  status: ('A' for Active; 'I' for Inactive)
REMARK    1  A    between atoms: C5_5  and  C6_6 
REMARK    2  A    between atoms: C5_5  and  C7_7 
REMARK    3  A    between atoms: C6_6  and  O9_9 
ROOT
HETATM    1  C1  UNL     1     -35.511  13.878  -4.538  1.00 20.00     0.091 C 
HETATM    2  C6  UNL     1     -34.636  15.054  -4.648  1.00 20.00     0.227 C 
HETATM    3  N8  UNL     1     -36.200  12.949  -4.452  1.00 20.00    -0.195 NA
ENDROOT
BRANCH   2   4
HETATM    4  C5  UNL     1     -33.864  15.332  -3.351  1.00 20.00     0.050 C 
BRANCH   4   5
HETATM    5  C7  UNL     1     -34.174  16.680  -2.671  1.00 20.00    -0.019 C 
HETATM    6  C2  UNL     1     -35.115  16.454  -1.484  1.00 20.00     0.009 C 
HETATM    7  C3  UNL     1     -32.910  17.398  -2.196  1.00 20.00     0.009 C 
ENDBRANCH   4   5
ENDBRANCH   2   4
BRANCH   2   8
HETATM    8  O9  UNL     1     -35.429  16.202  -4.957  1.00 20.00    -0.376 OA
HETATM    9  C4  UNL     1     -35.445  16.455  -6.352  1.00 20.00     0.203 C 
ENDBRANCH   2   8
TORSDOF 3
ENDMDL
MODEL 7
REMARK VINA RESULT:      -3.7      1.932      2.352
REMARK  3 active torsions:
REMARK  status: ('A' for Active; 'I' for Inactive)
REMARK    1  A    between atoms: C5_5  and  C6_6 
REMARK    2  A    between atoms: C5_5  and  C7_7 
REMARK    3  A    between atoms: C6_6  and  O9_9 
ROOT
HETATM    1  C1  UNL     1     -37.061  14.754  -4.184  1.00 20.00     0.091 C 
HETATM    2  C6  UNL     1     -36.108  15.850  -3.961  1.00 20.00     0.227 C 
HETATM    3  N8  UNL     1     -37.813  13.888  -4.361  1.00 20.00    -0.195 NA
ENDROOT
BRANCH   2   4
HETATM    4  C5  UNL     1     -35.207  15.604  -2.743  1.00 20.00     0.050 C 
BRANCH   4   5
HETATM    5  C7  UNL     1     -33.693  15.741  -2.998  1.00 20.00    -0.019 C 
HETATM    6  C2  UNL     1     -33.293  14.884  -4.202  1.00 20.00     0.009 C 
HETATM    7  C3  UNL     1     -33.271  17.192  -3.236  1.00 20.00     0.009 C 
ENDBRANCH   4   5
ENDBRANCH   2   4
BRANCH   2   8
HETATM    8  O9  UNL     1     -36.829  17.065  -3.751  1.00 20.00    -0.376 OA
HETATM    9  C4  UNL     1     -37.176  17.677  -4.982  1.00 20.00     0.203 C 
ENDBRANCH   2   8
TORSDOF 3
ENDMDL
MODEL 8
REMARK VINA RESULT:      -3.6      4.207      5.741
REMARK  3 active torsions:
REMARK  status: ('A' for Active; 'I' for Inactive)
REMARK    1  A    between atoms: C5_5  and  C6_6 
REMARK    2  A    between atoms: C5_5  and  C7_7 
REMARK    3  A    between atoms: C6_6  and  O9_9 
ROOT
HETATM    1  C1  UNL     1     -31.693  18.208  -0.811  1.00 20.00     0.091 C 
HETATM    2  C6  UNL     1     -33.047  17.899  -1.292  1.00 20.00     0.227 C 
HETATM    3  N8  UNL     1     -30.624  18.451  -0.430  1.00 20.00    -0.195 NA
ENDROOT
BRANCH   2   4
HETATM    4  C5  UNL     1     -33.044  17.300  -2.705  1.00 20.00     0.050 C 
BRANCH   4   5
HETATM    5  C7  UNL     1     -33.681  15.903  -2.834  1.00 20.00    -0.019 C 
HETATM    6  C2  UNL     1     -35.106  15.931  -2.275  1.00 20.00     0.009 C 
HETATM    7  C3  UNL     1     -33.705  15.405  -4.280  1.00 20.00     0.009 C 
ENDBRANCH   4   5
ENDBRANCH   2   4
BRANCH   2   8
HETATM    8  O9  UNL     1     -33.824  19.098  -1.312  1.00 20.00    -0.376 OA
HETATM    9  C4  UNL     1     -34.546  19.263  -0.102  1.00 20.00     0.203 C 
ENDBRANCH   2   8
TORSDOF 3
ENDMDL
MODEL 9
REMARK VINA RESULT:      -3.5      1.622      3.077
REMARK  3 active torsions:
REMARK  status: ('A' for Active; 'I' for Inactive)
REMARK    1  A    between atoms: C5_5  and  C6_6 
REMARK    2  A    between atoms: C5_5  and  C7_7 
REMARK    3  A    between atoms: C6_6  and  O9_9 
ROOT
HETATM    1  C1  UNL     1     -36.952  14.739  -4.071  1.00 20.00     0.091 C 
HETATM    2  C6  UNL     1     -36.042  15.816  -3.656  1.00 20.00     0.227 C 
HETATM    3  N8  UNL     1     -37.671  13.890  -4.400  1.00 20.00    -0.195 NA
ENDROOT
BRANCH   2   4
HETATM    4  C5  UNL     1     -34.950  16.094  -4.697  1.00 20.00     0.050 C 
BRANCH   4   5
HETATM    5  C7  UNL     1     -34.222  14.851  -5.245  1.00 20.00    -0.019 C 
HETATM    6  C2  UNL     1     -33.901  15.052  -6.728  1.00 20.00     0.009 C 
HETATM    7  C3  UNL     1     -32.936  14.543  -4.476  1.00 20.00     0.009 C 
ENDBRANCH   4   5
ENDBRANCH   2   4
BRANCH   2   8
HETATM    8  O9  UNL     1     -35.411  15.451  -2.427  1.00 20.00    -0.376 OA
HETATM    9  C4  UNL     1     -35.007  16.597  -1.697  1.00 20.00     0.203 C 
ENDBRANCH   2   8
TORSDOF 3
ENDMDL
