MODEL 1
REMARK VINA RESULT:      -4.5      0.000      0.000
REMARK  4 active torsions:
REMARK  status: ('A' for Active; 'I' for Inactive)
REMARK    1  A    between atoms: C6_6  and  C8_8 
REMARK    2  A    between atoms: C6_6  and  C9_9 
REMARK    3  A    between atoms: C7_7  and  O11_11 
REMARK    4  A    between atoms: C8_8  and  O11_11 
ROOT
HETATM    1  C1  UNL     1     -36.989  14.375  -4.488  1.00 20.00     0.091 C 
HETATM    2  C8  UNL     1     -35.659  14.979  -4.673  1.00 20.00     0.228 C 
HETATM    3  N10 UNL     1     -38.039  13.900  -4.343  1.00 20.00    -0.195 NA
ENDROOT
BRANCH   2   4
HETATM    4  C6  UNL     1     -34.907  15.033  -3.333  1.00 20.00     0.055 C 
BRANCH   4   5
HETATM    5  C9  UNL     1     -34.603  16.444  -2.749  1.00 20.00    -0.048 C 
HETATM    6  C3  UNL     1     -33.074  16.642  -2.764  1.00 20.00     0.014 C 
HETATM    7  C4  UNL     1     -35.241  17.547  -3.611  1.00 20.00     0.014 C 
HETATM    8  C5  UNL     1     -35.093  16.593  -1.300  1.00 20.00     0.014 C 
ENDBRANCH   4   5
ENDBRANCH   2   4
BRANCH   2   9
HETATM    9  O11 UNL     1     -34.921  14.193  -5.603  1.00 20.00    -0.372 OA
BRANCH   9  10
HETATM   10  C7  UNL     1     -33.968  14.977  -6.305  1.00 20.00     0.165 C 
HETATM   11  C2  UNL     1     -34.679  16.127  -6.984  1.00 20.00     0.033 C 
ENDBRANCH   9  10
ENDBRANCH   2   9
TORSDOF 4
ENDMDL
MODEL 2
REMARK VINA RESULT:      -4.5      0.048      1.304
REMARK  4 active torsions:
REMARK  status: ('A' for Active; 'I' for Inactive)
REMARK    1  A    between atoms: C6_6  and  C8_8 
REMARK    2  A    between atoms: C6_6  and  C9_9 
REMARK    3  A    between atoms: C7_7  and  O11_11 
REMARK    4  A    between atoms: C8_8  and  O11_11 
ROOT
HETATM    1  C1  UNL     1     -36.980  14.383  -4.468  1.00 20.00     0.091 C 
HETATM    2  C8  UNL     1     -35.647  14.983  -4.640  1.00 20.00     0.228 C 
HETATM    3  N10 UNL     1     -38.033  13.911  -4.333  1.00 20.00    -0.195 NA
ENDROOT
BRANCH   2   4
HETATM    4  C6  UNL     1     -34.917  15.054  -3.288  1.00 20.00     0.055 C 
BRANCH   4   5
HETATM    5  C9  UNL     1     -34.575  16.473  -2.744  1.00 20.00    -0.048 C 
HETATM    6  C3  UNL     1     -35.097  16.561  -1.295  1.00 20.00     0.014 C 
HETATM    7  C4  UNL     1     -33.054  16.703  -2.723  1.00 20.00     0.014 C 
HETATM    8  C5  UNL     1     -35.241  17.589  -3.564  1.00 20.00     0.014 C 
ENDBRANCH   4   5
ENDBRANCH   2   4
BRANCH   2   9
HETATM    9  O11 UNL     1     -34.895  14.183  -5.546  1.00 20.00    -0.372 OA
BRANCH   9  10
HETATM   10  C7  UNL     1     -33.962  14.964  -6.278  1.00 20.00     0.165 C 
HETATM   11  C2  UNL     1     -34.702  16.072  -6.995  1.00 20.00     0.033 C 
ENDBRANCH   9  10
ENDBRANCH   2   9
TORSDOF 4
ENDMDL
MODEL 3
REMARK VINA RESULT:      -4.4      0.714      1.517
REMARK  4 active torsions:
REMARK  status: ('A' for Active; 'I' for Inactive)
REMARK    1  A    between atoms: C6_6  and  C8_8 
REMARK    2  A    between atoms: C6_6  and  C9_9 
REMARK    3  A    between atoms: C7_7  and  O11_11 
REMARK    4  A    between atoms: C8_8  and  O11_11 
ROOT
HETATM    1  C1  UNL     1     -37.434  14.437  -4.549  1.00 20.00     0.091 C 
HETATM    2  C8  UNL     1     -36.082  14.900  -4.902  1.00 20.00     0.228 C 
HETATM    3  N10 UNL     1     -38.502  14.074  -4.271  1.00 20.00    -0.195 NA
ENDROOT
BRANCH   2   4
HETATM    4  C6  UNL     1     -35.146  14.786  -3.687  1.00 20.00     0.055 C 
BRANCH   4   5
HETATM    5  C9  UNL     1     -34.560  16.113  -3.119  1.00 20.00    -0.048 C 
HETATM    6  C3  UNL     1     -35.117  17.275  -3.966  1.00 20.00     0.014 C 
HETATM    7  C4  UNL     1     -34.995  16.327  -1.660  1.00 20.00     0.014 C 
HETATM    8  C5  UNL     1     -33.026  16.153  -3.198  1.00 20.00     0.014 C 
ENDBRANCH   4   5
ENDBRANCH   2   4
BRANCH   2   9
HETATM    9  O11 UNL     1     -35.583  14.095  -5.965  1.00 20.00    -0.372 OA
BRANCH   9  10
HETATM   10  C7  UNL     1     -35.362  14.864  -7.139  1.00 20.00     0.165 C 
HETATM   11  C2  UNL     1     -33.896  15.237  -7.215  1.00 20.00     0.033 C 
ENDBRANCH   9  10
ENDBRANCH   2   9
TORSDOF 4
ENDMDL
MODEL 4
REMARK VINA RESULT:      -3.9      1.508      2.107
REMARK  4 active torsions:
REMARK  status: ('A' for Active; 'I' for Inactive)
REMARK    1  A    between atoms: C6_6  and  C8_8 
REMARK    2  A    between atoms: C6_6  and  C9_9 
REMARK    3  A    between atoms: C7_7  and  O11_11 
REMARK    4  A    between atoms: C8_8  and  O11_11 
ROOT
HETATM    1  C1  UNL     1     -36.793  14.667  -4.136  1.00 20.00     0.091 C 
HETATM    2  C8  UNL     1     -35.766  15.696  -3.903  1.00 20.00     0.228 C 
HETATM    3  N10 UNL     1     -37.605  13.857  -4.320  1.00 20.00    -0.195 NA
ENDROOT
BRANCH   2   4
HETATM    4  C6  UNL     1     -35.314  15.674  -2.433  1.00 20.00     0.055 C 
BRANCH   4   5
HETATM    5  C9  UNL     1     -34.888  17.034  -1.805  1.00 20.00    -0.048 C 
HETATM    6  C3  UNL     1     -35.630  18.156  -2.560  1.00 20.00     0.014 C 
HETATM    7  C4  UNL     1     -35.289  17.104  -0.321  1.00 20.00     0.014 C 
HETATM    8  C5  UNL     1     -33.378  17.287  -1.930  1.00 20.00     0.014 C 
ENDBRANCH   4   5
ENDBRANCH   2   4
BRANCH   2   9
HETATM    9  O11 UNL     1     -34.651  15.433  -4.749  1.00 20.00    -0.372 OA
BRANCH   9  10
HETATM   10  C7  UNL     1     -33.953  14.265  -4.341  1.00 20.00     0.165 C 
HETATM   11  C2  UNL     1     -32.465  14.540  -4.386  1.00 20.00     0.033 C 
ENDBRANCH   9  10
ENDBRANCH   2   9
TORSDOF 4
ENDMDL
MODEL 5
REMARK VINA RESULT:      -3.7      1.144      3.708
REMARK  4 active torsions:
REMARK  status: ('A' for Active; 'I' for Inactive)
REMARK    1  A    between atoms: C6_6  and  C8_8 
REMARK    2  A    between atoms: C6_6  and  C9_9 
REMARK    3  A    between atoms: C7_7  and  O11_11 
REMARK    4  A    between atoms: C8_8  and  O11_11 
ROOT
HETATM    1  C1  UNL     1     -36.821  14.174  -4.501  1.00 20.00     0.091 C 
HETATM    2  C8  UNL     1     -35.410  14.534  -4.717  1.00 20.00     0.228 C 
HETATM    3  N10 UNL     1     -37.934  13.889  -4.331  1.00 20.00    -0.195 NA
ENDROOT
BRANCH   2   4
HETATM    4  C6  UNL     1     -35.307  15.936  -5.340  1.00 20.00     0.055 C 
BRANCH   4   5
HETATM    5  C9  UNL     1     -34.889  16.014  -6.839  1.00 20.00    -0.048 C 
HETATM    6  C3  UNL     1     -34.386  17.446  -7.114  1.00 20.00     0.014 C 
HETATM    7  C4  UNL     1     -33.744  15.034  -7.144  1.00 20.00     0.014 C 
HETATM    8  C5  UNL     1     -36.064  15.727  -7.787  1.00 20.00     0.014 C 
ENDBRANCH   4   5
ENDBRANCH   2   4
BRANCH   2   9
HETATM    9  O11 UNL     1     -34.733  14.518  -3.464  1.00 20.00    -0.372 OA
BRANCH   9  10
HETATM   10  C7  UNL     1     -34.289  15.815  -3.097  1.00 20.00     0.165 C 
HETATM   11  C2  UNL     1     -34.955  16.215  -1.798  1.00 20.00     0.033 C 
ENDBRANCH   9  10
ENDBRANCH   2   9
TORSDOF 4
ENDMDL
MODEL 6
REMARK VINA RESULT:      -3.7      1.919      3.130
REMARK  4 active torsions:
REMARK  status: ('A' for Active; 'I' for Inactive)
REMARK    1  A    between atoms: C6_6  and  C8_8 
REMARK    2  A    between atoms: C6_6  and  C9_9 
REMARK    3  A    between atoms: C7_7  and  O11_11 
REMARK    4  A    between atoms: C8_8  and  O11_11 
ROOT
HETATM    1  C1  UNL     1     -36.222  13.863  -4.369  1.00 20.00     0.091 C 
HETATM    2  C8  UNL     1     -36.606  15.233  -3.988  1.00 20.00     0.228 C 
HETATM    3  N10 UNL     1     -35.920  12.783  -4.668  1.00 20.00    -0.195 NA
ENDROOT
BRANCH   2   4
HETATM    4  C6  UNL     1     -35.492  16.223  -4.365  1.00 20.00     0.055 C 
BRANCH   4   5
HETATM    5  C9  UNL     1     -34.438  16.554  -3.267  1.00 20.00    -0.048 C 
HETATM    6  C3  UNL     1     -34.141  18.066  -3.338  1.00 20.00     0.014 C 
HETATM    7  C4  UNL     1     -34.986  16.236  -1.865  1.00 20.00     0.014 C 
HETATM    8  C5  UNL     1     -33.119  15.795  -3.476  1.00 20.00     0.014 C 
ENDBRANCH   4   5
ENDBRANCH   2   4
BRANCH   2   9
HETATM    9  O11 UNL     1     -37.805  15.582  -4.672  1.00 20.00    -0.372 OA
BRANCH   9  10
HETATM   10  C7  UNL     1     -38.909  14.817  -4.208  1.00 20.00     0.165 C 
HETATM   11  C2  UNL     1     -39.998  15.757  -3.738  1.00 20.00     0.033 C 
ENDBRANCH   9  10
ENDBRANCH   2   9
TORSDOF 4
ENDMDL
MODEL 7
REMARK VINA RESULT:      -3.7      1.783      2.660
REMARK  4 active torsions:
REMARK  status: ('A' for Active; 'I' for Inactive)
REMARK    1  A    between atoms: C6_6  and  C8_8 
REMARK    2  A    between atoms: C6_6  and  C9_9 
REMARK    3  A    between atoms: C7_7  and  O11_11 
REMARK    4  A    between atoms: C8_8  and  O11_11 
ROOT
HETATM    1  C1  UNL     1     -35.892  13.863  -4.315  1.00 20.00     0.091 C 
HETATM    2  C8  UNL     1     -35.939  15.306  -4.023  1.00 20.00     0.228 C 
HETATM    3  N10 UNL     1     -35.855  12.725  -4.543  1.00 20.00    -0.195 NA
ENDROOT
BRANCH   2   4
HETATM    4  C6  UNL     1     -34.522  15.844  -3.764  1.00 20.00     0.055 C 
BRANCH   4   5
HETATM    5  C9  UNL     1     -34.374  16.951  -2.679  1.00 20.00    -0.048 C 
HETATM    6  C3  UNL     1     -35.174  16.505  -1.437  1.00 20.00     0.014 C 
HETATM    7  C4  UNL     1     -32.903  17.126  -2.267  1.00 20.00     0.014 C 
HETATM    8  C5  UNL     1     -34.930  18.305  -3.148  1.00 20.00     0.014 C 
ENDBRANCH   4   5
ENDBRANCH   2   4
BRANCH   2   9
HETATM    9  O11 UNL     1     -36.510  15.982  -5.139  1.00 20.00    -0.372 OA
BRANCH   9  10
HETATM   10  C7  UNL     1     -37.925  16.047  -5.039  1.00 20.00     0.165 C 
HETATM   11  C2  UNL     1     -38.296  16.755  -3.754  1.00 20.00     0.033 C 
ENDBRANCH   9  10
ENDBRANCH   2   9
TORSDOF 4
ENDMDL
MODEL 8
REMARK VINA RESULT:      -3.6      2.010      3.222
REMARK  4 active torsions:
REMARK  status: ('A' for Active; 'I' for Inactive)
REMARK    1  A    between atoms: C6_6  and  C8_8 
REMARK    2  A    between atoms: C6_6  and  C9_9 
REMARK    3  A    between atoms: C7_7  and  O11_11 
REMARK    4  A    between atoms: C8_8  and  O11_11 
ROOT
HETATM    1  C1  UNL     1     -36.204  14.396  -6.021  1.00 20.00     0.091 C 
HETATM    2  C8  UNL     1     -36.486  14.200  -4.589  1.00 20.00     0.228 C 
HETATM    3  N10 UNL     1     -35.981  14.549  -7.150  1.00 20.00    -0.195 NA
ENDROOT
BRANCH   2   4
HETATM    4  C6  UNL     1     -36.181  15.488  -3.806  1.00 20.00     0.055 C 
BRANCH   4   5
HETATM    5  C9  UNL     1     -34.682  15.814  -3.538  1.00 20.00    -0.048 C 
HETATM    6  C3  UNL     1     -34.289  17.002  -4.441  1.00 20.00     0.014 C 
HETATM    7  C4  UNL     1     -34.460  16.228  -2.074  1.00 20.00     0.014 C 
HETATM    8  C5  UNL     1     -33.759  14.632  -3.872  1.00 20.00     0.014 C 
ENDBRANCH   4   5
ENDBRANCH   2   4
BRANCH   2   9
HETATM    9  O11 UNL     1     -37.860  13.861  -4.433  1.00 20.00    -0.372 OA
BRANCH   9  10
HETATM   10  C7  UNL     1     -38.646  15.003  -4.129  1.00 20.00     0.165 C 
HETATM   11  C2  UNL     1     -40.055  14.782  -4.637  1.00 20.00     0.033 C 
ENDBRANCH   9  10
ENDBRANCH   2   9
TORSDOF 4
ENDMDL
MODEL 9
REMARK VINA RESULT:      -3.6      1.920      2.863
REMARK  4 active torsions:
REMARK  status: ('A' for Active; 'I' for Inactive)
REMARK    1  A    between atoms: C6_6  and  C8_8 
REMARK    2  A    between atoms: C6_6  and  C9_9 
REMARK    3  A    between atoms: C7_7  and  O11_11 
REMARK    4  A    between atoms: C8_8  and  O11_11 
ROOT
HETATM    1  C1  UNL     1     -36.197  13.870  -4.344  1.00 20.00     0.091 C 
HETATM    2  C8  UNL     1     -36.591  15.240  -3.977  1.00 20.00     0.228 C 
HETATM    3  N10 UNL     1     -35.887  12.789  -4.632  1.00 20.00    -0.195 NA
ENDROOT
BRANCH   2   4
HETATM    4  C6  UNL     1     -35.475  16.232  -4.345  1.00 20.00     0.055 C 
BRANCH   4   5
HETATM    5  C9  UNL     1     -34.484  16.633  -3.213  1.00 20.00    -0.048 C 
HETATM    6  C3  UNL     1     -33.170  15.858  -3.440  1.00 20.00     0.014 C 
HETATM    7  C4  UNL     1     -34.170  18.138  -3.264  1.00 20.00     0.014 C 
HETATM    8  C5  UNL     1     -35.018  16.277  -1.817  1.00 20.00     0.014 C 
ENDBRANCH   4   5
ENDBRANCH   2   4
BRANCH   2   9
HETATM    9  O11 UNL     1     -37.783  15.581  -4.678  1.00 20.00    -0.372 OA
BRANCH   9  10
HETATM   10  C7  UNL     1     -38.891  14.823  -4.217  1.00 20.00     0.165 C 
HETATM   11  C2  UNL     1     -40.170  15.540  -4.595  1.00 20.00     0.033 C 
ENDBRANCH   9  10
ENDBRANCH   2   9
TORSDOF 4
ENDMDL
