MODEL 1
REMARK VINA RESULT:      -5.1      0.000      0.000
REMARK  4 active torsions:
REMARK  status: ('A' for Active; 'I' for Inactive)
REMARK    1  A    between atoms: C2_2  and  C9_9 
REMARK    2  A    between atoms: C2_2  and  C10_10 
REMARK    3  A    between atoms: C3_3  and  C5_5 
REMARK    4  A    between atoms: C3_3  and  C9_9 
ROOT
HETATM    1  C3  UNL     1     -33.935   5.493   3.254  1.00 20.00     0.135 C 
HETATM    2  O11 UNL     1     -33.226   4.607   2.792  1.00 20.00    -0.297 OA
ENDROOT
BRANCH   1   3
HETATM    3  C5  UNL     1     -34.918   5.170   4.330  1.00 20.00     0.060 A 
HETATM    4  C4  UNL     1     -34.447   4.397   5.521  1.00 20.00     0.017 A 
HETATM    5  C6  UNL     1     -34.823   5.846   5.663  1.00 20.00    -0.007 A 
HETATM    6  C7  UNL     1     -33.778   6.859   5.985  1.00 20.00     0.011 C 
ENDBRANCH   1   3
BRANCH   1   7
HETATM    7  C9  UNL     1     -33.934   6.937   2.789  1.00 20.00     0.111 C 
BRANCH   7   8
HETATM    8  C2  UNL     1     -32.547   7.391   2.414  1.00 20.00    -0.083 C 
HETATM    9  C1  UNL     1     -31.574   7.480   3.334  1.00 20.00     0.014 C 
BRANCH   8  10
HETATM   10  C10 UNL     1     -32.291   7.751   0.969  1.00 20.00     0.029 C 
HETATM   11  C8  UNL     1     -32.943   9.066   0.567  1.00 20.00     0.010 C 
ENDBRANCH   8  10
ENDBRANCH   7   8
ENDBRANCH   1   7
TORSDOF 4
ENDMDL
MODEL 2
REMARK VINA RESULT:      -4.8     15.093     16.427
REMARK  4 active torsions:
REMARK  status: ('A' for Active; 'I' for Inactive)
REMARK    1  A    between atoms: C2_2  and  C9_9 
REMARK    2  A    between atoms: C2_2  and  C10_10 
REMARK    3  A    between atoms: C3_3  and  C5_5 
REMARK    4  A    between atoms: C3_3  and  C9_9 
ROOT
HETATM    1  C3  UNL     1     -22.668  17.578   9.662  1.00 20.00     0.135 C 
HETATM    2  O11 UNL     1     -22.593  16.645   8.871  1.00 20.00    -0.297 OA
ENDROOT
BRANCH   1   3
HETATM    3  C5  UNL     1     -22.425  17.338  11.116  1.00 20.00     0.060 A 
HETATM    4  C4  UNL     1     -23.242  18.097  12.112  1.00 20.00     0.017 A 
HETATM    5  C6  UNL     1     -23.447  16.618  11.940  1.00 20.00    -0.007 A 
HETATM    6  C7  UNL     1     -24.727  16.104  11.375  1.00 20.00     0.011 C 
ENDBRANCH   1   3
BRANCH   1   7
HETATM    7  C9  UNL     1     -23.036  19.003   9.292  1.00 20.00     0.111 C 
BRANCH   7   8
HETATM    8  C2  UNL     1     -24.427  19.078   8.719  1.00 20.00    -0.083 C 
HETATM    9  C1  UNL     1     -25.495  19.263   9.511  1.00 20.00     0.014 C 
BRANCH   8  10
HETATM   10  C10 UNL     1     -24.580  18.934   7.222  1.00 20.00     0.029 C 
HETATM   11  C8  UNL     1     -26.034  18.993   6.774  1.00 20.00     0.010 C 
ENDBRANCH   8  10
ENDBRANCH   7   8
ENDBRANCH   1   7
TORSDOF 4
ENDMDL
MODEL 3
REMARK VINA RESULT:      -4.6     11.029     12.799
REMARK  4 active torsions:
REMARK  status: ('A' for Active; 'I' for Inactive)
REMARK    1  A    between atoms: C2_2  and  C9_9 
REMARK    2  A    between atoms: C2_2  and  C10_10 
REMARK    3  A    between atoms: C3_3  and  C5_5 
REMARK    4  A    between atoms: C3_3  and  C9_9 
ROOT
HETATM    1  C3  UNL     1     -35.732  14.334  -5.065  1.00 20.00     0.135 C 
HETATM    2  O11 UNL     1     -36.938  14.122  -5.078  1.00 20.00    -0.297 OA
ENDROOT
BRANCH   1   3
HETATM    3  C5  UNL     1     -35.060  14.871  -6.285  1.00 20.00     0.060 A 
HETATM    4  C4  UNL     1     -35.909  15.311  -7.435  1.00 20.00     0.017 A 
HETATM    5  C6  UNL     1     -35.160  16.327  -6.619  1.00 20.00    -0.007 A 
HETATM    6  C7  UNL     1     -35.906  17.303  -5.775  1.00 20.00     0.011 C 
ENDBRANCH   1   3
BRANCH   1   7
HETATM    7  C9  UNL     1     -34.815  14.056  -3.889  1.00 20.00     0.111 C 
BRANCH   7   8
HETATM    8  C2  UNL     1     -34.458  15.325  -3.159  1.00 20.00    -0.083 C 
HETATM    9  C1  UNL     1     -35.326  15.908  -2.318  1.00 20.00     0.014 C 
BRANCH   8  10
HETATM   10  C10 UNL     1     -33.093  15.922  -3.411  1.00 20.00     0.029 C 
HETATM   11  C8  UNL     1     -32.933  17.302  -2.789  1.00 20.00     0.010 C 
ENDBRANCH   8  10
ENDBRANCH   7   8
ENDBRANCH   1   7
TORSDOF 4
ENDMDL
MODEL 4
REMARK VINA RESULT:      -4.5     10.968     12.349
REMARK  4 active torsions:
REMARK  status: ('A' for Active; 'I' for Inactive)
REMARK    1  A    between atoms: C2_2  and  C9_9 
REMARK    2  A    between atoms: C2_2  and  C10_10 
REMARK    3  A    between atoms: C3_3  and  C5_5 
REMARK    4  A    between atoms: C3_3  and  C9_9 
ROOT
HETATM    1  C3  UNL     1     -35.949  14.113  -4.315  1.00 20.00     0.135 C 
HETATM    2  O11 UNL     1     -35.876  12.933  -4.636  1.00 20.00    -0.297 OA
ENDROOT
BRANCH   1   3
HETATM    3  C5  UNL     1     -36.840  15.034  -5.080  1.00 20.00     0.060 A 
HETATM    4  C4  UNL     1     -36.417  16.458  -5.255  1.00 20.00     0.017 A 
HETATM    5  C6  UNL     1     -36.430  15.526  -6.433  1.00 20.00    -0.007 A 
HETATM    6  C7  UNL     1     -35.150  15.130  -7.086  1.00 20.00     0.011 C 
ENDBRANCH   1   3
BRANCH   1   7
HETATM    7  C9  UNL     1     -35.157  14.758  -3.193  1.00 20.00     0.111 C 
BRANCH   7   8
HETATM    8  C2  UNL     1     -33.777  15.153  -3.652  1.00 20.00    -0.083 C 
HETATM    9  C1  UNL     1     -33.044  14.336  -4.425  1.00 20.00     0.014 C 
BRANCH   8  10
HETATM   10  C10 UNL     1     -33.245  16.495  -3.208  1.00 20.00     0.029 C 
HETATM   11  C8  UNL     1     -33.929  17.010  -1.949  1.00 20.00     0.010 C 
ENDBRANCH   8  10
ENDBRANCH   7   8
ENDBRANCH   1   7
TORSDOF 4
ENDMDL
MODEL 5
REMARK VINA RESULT:      -4.5     11.243     12.620
REMARK  4 active torsions:
REMARK  status: ('A' for Active; 'I' for Inactive)
REMARK    1  A    between atoms: C2_2  and  C9_9 
REMARK    2  A    between atoms: C2_2  and  C10_10 
REMARK    3  A    between atoms: C3_3  and  C5_5 
REMARK    4  A    between atoms: C3_3  and  C9_9 
ROOT
HETATM    1  C3  UNL     1     -35.827  14.593  -5.285  1.00 20.00     0.135 C 
HETATM    2  O11 UNL     1     -36.044  13.761  -6.157  1.00 20.00    -0.297 OA
ENDROOT
BRANCH   1   3
HETATM    3  C5  UNL     1     -36.103  16.036  -5.552  1.00 20.00     0.060 A 
HETATM    4  C4  UNL     1     -37.155  16.389  -6.554  1.00 20.00     0.017 A 
HETATM    5  C6  UNL     1     -37.388  16.652  -5.093  1.00 20.00    -0.007 A 
HETATM    6  C7  UNL     1     -38.435  15.889  -4.356  1.00 20.00     0.011 C 
ENDBRANCH   1   3
BRANCH   1   7
HETATM    7  C9  UNL     1     -35.245  14.286  -3.918  1.00 20.00     0.111 C 
BRANCH   7   8
HETATM    8  C2  UNL     1     -33.922  14.977  -3.717  1.00 20.00    -0.083 C 
HETATM    9  C1  UNL     1     -32.835  14.608  -4.414  1.00 20.00     0.014 C 
BRANCH   8  10
HETATM   10  C10 UNL     1     -33.856  16.093  -2.701  1.00 20.00     0.029 C 
HETATM   11  C8  UNL     1     -35.130  16.210  -1.876  1.00 20.00     0.010 C 
ENDBRANCH   8  10
ENDBRANCH   7   8
ENDBRANCH   1   7
TORSDOF 4
ENDMDL
MODEL 6
REMARK VINA RESULT:      -4.4      1.275      4.629
REMARK  4 active torsions:
REMARK  status: ('A' for Active; 'I' for Inactive)
REMARK    1  A    between atoms: C2_2  and  C9_9 
REMARK    2  A    between atoms: C2_2  and  C10_10 
REMARK    3  A    between atoms: C3_3  and  C5_5 
REMARK    4  A    between atoms: C3_3  and  C9_9 
ROOT
HETATM    1  C3  UNL     1     -32.468   7.289   2.666  1.00 20.00     0.135 C 
HETATM    2  O11 UNL     1     -31.586   7.506   3.487  1.00 20.00    -0.297 OA
ENDROOT
BRANCH   1   3
HETATM    3  C5  UNL     1     -32.215   7.551   1.218  1.00 20.00     0.060 A 
HETATM    4  C4  UNL     1     -33.387   7.677   0.298  1.00 20.00     0.017 A 
HETATM    5  C6  UNL     1     -32.554   8.884   0.626  1.00 20.00    -0.007 A 
HETATM    6  C7  UNL     1     -33.140  10.000   1.422  1.00 20.00     0.011 C 
ENDBRANCH   1   3
BRANCH   1   7
HETATM    7  C9  UNL     1     -33.863   6.793   3.000  1.00 20.00     0.111 C 
BRANCH   7   8
HETATM    8  C2  UNL     1     -33.874   5.306   3.239  1.00 20.00    -0.083 C 
HETATM    9  C1  UNL     1     -33.130   4.477   2.489  1.00 20.00     0.014 C 
BRANCH   8  10
HETATM   10  C10 UNL     1     -34.754   4.777   4.348  1.00 20.00     0.029 C 
HETATM   11  C8  UNL     1     -34.669   5.616   5.615  1.00 20.00     0.010 C 
ENDBRANCH   8  10
ENDBRANCH   7   8
ENDBRANCH   1   7
TORSDOF 4
ENDMDL
MODEL 7
REMARK VINA RESULT:      -4.4     11.323     12.209
REMARK  4 active torsions:
REMARK  status: ('A' for Active; 'I' for Inactive)
REMARK    1  A    between atoms: C2_2  and  C9_9 
REMARK    2  A    between atoms: C2_2  and  C10_10 
REMARK    3  A    between atoms: C3_3  and  C5_5 
REMARK    4  A    between atoms: C3_3  and  C9_9 
ROOT
HETATM    1  C3  UNL     1     -33.751  15.785  -3.216  1.00 20.00     0.135 C 
HETATM    2  O11 UNL     1     -32.862  16.618  -3.343  1.00 20.00    -0.297 OA
ENDROOT
BRANCH   1   3
HETATM    3  C5  UNL     1     -34.784  15.959  -2.153  1.00 20.00     0.060 A 
HETATM    4  C4  UNL     1     -34.703  17.161  -1.266  1.00 20.00     0.017 A 
HETATM    5  C6  UNL     1     -35.812  17.041  -2.273  1.00 20.00    -0.007 A 
HETATM    6  C7  UNL     1     -35.872  17.977  -3.432  1.00 20.00     0.011 C 
ENDBRANCH   1   3
BRANCH   1   7
HETATM    7  C9  UNL     1     -33.884  14.524  -4.049  1.00 20.00     0.111 C 
BRANCH   7   8
HETATM    8  C2  UNL     1     -35.094  14.582  -4.945  1.00 20.00    -0.083 C 
HETATM    9  C1  UNL     1     -35.125  15.391  -6.016  1.00 20.00     0.014 C 
BRANCH   8  10
HETATM   10  C10 UNL     1     -36.273  13.705  -4.594  1.00 20.00     0.029 C 
HETATM   11  C8  UNL     1     -37.542  14.505  -4.335  1.00 20.00     0.010 C 
ENDBRANCH   8  10
ENDBRANCH   7   8
ENDBRANCH   1   7
TORSDOF 4
ENDMDL
MODEL 8
REMARK VINA RESULT:      -4.4     11.462     12.334
REMARK  4 active torsions:
REMARK  status: ('A' for Active; 'I' for Inactive)
REMARK    1  A    between atoms: C2_2  and  C9_9 
REMARK    2  A    between atoms: C2_2  and  C10_10 
REMARK    3  A    between atoms: C3_3  and  C5_5 
REMARK    4  A    between atoms: C3_3  and  C9_9 
ROOT
HETATM    1  C3  UNL     1     -34.383  15.765  -4.905  1.00 20.00     0.135 C 
HETATM    2  O11 UNL     1     -34.385  16.859  -5.457  1.00 20.00    -0.297 OA
ENDROOT
BRANCH   1   3
HETATM    3  C5  UNL     1     -35.287  14.685  -5.399  1.00 20.00     0.060 A 
HETATM    4  C4  UNL     1     -35.888  13.744  -4.404  1.00 20.00     0.017 A 
HETATM    5  C6  UNL     1     -36.756  14.745  -5.114  1.00 20.00    -0.007 A 
HETATM    6  C7  UNL     1     -37.388  15.858  -4.349  1.00 20.00     0.011 C 
ENDBRANCH   1   3
BRANCH   1   7
HETATM    7  C9  UNL     1     -33.541  15.404  -3.695  1.00 20.00     0.111 C 
BRANCH   7   8
HETATM    8  C2  UNL     1     -33.782  16.359  -2.555  1.00 20.00    -0.083 C 
HETATM    9  C1  UNL     1     -32.902  17.332  -2.267  1.00 20.00     0.014 C 
BRANCH   8  10
HETATM   10  C10 UNL     1     -35.044  16.182  -1.743  1.00 20.00     0.029 C 
HETATM   11  C8  UNL     1     -35.143  17.172  -0.590  1.00 20.00     0.010 C 
ENDBRANCH   8  10
ENDBRANCH   7   8
ENDBRANCH   1   7
TORSDOF 4
ENDMDL
MODEL 9
REMARK VINA RESULT:      -4.3     10.958     12.689
REMARK  4 active torsions:
REMARK  status: ('A' for Active; 'I' for Inactive)
REMARK    1  A    between atoms: C2_2  and  C9_9 
REMARK    2  A    between atoms: C2_2  and  C10_10 
REMARK    3  A    between atoms: C3_3  and  C5_5 
REMARK    4  A    between atoms: C3_3  and  C9_9 
ROOT
HETATM    1  C3  UNL     1     -36.144  13.999  -4.874  1.00 20.00     0.135 C 
HETATM    2  O11 UNL     1     -37.267  13.699  -4.489  1.00 20.00    -0.297 OA
ENDROOT
BRANCH   1   3
HETATM    3  C5  UNL     1     -35.001  13.976  -3.913  1.00 20.00     0.060 A 
HETATM    4  C4  UNL     1     -33.821  14.854  -4.184  1.00 20.00     0.017 A 
HETATM    5  C6  UNL     1     -34.737  15.156  -3.031  1.00 20.00    -0.007 A 
HETATM    6  C7  UNL     1     -35.579  16.387  -3.050  1.00 20.00     0.011 C 
ENDBRANCH   1   3
BRANCH   1   7
HETATM    7  C9  UNL     1     -35.798  14.445  -6.282  1.00 20.00     0.111 C 
BRANCH   7   8
HETATM    8  C2  UNL     1     -36.179  15.885  -6.509  1.00 20.00    -0.083 C 
HETATM    9  C1  UNL     1     -37.436  16.310  -6.307  1.00 20.00     0.014 C 
BRANCH   8  10
HETATM   10  C10 UNL     1     -35.100  16.833  -6.979  1.00 20.00     0.029 C 
HETATM   11  C8  UNL     1     -34.062  16.150  -7.858  1.00 20.00     0.010 C 
ENDBRANCH   8  10
ENDBRANCH   7   8
ENDBRANCH   1   7
TORSDOF 4
ENDMDL
