MODEL 1
REMARK VINA RESULT:      -4.3      0.000      0.000
REMARK  4 active torsions:
REMARK  status: ('A' for Active; 'I' for Inactive)
REMARK    1  A    between atoms: C3_3  and  C6_6 
REMARK    2  A    between atoms: C3_3  and  C7_7 
REMARK    3  A    between atoms: C6_6  and  C8_8 
REMARK    4  A    between atoms: C8_8  and  C9_9 
ROOT
HETATM    1  C1  UNL     1     -35.331   5.382   4.013  1.00 20.00     0.011 A 
HETATM    2  C2  UNL     1     -34.253   4.387   4.338  1.00 20.00     0.011 A 
HETATM    3  C3  UNL     1     -33.879   5.783   3.894  1.00 20.00    -0.028 A 
ENDROOT
BRANCH   3   4
HETATM    4  C6  UNL     1     -33.300   5.955   2.498  1.00 20.00     0.011 C 
BRANCH   4   5
HETATM    5  C8  UNL     1     -32.580   7.299   2.355  1.00 20.00     0.005 C 
BRANCH   5   6
HETATM    6  C9  UNL     1     -32.878   8.017   1.027  1.00 20.00    -0.023 C 
HETATM    7  C4  UNL     1     -31.726   7.786   0.043  1.00 20.00     0.009 C 
HETATM    8  C5  UNL     1     -33.104   9.517   1.211  1.00 20.00     0.009 C 
ENDBRANCH   5   6
ENDBRANCH   4   5
ENDBRANCH   3   4
BRANCH   3   9
HETATM    9  C7  UNL     1     -33.319   6.723   4.924  1.00 20.00     0.124 C 
HETATM   10 CL10 UNL     1     -34.343   6.751   6.380  1.00 20.00    -0.130 Cl
ENDBRANCH   3   9
TORSDOF 4
ENDMDL
MODEL 2
REMARK VINA RESULT:      -4.2     10.930     12.150
REMARK  4 active torsions:
REMARK  status: ('A' for Active; 'I' for Inactive)
REMARK    1  A    between atoms: C3_3  and  C6_6 
REMARK    2  A    between atoms: C3_3  and  C7_7 
REMARK    3  A    between atoms: C6_6  and  C8_8 
REMARK    4  A    between atoms: C8_8  and  C9_9 
ROOT
HETATM    1  C1  UNL     1     -36.265  16.020  -6.348  1.00 20.00     0.011 A 
HETATM    2  C2  UNL     1     -35.773  14.934  -7.261  1.00 20.00     0.011 A 
HETATM    3  C3  UNL     1     -35.472  14.866  -5.782  1.00 20.00    -0.028 A 
ENDROOT
BRANCH   3   4
HETATM    4  C6  UNL     1     -34.044  15.134  -5.332  1.00 20.00     0.011 C 
BRANCH   4   5
HETATM    5  C8  UNL     1     -33.831  14.714  -3.875  1.00 20.00     0.005 C 
BRANCH   5   6
HETATM    6  C9  UNL     1     -33.736  15.903  -2.901  1.00 20.00    -0.023 C 
HETATM    7  C4  UNL     1     -35.053  16.053  -2.134  1.00 20.00     0.009 C 
HETATM    8  C5  UNL     1     -33.402  17.215  -3.612  1.00 20.00     0.009 C 
ENDBRANCH   5   6
ENDBRANCH   4   5
ENDBRANCH   3   4
BRANCH   3   9
HETATM    9  C7  UNL     1     -36.205  13.841  -4.961  1.00 20.00     0.124 C 
HETATM   10 CL10 UNL     1     -37.681  14.537  -4.249  1.00 20.00    -0.130 Cl
ENDBRANCH   3   9
TORSDOF 4
ENDMDL
MODEL 3
REMARK VINA RESULT:      -4.2     10.971     12.089
REMARK  4 active torsions:
REMARK  status: ('A' for Active; 'I' for Inactive)
REMARK    1  A    between atoms: C3_3  and  C6_6 
REMARK    2  A    between atoms: C3_3  and  C7_7 
REMARK    3  A    between atoms: C6_6  and  C8_8 
REMARK    4  A    between atoms: C8_8  and  C9_9 
ROOT
HETATM    1  C1  UNL     1     -34.808  16.214  -1.941  1.00 20.00     0.011 A 
HETATM    2  C2  UNL     1     -33.475  16.835  -2.247  1.00 20.00     0.011 A 
HETATM    3  C3  UNL     1     -34.394  16.434  -3.377  1.00 20.00    -0.028 A 
ENDROOT
BRANCH   3   4
HETATM    4  C6  UNL     1     -34.016  15.215  -4.205  1.00 20.00     0.011 C 
BRANCH   4   5
HETATM    5  C8  UNL     1     -34.913  14.018  -3.875  1.00 20.00     0.005 C 
BRANCH   5   6
HETATM    6  C9  UNL     1     -36.096  13.852  -4.846  1.00 20.00    -0.023 C 
HETATM    7  C4  UNL     1     -35.741  14.461  -6.205  1.00 20.00     0.009 C 
HETATM    8  C5  UNL     1     -37.381  14.489  -4.316  1.00 20.00     0.009 C 
ENDBRANCH   5   6
ENDBRANCH   4   5
ENDBRANCH   3   4
BRANCH   3   9
HETATM    9  C7  UNL     1     -35.079  17.527  -4.150  1.00 20.00     0.124 C 
HETATM   10 CL10 UNL     1     -34.327  17.739  -5.750  1.00 20.00    -0.130 Cl
ENDBRANCH   3   9
TORSDOF 4
ENDMDL
MODEL 4
REMARK VINA RESULT:      -4.2     11.058     12.443
REMARK  4 active torsions:
REMARK  status: ('A' for Active; 'I' for Inactive)
REMARK    1  A    between atoms: C3_3  and  C6_6 
REMARK    2  A    between atoms: C3_3  and  C7_7 
REMARK    3  A    between atoms: C6_6  and  C8_8 
REMARK    4  A    between atoms: C8_8  and  C9_9 
ROOT
HETATM    1  C1  UNL     1     -34.401  16.416  -6.632  1.00 20.00     0.011 A 
HETATM    2  C2  UNL     1     -33.903  15.191  -7.344  1.00 20.00     0.011 A 
HETATM    3  C3  UNL     1     -34.521  15.062  -5.971  1.00 20.00    -0.028 A 
ENDROOT
BRANCH   3   4
HETATM    4  C6  UNL     1     -33.599  14.756  -4.801  1.00 20.00     0.011 C 
BRANCH   4   5
HETATM    5  C8  UNL     1     -34.341  14.859  -3.466  1.00 20.00     0.005 C 
BRANCH   5   6
HETATM    6  C9  UNL     1     -34.404  16.293  -2.907  1.00 20.00    -0.023 C 
HETATM    7  C4  UNL     1     -32.987  16.856  -2.765  1.00 20.00     0.009 C 
HETATM    8  C5  UNL     1     -35.124  16.365  -1.561  1.00 20.00     0.009 C 
ENDBRANCH   5   6
ENDBRANCH   4   5
ENDBRANCH   3   4
BRANCH   3   9
HETATM    9  C7  UNL     1     -35.888  14.445  -5.869  1.00 20.00     0.124 C 
HETATM   10 CL10 UNL     1     -37.126  15.692  -5.582  1.00 20.00    -0.130 Cl
ENDBRANCH   3   9
TORSDOF 4
ENDMDL
MODEL 5
REMARK VINA RESULT:      -4.2     11.032     11.901
REMARK  4 active torsions:
REMARK  status: ('A' for Active; 'I' for Inactive)
REMARK    1  A    between atoms: C3_3  and  C6_6 
REMARK    2  A    between atoms: C3_3  and  C7_7 
REMARK    3  A    between atoms: C6_6  and  C8_8 
REMARK    4  A    between atoms: C8_8  and  C9_9 
ROOT
HETATM    1  C1  UNL     1     -36.249  13.705  -4.867  1.00 20.00     0.011 A 
HETATM    2  C2  UNL     1     -36.900  14.875  -4.186  1.00 20.00     0.011 A 
HETATM    3  C3  UNL     1     -35.427  14.925  -4.521  1.00 20.00    -0.028 A 
ENDROOT
BRANCH   3   4
HETATM    4  C6  UNL     1     -34.432  14.812  -3.375  1.00 20.00     0.011 C 
BRANCH   4   5
HETATM    5  C8  UNL     1     -33.512  16.034  -3.315  1.00 20.00     0.005 C 
BRANCH   5   6
HETATM    6  C9  UNL     1     -34.015  17.135  -2.365  1.00 20.00    -0.023 C 
HETATM    7  C4  UNL     1     -32.832  17.753  -1.614  1.00 20.00     0.009 C 
HETATM    8  C5  UNL     1     -35.047  16.616  -1.363  1.00 20.00     0.009 C 
ENDBRANCH   5   6
ENDBRANCH   4   5
ENDBRANCH   3   4
BRANCH   3   9
HETATM    9  C7  UNL     1     -34.990  15.824  -5.644  1.00 20.00     0.124 C 
HETATM   10 CL10 UNL     1     -33.889  14.966  -6.750  1.00 20.00    -0.130 Cl
ENDBRANCH   3   9
TORSDOF 4
ENDMDL
MODEL 6
REMARK VINA RESULT:      -4.2     10.896     11.816
REMARK  4 active torsions:
REMARK  status: ('A' for Active; 'I' for Inactive)
REMARK    1  A    between atoms: C3_3  and  C6_6 
REMARK    2  A    between atoms: C3_3  and  C7_7 
REMARK    3  A    between atoms: C6_6  and  C8_8 
REMARK    4  A    between atoms: C8_8  and  C9_9 
ROOT
HETATM    1  C1  UNL     1     -35.450  16.078  -5.471  1.00 20.00     0.011 A 
HETATM    2  C2  UNL     1     -34.466  15.069  -5.991  1.00 20.00     0.011 A 
HETATM    3  C3  UNL     1     -35.133  14.848  -4.653  1.00 20.00    -0.028 A 
ENDROOT
BRANCH   3   4
HETATM    4  C6  UNL     1     -34.290  15.024  -3.399  1.00 20.00     0.011 C 
BRANCH   4   5
HETATM    5  C8  UNL     1     -35.042  15.822  -2.330  1.00 20.00     0.005 C 
BRANCH   5   6
HETATM    6  C9  UNL     1     -34.405  17.189  -2.023  1.00 20.00    -0.023 C 
HETATM    7  C4  UNL     1     -32.929  17.176  -2.429  1.00 20.00     0.009 C 
HETATM    8  C5  UNL     1     -34.531  17.575  -0.549  1.00 20.00     0.009 C 
ENDBRANCH   5   6
ENDBRANCH   4   5
ENDBRANCH   3   4
BRANCH   3   9
HETATM    9  C7  UNL     1     -36.180  13.774  -4.557  1.00 20.00     0.124 C 
HETATM   10 CL10 UNL     1     -37.796  14.483  -4.322  1.00 20.00    -0.130 Cl
ENDBRANCH   3   9
TORSDOF 4
ENDMDL
MODEL 7
REMARK VINA RESULT:      -4.2     15.527     16.771
REMARK  4 active torsions:
REMARK  status: ('A' for Active; 'I' for Inactive)
REMARK    1  A    between atoms: C3_3  and  C6_6 
REMARK    2  A    between atoms: C3_3  and  C7_7 
REMARK    3  A    between atoms: C6_6  and  C8_8 
REMARK    4  A    between atoms: C8_8  and  C9_9 
ROOT
HETATM    1  C1  UNL     1     -22.216  18.760   9.092  1.00 20.00     0.011 A 
HETATM    2  C2  UNL     1     -22.305  17.626   8.112  1.00 20.00     0.011 A 
HETATM    3  C3  UNL     1     -23.564  18.328   8.565  1.00 20.00    -0.028 A 
ENDROOT
BRANCH   3   4
HETATM    4  C6  UNL     1     -24.494  17.584   9.511  1.00 20.00     0.011 C 
BRANCH   4   5
HETATM    5  C8  UNL     1     -24.589  18.288  10.867  1.00 20.00     0.005 C 
BRANCH   5   6
HETATM    6  C9  UNL     1     -24.209  17.384  12.055  1.00 20.00    -0.023 C 
HETATM    7  C4  UNL     1     -22.707  17.495  12.331  1.00 20.00     0.009 C 
HETATM    8  C5  UNL     1     -24.583  15.921  11.819  1.00 20.00     0.009 C 
ENDBRANCH   5   6
ENDBRANCH   4   5
ENDBRANCH   3   4
BRANCH   3   9
HETATM    9  C7  UNL     1     -24.261  19.229   7.583  1.00 20.00     0.124 C 
HETATM   10 CL10 UNL     1     -25.983  18.802   7.443  1.00 20.00    -0.130 Cl
ENDBRANCH   3   9
TORSDOF 4
ENDMDL
MODEL 8
REMARK VINA RESULT:      -4.2     11.082     12.027
REMARK  4 active torsions:
REMARK  status: ('A' for Active; 'I' for Inactive)
REMARK    1  A    between atoms: C3_3  and  C6_6 
REMARK    2  A    between atoms: C3_3  and  C7_7 
REMARK    3  A    between atoms: C6_6  and  C8_8 
REMARK    4  A    between atoms: C8_8  and  C9_9 
ROOT
HETATM    1  C1  UNL     1     -35.521  17.012  -2.875  1.00 20.00     0.011 A 
HETATM    2  C2  UNL     1     -35.171  16.299  -1.600  1.00 20.00     0.011 A 
HETATM    3  C3  UNL     1     -34.309  16.112  -2.826  1.00 20.00    -0.028 A 
ENDROOT
BRANCH   3   4
HETATM    4  C6  UNL     1     -34.382  14.777  -3.552  1.00 20.00     0.011 C 
BRANCH   4   5
HETATM    5  C8  UNL     1     -33.579  14.807  -4.856  1.00 20.00     0.005 C 
BRANCH   5   6
HETATM    6  C9  UNL     1     -34.455  14.958  -6.113  1.00 20.00    -0.023 C 
HETATM    7  C4  UNL     1     -34.477  16.424  -6.556  1.00 20.00     0.009 C 
HETATM    8  C5  UNL     1     -35.885  14.466  -5.891  1.00 20.00     0.009 C 
ENDBRANCH   5   6
ENDBRANCH   4   5
ENDBRANCH   3   4
BRANCH   3   9
HETATM    9  C7  UNL     1     -32.950  16.756  -2.838  1.00 20.00     0.124 C 
HETATM   10 CL10 UNL     1     -32.974  18.268  -3.777  1.00 20.00    -0.130 Cl
ENDBRANCH   3   9
TORSDOF 4
ENDMDL
MODEL 9
REMARK VINA RESULT:      -4.1     10.788     11.976
REMARK  4 active torsions:
REMARK  status: ('A' for Active; 'I' for Inactive)
REMARK    1  A    between atoms: C3_3  and  C6_6 
REMARK    2  A    between atoms: C3_3  and  C7_7 
REMARK    3  A    between atoms: C6_6  and  C8_8 
REMARK    4  A    between atoms: C8_8  and  C9_9 
ROOT
HETATM    1  C1  UNL     1     -33.400  14.618  -4.406  1.00 20.00     0.011 A 
HETATM    2  C2  UNL     1     -34.703  14.061  -3.906  1.00 20.00     0.011 A 
HETATM    3  C3  UNL     1     -34.432  15.545  -3.806  1.00 20.00    -0.028 A 
ENDROOT
BRANCH   3   4
HETATM    4  C6  UNL     1     -34.152  16.126  -2.428  1.00 20.00     0.011 C 
BRANCH   4   5
HETATM    5  C8  UNL     1     -32.924  17.041  -2.448  1.00 20.00     0.005 C 
BRANCH   5   6
HETATM    6  C9  UNL     1     -32.986  18.174  -1.409  1.00 20.00    -0.023 C 
HETATM    7  C4  UNL     1     -31.619  18.338  -0.738  1.00 20.00     0.009 C 
HETATM    8  C5  UNL     1     -34.056  17.932  -0.343  1.00 20.00     0.009 C 
ENDBRANCH   5   6
ENDBRANCH   4   5
ENDBRANCH   3   4
BRANCH   3   9
HETATM    9  C7  UNL     1     -35.181  16.462  -4.732  1.00 20.00     0.124 C 
HETATM   10 CL10 UNL     1     -36.244  17.557  -3.816  1.00 20.00    -0.130 Cl
ENDBRANCH   3   9
TORSDOF 4
ENDMDL
