MODEL 1
REMARK VINA RESULT:      -4.1      0.000      0.000
REMARK  2 active torsions:
REMARK  status: ('A' for Active; 'I' for Inactive)
REMARK    1  A    between atoms: C6_6  and  O10_10 
REMARK    2  A    between atoms: C8_8  and  O10_10 
ROOT
HETATM    1  C1  UNL     1     -36.545  14.430  -4.215  1.00 20.00     0.098 C 
HETATM    2  C2  UNL     1     -33.972  14.912  -5.878  1.00 20.00     0.004 C 
HETATM    3  C3  UNL     1     -34.811  16.170  -6.105  1.00 20.00     0.004 C 
HETATM    4  C4  UNL     1     -34.067  14.601  -4.385  1.00 20.00     0.053 C 
HETATM    5  C5  UNL     1     -35.373  16.557  -4.738  1.00 20.00     0.053 C 
HETATM    6  C6  UNL     1     -35.366  15.262  -3.928  1.00 20.00     0.148 C 
HETATM    7  N9  UNL     1     -37.474  13.773  -4.441  1.00 20.00    -0.194 NA
ENDROOT
BRANCH   6   8
HETATM    8  O10 UNL     1     -35.319  15.560  -2.541  1.00 20.00    -0.366 OA
BRANCH   8   9
HETATM    9  C8  UNL     1     -34.170  16.328  -2.208  1.00 20.00     0.165 C 
HETATM   10  C7  UNL     1     -34.542  17.335  -1.140  1.00 20.00     0.033 C 
ENDBRANCH   8   9
ENDBRANCH   6   8
TORSDOF 2
ENDMDL
MODEL 2
REMARK VINA RESULT:      -4.0      1.668      3.569
REMARK  2 active torsions:
REMARK  status: ('A' for Active; 'I' for Inactive)
REMARK    1  A    between atoms: C6_6  and  O10_10 
REMARK    2  A    between atoms: C8_8  and  O10_10 
ROOT
HETATM    1  C1  UNL     1     -35.629  13.963  -4.566  1.00 20.00     0.098 C 
HETATM    2  C2  UNL     1     -35.431  16.167  -2.394  1.00 20.00     0.004 C 
HETATM    3  C3  UNL     1     -33.977  15.804  -2.698  1.00 20.00     0.004 C 
HETATM    4  C4  UNL     1     -36.139  16.257  -3.745  1.00 20.00     0.053 C 
HETATM    5  C5  UNL     1     -33.878  15.690  -4.219  1.00 20.00     0.053 C 
HETATM    6  C6  UNL     1     -35.301  15.393  -4.685  1.00 20.00     0.148 C 
HETATM    7  N9  UNL     1     -35.888  12.836  -4.472  1.00 20.00    -0.194 NA
ENDROOT
BRANCH   6   8
HETATM    8  O10 UNL     1     -35.465  15.808  -6.032  1.00 20.00    -0.366 OA
BRANCH   8   9
HETATM    9  C8  UNL     1     -34.534  15.170  -6.895  1.00 20.00     0.165 C 
HETATM   10  C7  UNL     1     -34.042  16.172  -7.918  1.00 20.00     0.033 C 
ENDBRANCH   8   9
ENDBRANCH   6   8
TORSDOF 2
ENDMDL
MODEL 3
REMARK VINA RESULT:      -3.9      1.882      3.183
REMARK  2 active torsions:
REMARK  status: ('A' for Active; 'I' for Inactive)
REMARK    1  A    between atoms: C6_6  and  O10_10 
REMARK    2  A    between atoms: C8_8  and  O10_10 
ROOT
HETATM    1  C1  UNL     1     -35.753  13.929  -4.514  1.00 20.00     0.098 C 
HETATM    2  C2  UNL     1     -34.491  15.844  -2.427  1.00 20.00     0.004 C 
HETATM    3  C3  UNL     1     -33.425  15.714  -3.515  1.00 20.00     0.004 C 
HETATM    4  C4  UNL     1     -35.823  16.014  -3.156  1.00 20.00     0.053 C 
HETATM    5  C5  UNL     1     -34.165  15.809  -4.848  1.00 20.00     0.053 C 
HETATM    6  C6  UNL     1     -35.600  15.393  -4.533  1.00 20.00     0.148 C 
HETATM    7  N9  UNL     1     -35.874  12.775  -4.499  1.00 20.00    -0.194 NA
ENDROOT
BRANCH   6   8
HETATM    8  O10 UNL     1     -36.487  15.952  -5.489  1.00 20.00    -0.366 OA
BRANCH   8   9
HETATM    9  C8  UNL     1     -37.500  16.734  -4.870  1.00 20.00     0.165 C 
HETATM   10  C7  UNL     1     -38.855  16.232  -5.322  1.00 20.00     0.033 C 
ENDBRANCH   8   9
ENDBRANCH   6   8
TORSDOF 2
ENDMDL
MODEL 4
REMARK VINA RESULT:      -3.8      1.030      1.270
REMARK  2 active torsions:
REMARK  status: ('A' for Active; 'I' for Inactive)
REMARK    1  A    between atoms: C6_6  and  O10_10 
REMARK    2  A    between atoms: C8_8  and  O10_10 
ROOT
HETATM    1  C1  UNL     1     -36.915  14.637  -4.161  1.00 20.00     0.098 C 
HETATM    2  C2  UNL     1     -33.818  14.534  -4.279  1.00 20.00     0.004 C 
HETATM    3  C3  UNL     1     -34.221  15.277  -5.553  1.00 20.00     0.004 C 
HETATM    4  C4  UNL     1     -34.685  15.107  -3.160  1.00 20.00     0.053 C 
HETATM    5  C5  UNL     1     -35.313  16.263  -5.141  1.00 20.00     0.053 C 
HETATM    6  C6  UNL     1     -35.914  15.674  -3.866  1.00 20.00     0.148 C 
HETATM    7  N9  UNL     1     -37.703  13.818  -4.393  1.00 20.00    -0.194 NA
ENDROOT
BRANCH   6   8
HETATM    8  O10 UNL     1     -36.510  16.704  -3.093  1.00 20.00    -0.366 OA
BRANCH   8   9
HETATM    9  C8  UNL     1     -35.548  17.391  -2.303  1.00 20.00     0.165 C 
HETATM   10  C7  UNL     1     -36.155  17.714  -0.955  1.00 20.00     0.033 C 
ENDBRANCH   8   9
ENDBRANCH   6   8
TORSDOF 2
ENDMDL
MODEL 5
REMARK VINA RESULT:      -3.8      2.996      4.054
REMARK  2 active torsions:
REMARK  status: ('A' for Active; 'I' for Inactive)
REMARK    1  A    between atoms: C6_6  and  O10_10 
REMARK    2  A    between atoms: C8_8  and  O10_10 
ROOT
HETATM    1  C1  UNL     1     -33.986  18.436  -3.553  1.00 20.00     0.098 C 
HETATM    2  C2  UNL     1     -35.204  16.036  -2.013  1.00 20.00     0.004 C 
HETATM    3  C3  UNL     1     -34.381  15.391  -3.128  1.00 20.00     0.004 C 
HETATM    4  C4  UNL     1     -34.343  17.162  -1.444  1.00 20.00     0.053 C 
HETATM    5  C5  UNL     1     -33.062  16.161  -3.180  1.00 20.00     0.053 C 
HETATM    6  C6  UNL     1     -33.378  17.525  -2.571  1.00 20.00     0.148 C 
HETATM    7  N9  UNL     1     -34.467  19.154  -4.327  1.00 20.00    -0.194 NA
ENDROOT
BRANCH   6   8
HETATM    8  O10 UNL     1     -32.193  18.108  -2.051  1.00 20.00    -0.366 OA
BRANCH   8   9
HETATM    9  C8  UNL     1     -32.305  18.374  -0.659  1.00 20.00     0.165 C 
HETATM   10  C7  UNL     1     -30.928  18.320  -0.033  1.00 20.00     0.033 C 
ENDBRANCH   8   9
ENDBRANCH   6   8
TORSDOF 2
ENDMDL
MODEL 6
REMARK VINA RESULT:      -3.7     11.255     12.830
REMARK  2 active torsions:
REMARK  status: ('A' for Active; 'I' for Inactive)
REMARK    1  A    between atoms: C6_6  and  O10_10 
REMARK    2  A    between atoms: C8_8  and  O10_10 
ROOT
HETATM    1  C1  UNL     1     -42.942   5.744   0.761  1.00 20.00     0.098 C 
HETATM    2  C2  UNL     1     -43.070   8.645  -0.328  1.00 20.00     0.004 C 
HETATM    3  C3  UNL     1     -41.688   8.543   0.318  1.00 20.00     0.004 C 
HETATM    4  C4  UNL     1     -43.268   7.349  -1.113  1.00 20.00     0.053 C 
HETATM    5  C5  UNL     1     -41.119   7.190  -0.107  1.00 20.00     0.053 C 
HETATM    6  C6  UNL     1     -42.341   6.338  -0.443  1.00 20.00     0.148 C 
HETATM    7  N9  UNL     1     -43.417   5.276   1.711  1.00 20.00    -0.194 NA
ENDROOT
BRANCH   6   8
HETATM    8  O10 UNL     1     -41.977   5.309  -1.351  1.00 20.00    -0.366 OA
BRANCH   8   9
HETATM    9  C8  UNL     1     -43.118   4.633  -1.862  1.00 20.00     0.165 C 
HETATM   10  C7  UNL     1     -42.663   3.430  -2.660  1.00 20.00     0.033 C 
ENDBRANCH   8   9
ENDBRANCH   6   8
TORSDOF 2
ENDMDL
MODEL 7
REMARK VINA RESULT:      -3.7      2.090      3.706
REMARK  2 active torsions:
REMARK  status: ('A' for Active; 'I' for Inactive)
REMARK    1  A    between atoms: C6_6  and  O10_10 
REMARK    2  A    between atoms: C8_8  and  O10_10 
ROOT
HETATM    1  C1  UNL     1     -34.923  17.130  -4.471  1.00 20.00     0.098 C 
HETATM    2  C2  UNL     1     -33.174  17.391  -1.924  1.00 20.00     0.004 C 
HETATM    3  C3  UNL     1     -34.550  16.980  -1.398  1.00 20.00     0.004 C 
HETATM    4  C4  UNL     1     -32.907  16.515  -3.147  1.00 20.00     0.053 C 
HETATM    5  C5  UNL     1     -35.048  15.877  -2.331  1.00 20.00     0.053 C 
HETATM    6  C6  UNL     1     -34.290  16.095  -3.639  1.00 20.00     0.148 C 
HETATM    7  N9  UNL     1     -35.421  17.947  -5.128  1.00 20.00    -0.194 NA
ENDROOT
BRANCH   6   8
HETATM    8  O10 UNL     1     -34.219  14.878  -4.365  1.00 20.00    -0.366 OA
BRANCH   8   9
HETATM    9  C8  UNL     1     -35.171  13.931  -3.898  1.00 20.00     0.165 C 
HETATM   10  C7  UNL     1     -36.226  13.726  -4.963  1.00 20.00     0.033 C 
ENDBRANCH   8   9
ENDBRANCH   6   8
TORSDOF 2
ENDMDL
MODEL 8
REMARK VINA RESULT:      -3.7      1.410      2.902
REMARK  2 active torsions:
REMARK  status: ('A' for Active; 'I' for Inactive)
REMARK    1  A    between atoms: C6_6  and  O10_10 
REMARK    2  A    between atoms: C8_8  and  O10_10 
ROOT
HETATM    1  C1  UNL     1     -37.169  14.479  -4.303  1.00 20.00     0.098 C 
HETATM    2  C2  UNL     1     -36.290  17.445  -4.083  1.00 20.00     0.004 C 
HETATM    3  C3  UNL     1     -36.087  16.884  -2.675  1.00 20.00     0.004 C 
HETATM    4  C4  UNL     1     -35.752  16.387  -5.044  1.00 20.00     0.053 C 
HETATM    5  C5  UNL     1     -35.437  15.513  -2.855  1.00 20.00     0.053 C 
HETATM    6  C6  UNL     1     -35.824  15.075  -4.265  1.00 20.00     0.148 C 
HETATM    7  N9  UNL     1     -38.229  14.010  -4.334  1.00 20.00    -0.194 NA
ENDROOT
BRANCH   6   8
HETATM    8  O10 UNL     1     -34.875  14.142  -4.760  1.00 20.00    -0.366 OA
BRANCH   8   9
HETATM    9  C8  UNL     1     -33.718  14.791  -5.271  1.00 20.00     0.165 C 
HETATM   10  C7  UNL     1     -32.517  14.381  -4.446  1.00 20.00     0.033 C 
ENDBRANCH   8   9
ENDBRANCH   6   8
TORSDOF 2
ENDMDL
MODEL 9
REMARK VINA RESULT:      -3.7      1.898      2.751
REMARK  2 active torsions:
REMARK  status: ('A' for Active; 'I' for Inactive)
REMARK    1  A    between atoms: C6_6  and  O10_10 
REMARK    2  A    between atoms: C8_8  and  O10_10 
ROOT
HETATM    1  C1  UNL     1     -34.006  15.000  -5.933  1.00 20.00     0.098 C 
HETATM    2  C2  UNL     1     -36.874  15.303  -4.793  1.00 20.00     0.004 C 
HETATM    3  C3  UNL     1     -36.485  13.862  -4.461  1.00 20.00     0.004 C 
HETATM    4  C4  UNL     1     -35.651  16.159  -4.467  1.00 20.00     0.053 C 
HETATM    5  C5  UNL     1     -35.045  13.917  -3.954  1.00 20.00     0.053 C 
HETATM    6  C6  UNL     1     -34.467  15.199  -4.549  1.00 20.00     0.148 C 
HETATM    7  N9  UNL     1     -33.644  14.844  -7.024  1.00 20.00    -0.194 NA
ENDROOT
BRANCH   6   8
HETATM    8  O10 UNL     1     -33.388  15.659  -3.750  1.00 20.00    -0.366 OA
BRANCH   8   9
HETATM    9  C8  UNL     1     -33.845  16.235  -2.533  1.00 20.00     0.165 C 
HETATM   10  C7  UNL     1     -32.925  17.375  -2.151  1.00 20.00     0.033 C 
ENDBRANCH   8   9
ENDBRANCH   6   8
TORSDOF 2
ENDMDL
