MODEL 1
REMARK VINA RESULT:      -4.5      0.000      0.000
REMARK  4 active torsions:
REMARK  status: ('A' for Active; 'I' for Inactive)
REMARK    1  A    between atoms: C4_4  and  C5_5 
REMARK    2  A    between atoms: C5_5  and  C8_8 
REMARK    3  A    between atoms: C6_6  and  C8_8 
REMARK    4  A    between atoms: C7_7  and  C8_8 
ROOT
HETATM    1  C8  UNL     1     -34.068   6.197   3.651  1.00 20.00     0.003 C 
ENDROOT
BRANCH   1   2
HETATM    2  C5  UNL     1     -32.708   6.824   3.243  1.00 20.00     0.005 C 
BRANCH   2   3
HETATM    3  C4  UNL     1     -32.547   7.208   1.768  1.00 20.00    -0.004 C 
HETATM    4  C1  UNL     1     -32.911   8.655   1.474  1.00 20.00     0.005 C 
ENDBRANCH   2   3
ENDBRANCH   1   2
BRANCH   1   5
HETATM    5  C6  UNL     1     -34.070   4.682   3.351  1.00 20.00     0.119 C 
HETATM    6 CL9  UNL     1     -32.905   4.244   2.071  1.00 20.00    -0.130 Cl
ENDBRANCH   1   5
BRANCH   1   7
HETATM    7  C7  UNL     1     -34.456   6.493   5.132  1.00 20.00    -0.018 C 
HETATM    8  C2  UNL     1     -33.364   7.281   5.869  1.00 20.00     0.010 C 
HETATM    9  C3  UNL     1     -34.820   5.244   5.939  1.00 20.00     0.010 C 
ENDBRANCH   1   7
TORSDOF 4
ENDMDL
MODEL 2
REMARK VINA RESULT:      -4.3      0.558      1.281
REMARK  4 active torsions:
REMARK  status: ('A' for Active; 'I' for Inactive)
REMARK    1  A    between atoms: C4_4  and  C5_5 
REMARK    2  A    between atoms: C5_5  and  C8_8 
REMARK    3  A    between atoms: C6_6  and  C8_8 
REMARK    4  A    between atoms: C7_7  and  C8_8 
ROOT
HETATM    1  C8  UNL     1     -33.824   6.531   3.607  1.00 20.00     0.003 C 
ENDROOT
BRANCH   1   2
HETATM    2  C5  UNL     1     -32.506   7.197   3.131  1.00 20.00     0.005 C 
BRANCH   2   3
HETATM    3  C4  UNL     1     -32.365   7.431   1.623  1.00 20.00    -0.004 C 
HETATM    4  C1  UNL     1     -32.906   8.776   1.164  1.00 20.00     0.005 C 
ENDBRANCH   2   3
ENDBRANCH   1   2
BRANCH   1   5
HETATM    5  C6  UNL     1     -34.208   5.369   2.664  1.00 20.00     0.119 C 
HETATM    6 CL9  UNL     1     -32.883   4.189   2.471  1.00 20.00    -0.130 Cl
ENDBRANCH   1   5
BRANCH   1   7
HETATM    7  C7  UNL     1     -33.771   6.071   5.097  1.00 20.00    -0.018 C 
HETATM    8  C2  UNL     1     -34.929   5.131   5.454  1.00 20.00     0.010 C 
HETATM    9  C3  UNL     1     -33.720   7.227   6.100  1.00 20.00     0.010 C 
ENDBRANCH   1   7
TORSDOF 4
ENDMDL
MODEL 3
REMARK VINA RESULT:      -4.2     11.304     12.290
REMARK  4 active torsions:
REMARK  status: ('A' for Active; 'I' for Inactive)
REMARK    1  A    between atoms: C4_4  and  C5_5 
REMARK    2  A    between atoms: C5_5  and  C8_8 
REMARK    3  A    between atoms: C6_6  and  C8_8 
REMARK    4  A    between atoms: C7_7  and  C8_8 
ROOT
HETATM    1  C8  UNL     1     -33.984  14.903  -4.195  1.00 20.00     0.003 C 
ENDROOT
BRANCH   1   2
HETATM    2  C5  UNL     1     -35.098  13.864  -3.897  1.00 20.00     0.005 C 
BRANCH   2   3
HETATM    3  C4  UNL     1     -36.292  13.848  -4.857  1.00 20.00    -0.004 C 
HETATM    4  C1  UNL     1     -37.550  14.472  -4.272  1.00 20.00     0.005 C 
ENDBRANCH   2   3
ENDBRANCH   1   2
BRANCH   1   5
HETATM    5  C6  UNL     1     -34.322  15.698  -5.476  1.00 20.00     0.119 C 
HETATM    6 CL9  UNL     1     -33.623  14.951  -6.939  1.00 20.00    -0.130 Cl
ENDBRANCH   1   5
BRANCH   1   7
HETATM    7  C7  UNL     1     -33.694  15.849  -2.989  1.00 20.00    -0.018 C 
HETATM    8  C2  UNL     1     -34.925  16.037  -2.093  1.00 20.00     0.010 C 
HETATM    9  C3  UNL     1     -33.140  17.217  -3.394  1.00 20.00     0.010 C 
ENDBRANCH   1   7
TORSDOF 4
ENDMDL
MODEL 4
REMARK VINA RESULT:      -4.1      2.000      2.869
REMARK  4 active torsions:
REMARK  status: ('A' for Active; 'I' for Inactive)
REMARK    1  A    between atoms: C4_4  and  C5_5 
REMARK    2  A    between atoms: C5_5  and  C8_8 
REMARK    3  A    between atoms: C6_6  and  C8_8 
REMARK    4  A    between atoms: C7_7  and  C8_8 
ROOT
HETATM    1  C8  UNL     1     -32.967   6.493   3.557  1.00 20.00     0.003 C 
ENDROOT
BRANCH   1   2
HETATM    2  C5  UNL     1     -32.243   7.342   2.477  1.00 20.00     0.005 C 
BRANCH   2   3
HETATM    3  C4  UNL     1     -33.067   7.721   1.241  1.00 20.00    -0.004 C 
HETATM    4  C1  UNL     1     -32.853   9.156   0.786  1.00 20.00     0.005 C 
ENDBRANCH   2   3
ENDBRANCH   1   2
BRANCH   1   5
HETATM    5  C6  UNL     1     -33.821   7.403   4.468  1.00 20.00     0.119 C 
HETATM    6 CL9  UNL     1     -33.809   6.860   6.169  1.00 20.00    -0.130 Cl
ENDBRANCH   1   5
BRANCH   1   7
HETATM    7  C7  UNL     1     -33.809   5.327   2.953  1.00 20.00    -0.018 C 
HETATM    8  C2  UNL     1     -34.674   4.631   4.011  1.00 20.00     0.010 C 
HETATM    9  C3  UNL     1     -32.974   4.284   2.205  1.00 20.00     0.010 C 
ENDBRANCH   1   7
TORSDOF 4
ENDMDL
MODEL 5
REMARK VINA RESULT:      -4.0     11.597     12.375
REMARK  4 active torsions:
REMARK  status: ('A' for Active; 'I' for Inactive)
REMARK    1  A    between atoms: C4_4  and  C5_5 
REMARK    2  A    between atoms: C5_5  and  C8_8 
REMARK    3  A    between atoms: C6_6  and  C8_8 
REMARK    4  A    between atoms: C7_7  and  C8_8 
ROOT
HETATM    1  C8  UNL     1     -34.764  15.585  -2.759  1.00 20.00     0.003 C 
ENDROOT
BRANCH   1   2
HETATM    2  C5  UNL     1     -33.506  16.489  -2.668  1.00 20.00     0.005 C 
BRANCH   2   3
HETATM    3  C4  UNL     1     -33.483  17.516  -1.531  1.00 20.00    -0.004 C 
HETATM    4  C1  UNL     1     -32.123  18.167  -1.328  1.00 20.00     0.005 C 
ENDBRANCH   2   3
ENDBRANCH   1   2
BRANCH   1   5
HETATM    5  C6  UNL     1     -36.001  16.426  -3.143  1.00 20.00     0.119 C 
HETATM    6 CL9  UNL     1     -35.651  17.583  -4.457  1.00 20.00    -0.130 Cl
ENDBRANCH   1   5
BRANCH   1   7
HETATM    7  C7  UNL     1     -34.572  14.368  -3.716  1.00 20.00    -0.018 C 
HETATM    8  C2  UNL     1     -33.486  14.627  -4.768  1.00 20.00     0.010 C 
HETATM    9  C3  UNL     1     -35.860  13.916  -4.409  1.00 20.00     0.010 C 
ENDBRANCH   1   7
TORSDOF 4
ENDMDL
MODEL 6
REMARK VINA RESULT:      -4.0     11.475     12.358
REMARK  4 active torsions:
REMARK  status: ('A' for Active; 'I' for Inactive)
REMARK    1  A    between atoms: C4_4  and  C5_5 
REMARK    2  A    between atoms: C5_5  and  C8_8 
REMARK    3  A    between atoms: C6_6  and  C8_8 
REMARK    4  A    between atoms: C7_7  and  C8_8 
ROOT
HETATM    1  C8  UNL     1     -34.116  16.226  -2.251  1.00 20.00     0.003 C 
ENDROOT
BRANCH   1   2
HETATM    2  C5  UNL     1     -33.053  17.135  -2.925  1.00 20.00     0.005 C 
BRANCH   2   3
HETATM    3  C4  UNL     1     -32.702  18.434  -2.193  1.00 20.00    -0.004 C 
HETATM    4  C1  UNL     1     -31.795  18.227  -0.990  1.00 20.00     0.005 C 
ENDBRANCH   2   3
ENDBRANCH   1   2
BRANCH   1   5
HETATM    5  C6  UNL     1     -35.300  17.077  -1.739  1.00 20.00     0.119 C 
HETATM    6 CL9  UNL     1     -35.424  17.060   0.042  1.00 20.00    -0.130 Cl
ENDBRANCH   1   5
BRANCH   1   7
HETATM    7  C7  UNL     1     -34.597  15.064  -3.173  1.00 20.00    -0.018 C 
HETATM    8  C2  UNL     1     -33.614  14.791  -4.319  1.00 20.00     0.010 C 
HETATM    9  C3  UNL     1     -36.004  15.265  -3.741  1.00 20.00     0.010 C 
ENDBRANCH   1   7
TORSDOF 4
ENDMDL
MODEL 7
REMARK VINA RESULT:      -3.9     11.397     12.191
REMARK  4 active torsions:
REMARK  status: ('A' for Active; 'I' for Inactive)
REMARK    1  A    between atoms: C4_4  and  C5_5 
REMARK    2  A    between atoms: C5_5  and  C8_8 
REMARK    3  A    between atoms: C6_6  and  C8_8 
REMARK    4  A    between atoms: C7_7  and  C8_8 
ROOT
HETATM    1  C8  UNL     1     -34.889  15.336  -2.961  1.00 20.00     0.003 C 
ENDROOT
BRANCH   1   2
HETATM    2  C5  UNL     1     -35.030  16.318  -1.767  1.00 20.00     0.005 C 
BRANCH   2   3
HETATM    3  C4  UNL     1     -33.881  17.311  -1.560  1.00 20.00    -0.004 C 
HETATM    4  C1  UNL     1     -33.981  18.093  -0.259  1.00 20.00     0.005 C 
ENDBRANCH   2   3
ENDBRANCH   1   2
BRANCH   1   5
HETATM    5  C6  UNL     1     -36.244  15.175  -3.684  1.00 20.00     0.119 C 
HETATM    6 CL9  UNL     1     -36.382  13.604  -4.521  1.00 20.00    -0.130 Cl
ENDBRANCH   1   5
BRANCH   1   7
HETATM    7  C7  UNL     1     -33.751  15.739  -3.949  1.00 20.00    -0.018 C 
HETATM    8  C2  UNL     1     -34.290  16.480  -5.179  1.00 20.00     0.010 C 
HETATM    9  C3  UNL     1     -32.878  14.565  -4.399  1.00 20.00     0.010 C 
ENDBRANCH   1   7
TORSDOF 4
ENDMDL
MODEL 8
REMARK VINA RESULT:      -3.9     11.400     12.349
REMARK  4 active torsions:
REMARK  status: ('A' for Active; 'I' for Inactive)
REMARK    1  A    between atoms: C4_4  and  C5_5 
REMARK    2  A    between atoms: C5_5  and  C8_8 
REMARK    3  A    between atoms: C6_6  and  C8_8 
REMARK    4  A    between atoms: C7_7  and  C8_8 
ROOT
HETATM    1  C8  UNL     1     -34.770  15.085  -4.363  1.00 20.00     0.003 C 
ENDROOT
BRANCH   1   2
HETATM    2  C5  UNL     1     -33.697  14.775  -5.442  1.00 20.00     0.005 C 
BRANCH   2   3
HETATM    3  C4  UNL     1     -34.047  15.162  -6.883  1.00 20.00    -0.004 C 
HETATM    4  C1  UNL     1     -34.875  16.432  -6.987  1.00 20.00     0.005 C 
ENDBRANCH   2   3
ENDBRANCH   1   2
BRANCH   1   5
HETATM    5  C6  UNL     1     -35.726  13.883  -4.199  1.00 20.00     0.119 C 
HETATM    6 CL9  UNL     1     -37.439  14.350  -4.392  1.00 20.00    -0.130 Cl
ENDBRANCH   1   5
BRANCH   1   7
HETATM    7  C7  UNL     1     -34.153  15.523  -2.999  1.00 20.00    -0.018 C 
HETATM    8  C2  UNL     1     -35.208  16.103  -2.048  1.00 20.00     0.010 C 
HETATM    9  C3  UNL     1     -32.987  16.505  -3.134  1.00 20.00     0.010 C 
ENDBRANCH   1   7
TORSDOF 4
ENDMDL
MODEL 9
REMARK VINA RESULT:      -3.9     11.415     12.276
REMARK  4 active torsions:
REMARK  status: ('A' for Active; 'I' for Inactive)
REMARK    1  A    between atoms: C4_4  and  C5_5 
REMARK    2  A    between atoms: C5_5  and  C8_8 
REMARK    3  A    between atoms: C6_6  and  C8_8 
REMARK    4  A    between atoms: C7_7  and  C8_8 
ROOT
HETATM    1  C8  UNL     1     -33.756  16.247  -2.526  1.00 20.00     0.003 C 
ENDROOT
BRANCH   1   2
HETATM    2  C5  UNL     1     -33.700  15.325  -3.774  1.00 20.00     0.005 C 
BRANCH   2   3
HETATM    3  C4  UNL     1     -34.711  14.175  -3.820  1.00 20.00    -0.004 C 
HETATM    4  C1  UNL     1     -35.708  14.288  -4.962  1.00 20.00     0.005 C 
ENDBRANCH   2   3
ENDBRANCH   1   2
BRANCH   1   5
HETATM    5  C6  UNL     1     -32.999  17.565  -2.799  1.00 20.00     0.119 C 
HETATM    6 CL9  UNL     1     -32.023  18.087  -1.398  1.00 20.00    -0.130 Cl
ENDBRANCH   1   5
BRANCH   1   7
HETATM    7  C7  UNL     1     -35.211  16.509  -2.028  1.00 20.00    -0.018 C 
HETATM    8  C2  UNL     1     -35.943  17.538  -2.899  1.00 20.00     0.010 C 
HETATM    9  C3  UNL     1     -35.297  16.927  -0.557  1.00 20.00     0.010 C 
ENDBRANCH   1   7
TORSDOF 4
ENDMDL
