MODEL 1
REMARK VINA RESULT:      -4.9      0.000      0.000
REMARK  4 active torsions:
REMARK  status: ('A' for Active; 'I' for Inactive)
REMARK    1  A    between atoms: C2_2  and  C9_9 
REMARK    2  A    between atoms: C2_2  and  C10_10 
REMARK    3  A    between atoms: C3_3  and  C5_5 
REMARK    4  A    between atoms: C3_3  and  C9_9 
ROOT
HETATM    1  C3  UNL     1     -33.479   5.122   2.761  1.00 20.00     0.135 C 
HETATM    2  O11 UNL     1     -32.830   4.228   2.232  1.00 20.00    -0.297 OA
ENDROOT
BRANCH   1   3
HETATM    3  C5  UNL     1     -34.110   4.892   4.094  1.00 20.00     0.060 A 
HETATM    4  C4  UNL     1     -35.570   5.166   4.248  1.00 20.00     0.017 A 
HETATM    5  C6  UNL     1     -34.565   6.091   4.879  1.00 20.00    -0.007 A 
HETATM    6  C7  UNL     1     -34.387   6.108   6.358  1.00 20.00     0.011 C 
ENDBRANCH   1   3
BRANCH   1   7
HETATM    7  C9  UNL     1     -33.744   6.483   2.145  1.00 20.00     0.111 C 
BRANCH   7   8
HETATM    8  C2  UNL     1     -32.493   7.323   2.112  1.00 20.00    -0.083 C 
HETATM    9  C1  UNL     1     -31.717   7.454   3.200  1.00 20.00     0.014 C 
BRANCH   8  10
HETATM   10  C10 UNL     1     -32.147   8.018   0.816  1.00 20.00     0.029 C 
HETATM   11  C8  UNL     1     -33.009   9.246   0.559  1.00 20.00     0.010 C 
ENDBRANCH   8  10
ENDBRANCH   7   8
ENDBRANCH   1   7
TORSDOF 4
ENDMDL
MODEL 2
REMARK VINA RESULT:      -4.7      1.440      4.802
REMARK  4 active torsions:
REMARK  status: ('A' for Active; 'I' for Inactive)
REMARK    1  A    between atoms: C2_2  and  C9_9 
REMARK    2  A    between atoms: C2_2  and  C10_10 
REMARK    3  A    between atoms: C3_3  and  C5_5 
REMARK    4  A    between atoms: C3_3  and  C9_9 
ROOT
HETATM    1  C3  UNL     1     -32.527   7.250   2.914  1.00 20.00     0.135 C 
HETATM    2  O11 UNL     1     -31.446   7.492   3.437  1.00 20.00    -0.297 OA
ENDROOT
BRANCH   1   3
HETATM    3  C5  UNL     1     -32.697   7.432   1.443  1.00 20.00     0.060 A 
HETATM    4  C4  UNL     1     -31.549   7.968   0.653  1.00 20.00     0.017 A 
HETATM    5  C6  UNL     1     -32.753   8.835   0.903  1.00 20.00    -0.007 A 
HETATM    6  C7  UNL     1     -33.691   9.155  -0.209  1.00 20.00     0.011 C 
ENDBRANCH   1   3
BRANCH   1   7
HETATM    7  C9  UNL     1     -33.770   6.802   3.659  1.00 20.00     0.111 C 
BRANCH   7   8
HETATM    8  C2  UNL     1     -33.960   5.309   3.561  1.00 20.00    -0.083 C 
HETATM    9  C1  UNL     1     -33.385   4.601   2.576  1.00 20.00     0.014 C 
BRANCH   8  10
HETATM   10  C10 UNL     1     -34.825   4.640   4.604  1.00 20.00     0.029 C 
HETATM   11  C8  UNL     1     -34.780   5.352   5.948  1.00 20.00     0.010 C 
ENDBRANCH   8  10
ENDBRANCH   7   8
ENDBRANCH   1   7
TORSDOF 4
ENDMDL
MODEL 3
REMARK VINA RESULT:      -4.5     10.779     12.416
REMARK  4 active torsions:
REMARK  status: ('A' for Active; 'I' for Inactive)
REMARK    1  A    between atoms: C2_2  and  C9_9 
REMARK    2  A    between atoms: C2_2  and  C10_10 
REMARK    3  A    between atoms: C3_3  and  C5_5 
REMARK    4  A    between atoms: C3_3  and  C9_9 
ROOT
HETATM    1  C3  UNL     1     -36.049  14.207  -4.719  1.00 20.00     0.135 C 
HETATM    2  O11 UNL     1     -37.072  13.556  -4.549  1.00 20.00    -0.297 OA
ENDROOT
BRANCH   1   3
HETATM    3  C5  UNL     1     -35.977  15.200  -5.832  1.00 20.00     0.060 A 
HETATM    4  C4  UNL     1     -36.015  14.698  -7.237  1.00 20.00     0.017 A 
HETATM    5  C6  UNL     1     -34.729  15.236  -6.670  1.00 20.00    -0.007 A 
HETATM    6  C7  UNL     1     -34.196  16.548  -7.133  1.00 20.00     0.011 C 
ENDBRANCH   1   3
BRANCH   1   7
HETATM    7  C9  UNL     1     -34.783  14.066  -3.895  1.00 20.00     0.111 C 
BRANCH   7   8
HETATM    8  C2  UNL     1     -34.473  15.336  -3.144  1.00 20.00    -0.083 C 
HETATM    9  C1  UNL     1     -35.361  15.872  -2.290  1.00 20.00     0.014 C 
BRANCH   8  10
HETATM   10  C10 UNL     1     -33.133  15.989  -3.389  1.00 20.00     0.029 C 
HETATM   11  C8  UNL     1     -32.911  17.218  -2.521  1.00 20.00     0.010 C 
ENDBRANCH   8  10
ENDBRANCH   7   8
ENDBRANCH   1   7
TORSDOF 4
ENDMDL
MODEL 4
REMARK VINA RESULT:      -4.3     11.040     12.679
REMARK  4 active torsions:
REMARK  status: ('A' for Active; 'I' for Inactive)
REMARK    1  A    between atoms: C2_2  and  C9_9 
REMARK    2  A    between atoms: C2_2  and  C10_10 
REMARK    3  A    between atoms: C3_3  and  C5_5 
REMARK    4  A    between atoms: C3_3  and  C9_9 
ROOT
HETATM    1  C3  UNL     1     -35.987  14.566  -5.223  1.00 20.00     0.135 C 
HETATM    2  O11 UNL     1     -35.984  13.813  -6.188  1.00 20.00    -0.297 OA
ENDROOT
BRANCH   1   3
HETATM    3  C5  UNL     1     -36.603  15.921  -5.340  1.00 20.00     0.060 A 
HETATM    4  C4  UNL     1     -36.926  16.441  -6.702  1.00 20.00     0.017 A 
HETATM    5  C6  UNL     1     -35.775  17.028  -5.931  1.00 20.00    -0.007 A 
HETATM    6  C7  UNL     1     -35.877  18.402  -5.362  1.00 20.00     0.011 C 
ENDBRANCH   1   3
BRANCH   1   7
HETATM    7  C9  UNL     1     -35.363  14.254  -3.876  1.00 20.00     0.111 C 
BRANCH   7   8
HETATM    8  C2  UNL     1     -34.013  14.908  -3.731  1.00 20.00    -0.083 C 
HETATM    9  C1  UNL     1     -32.962  14.498  -4.460  1.00 20.00     0.014 C 
BRANCH   8  10
HETATM   10  C10 UNL     1     -33.880  16.034  -2.734  1.00 20.00     0.029 C 
HETATM   11  C8  UNL     1     -35.131  16.220  -1.887  1.00 20.00     0.010 C 
ENDBRANCH   8  10
ENDBRANCH   7   8
ENDBRANCH   1   7
TORSDOF 4
ENDMDL
MODEL 5
REMARK VINA RESULT:      -4.3     10.698     11.849
REMARK  4 active torsions:
REMARK  status: ('A' for Active; 'I' for Inactive)
REMARK    1  A    between atoms: C2_2  and  C9_9 
REMARK    2  A    between atoms: C2_2  and  C10_10 
REMARK    3  A    between atoms: C3_3  and  C5_5 
REMARK    4  A    between atoms: C3_3  and  C9_9 
ROOT
HETATM    1  C3  UNL     1     -33.781  14.836  -3.978  1.00 20.00     0.135 C 
HETATM    2  O11 UNL     1     -32.636  14.609  -4.350  1.00 20.00    -0.297 OA
ENDROOT
BRANCH   1   3
HETATM    3  C5  UNL     1     -34.132  16.179  -3.432  1.00 20.00     0.060 A 
HETATM    4  C4  UNL     1     -33.237  16.787  -2.404  1.00 20.00     0.017 A 
HETATM    5  C6  UNL     1     -34.591  16.266  -2.003  1.00 20.00    -0.007 A 
HETATM    6  C7  UNL     1     -35.681  17.215  -1.640  1.00 20.00     0.011 C 
ENDBRANCH   1   3
BRANCH   1   7
HETATM    7  C9  UNL     1     -34.912  13.824  -3.987  1.00 20.00     0.111 C 
BRANCH   7   8
HETATM    8  C2  UNL     1     -36.021  14.249  -4.915  1.00 20.00    -0.083 C 
HETATM    9  C1  UNL     1     -35.795  14.433  -6.226  1.00 20.00     0.014 C 
BRANCH   8  10
HETATM   10  C10 UNL     1     -37.392  14.466  -4.320  1.00 20.00     0.029 C 
HETATM   11  C8  UNL     1     -37.839  15.919  -4.389  1.00 20.00     0.010 C 
ENDBRANCH   8  10
ENDBRANCH   7   8
ENDBRANCH   1   7
TORSDOF 4
ENDMDL
MODEL 6
REMARK VINA RESULT:      -4.2     11.412     12.497
REMARK  4 active torsions:
REMARK  status: ('A' for Active; 'I' for Inactive)
REMARK    1  A    between atoms: C2_2  and  C9_9 
REMARK    2  A    between atoms: C2_2  and  C10_10 
REMARK    3  A    between atoms: C3_3  and  C5_5 
REMARK    4  A    between atoms: C3_3  and  C9_9 
ROOT
HETATM    1  C3  UNL     1     -31.576  18.696  -0.482  1.00 20.00     0.135 C 
HETATM    2  O11 UNL     1     -30.473  18.227  -0.736  1.00 20.00    -0.297 OA
ENDROOT
BRANCH   1   3
HETATM    3  C5  UNL     1     -31.909  19.096   0.917  1.00 20.00     0.060 A 
HETATM    4  C4  UNL     1     -30.809  19.141   1.926  1.00 20.00     0.017 A 
HETATM    5  C6  UNL     1     -31.839  18.045   1.991  1.00 20.00    -0.007 A 
HETATM    6  C7  UNL     1     -32.859  18.038   3.076  1.00 20.00     0.011 C 
ENDBRANCH   1   3
BRANCH   1   7
HETATM    7  C9  UNL     1     -32.694  18.880  -1.492  1.00 20.00     0.111 C 
BRANCH   7   8
HETATM    8  C2  UNL     1     -33.552  17.645  -1.592  1.00 20.00    -0.083 C 
HETATM    9  C1  UNL     1     -34.609  17.468  -0.783  1.00 20.00     0.014 C 
BRANCH   8  10
HETATM   10  C10 UNL     1     -33.178  16.611  -2.627  1.00 20.00     0.029 C 
HETATM   11  C8  UNL     1     -34.304  15.626  -2.907  1.00 20.00     0.010 C 
ENDBRANCH   8  10
ENDBRANCH   7   8
ENDBRANCH   1   7
TORSDOF 4
ENDMDL
MODEL 7
REMARK VINA RESULT:      -4.1      0.826      4.280
REMARK  4 active torsions:
REMARK  status: ('A' for Active; 'I' for Inactive)
REMARK    1  A    between atoms: C2_2  and  C9_9 
REMARK    2  A    between atoms: C2_2  and  C10_10 
REMARK    3  A    between atoms: C3_3  and  C5_5 
REMARK    4  A    between atoms: C3_3  and  C9_9 
ROOT
HETATM    1  C3  UNL     1     -33.275   5.488   2.536  1.00 20.00     0.135 C 
HETATM    2  O11 UNL     1     -33.012   4.328   2.246  1.00 20.00    -0.297 OA
ENDROOT
BRANCH   1   3
HETATM    3  C5  UNL     1     -32.414   6.594   2.025  1.00 20.00     0.060 A 
HETATM    4  C4  UNL     1     -31.985   7.661   2.977  1.00 20.00     0.017 A 
HETATM    5  C6  UNL     1     -33.013   7.970   1.922  1.00 20.00    -0.007 A 
HETATM    6  C7  UNL     1     -32.661   8.837   0.763  1.00 20.00     0.011 C 
ENDBRANCH   1   3
BRANCH   1   7
HETATM    7  C9  UNL     1     -34.420   5.920   3.433  1.00 20.00     0.111 C 
BRANCH   7   8
HETATM    8  C2  UNL     1     -34.453   5.115   4.707  1.00 20.00    -0.083 C 
HETATM    9  C1  UNL     1     -34.331   3.778   4.686  1.00 20.00     0.014 C 
BRANCH   8  10
HETATM   10  C10 UNL     1     -34.634   5.863   6.007  1.00 20.00     0.029 C 
HETATM   11  C8  UNL     1     -33.751   7.099   6.101  1.00 20.00     0.010 C 
ENDBRANCH   8  10
ENDBRANCH   7   8
ENDBRANCH   1   7
TORSDOF 4
ENDMDL
MODEL 8
REMARK VINA RESULT:      -4.1     11.194     11.966
REMARK  4 active torsions:
REMARK  status: ('A' for Active; 'I' for Inactive)
REMARK    1  A    between atoms: C2_2  and  C9_9 
REMARK    2  A    between atoms: C2_2  and  C10_10 
REMARK    3  A    between atoms: C3_3  and  C5_5 
REMARK    4  A    between atoms: C3_3  and  C9_9 
ROOT
HETATM    1  C3  UNL     1     -33.966  14.783  -4.554  1.00 20.00     0.135 C 
HETATM    2  O11 UNL     1     -33.700  14.391  -5.683  1.00 20.00    -0.297 OA
ENDROOT
BRANCH   1   3
HETATM    3  C5  UNL     1     -35.331  14.561  -3.993  1.00 20.00     0.060 A 
HETATM    4  C4  UNL     1     -36.234  13.590  -4.680  1.00 20.00     0.017 A 
HETATM    5  C6  UNL     1     -36.511  15.066  -4.777  1.00 20.00    -0.007 A 
HETATM    6  C7  UNL     1     -37.670  15.661  -4.054  1.00 20.00     0.011 C 
ENDBRANCH   1   3
BRANCH   1   7
HETATM    7  C9  UNL     1     -33.009  15.538  -3.650  1.00 20.00     0.111 C 
BRANCH   7   8
HETATM    8  C2  UNL     1     -33.569  16.882  -3.259  1.00 20.00    -0.083 C 
HETATM    9  C1  UNL     1     -33.902  17.791  -4.189  1.00 20.00     0.014 C 
BRANCH   8  10
HETATM   10  C10 UNL     1     -33.736  17.173  -1.786  1.00 20.00     0.029 C 
HETATM   11  C8  UNL     1     -35.117  16.801  -1.267  1.00 20.00     0.010 C 
ENDBRANCH   8  10
ENDBRANCH   7   8
ENDBRANCH   1   7
TORSDOF 4
ENDMDL
MODEL 9
REMARK VINA RESULT:      -4.1     11.185     12.128
REMARK  4 active torsions:
REMARK  status: ('A' for Active; 'I' for Inactive)
REMARK    1  A    between atoms: C2_2  and  C9_9 
REMARK    2  A    between atoms: C2_2  and  C10_10 
REMARK    3  A    between atoms: C3_3  and  C5_5 
REMARK    4  A    between atoms: C3_3  and  C9_9 
ROOT
HETATM    1  C3  UNL     1     -33.651  15.089  -4.352  1.00 20.00     0.135 C 
HETATM    2  O11 UNL     1     -32.985  14.110  -4.663  1.00 20.00    -0.297 OA
ENDROOT
BRANCH   1   3
HETATM    3  C5  UNL     1     -33.564  15.637  -2.966  1.00 20.00     0.060 A 
HETATM    4  C4  UNL     1     -34.830  15.990  -2.259  1.00 20.00     0.017 A 
HETATM    5  C6  UNL     1     -33.919  17.082  -2.752  1.00 20.00    -0.007 A 
HETATM    6  C7  UNL     1     -33.130  17.894  -1.783  1.00 20.00     0.011 C 
ENDBRANCH   1   3
BRANCH   1   7
HETATM    7  C9  UNL     1     -34.625  15.803  -5.270  1.00 20.00     0.111 C 
BRANCH   7   8
HETATM    8  C2  UNL     1     -35.605  14.838  -5.888  1.00 20.00    -0.083 C 
HETATM    9  C1  UNL     1     -35.804  14.806  -7.215  1.00 20.00     0.014 C 
BRANCH   8  10
HETATM   10  C10 UNL     1     -36.360  13.914  -4.961  1.00 20.00     0.029 C 
HETATM   11  C8  UNL     1     -37.572  14.581  -4.326  1.00 20.00     0.010 C 
ENDBRANCH   8  10
ENDBRANCH   7   8
ENDBRANCH   1   7
TORSDOF 4
ENDMDL
