MODEL 1
REMARK VINA RESULT:      -3.9      0.000      0.000
REMARK  3 active torsions:
REMARK  status: ('A' for Active; 'I' for Inactive)
REMARK    1  A    between atoms: C6_6  and  C8_8 
REMARK    2  A    between atoms: C7_7  and  C8_8 
REMARK    3  A    between atoms: C7_7  and  C9_9 
ROOT
HETATM    1  C8  UNL     1     -35.667  15.148  -3.350  1.00 20.00     0.042 C 
ENDROOT
BRANCH   1   2
HETATM    2  C6  UNL     1     -36.547  14.739  -4.522  1.00 20.00     0.122 C 
HETATM    3  C2  UNL     1     -37.115  15.930  -5.281  1.00 20.00     0.034 C 
HETATM    4  C1  UNL     1     -38.442  16.157  -4.599  1.00 20.00     0.029 C 
HETATM    5  C5  UNL     1     -38.869  14.743  -4.275  1.00 20.00     0.168 C 
HETATM    6  O10 UNL     1     -37.670  14.003  -4.009  1.00 20.00    -0.386 OA
ENDBRANCH   1   2
BRANCH   1   7
HETATM    7  C7  UNL     1     -34.278  15.502  -3.786  1.00 20.00    -0.025 A 
HETATM    8  C3  UNL     1     -33.970  16.955  -4.060  1.00 20.00     0.011 A 
HETATM    9  C4  UNL     1     -33.415  16.294  -2.830  1.00 20.00     0.011 A 
BRANCH   7  10
HETATM   10  C9  UNL     1     -33.609  14.465  -4.644  1.00 20.00     0.124 C 
HETATM   11 CL11 UNL     1     -33.670  14.929  -6.362  1.00 20.00    -0.130 Cl
ENDBRANCH   7  10
ENDBRANCH   1   7
TORSDOF 3
ENDMDL
MODEL 2
REMARK VINA RESULT:      -3.9      2.113      3.983
REMARK  3 active torsions:
REMARK  status: ('A' for Active; 'I' for Inactive)
REMARK    1  A    between atoms: C6_6  and  C8_8 
REMARK    2  A    between atoms: C7_7  and  C8_8 
REMARK    3  A    between atoms: C7_7  and  C9_9 
ROOT
HETATM    1  C8  UNL     1     -35.222  16.035  -4.404  1.00 20.00     0.042 C 
ENDROOT
BRANCH   1   2
HETATM    2  C6  UNL     1     -34.355  15.639  -3.216  1.00 20.00     0.122 C 
HETATM    3  C2  UNL     1     -34.921  16.115  -1.886  1.00 20.00     0.034 C 
HETATM    4  C1  UNL     1     -34.248  17.453  -1.698  1.00 20.00     0.029 C 
HETATM    5  C5  UNL     1     -32.883  17.200  -2.295  1.00 20.00     0.168 C 
HETATM    6  O10 UNL     1     -33.070  16.265  -3.366  1.00 20.00    -0.386 OA
ENDBRANCH   1   2
BRANCH   1   7
HETATM    7  C7  UNL     1     -35.811  14.842  -5.092  1.00 20.00    -0.025 A 
HETATM    8  C3  UNL     1     -35.867  13.540  -4.329  1.00 20.00     0.011 A 
HETATM    9  C4  UNL     1     -37.131  14.311  -4.582  1.00 20.00     0.011 A 
BRANCH   7  10
HETATM   10  C9  UNL     1     -35.552  14.783  -6.572  1.00 20.00     0.124 C 
HETATM   11 CL11 UNL     1     -33.816  14.972  -6.919  1.00 20.00    -0.130 Cl
ENDBRANCH   7  10
ENDBRANCH   1   7
TORSDOF 3
ENDMDL
MODEL 3
REMARK VINA RESULT:      -3.8      2.703      4.604
REMARK  3 active torsions:
REMARK  status: ('A' for Active; 'I' for Inactive)
REMARK    1  A    between atoms: C6_6  and  C8_8 
REMARK    2  A    between atoms: C7_7  and  C8_8 
REMARK    3  A    between atoms: C7_7  and  C9_9 
ROOT
HETATM    1  C8  UNL     1     -34.359  16.077  -2.263  1.00 20.00     0.042 C 
ENDROOT
BRANCH   1   2
HETATM    2  C6  UNL     1     -34.169  17.587  -2.217  1.00 20.00     0.122 C 
HETATM    3  C2  UNL     1     -32.739  18.013  -2.520  1.00 20.00     0.034 C 
HETATM    4  C1  UNL     1     -32.112  18.075  -1.149  1.00 20.00     0.029 C 
HETATM    5  C5  UNL     1     -33.263  18.574  -0.304  1.00 20.00     0.168 C 
HETATM    6  O10 UNL     1     -34.460  18.039  -0.883  1.00 20.00    -0.386 OA
ENDBRANCH   1   2
BRANCH   1   7
HETATM    7  C7  UNL     1     -34.542  15.576  -3.662  1.00 20.00    -0.025 A 
HETATM    8  C3  UNL     1     -33.395  14.832  -4.304  1.00 20.00     0.011 A 
HETATM    9  C4  UNL     1     -34.623  14.081  -3.875  1.00 20.00     0.011 A 
BRANCH   7  10
HETATM   10  C9  UNL     1     -35.388  16.459  -4.537  1.00 20.00     0.124 C 
HETATM   11 CL11 UNL     1     -34.422  17.150  -5.863  1.00 20.00    -0.130 Cl
ENDBRANCH   7  10
ENDBRANCH   1   7
TORSDOF 3
ENDMDL
MODEL 4
REMARK VINA RESULT:      -3.7      3.262      4.296
REMARK  3 active torsions:
REMARK  status: ('A' for Active; 'I' for Inactive)
REMARK    1  A    between atoms: C6_6  and  C8_8 
REMARK    2  A    between atoms: C7_7  and  C8_8 
REMARK    3  A    between atoms: C7_7  and  C9_9 
ROOT
HETATM    1  C8  UNL     1     -33.095  16.775  -2.655  1.00 20.00     0.042 C 
ENDROOT
BRANCH   1   2
HETATM    2  C6  UNL     1     -34.386  16.513  -3.417  1.00 20.00     0.122 C 
HETATM    3  C2  UNL     1     -35.032  15.184  -3.050  1.00 20.00     0.034 C 
HETATM    4  C1  UNL     1     -34.450  14.238  -4.071  1.00 20.00     0.029 C 
HETATM    5  C5  UNL     1     -34.352  15.122  -5.294  1.00 20.00     0.168 C 
HETATM    6  O10 UNL     1     -34.078  16.447  -4.820  1.00 20.00    -0.386 OA
ENDBRANCH   1   2
BRANCH   1   7
HETATM    7  C7  UNL     1     -33.205  17.968  -1.757  1.00 20.00    -0.025 A 
HETATM    8  C3  UNL     1     -32.075  18.236  -0.791  1.00 20.00     0.011 A 
HETATM    9  C4  UNL     1     -32.256  19.121  -1.990  1.00 20.00     0.011 A 
BRANCH   7  10
HETATM   10  C9  UNL     1     -34.605  18.288  -1.310  1.00 20.00     0.124 C 
HETATM   11 CL11 UNL     1     -35.062  17.299   0.098  1.00 20.00    -0.130 Cl
ENDBRANCH   7  10
ENDBRANCH   1   7
TORSDOF 3
ENDMDL
MODEL 5
REMARK VINA RESULT:      -3.7      2.348      3.561
REMARK  3 active torsions:
REMARK  status: ('A' for Active; 'I' for Inactive)
REMARK    1  A    between atoms: C6_6  and  C8_8 
REMARK    2  A    between atoms: C7_7  and  C8_8 
REMARK    3  A    between atoms: C7_7  and  C9_9 
ROOT
HETATM    1  C8  UNL     1     -33.930  15.135  -4.800  1.00 20.00     0.042 C 
ENDROOT
BRANCH   1   2
HETATM    2  C6  UNL     1     -34.062  16.483  -4.103  1.00 20.00     0.122 C 
HETATM    3  C2  UNL     1     -33.589  16.449  -2.656  1.00 20.00     0.034 C 
HETATM    4  C1  UNL     1     -34.857  16.139  -1.899  1.00 20.00     0.029 C 
HETATM    5  C5  UNL     1     -35.893  16.884  -2.710  1.00 20.00     0.168 C 
HETATM    6  O10 UNL     1     -35.453  16.843  -4.074  1.00 20.00    -0.386 OA
ENDBRANCH   1   2
BRANCH   1   7
HETATM    7  C7  UNL     1     -34.589  15.132  -6.145  1.00 20.00    -0.025 A 
HETATM    8  C3  UNL     1     -34.400  16.341  -7.030  1.00 20.00     0.011 A 
HETATM    9  C4  UNL     1     -33.704  15.054  -7.367  1.00 20.00     0.011 A 
BRANCH   7  10
HETATM   10  C9  UNL     1     -35.916  14.425  -6.189  1.00 20.00     0.124 C 
HETATM   11 CL11 UNL     1     -36.229  13.569  -4.661  1.00 20.00    -0.130 Cl
ENDBRANCH   7  10
ENDBRANCH   1   7
TORSDOF 3
ENDMDL
MODEL 6
REMARK VINA RESULT:      -3.7      3.510      5.653
REMARK  3 active torsions:
REMARK  status: ('A' for Active; 'I' for Inactive)
REMARK    1  A    between atoms: C6_6  and  C8_8 
REMARK    2  A    between atoms: C7_7  and  C8_8 
REMARK    3  A    between atoms: C7_7  and  C9_9 
ROOT
HETATM    1  C8  UNL     1     -34.070  17.140  -1.293  1.00 20.00     0.042 C 
ENDROOT
BRANCH   1   2
HETATM    2  C6  UNL     1     -33.468  18.533  -1.165  1.00 20.00     0.122 C 
HETATM    3  C2  UNL     1     -31.994  18.578  -1.543  1.00 20.00     0.034 C 
HETATM    4  C1  UNL     1     -31.304  18.356  -0.220  1.00 20.00     0.029 C 
HETATM    5  C5  UNL     1     -32.226  19.078   0.736  1.00 20.00     0.168 C 
HETATM    6  O10 UNL     1     -33.553  18.936   0.213  1.00 20.00    -0.386 OA
ENDBRANCH   1   2
BRANCH   1   7
HETATM    7  C7  UNL     1     -34.320  16.765  -2.721  1.00 20.00    -0.025 A 
HETATM    8  C3  UNL     1     -33.338  15.833  -3.392  1.00 20.00     0.011 A 
HETATM    9  C4  UNL     1     -34.706  15.335  -3.022  1.00 20.00     0.011 A 
BRANCH   7  10
HETATM   10  C9  UNL     1     -34.941  17.853  -3.554  1.00 20.00     0.124 C 
HETATM   11 CL11 UNL     1     -33.818  18.400  -4.822  1.00 20.00    -0.130 Cl
ENDBRANCH   7  10
ENDBRANCH   1   7
TORSDOF 3
ENDMDL
MODEL 7
REMARK VINA RESULT:      -3.6      2.178      2.715
REMARK  3 active torsions:
REMARK  status: ('A' for Active; 'I' for Inactive)
REMARK    1  A    between atoms: C6_6  and  C8_8 
REMARK    2  A    between atoms: C7_7  and  C8_8 
REMARK    3  A    between atoms: C7_7  and  C9_9 
ROOT
HETATM    1  C8  UNL     1     -35.046  15.788  -2.253  1.00 20.00     0.042 C 
ENDROOT
BRANCH   1   2
HETATM    2  C6  UNL     1     -34.972  15.440  -3.733  1.00 20.00     0.122 C 
HETATM    3  C2  UNL     1     -36.183  15.925  -4.517  1.00 20.00     0.034 C 
HETATM    4  C1  UNL     1     -37.110  14.735  -4.469  1.00 20.00     0.029 C 
HETATM    5  C5  UNL     1     -36.136  13.581  -4.537  1.00 20.00     0.168 C 
HETATM    6  O10 UNL     1     -34.947  14.007  -3.859  1.00 20.00    -0.386 OA
ENDBRANCH   1   2
BRANCH   1   7
HETATM    7  C7  UNL     1     -34.289  17.040  -1.932  1.00 20.00    -0.025 A 
HETATM    8  C3  UNL     1     -35.074  18.320  -1.765  1.00 20.00     0.011 A 
HETATM    9  C4  UNL     1     -34.476  17.649  -0.561  1.00 20.00     0.011 A 
BRANCH   7  10
HETATM   10  C9  UNL     1     -32.926  17.125  -2.561  1.00 20.00     0.124 C 
HETATM   11 CL11 UNL     1     -32.862  18.439  -3.760  1.00 20.00    -0.130 Cl
ENDBRANCH   7  10
ENDBRANCH   1   7
TORSDOF 3
ENDMDL
MODEL 8
REMARK VINA RESULT:      -3.6      3.185      4.445
REMARK  3 active torsions:
REMARK  status: ('A' for Active; 'I' for Inactive)
REMARK    1  A    between atoms: C6_6  and  C8_8 
REMARK    2  A    between atoms: C7_7  and  C8_8 
REMARK    3  A    between atoms: C7_7  and  C9_9 
ROOT
HETATM    1  C8  UNL     1     -35.078  16.192  -1.716  1.00 20.00     0.042 C 
ENDROOT
BRANCH   1   2
HETATM    2  C6  UNL     1     -35.292  17.607  -1.196  1.00 20.00     0.122 C 
HETATM    3  C2  UNL     1     -34.153  18.090  -0.309  1.00 20.00     0.034 C 
HETATM    4  C1  UNL     1     -34.623  17.706   1.073  1.00 20.00     0.029 C 
HETATM    5  C5  UNL     1     -36.115  17.926   0.966  1.00 20.00     0.168 C 
HETATM    6  O10 UNL     1     -36.479  17.616  -0.385  1.00 20.00    -0.386 OA
ENDBRANCH   1   2
BRANCH   1   7
HETATM    7  C7  UNL     1     -34.592  16.181  -3.132  1.00 20.00    -0.025 A 
HETATM    8  C3  UNL     1     -33.127  15.902  -3.377  1.00 20.00     0.011 A 
HETATM    9  C4  UNL     1     -34.153  14.859  -3.720  1.00 20.00     0.011 A 
BRANCH   7  10
HETATM   10  C9  UNL     1     -35.284  17.160  -4.039  1.00 20.00     0.124 C 
HETATM   11 CL11 UNL     1     -34.142  18.387  -4.637  1.00 20.00    -0.130 Cl
ENDBRANCH   7  10
ENDBRANCH   1   7
TORSDOF 3
ENDMDL
MODEL 9
REMARK VINA RESULT:      -3.6      1.060      1.269
REMARK  3 active torsions:
REMARK  status: ('A' for Active; 'I' for Inactive)
REMARK    1  A    between atoms: C6_6  and  C8_8 
REMARK    2  A    between atoms: C7_7  and  C8_8 
REMARK    3  A    between atoms: C7_7  and  C9_9 
ROOT
HETATM    1  C8  UNL     1     -35.788  14.637  -4.050  1.00 20.00     0.042 C 
ENDROOT
BRANCH   1   2
HETATM    2  C6  UNL     1     -36.985  14.800  -4.976  1.00 20.00     0.122 C 
HETATM    3  C2  UNL     1     -37.518  16.225  -5.011  1.00 20.00     0.034 C 
HETATM    4  C1  UNL     1     -38.579  16.210  -3.939  1.00 20.00     0.029 C 
HETATM    5  C5  UNL     1     -39.141  14.813  -4.078  1.00 20.00     0.168 C 
HETATM    6  O10 UNL     1     -38.053  13.972  -4.483  1.00 20.00    -0.386 OA
ENDBRANCH   1   2
BRANCH   1   7
HETATM    7  C7  UNL     1     -34.498  14.967  -4.736  1.00 20.00    -0.025 A 
HETATM    8  C3  UNL     1     -33.547  15.915  -4.043  1.00 20.00     0.011 A 
HETATM    9  C4  UNL     1     -33.216  14.452  -4.122  1.00 20.00     0.011 A 
BRANCH   7  10
HETATM   10  C9  UNL     1     -34.585  15.028  -6.236  1.00 20.00     0.124 C 
HETATM   11 CL11 UNL     1     -34.398  16.701  -6.814  1.00 20.00    -0.130 Cl
ENDBRANCH   7  10
ENDBRANCH   1   7
TORSDOF 3
ENDMDL
