MODEL 1
REMARK VINA RESULT:      -4.5      0.000      0.000
REMARK  1 active torsions:
REMARK  status: ('A' for Active; 'I' for Inactive)
REMARK    1  A    between atoms: C6_6  and  O9_9 
ROOT
HETATM    1  C1  UNL     1     -35.441  13.892  -4.250  1.00 20.00     0.098 C 
HETATM    2  C2  UNL     1     -34.131  16.697  -2.177  1.00 20.00     0.004 C 
HETATM    3  C3  UNL     1     -32.952  16.417  -3.109  1.00 20.00     0.004 C 
HETATM    4  C4  UNL     1     -35.171  15.618  -2.473  1.00 20.00     0.053 C 
HETATM    5  C5  UNL     1     -33.355  15.212  -3.961  1.00 20.00     0.053 C 
HETATM    6  C6  UNL     1     -34.881  15.203  -3.914  1.00 20.00     0.148 C 
HETATM    7  N8  UNL     1     -35.886  12.854  -4.516  1.00 20.00    -0.194 NA
ENDROOT
BRANCH   6   8
HETATM    8  O9  UNL     1     -35.377  16.190  -4.815  1.00 20.00    -0.370 OA
HETATM    9  C7  UNL     1     -34.949  15.946  -6.149  1.00 20.00     0.204 C 
ENDBRANCH   6   8
TORSDOF 1
ENDMDL
MODEL 2
REMARK VINA RESULT:      -4.3     17.112     18.237
REMARK  1 active torsions:
REMARK  status: ('A' for Active; 'I' for Inactive)
REMARK    1  A    between atoms: C6_6  and  O9_9 
ROOT
HETATM    1  C1  UNL     1     -22.411  17.219   8.583  1.00 20.00     0.098 C 
HETATM    2  C2  UNL     1     -24.231  16.917  11.820  1.00 20.00     0.004 C 
HETATM    3  C3  UNL     1     -22.978  17.690  12.234  1.00 20.00     0.004 C 
HETATM    4  C4  UNL     1     -24.036  16.552  10.350  1.00 20.00     0.053 C 
HETATM    5  C5  UNL     1     -22.108  17.800  10.981  1.00 20.00     0.053 C 
HETATM    6  C6  UNL     1     -23.084  17.621   9.821  1.00 20.00     0.148 C 
HETATM    7  N8  UNL     1     -21.878  16.900   7.603  1.00 20.00    -0.194 NA
ENDROOT
BRANCH   6   8
HETATM    8  O9  UNL     1     -23.788  18.844   9.616  1.00 20.00    -0.370 OA
HETATM    9  C7  UNL     1     -24.766  18.721   8.592  1.00 20.00     0.204 C 
ENDBRANCH   6   8
TORSDOF 1
ENDMDL
MODEL 3
REMARK VINA RESULT:      -4.2      1.574      1.821
REMARK  1 active torsions:
REMARK  status: ('A' for Active; 'I' for Inactive)
REMARK    1  A    between atoms: C6_6  and  O9_9 
ROOT
HETATM    1  C1  UNL     1     -36.854  14.324  -4.519  1.00 20.00     0.098 C 
HETATM    2  C2  UNL     1     -34.084  16.815  -4.430  1.00 20.00     0.004 C 
HETATM    3  C3  UNL     1     -33.488  15.653  -3.635  1.00 20.00     0.004 C 
HETATM    4  C4  UNL     1     -35.530  16.424  -4.732  1.00 20.00     0.053 C 
HETATM    5  C5  UNL     1     -34.586  14.592  -3.537  1.00 20.00     0.053 C 
HETATM    6  C6  UNL     1     -35.518  14.897  -4.706  1.00 20.00     0.148 C 
HETATM    7  N8  UNL     1     -37.912  13.871  -4.372  1.00 20.00    -0.194 NA
ENDROOT
BRANCH   6   8
HETATM    8  O9  UNL     1     -34.936  14.393  -5.905  1.00 20.00    -0.370 OA
HETATM    9  C7  UNL     1     -35.626  14.857  -7.059  1.00 20.00     0.204 C 
ENDBRANCH   6   8
TORSDOF 1
ENDMDL
MODEL 4
REMARK VINA RESULT:      -4.0     17.902     18.733
REMARK  1 active torsions:
REMARK  status: ('A' for Active; 'I' for Inactive)
REMARK    1  A    between atoms: C6_6  and  O9_9 
ROOT
HETATM    1  C1  UNL     1     -23.118  17.074   9.774  1.00 20.00     0.098 C 
HETATM    2  C2  UNL     1     -26.048  18.571  11.522  1.00 20.00     0.004 C 
HETATM    3  C3  UNL     1     -25.820  17.292  12.329  1.00 20.00     0.004 C 
HETATM    4  C4  UNL     1     -25.066  18.515  10.353  1.00 20.00     0.053 C 
HETATM    5  C5  UNL     1     -24.675  16.548  11.639  1.00 20.00     0.053 C 
HETATM    6  C6  UNL     1     -23.931  17.629  10.860  1.00 20.00     0.148 C 
HETATM    7  N8  UNL     1     -22.474  16.635   8.914  1.00 20.00    -0.194 NA
ENDROOT
BRANCH   6   8
HETATM    8  O9  UNL     1     -23.104  18.361  11.761  1.00 20.00    -0.370 OA
HETATM    9  C7  UNL     1     -22.077  17.547  12.312  1.00 20.00     0.204 C 
ENDBRANCH   6   8
TORSDOF 1
ENDMDL
MODEL 5
REMARK VINA RESULT:      -3.9     17.623     18.560
REMARK  1 active torsions:
REMARK  status: ('A' for Active; 'I' for Inactive)
REMARK    1  A    between atoms: C6_6  and  O9_9 
ROOT
HETATM    1  C1  UNL     1     -24.320  16.393  11.295  1.00 20.00     0.098 C 
HETATM    2  C2  UNL     1     -22.509  18.191   8.580  1.00 20.00     0.004 C 
HETATM    3  C3  UNL     1     -23.791  19.015   8.702  1.00 20.00     0.004 C 
HETATM    4  C4  UNL     1     -22.681  16.997   9.518  1.00 20.00     0.053 C 
HETATM    5  C5  UNL     1     -24.657  18.308   9.746  1.00 20.00     0.053 C 
HETATM    6  C6  UNL     1     -23.669  17.489  10.573  1.00 20.00     0.148 C 
HETATM    7  N8  UNL     1     -24.835  15.524  11.867  1.00 20.00    -0.194 NA
ENDROOT
BRANCH   6   8
HETATM    8  O9  UNL     1     -23.009  18.354  11.494  1.00 20.00    -0.370 OA
HETATM    9  C7  UNL     1     -22.044  17.656  12.270  1.00 20.00     0.204 C 
ENDBRANCH   6   8
TORSDOF 1
ENDMDL
MODEL 6
REMARK VINA RESULT:      -3.9      1.803      2.377
REMARK  1 active torsions:
REMARK  status: ('A' for Active; 'I' for Inactive)
REMARK    1  A    between atoms: C6_6  and  O9_9 
ROOT
HETATM    1  C1  UNL     1     -37.125  14.440  -4.471  1.00 20.00     0.098 C 
HETATM    2  C2  UNL     1     -33.405  14.630  -4.554  1.00 20.00     0.004 C 
HETATM    3  C3  UNL     1     -33.768  14.919  -6.012  1.00 20.00     0.004 C 
HETATM    4  C4  UNL     1     -34.717  14.284  -3.852  1.00 20.00     0.053 C 
HETATM    5  C5  UNL     1     -35.288  14.783  -6.110  1.00 20.00     0.053 C 
HETATM    6  C6  UNL     1     -35.785  14.992  -4.682  1.00 20.00     0.148 C 
HETATM    7  N8  UNL     1     -38.187  14.002  -4.303  1.00 20.00    -0.194 NA
ENDROOT
BRANCH   6   8
HETATM    8  O9  UNL     1     -35.783  16.388  -4.392  1.00 20.00    -0.370 OA
HETATM    9  C7  UNL     1     -36.636  17.108  -5.272  1.00 20.00     0.204 C 
ENDBRANCH   6   8
TORSDOF 1
ENDMDL
MODEL 7
REMARK VINA RESULT:      -3.9     17.256     18.349
REMARK  1 active torsions:
REMARK  status: ('A' for Active; 'I' for Inactive)
REMARK    1  A    between atoms: C6_6  and  O9_9 
ROOT
HETATM    1  C1  UNL     1     -22.508  17.733  11.416  1.00 20.00     0.098 C 
HETATM    2  C2  UNL     1     -25.067  18.823   8.938  1.00 20.00     0.004 C 
HETATM    3  C3  UNL     1     -23.871  18.511   8.038  1.00 20.00     0.004 C 
HETATM    4  C4  UNL     1     -24.571  18.663  10.374  1.00 20.00     0.053 C 
HETATM    5  C5  UNL     1     -22.721  18.127   8.971  1.00 20.00     0.053 C 
HETATM    6  C6  UNL     1     -23.407  17.681  10.260  1.00 20.00     0.148 C 
HETATM    7  N8  UNL     1     -21.797  17.772  12.332  1.00 20.00    -0.194 NA
ENDROOT
BRANCH   6   8
HETATM    8  O9  UNL     1     -23.901  16.356  10.087  1.00 20.00    -0.370 OA
HETATM    9  C7  UNL     1     -24.667  15.930  11.207  1.00 20.00     0.204 C 
ENDBRANCH   6   8
TORSDOF 1
ENDMDL
MODEL 8
REMARK VINA RESULT:      -3.8      1.725      2.420
REMARK  1 active torsions:
REMARK  status: ('A' for Active; 'I' for Inactive)
REMARK    1  A    between atoms: C6_6  and  O9_9 
ROOT
HETATM    1  C1  UNL     1     -34.073  14.997  -5.784  1.00 20.00     0.098 C 
HETATM    2  C2  UNL     1     -34.084  16.282  -2.287  1.00 20.00     0.004 C 
HETATM    3  C3  UNL     1     -35.472  16.696  -2.779  1.00 20.00     0.004 C 
HETATM    4  C4  UNL     1     -33.366  15.686  -3.496  1.00 20.00     0.053 C 
HETATM    5  C5  UNL     1     -35.545  16.285  -4.250  1.00 20.00     0.053 C 
HETATM    6  C6  UNL     1     -34.496  15.186  -4.394  1.00 20.00     0.148 C 
HETATM    7  N8  UNL     1     -33.738  14.846  -6.885  1.00 20.00    -0.194 NA
ENDROOT
BRANCH   6   8
HETATM    8  O9  UNL     1     -35.027  13.969  -3.877  1.00 20.00    -0.370 OA
HETATM    9  C7  UNL     1     -36.215  13.584  -4.557  1.00 20.00     0.204 C 
ENDBRANCH   6   8
TORSDOF 1
ENDMDL
MODEL 9
REMARK VINA RESULT:      -3.8      3.255      4.289
REMARK  1 active torsions:
REMARK  status: ('A' for Active; 'I' for Inactive)
REMARK    1  A    between atoms: C6_6  and  O9_9 
ROOT
HETATM    1  C1  UNL     1     -32.227  18.242  -1.646  1.00 20.00     0.098 C 
HETATM    2  C2  UNL     1     -34.304  15.571  -3.206  1.00 20.00     0.004 C 
HETATM    3  C3  UNL     1     -35.212  16.055  -2.075  1.00 20.00     0.004 C 
HETATM    4  C4  UNL     1     -32.983  16.319  -3.038  1.00 20.00     0.053 C 
HETATM    5  C5  UNL     1     -34.414  17.110  -1.307  1.00 20.00     0.053 C 
HETATM    6  C6  UNL     1     -33.369  17.601  -2.304  1.00 20.00     0.148 C 
HETATM    7  N8  UNL     1     -31.323  18.750  -1.125  1.00 20.00    -0.194 NA
ENDROOT
BRANCH   6   8
HETATM    8  O9  UNL     1     -33.985  18.514  -3.209  1.00 20.00    -0.370 OA
HETATM    9  C7  UNL     1     -33.092  18.913  -4.241  1.00 20.00     0.204 C 
ENDBRANCH   6   8
TORSDOF 1
ENDMDL
