MODEL 1
REMARK VINA RESULT:      -4.0      0.000      0.000
REMARK  3 active torsions:
REMARK  status: ('A' for Active; 'I' for Inactive)
REMARK    1  A    between atoms: C6_6  and  C8_8 
REMARK    2  A    between atoms: C7_7  and  C8_8 
REMARK    3  A    between atoms: C7_7  and  C9_9 
ROOT
HETATM    1  C8  UNL     1     -33.832  15.082  -4.584  1.00 20.00     0.042 C 
ENDROOT
BRANCH   1   2
HETATM    2  C6  UNL     1     -34.125  16.289  -3.714  1.00 20.00     0.122 C 
HETATM    3  C2  UNL     1     -34.696  15.931  -2.352  1.00 20.00     0.034 C 
HETATM    4  C1  UNL     1     -34.280  17.125  -1.530  1.00 20.00     0.029 C 
HETATM    5  C5  UNL     1     -32.904  17.424  -2.086  1.00 20.00     0.168 C 
HETATM    6  O10 UNL     1     -32.910  17.014  -3.461  1.00 20.00    -0.386 OA
ENDBRANCH   1   2
BRANCH   1   7
HETATM    7  C7  UNL     1     -34.581  15.127  -5.879  1.00 20.00    -0.025 A 
HETATM    8  C3  UNL     1     -34.436  16.361  -6.738  1.00 20.00     0.011 A 
HETATM    9  C4  UNL     1     -33.782  15.078  -7.161  1.00 20.00     0.011 A 
BRANCH   7  10
HETATM   10  C9  UNL     1     -35.918  14.439  -5.855  1.00 20.00     0.124 C 
HETATM   11 CL11 UNL     1     -36.038  13.338  -4.462  1.00 20.00    -0.130 Cl
ENDBRANCH   7  10
ENDBRANCH   1   7
TORSDOF 3
ENDMDL
MODEL 2
REMARK VINA RESULT:      -3.7      1.576      2.328
REMARK  3 active torsions:
REMARK  status: ('A' for Active; 'I' for Inactive)
REMARK    1  A    between atoms: C6_6  and  C8_8 
REMARK    2  A    between atoms: C7_7  and  C8_8 
REMARK    3  A    between atoms: C7_7  and  C9_9 
ROOT
HETATM    1  C8  UNL     1     -34.665  15.089  -3.136  1.00 20.00     0.042 C 
ENDROOT
BRANCH   1   2
HETATM    2  C6  UNL     1     -34.429  16.543  -2.773  1.00 20.00     0.122 C 
HETATM    3  C2  UNL     1     -34.826  16.883  -1.346  1.00 20.00     0.034 C 
HETATM    4  C1  UNL     1     -33.937  18.069  -1.062  1.00 20.00     0.029 C 
HETATM    5  C5  UNL     1     -32.657  17.676  -1.769  1.00 20.00     0.168 C 
HETATM    6  O10 UNL     1     -33.029  16.853  -2.883  1.00 20.00    -0.386 OA
ENDBRANCH   1   2
BRANCH   1   7
HETATM    7  C7  UNL     1     -35.539  14.946  -4.342  1.00 20.00    -0.025 A 
HETATM    8  C3  UNL     1     -36.128  13.585  -4.632  1.00 20.00     0.011 A 
HETATM    9  C4  UNL     1     -37.012  14.687  -4.123  1.00 20.00     0.011 A 
BRANCH   7  10
HETATM   10  C9  UNL     1     -35.141  15.804  -5.511  1.00 20.00     0.124 C 
HETATM   11 CL11 UNL     1     -33.961  14.961  -6.543  1.00 20.00    -0.130 Cl
ENDBRANCH   7  10
ENDBRANCH   1   7
TORSDOF 3
ENDMDL
MODEL 3
REMARK VINA RESULT:      -3.7      2.122      2.753
REMARK  3 active torsions:
REMARK  status: ('A' for Active; 'I' for Inactive)
REMARK    1  A    between atoms: C6_6  and  C8_8 
REMARK    2  A    between atoms: C7_7  and  C8_8 
REMARK    3  A    between atoms: C7_7  and  C9_9 
ROOT
HETATM    1  C8  UNL     1     -34.635  15.944  -2.134  1.00 20.00     0.042 C 
ENDROOT
BRANCH   1   2
HETATM    2  C6  UNL     1     -34.097  17.347  -1.926  1.00 20.00     0.122 C 
HETATM    3  C2  UNL     1     -34.287  17.866  -0.511  1.00 20.00     0.034 C 
HETATM    4  C1  UNL     1     -33.169  18.872  -0.408  1.00 20.00     0.029 C 
HETATM    5  C5  UNL     1     -32.057  18.184  -1.172  1.00 20.00     0.168 C 
HETATM    6  O10 UNL     1     -32.680  17.367  -2.173  1.00 20.00    -0.386 OA
ENDBRANCH   1   2
BRANCH   1   7
HETATM    7  C7  UNL     1     -34.712  15.580  -3.584  1.00 20.00    -0.025 A 
HETATM    8  C3  UNL     1     -33.541  14.845  -4.192  1.00 20.00     0.011 A 
HETATM    9  C4  UNL     1     -34.830  14.117  -3.942  1.00 20.00     0.011 A 
BRANCH   7  10
HETATM   10  C9  UNL     1     -35.442  16.576  -4.442  1.00 20.00     0.124 C 
HETATM   11 CL11 UNL     1     -34.321  17.392  -5.558  1.00 20.00    -0.130 Cl
ENDBRANCH   7  10
ENDBRANCH   1   7
TORSDOF 3
ENDMDL
MODEL 4
REMARK VINA RESULT:      -3.7      3.022      4.200
REMARK  3 active torsions:
REMARK  status: ('A' for Active; 'I' for Inactive)
REMARK    1  A    between atoms: C6_6  and  C8_8 
REMARK    2  A    between atoms: C7_7  and  C8_8 
REMARK    3  A    between atoms: C7_7  and  C9_9 
ROOT
HETATM    1  C8  UNL     1     -35.930  14.296  -5.098  1.00 20.00     0.042 C 
ENDROOT
BRANCH   1   2
HETATM    2  C6  UNL     1     -37.039  14.777  -4.183  1.00 20.00     0.122 C 
HETATM    3  C2  UNL     1     -37.522  16.182  -4.504  1.00 20.00     0.034 C 
HETATM    4  C1  UNL     1     -38.932  16.144  -3.968  1.00 20.00     0.029 C 
HETATM    5  C5  UNL     1     -39.365  14.739  -4.328  1.00 20.00     0.168 C 
HETATM    6  O10 UNL     1     -38.186  13.920  -4.314  1.00 20.00    -0.386 OA
ENDBRANCH   1   2
BRANCH   1   7
HETATM    7  C7  UNL     1     -34.647  15.030  -4.861  1.00 20.00    -0.025 A 
HETATM    8  C3  UNL     1     -34.246  15.313  -3.432  1.00 20.00     0.011 A 
HETATM    9  C4  UNL     1     -33.505  14.274  -4.223  1.00 20.00     0.011 A 
BRANCH   7  10
HETATM   10  C9  UNL     1     -34.314  16.062  -5.903  1.00 20.00     0.124 C 
HETATM   11 CL11 UNL     1     -34.135  15.308  -7.506  1.00 20.00    -0.130 Cl
ENDBRANCH   7  10
ENDBRANCH   1   7
TORSDOF 3
ENDMDL
MODEL 5
REMARK VINA RESULT:      -3.6      3.163      4.312
REMARK  3 active torsions:
REMARK  status: ('A' for Active; 'I' for Inactive)
REMARK    1  A    between atoms: C6_6  and  C8_8 
REMARK    2  A    between atoms: C7_7  and  C8_8 
REMARK    3  A    between atoms: C7_7  and  C9_9 
ROOT
HETATM    1  C8  UNL     1     -35.985  14.465  -5.118  1.00 20.00     0.042 C 
ENDROOT
BRANCH   1   2
HETATM    2  C6  UNL     1     -37.111  14.854  -4.179  1.00 20.00     0.122 C 
HETATM    3  C2  UNL     1     -37.656  16.249  -4.432  1.00 20.00     0.034 C 
HETATM    4  C1  UNL     1     -39.060  16.124  -3.896  1.00 20.00     0.029 C 
HETATM    5  C5  UNL     1     -39.433  14.719  -4.320  1.00 20.00     0.168 C 
HETATM    6  O10 UNL     1     -38.220  13.954  -4.348  1.00 20.00    -0.386 OA
ENDBRANCH   1   2
BRANCH   1   7
HETATM    7  C7  UNL     1     -34.712  15.183  -4.797  1.00 20.00    -0.025 A 
HETATM    8  C3  UNL     1     -34.305  15.289  -3.346  1.00 20.00     0.011 A 
HETATM    9  C4  UNL     1     -33.554  14.370  -4.265  1.00 20.00     0.011 A 
BRANCH   7  10
HETATM   10  C9  UNL     1     -34.401  16.342  -5.703  1.00 20.00     0.124 C 
HETATM   11 CL11 UNL     1     -34.409  17.874  -4.797  1.00 20.00    -0.130 Cl
ENDBRANCH   7  10
ENDBRANCH   1   7
TORSDOF 3
ENDMDL
MODEL 6
REMARK VINA RESULT:      -3.6      1.838      2.617
REMARK  3 active torsions:
REMARK  status: ('A' for Active; 'I' for Inactive)
REMARK    1  A    between atoms: C6_6  and  C8_8 
REMARK    2  A    between atoms: C7_7  and  C8_8 
REMARK    3  A    between atoms: C7_7  and  C9_9 
ROOT
HETATM    1  C8  UNL     1     -35.331  16.004  -3.727  1.00 20.00     0.042 C 
ENDROOT
BRANCH   1   2
HETATM    2  C6  UNL     1     -34.253  16.180  -2.675  1.00 20.00     0.122 C 
HETATM    3  C2  UNL     1     -33.166  17.161  -3.081  1.00 20.00     0.034 C 
HETATM    4  C1  UNL     1     -32.666  17.627  -1.736  1.00 20.00     0.029 C 
HETATM    5  C5  UNL     1     -33.948  17.698  -0.933  1.00 20.00     0.168 C 
HETATM    6  O10 UNL     1     -34.832  16.702  -1.467  1.00 20.00    -0.386 OA
ENDBRANCH   1   2
BRANCH   1   7
HETATM    7  C7  UNL     1     -35.088  14.802  -4.586  1.00 20.00    -0.025 A 
HETATM    8  C3  UNL     1     -34.846  13.479  -3.900  1.00 20.00     0.011 A 
HETATM    9  C4  UNL     1     -36.145  13.723  -4.610  1.00 20.00     0.011 A 
BRANCH   7  10
HETATM   10  C9  UNL     1     -34.338  15.083  -5.859  1.00 20.00     0.124 C 
HETATM   11 CL11 UNL     1     -34.617  16.755  -6.403  1.00 20.00    -0.130 Cl
ENDBRANCH   7  10
ENDBRANCH   1   7
TORSDOF 3
ENDMDL
MODEL 7
REMARK VINA RESULT:      -3.6      2.437      4.799
REMARK  3 active torsions:
REMARK  status: ('A' for Active; 'I' for Inactive)
REMARK    1  A    between atoms: C6_6  and  C8_8 
REMARK    2  A    between atoms: C7_7  and  C8_8 
REMARK    3  A    between atoms: C7_7  and  C9_9 
ROOT
HETATM    1  C8  UNL     1     -34.381  15.529  -2.634  1.00 20.00     0.042 C 
ENDROOT
BRANCH   1   2
HETATM    2  C6  UNL     1     -35.210  15.556  -3.904  1.00 20.00     0.122 C 
HETATM    3  C2  UNL     1     -34.406  15.258  -5.159  1.00 20.00     0.034 C 
HETATM    4  C1  UNL     1     -35.472  14.716  -6.077  1.00 20.00     0.029 C 
HETATM    5  C5  UNL     1     -36.329  13.913  -5.121  1.00 20.00     0.168 C 
HETATM    6  O10 UNL     1     -36.235  14.550  -3.839  1.00 20.00    -0.386 OA
ENDBRANCH   1   2
BRANCH   1   7
HETATM    7  C7  UNL     1     -34.324  16.870  -1.972  1.00 20.00    -0.025 A 
HETATM    8  C3  UNL     1     -35.576  17.715  -1.974  1.00 20.00     0.011 A 
HETATM    9  C4  UNL     1     -35.117  17.067  -0.701  1.00 20.00     0.011 A 
BRANCH   7  10
HETATM   10  C9  UNL     1     -32.999  17.572  -2.092  1.00 20.00     0.124 C 
HETATM   11 CL11 UNL     1     -32.854  18.385  -3.669  1.00 20.00    -0.130 Cl
ENDBRANCH   7  10
ENDBRANCH   1   7
TORSDOF 3
ENDMDL
MODEL 8
REMARK VINA RESULT:      -3.5      2.249      4.448
REMARK  3 active torsions:
REMARK  status: ('A' for Active; 'I' for Inactive)
REMARK    1  A    between atoms: C6_6  and  C8_8 
REMARK    2  A    between atoms: C7_7  and  C8_8 
REMARK    3  A    between atoms: C7_7  and  C9_9 
ROOT
HETATM    1  C8  UNL     1     -33.749  15.867  -3.095  1.00 20.00     0.042 C 
ENDROOT
BRANCH   1   2
HETATM    2  C6  UNL     1     -34.919  15.657  -4.037  1.00 20.00     0.122 C 
HETATM    3  C2  UNL     1     -34.502  15.243  -5.438  1.00 20.00     0.034 C 
HETATM    4  C1  UNL     1     -35.729  14.504  -5.910  1.00 20.00     0.029 C 
HETATM    5  C5  UNL     1     -36.165  13.786  -4.650  1.00 20.00     0.168 C 
HETATM    6  O10 UNL     1     -35.760  14.602  -3.541  1.00 20.00    -0.386 OA
ENDBRANCH   1   2
BRANCH   1   7
HETATM    7  C7  UNL     1     -33.752  17.237  -2.491  1.00 20.00    -0.025 A 
HETATM    8  C3  UNL     1     -32.512  17.689  -1.756  1.00 20.00     0.011 A 
HETATM    9  C4  UNL     1     -32.843  18.280  -3.096  1.00 20.00     0.011 A 
BRANCH   7  10
HETATM   10  C9  UNL     1     -35.087  17.685  -1.963  1.00 20.00     0.124 C 
HETATM   11 CL11 UNL     1     -35.421  16.950  -0.377  1.00 20.00    -0.130 Cl
ENDBRANCH   7  10
ENDBRANCH   1   7
TORSDOF 3
ENDMDL
MODEL 9
REMARK VINA RESULT:      -3.5      2.501      3.895
REMARK  3 active torsions:
REMARK  status: ('A' for Active; 'I' for Inactive)
REMARK    1  A    between atoms: C6_6  and  C8_8 
REMARK    2  A    between atoms: C7_7  and  C8_8 
REMARK    3  A    between atoms: C7_7  and  C9_9 
ROOT
HETATM    1  C8  UNL     1     -35.291  15.517  -2.924  1.00 20.00     0.042 C 
ENDROOT
BRANCH   1   2
HETATM    2  C6  UNL     1     -36.405  15.847  -3.897  1.00 20.00     0.122 C 
HETATM    3  C2  UNL     1     -37.308  14.665  -4.209  1.00 20.00     0.034 C 
HETATM    4  C1  UNL     1     -38.589  15.360  -4.597  1.00 20.00     0.029 C 
HETATM    5  C5  UNL     1     -38.619  16.523  -3.628  1.00 20.00     0.168 C 
HETATM    6  O10 UNL     1     -37.256  16.863  -3.339  1.00 20.00    -0.386 OA
ENDBRANCH   1   2
BRANCH   1   7
HETATM    7  C7  UNL     1     -33.940  15.834  -3.487  1.00 20.00    -0.025 A 
HETATM    8  C3  UNL     1     -33.671  17.253  -3.926  1.00 20.00     0.011 A 
HETATM    9  C4  UNL     1     -33.026  16.725  -2.678  1.00 20.00     0.011 A 
BRANCH   7  10
HETATM   10  C9  UNL     1     -33.316  14.720  -4.281  1.00 20.00     0.124 C 
HETATM   11 CL11 UNL     1     -33.733  14.861  -6.006  1.00 20.00    -0.130 Cl
ENDBRANCH   7  10
ENDBRANCH   1   7
TORSDOF 3
ENDMDL
