MODEL 1
REMARK VINA RESULT:      -5.1      0.000      0.000
REMARK  5 active torsions:
REMARK  status: ('A' for Active; 'I' for Inactive)
REMARK    1  A    between atoms: C2_2  and  C4_4 
REMARK    2  A    between atoms: C2_2  and  C5_5 
REMARK    3  A    between atoms: C5_5  and  C6_6 
REMARK    4  A    between atoms: C6_6  and  C7_7 
REMARK    5  A    between atoms: C7_7  and  C8_8 
ROOT
HETATM    1  C5  UNL     1     -33.234   5.727   2.663  1.00 20.00     0.033 C 
ENDROOT
BRANCH   1   2
HETATM    2  C2  UNL     1     -32.468   7.010   2.428  1.00 20.00    -0.090 C 
HETATM    3  C1  UNL     1     -31.845   7.633   3.443  1.00 20.00     0.014 C 
BRANCH   2   4
HETATM    4  C4  UNL     1     -32.420   7.577   1.028  1.00 20.00     0.029 C 
HETATM    5  C3  UNL     1     -32.957   8.998   0.941  1.00 20.00     0.010 C 
ENDBRANCH   2   4
ENDBRANCH   1   2
BRANCH   1   6
HETATM    6  C6  UNL     1     -34.474   5.925   3.540  1.00 20.00     0.005 C 
BRANCH   6   7
HETATM    7  C7  UNL     1     -34.717   4.710   4.439  1.00 20.00     0.015 C 
BRANCH   7   8
HETATM    8  C8  UNL     1     -34.743   5.111   5.907  1.00 20.00     0.114 C 
HETATM    9 CL9  UNL     1     -34.066   6.743   6.117  1.00 20.00    -0.130 Cl
ENDBRANCH   7   8
ENDBRANCH   6   7
ENDBRANCH   1   6
TORSDOF 5
ENDMDL
MODEL 2
REMARK VINA RESULT:      -4.7      2.402      4.753
REMARK  5 active torsions:
REMARK  status: ('A' for Active; 'I' for Inactive)
REMARK    1  A    between atoms: C2_2  and  C4_4 
REMARK    2  A    between atoms: C2_2  and  C5_5 
REMARK    3  A    between atoms: C5_5  and  C6_6 
REMARK    4  A    between atoms: C6_6  and  C7_7 
REMARK    5  A    between atoms: C7_7  and  C8_8 
ROOT
HETATM    1  C5  UNL     1     -33.624   6.855   3.590  1.00 20.00     0.033 C 
ENDROOT
BRANCH   1   2
HETATM    2  C2  UNL     1     -33.952   5.380   3.536  1.00 20.00    -0.090 C 
HETATM    3  C1  UNL     1     -33.401   4.587   2.602  1.00 20.00     0.014 C 
BRANCH   2   4
HETATM    4  C4  UNL     1     -34.916   4.816   4.555  1.00 20.00     0.029 C 
HETATM    5  C3  UNL     1     -34.731   5.412   5.944  1.00 20.00     0.010 C 
ENDBRANCH   2   4
ENDBRANCH   1   2
BRANCH   1   6
HETATM    6  C6  UNL     1     -32.229   7.176   3.044  1.00 20.00     0.005 C 
BRANCH   6   7
HETATM    7  C7  UNL     1     -32.266   7.410   1.532  1.00 20.00     0.015 C 
BRANCH   7   8
HETATM    8  C8  UNL     1     -32.843   8.780   1.203  1.00 20.00     0.114 C 
HETATM    9 CL9  UNL     1     -33.533   8.785  -0.436  1.00 20.00    -0.130 Cl
ENDBRANCH   7   8
ENDBRANCH   6   7
ENDBRANCH   1   6
TORSDOF 5
ENDMDL
MODEL 3
REMARK VINA RESULT:      -4.5      2.220      4.701
REMARK  5 active torsions:
REMARK  status: ('A' for Active; 'I' for Inactive)
REMARK    1  A    between atoms: C2_2  and  C4_4 
REMARK    2  A    between atoms: C2_2  and  C5_5 
REMARK    3  A    between atoms: C5_5  and  C6_6 
REMARK    4  A    between atoms: C6_6  and  C7_7 
REMARK    5  A    between atoms: C7_7  and  C8_8 
ROOT
HETATM    1  C5  UNL     1     -34.155   6.347   3.472  1.00 20.00     0.033 C 
ENDROOT
BRANCH   1   2
HETATM    2  C2  UNL     1     -34.389   5.223   4.457  1.00 20.00    -0.090 C 
HETATM    3  C1  UNL     1     -34.347   3.941   4.057  1.00 20.00     0.014 C 
BRANCH   2   4
HETATM    4  C4  UNL     1     -34.673   5.574   5.900  1.00 20.00     0.029 C 
HETATM    5  C3  UNL     1     -34.076   6.910   6.317  1.00 20.00     0.010 C 
ENDBRANCH   2   4
ENDBRANCH   1   2
BRANCH   1   6
HETATM    6  C6  UNL     1     -32.910   6.133   2.606  1.00 20.00     0.005 C 
BRANCH   6   7
HETATM    7  C7  UNL     1     -32.218   7.462   2.294  1.00 20.00     0.015 C 
BRANCH   7   8
HETATM    8  C8  UNL     1     -32.442   7.868   0.843  1.00 20.00     0.114 C 
HETATM    9 CL9  UNL     1     -32.952   9.569   0.747  1.00 20.00    -0.130 Cl
ENDBRANCH   7   8
ENDBRANCH   6   7
ENDBRANCH   1   6
TORSDOF 5
ENDMDL
MODEL 4
REMARK VINA RESULT:      -4.4      2.521      4.696
REMARK  5 active torsions:
REMARK  status: ('A' for Active; 'I' for Inactive)
REMARK    1  A    between atoms: C2_2  and  C4_4 
REMARK    2  A    between atoms: C2_2  and  C5_5 
REMARK    3  A    between atoms: C5_5  and  C6_6 
REMARK    4  A    between atoms: C6_6  and  C7_7 
REMARK    5  A    between atoms: C7_7  and  C8_8 
ROOT
HETATM    1  C5  UNL     1     -33.942   6.850   3.533  1.00 20.00     0.033 C 
ENDROOT
BRANCH   1   2
HETATM    2  C2  UNL     1     -34.130   6.312   4.934  1.00 20.00    -0.090 C 
HETATM    3  C1  UNL     1     -33.767   7.041   6.003  1.00 20.00     0.014 C 
BRANCH   2   4
HETATM    4  C4  UNL     1     -34.735   4.937   5.105  1.00 20.00     0.029 C 
HETATM    5  C3  UNL     1     -34.306   3.959   4.021  1.00 20.00     0.010 C 
ENDBRANCH   2   4
ENDBRANCH   1   2
BRANCH   1   6
HETATM    6  C6  UNL     1     -32.469   7.069   3.170  1.00 20.00     0.005 C 
BRANCH   6   7
HETATM    7  C7  UNL     1     -32.298   7.308   1.669  1.00 20.00     0.015 C 
BRANCH   7   8
HETATM    8  C8  UNL     1     -32.819   8.682   1.270  1.00 20.00     0.114 C 
HETATM    9 CL9  UNL     1     -33.440   8.652  -0.397  1.00 20.00    -0.130 Cl
ENDBRANCH   7   8
ENDBRANCH   6   7
ENDBRANCH   1   6
TORSDOF 5
ENDMDL
MODEL 5
REMARK VINA RESULT:      -4.1      0.691      1.760
REMARK  5 active torsions:
REMARK  status: ('A' for Active; 'I' for Inactive)
REMARK    1  A    between atoms: C2_2  and  C4_4 
REMARK    2  A    between atoms: C2_2  and  C5_5 
REMARK    3  A    between atoms: C5_5  and  C6_6 
REMARK    4  A    between atoms: C6_6  and  C7_7 
REMARK    5  A    between atoms: C7_7  and  C8_8 
ROOT
HETATM    1  C5  UNL     1     -34.490   5.874   3.593  1.00 20.00     0.033 C 
ENDROOT
BRANCH   1   2
HETATM    2  C2  UNL     1     -33.243   5.797   2.741  1.00 20.00    -0.090 C 
HETATM    3  C1  UNL     1     -32.933   4.669   2.079  1.00 20.00     0.014 C 
BRANCH   2   4
HETATM    4  C4  UNL     1     -32.352   7.014   2.654  1.00 20.00     0.029 C 
HETATM    5  C3  UNL     1     -32.645   7.881   1.438  1.00 20.00     0.010 C 
ENDBRANCH   2   4
ENDBRANCH   1   2
BRANCH   1   6
HETATM    6  C6  UNL     1     -34.764   4.581   4.369  1.00 20.00     0.005 C 
BRANCH   6   7
HETATM    7  C7  UNL     1     -34.544   4.779   5.871  1.00 20.00     0.015 C 
BRANCH   7   8
HETATM    8  C8  UNL     1     -34.786   6.228   6.273  1.00 20.00     0.114 C 
HETATM    9 CL9  UNL     1     -33.277   7.163   6.164  1.00 20.00    -0.130 Cl
ENDBRANCH   7   8
ENDBRANCH   6   7
ENDBRANCH   1   6
TORSDOF 5
ENDMDL
MODEL 6
REMARK VINA RESULT:      -3.9      1.029      2.093
REMARK  5 active torsions:
REMARK  status: ('A' for Active; 'I' for Inactive)
REMARK    1  A    between atoms: C2_2  and  C4_4 
REMARK    2  A    between atoms: C2_2  and  C5_5 
REMARK    3  A    between atoms: C5_5  and  C6_6 
REMARK    4  A    between atoms: C6_6  and  C7_7 
REMARK    5  A    between atoms: C7_7  and  C8_8 
ROOT
HETATM    1  C5  UNL     1     -33.738   6.143   2.292  1.00 20.00     0.033 C 
ENDROOT
BRANCH   1   2
HETATM    2  C2  UNL     1     -32.662   7.206   2.277  1.00 20.00    -0.090 C 
HETATM    3  C1  UNL     1     -32.472   7.974   1.191  1.00 20.00     0.014 C 
BRANCH   2   4
HETATM    4  C4  UNL     1     -31.805   7.384   3.509  1.00 20.00     0.029 C 
HETATM    5  C3  UNL     1     -32.612   7.728   4.753  1.00 20.00     0.010 C 
ENDBRANCH   2   4
ENDBRANCH   1   2
BRANCH   1   6
HETATM    6  C6  UNL     1     -33.202   4.756   2.662  1.00 20.00     0.005 C 
BRANCH   6   7
HETATM    7  C7  UNL     1     -34.051   4.108   3.758  1.00 20.00     0.015 C 
BRANCH   7   8
HETATM    8  C8  UNL     1     -35.064   5.095   4.321  1.00 20.00     0.114 C 
HETATM    9 CL9  UNL     1     -34.836   5.286   6.075  1.00 20.00    -0.130 Cl
ENDBRANCH   7   8
ENDBRANCH   6   7
ENDBRANCH   1   6
TORSDOF 5
ENDMDL
MODEL 7
REMARK VINA RESULT:      -3.8      1.402      2.456
REMARK  5 active torsions:
REMARK  status: ('A' for Active; 'I' for Inactive)
REMARK    1  A    between atoms: C2_2  and  C4_4 
REMARK    2  A    between atoms: C2_2  and  C5_5 
REMARK    3  A    between atoms: C5_5  and  C6_6 
REMARK    4  A    between atoms: C6_6  and  C7_7 
REMARK    5  A    between atoms: C7_7  and  C8_8 
ROOT
HETATM    1  C5  UNL     1     -32.548   7.052   3.816  1.00 20.00     0.033 C 
ENDROOT
BRANCH   1   2
HETATM    2  C2  UNL     1     -32.753   6.910   2.324  1.00 20.00    -0.090 C 
HETATM    3  C1  UNL     1     -32.413   7.904   1.487  1.00 20.00     0.014 C 
BRANCH   2   4
HETATM    4  C4  UNL     1     -33.352   5.627   1.797  1.00 20.00     0.029 C 
HETATM    5  C3  UNL     1     -32.977   4.408   2.627  1.00 20.00     0.010 C 
ENDBRANCH   2   4
ENDBRANCH   1   2
BRANCH   1   6
HETATM    6  C6  UNL     1     -33.861   7.225   4.586  1.00 20.00     0.005 C 
BRANCH   6   7
HETATM    7  C7  UNL     1     -33.800   6.530   5.948  1.00 20.00     0.015 C 
BRANCH   7   8
HETATM    8  C8  UNL     1     -34.741   5.334   5.995  1.00 20.00     0.114 C 
HETATM    9 CL9  UNL     1     -35.656   5.204   4.475  1.00 20.00    -0.130 Cl
ENDBRANCH   7   8
ENDBRANCH   6   7
ENDBRANCH   1   6
TORSDOF 5
ENDMDL
MODEL 8
REMARK VINA RESULT:      -3.8     11.268     11.949
REMARK  5 active torsions:
REMARK  status: ('A' for Active; 'I' for Inactive)
REMARK    1  A    between atoms: C2_2  and  C4_4 
REMARK    2  A    between atoms: C2_2  and  C5_5 
REMARK    3  A    between atoms: C5_5  and  C6_6 
REMARK    4  A    between atoms: C6_6  and  C7_7 
REMARK    5  A    between atoms: C7_7  and  C8_8 
ROOT
HETATM    1  C5  UNL     1     -33.030  15.751  -3.627  1.00 20.00     0.033 C 
ENDROOT
BRANCH   1   2
HETATM    2  C2  UNL     1     -33.592  16.550  -2.472  1.00 20.00    -0.090 C 
HETATM    3  C1  UNL     1     -32.885  17.551  -1.921  1.00 20.00     0.014 C 
BRANCH   2   4
HETATM    4  C4  UNL     1     -34.967  16.198  -1.951  1.00 20.00     0.029 C 
HETATM    5  C3  UNL     1     -35.327  16.940  -0.672  1.00 20.00     0.010 C 
ENDBRANCH   2   4
ENDBRANCH   1   2
BRANCH   1   6
HETATM    6  C6  UNL     1     -33.997  14.678  -4.137  1.00 20.00     0.005 C 
BRANCH   6   7
HETATM    7  C7  UNL     1     -34.297  14.865  -5.626  1.00 20.00     0.015 C 
BRANCH   7   8
HETATM    8  C8  UNL     1     -35.753  14.544  -5.936  1.00 20.00     0.114 C 
HETATM    9 CL9  UNL     1     -36.528  13.766  -4.537  1.00 20.00    -0.130 Cl
ENDBRANCH   7   8
ENDBRANCH   6   7
ENDBRANCH   1   6
TORSDOF 5
ENDMDL
MODEL 9
REMARK VINA RESULT:      -3.7     11.222     12.007
REMARK  5 active torsions:
REMARK  status: ('A' for Active; 'I' for Inactive)
REMARK    1  A    between atoms: C2_2  and  C4_4 
REMARK    2  A    between atoms: C2_2  and  C5_5 
REMARK    3  A    between atoms: C5_5  and  C6_6 
REMARK    4  A    between atoms: C6_6  and  C7_7 
REMARK    5  A    between atoms: C7_7  and  C8_8 
ROOT
HETATM    1  C5  UNL     1     -33.029  15.711  -3.587  1.00 20.00     0.033 C 
ENDROOT
BRANCH   1   2
HETATM    2  C2  UNL     1     -33.813  16.390  -2.486  1.00 20.00    -0.090 C 
HETATM    3  C1  UNL     1     -35.046  15.965  -2.159  1.00 20.00     0.014 C 
BRANCH   2   4
HETATM    4  C4  UNL     1     -33.182  17.557  -1.762  1.00 20.00     0.029 C 
HETATM    5  C3  UNL     1     -33.956  17.980  -0.522  1.00 20.00     0.010 C 
ENDBRANCH   2   4
ENDBRANCH   1   2
BRANCH   1   6
HETATM    6  C6  UNL     1     -33.809  14.582  -4.266  1.00 20.00     0.005 C 
BRANCH   6   7
HETATM    7  C7  UNL     1     -34.241  14.979  -5.680  1.00 20.00     0.015 C 
BRANCH   7   8
HETATM    8  C8  UNL     1     -35.681  14.566  -5.949  1.00 20.00     0.114 C 
HETATM    9 CL9  UNL     1     -36.297  13.559  -4.618  1.00 20.00    -0.130 Cl
ENDBRANCH   7   8
ENDBRANCH   6   7
ENDBRANCH   1   6
TORSDOF 5
ENDMDL
