MODEL 1
REMARK VINA RESULT:      -4.6      0.000      0.000
REMARK  1 active torsions:
REMARK  status: ('A' for Active; 'I' for Inactive)
REMARK    1  A    between atoms: C7_7  and  C9_9 
ROOT
HETATM    1  C1  UNL     1     -43.381   8.534   0.291  1.00 20.00     0.005 C 
HETATM    2  C2  UNL     1     -43.417   7.220   1.085  1.00 20.00     0.006 C 
HETATM    3  C3  UNL     1     -41.162   7.780   0.707  1.00 20.00     0.010 C 
HETATM    4  C4  UNL     1     -41.977   7.500  -1.518  1.00 20.00     0.015 C 
HETATM    5  C5  UNL     1     -41.983   8.510  -0.352  1.00 20.00    -0.013 C 
HETATM    6  C6  UNL     1     -42.082   6.552   0.703  1.00 20.00    -0.005 C 
HETATM    7  C7  UNL     1     -42.061   6.125  -0.800  1.00 20.00    -0.028 C 
HETATM    8  C8  UNL     1     -40.818   5.268  -1.105  1.00 20.00     0.016 C 
ENDROOT
BRANCH   7   9
HETATM    9  C9  UNL     1     -43.296   5.331  -1.242  1.00 20.00     0.124 C 
HETATM   10 CL10 UNL     1     -42.808   3.987  -2.286  1.00 20.00    -0.130 Cl
ENDBRANCH   7   9
TORSDOF 1
ENDMDL
MODEL 2
REMARK VINA RESULT:      -4.4     11.452     12.559
REMARK  1 active torsions:
REMARK  status: ('A' for Active; 'I' for Inactive)
REMARK    1  A    between atoms: C7_7  and  C9_9 
ROOT
HETATM    1  C1  UNL     1     -33.546  17.283  -3.766  1.00 20.00     0.005 C 
HETATM    2  C2  UNL     1     -35.046  17.440  -4.059  1.00 20.00     0.006 C 
HETATM    3  C3  UNL     1     -34.798  15.794  -2.394  1.00 20.00     0.010 C 
HETATM    4  C4  UNL     1     -33.629  14.815  -4.229  1.00 20.00     0.015 C 
HETATM    5  C5  UNL     1     -33.464  15.884  -3.129  1.00 20.00    -0.013 C 
HETATM    6  C6  UNL     1     -35.618  16.065  -3.663  1.00 20.00    -0.005 C 
HETATM    7  C7  UNL     1     -35.126  14.937  -4.625  1.00 20.00    -0.028 C 
HETATM    8  C8  UNL     1     -35.877  13.621  -4.351  1.00 20.00     0.016 C 
ENDROOT
BRANCH   7   9
HETATM    9  C9  UNL     1     -35.292  15.268  -6.114  1.00 20.00     0.124 C 
HETATM   10 CL10 UNL     1     -33.775  14.962  -6.973  1.00 20.00    -0.130 Cl
ENDBRANCH   7   9
TORSDOF 1
ENDMDL
MODEL 3
REMARK VINA RESULT:      -4.1     11.776     13.052
REMARK  1 active torsions:
REMARK  status: ('A' for Active; 'I' for Inactive)
REMARK    1  A    between atoms: C7_7  and  C9_9 
ROOT
HETATM    1  C1  UNL     1     -34.080  15.151  -5.792  1.00 20.00     0.005 C 
HETATM    2  C2  UNL     1     -33.301  14.489  -4.646  1.00 20.00     0.006 C 
HETATM    3  C3  UNL     1     -35.592  14.406  -4.110  1.00 20.00     0.010 C 
HETATM    4  C4  UNL     1     -35.198  16.757  -4.216  1.00 20.00     0.015 C 
HETATM    5  C5  UNL     1     -35.416  15.531  -5.126  1.00 20.00    -0.013 C 
HETATM    6  C6  UNL     1     -34.239  14.680  -3.438  1.00 20.00    -0.005 C 
HETATM    7  C7  UNL     1     -34.364  16.184  -3.037  1.00 20.00    -0.028 C 
HETATM    8  C8  UNL     1     -35.122  16.332  -1.705  1.00 20.00     0.016 C 
ENDROOT
BRANCH   7   9
HETATM    9  C9  UNL     1     -33.019  16.908  -2.893  1.00 20.00     0.124 C 
HETATM   10 CL10 UNL     1     -32.970  17.790  -1.360  1.00 20.00    -0.130 Cl
ENDBRANCH   7   9
TORSDOF 1
ENDMDL
MODEL 4
REMARK VINA RESULT:      -4.1     11.170     12.459
REMARK  1 active torsions:
REMARK  status: ('A' for Active; 'I' for Inactive)
REMARK    1  A    between atoms: C7_7  and  C9_9 
ROOT
HETATM    1  C1  UNL     1     -34.123  15.037  -5.769  1.00 20.00     0.005 C 
HETATM    2  C2  UNL     1     -34.392  16.530  -5.529  1.00 20.00     0.006 C 
HETATM    3  C3  UNL     1     -32.977  15.760  -3.812  1.00 20.00     0.010 C 
HETATM    4  C4  UNL     1     -34.932  14.435  -3.468  1.00 20.00     0.015 C 
HETATM    5  C5  UNL     1     -33.691  14.536  -4.379  1.00 20.00    -0.013 C 
HETATM    6  C6  UNL     1     -34.196  16.673  -4.007  1.00 20.00    -0.005 C 
HETATM    7  C7  UNL     1     -35.308  15.920  -3.209  1.00 20.00    -0.028 C 
HETATM    8  C8  UNL     1     -35.224  16.256  -1.709  1.00 20.00     0.016 C 
ENDROOT
BRANCH   7   9
HETATM    9  C9  UNL     1     -36.735  16.231  -3.679  1.00 20.00     0.124 C 
HETATM   10 CL10 UNL     1     -37.529  14.746  -4.223  1.00 20.00    -0.130 Cl
ENDBRANCH   7   9
TORSDOF 1
ENDMDL
MODEL 5
REMARK VINA RESULT:      -4.1     11.362     12.394
REMARK  1 active torsions:
REMARK  status: ('A' for Active; 'I' for Inactive)
REMARK    1  A    between atoms: C7_7  and  C9_9 
ROOT
HETATM    1  C1  UNL     1     -35.765  17.321  -2.971  1.00 20.00     0.005 C 
HETATM    2  C2  UNL     1     -35.173  16.316  -1.972  1.00 20.00     0.006 C 
HETATM    3  C3  UNL     1     -33.397  17.255  -3.201  1.00 20.00     0.010 C 
HETATM    4  C4  UNL     1     -34.659  16.173  -4.913  1.00 20.00     0.015 C 
HETATM    5  C5  UNL     1     -34.660  17.442  -4.036  1.00 20.00    -0.013 C 
HETATM    6  C6  UNL     1     -33.855  15.897  -2.650  1.00 20.00    -0.005 C 
HETATM    7  C7  UNL     1     -34.112  15.078  -3.956  1.00 20.00    -0.028 C 
HETATM    8  C8  UNL     1     -32.798  14.483  -4.495  1.00 20.00     0.016 C 
ENDROOT
BRANCH   7   9
HETATM    9  C9  UNL     1     -35.111  13.927  -3.785  1.00 20.00     0.124 C 
HETATM   10 CL10 UNL     1     -36.478  14.145  -4.888  1.00 20.00    -0.130 Cl
ENDBRANCH   7   9
TORSDOF 1
ENDMDL
MODEL 6
REMARK VINA RESULT:      -4.1      2.264      3.657
REMARK  1 active torsions:
REMARK  status: ('A' for Active; 'I' for Inactive)
REMARK    1  A    between atoms: C7_7  and  C9_9 
ROOT
HETATM    1  C1  UNL     1     -41.642   4.957  -1.628  1.00 20.00     0.005 C 
HETATM    2  C2  UNL     1     -40.855   5.471  -0.414  1.00 20.00     0.006 C 
HETATM    3  C3  UNL     1     -43.093   5.158   0.248  1.00 20.00     0.010 C 
HETATM    4  C4  UNL     1     -43.311   6.826  -1.444  1.00 20.00     0.015 C 
HETATM    5  C5  UNL     1     -43.098   5.308  -1.271  1.00 20.00    -0.013 C 
HETATM    6  C6  UNL     1     -41.943   6.158   0.433  1.00 20.00    -0.005 C 
HETATM    7  C7  UNL     1     -42.499   7.437  -0.270  1.00 20.00    -0.028 C 
HETATM    8  C8  UNL     1     -43.417   8.227   0.682  1.00 20.00     0.016 C 
ENDROOT
BRANCH   7   9
HETATM    9  C9  UNL     1     -41.413   8.397  -0.773  1.00 20.00     0.124 C 
HETATM   10 CL10 UNL     1     -41.227   9.745   0.358  1.00 20.00    -0.130 Cl
ENDBRANCH   7   9
TORSDOF 1
ENDMDL
MODEL 7
REMARK VINA RESULT:      -4.1     11.725     12.992
REMARK  1 active torsions:
REMARK  status: ('A' for Active; 'I' for Inactive)
REMARK    1  A    between atoms: C7_7  and  C9_9 
ROOT
HETATM    1  C1  UNL     1     -34.782  14.090  -3.846  1.00 20.00     0.005 C 
HETATM    2  C2  UNL     1     -33.438  14.656  -4.326  1.00 20.00     0.006 C 
HETATM    3  C3  UNL     1     -34.169  15.961  -2.508  1.00 20.00     0.010 C 
HETATM    4  C4  UNL     1     -35.909  16.321  -4.101  1.00 20.00     0.015 C 
HETATM    5  C5  UNL     1     -35.404  15.275  -3.086  1.00 20.00    -0.013 C 
HETATM    6  C6  UNL     1     -33.509  16.130  -3.884  1.00 20.00    -0.005 C 
HETATM    7  C7  UNL     1     -34.597  16.919  -4.680  1.00 20.00    -0.028 C 
HETATM    8  C8  UNL     1     -34.502  18.428  -4.385  1.00 20.00     0.016 C 
ENDROOT
BRANCH   7   9
HETATM    9  C9  UNL     1     -34.516  16.735  -6.201  1.00 20.00     0.124 C 
HETATM   10 CL10 UNL     1     -35.953  15.884  -6.784  1.00 20.00    -0.130 Cl
ENDBRANCH   7   9
TORSDOF 1
ENDMDL
MODEL 8
REMARK VINA RESULT:      -4.1     11.824     12.784
REMARK  1 active torsions:
REMARK  status: ('A' for Active; 'I' for Inactive)
REMARK    1  A    between atoms: C7_7  and  C9_9 
ROOT
HETATM    1  C1  UNL     1     -33.293  15.974  -3.043  1.00 20.00     0.005 C 
HETATM    2  C2  UNL     1     -34.642  15.998  -2.309  1.00 20.00     0.006 C 
HETATM    3  C3  UNL     1     -34.653  14.170  -3.793  1.00 20.00     0.010 C 
HETATM    4  C4  UNL     1     -34.418  16.013  -5.289  1.00 20.00     0.015 C 
HETATM    5  C5  UNL     1     -33.601  15.149  -4.306  1.00 20.00    -0.013 C 
HETATM    6  C6  UNL     1     -35.583  15.287  -3.301  1.00 20.00    -0.005 C 
HETATM    7  C7  UNL     1     -35.802  16.133  -4.596  1.00 20.00    -0.028 C 
HETATM    8  C8  UNL     1     -36.910  15.515  -5.469  1.00 20.00     0.016 C 
ENDROOT
BRANCH   7   9
HETATM    9  C9  UNL     1     -36.178  17.597  -4.331  1.00 20.00     0.124 C 
HETATM   10 CL10 UNL     1     -34.900  18.665  -4.929  1.00 20.00    -0.130 Cl
ENDBRANCH   7   9
TORSDOF 1
ENDMDL
MODEL 9
REMARK VINA RESULT:      -4.0     11.609     12.524
REMARK  1 active torsions:
REMARK  status: ('A' for Active; 'I' for Inactive)
REMARK    1  A    between atoms: C7_7  and  C9_9 
ROOT
HETATM    1  C1  UNL     1     -34.470  17.387  -2.253  1.00 20.00     0.005 C 
HETATM    2  C2  UNL     1     -35.004  15.953  -2.134  1.00 20.00     0.006 C 
HETATM    3  C3  UNL     1     -33.004  15.883  -3.374  1.00 20.00     0.010 C 
HETATM    4  C4  UNL     1     -34.393  17.241  -4.760  1.00 20.00     0.015 C 
HETATM    5  C5  UNL     1     -33.539  17.309  -3.477  1.00 20.00    -0.013 C 
HETATM    6  C6  UNL     1     -34.407  15.261  -3.375  1.00 20.00    -0.005 C 
HETATM    7  C7  UNL     1     -35.020  15.822  -4.698  1.00 20.00    -0.028 C 
HETATM    8  C8  UNL     1     -34.579  14.973  -5.905  1.00 20.00     0.016 C 
ENDROOT
BRANCH   7   9
HETATM    9  C9  UNL     1     -36.553  15.880  -4.703  1.00 20.00     0.124 C 
HETATM   10 CL10 UNL     1     -37.219  14.268  -4.403  1.00 20.00    -0.130 Cl
ENDBRANCH   7   9
TORSDOF 1
ENDMDL
