MODEL 1
REMARK VINA RESULT:      -4.7      0.000      0.000
REMARK  3 active torsions:
REMARK  status: ('A' for Active; 'I' for Inactive)
REMARK    1  A    between atoms: C2_2  and  C9_9 
REMARK    2  A    between atoms: C2_2  and  C10_10 
REMARK    3  A    between atoms: C6_6  and  C9_9 
ROOT
HETATM    1  C3  UNL     1     -33.041  15.823  -3.529  1.00 20.00     0.006 C 
HETATM    2  C4  UNL     1     -33.697  14.760  -4.415  1.00 20.00     0.020 C 
HETATM    3  C5  UNL     1     -35.382  15.571  -2.935  1.00 20.00     0.025 C 
HETATM    4  C6  UNL     1     -34.063  16.155  -2.430  1.00 20.00    -0.009 C 
HETATM    5  C7  UNL     1     -34.924  14.302  -3.637  1.00 20.00     0.082 C 
HETATM    6 CL11 UNL     1     -36.175  13.623  -4.687  1.00 20.00    -0.125 Cl
ENDROOT
BRANCH   4   7
HETATM    7  C9  UNL     1     -34.150  17.641  -2.122  1.00 20.00     0.038 C 
BRANCH   7   8
HETATM    8  C2  UNL     1     -33.311  18.047  -0.932  1.00 20.00    -0.089 C 
HETATM    9  C1  UNL     1     -33.852  18.129   0.294  1.00 20.00     0.014 C 
BRANCH   8  10
HETATM   10  C10 UNL     1     -31.849  18.358  -1.155  1.00 20.00     0.029 C 
HETATM   11  C8  UNL     1     -31.034  18.339   0.130  1.00 20.00     0.010 C 
ENDBRANCH   8  10
ENDBRANCH   7   8
ENDBRANCH   4   7
TORSDOF 3
ENDMDL
MODEL 2
REMARK VINA RESULT:      -4.6      0.543      1.722
REMARK  3 active torsions:
REMARK  status: ('A' for Active; 'I' for Inactive)
REMARK    1  A    between atoms: C2_2  and  C9_9 
REMARK    2  A    between atoms: C2_2  and  C10_10 
REMARK    3  A    between atoms: C6_6  and  C9_9 
ROOT
HETATM    1  C3  UNL     1     -33.048  15.841  -3.637  1.00 20.00     0.006 C 
HETATM    2  C4  UNL     1     -33.715  14.778  -4.515  1.00 20.00     0.020 C 
HETATM    3  C5  UNL     1     -35.345  15.497  -2.930  1.00 20.00     0.025 C 
HETATM    4  C6  UNL     1     -34.020  16.113  -2.479  1.00 20.00    -0.009 C 
HETATM    5  C7  UNL     1     -34.884  14.261  -3.686  1.00 20.00     0.082 C 
HETATM    6 CL11 UNL     1     -36.166  13.565  -4.686  1.00 20.00    -0.125 Cl
ENDROOT
BRANCH   4   7
HETATM    7  C9  UNL     1     -34.140  17.587  -2.129  1.00 20.00     0.038 C 
BRANCH   7   8
HETATM    8  C2  UNL     1     -33.344  17.968  -0.902  1.00 20.00    -0.089 C 
HETATM    9  C1  UNL     1     -32.023  18.194  -0.981  1.00 20.00     0.014 C 
BRANCH   8  10
HETATM   10  C10 UNL     1     -34.072  18.088   0.418  1.00 20.00     0.029 C 
HETATM   11  C8  UNL     1     -35.392  17.332   0.442  1.00 20.00     0.010 C 
ENDBRANCH   8  10
ENDBRANCH   7   8
ENDBRANCH   4   7
TORSDOF 3
ENDMDL
MODEL 3
REMARK VINA RESULT:      -4.5      2.383      5.179
REMARK  3 active torsions:
REMARK  status: ('A' for Active; 'I' for Inactive)
REMARK    1  A    between atoms: C2_2  and  C9_9 
REMARK    2  A    between atoms: C2_2  and  C10_10 
REMARK    3  A    between atoms: C6_6  and  C9_9 
ROOT
HETATM    1  C3  UNL     1     -32.977  17.165  -2.563  1.00 20.00     0.006 C 
HETATM    2  C4  UNL     1     -33.360  17.700  -1.180  1.00 20.00     0.020 C 
HETATM    3  C5  UNL     1     -35.027  16.111  -1.801  1.00 20.00     0.025 C 
HETATM    4  C6  UNL     1     -34.176  16.337  -3.051  1.00 20.00    -0.009 C 
HETATM    5  C7  UNL     1     -34.853  17.422  -1.052  1.00 20.00     0.082 C 
HETATM    6 CL11 UNL     1     -35.377  17.311   0.633  1.00 20.00    -0.125 Cl
ENDROOT
BRANCH   4   7
HETATM    7  C9  UNL     1     -33.771  15.042  -3.736  1.00 20.00     0.038 C 
BRANCH   7   8
HETATM    8  C2  UNL     1     -34.745  14.614  -4.810  1.00 20.00    -0.089 C 
HETATM    9  C1  UNL     1     -34.599  15.034  -6.077  1.00 20.00     0.014 C 
BRANCH   8  10
HETATM   10  C10 UNL     1     -35.886  13.701  -4.424  1.00 20.00     0.029 C 
HETATM   11  C8  UNL     1     -37.231  14.413  -4.389  1.00 20.00     0.010 C 
ENDBRANCH   8  10
ENDBRANCH   7   8
ENDBRANCH   4   7
TORSDOF 3
ENDMDL
MODEL 4
REMARK VINA RESULT:      -4.5      2.463      5.119
REMARK  3 active torsions:
REMARK  status: ('A' for Active; 'I' for Inactive)
REMARK    1  A    between atoms: C2_2  and  C9_9 
REMARK    2  A    between atoms: C2_2  and  C10_10 
REMARK    3  A    between atoms: C6_6  and  C9_9 
ROOT
HETATM    1  C3  UNL     1     -33.009  16.805  -3.033  1.00 20.00     0.006 C 
HETATM    2  C4  UNL     1     -33.068  17.524  -1.682  1.00 20.00     0.020 C 
HETATM    3  C5  UNL     1     -35.021  16.162  -1.835  1.00 20.00     0.025 C 
HETATM    4  C6  UNL     1     -34.377  16.131  -3.221  1.00 20.00    -0.009 C 
HETATM    5  C7  UNL     1     -34.539  17.497  -1.287  1.00 20.00     0.082 C 
HETATM    6 CL11 UNL     1     -34.772  17.632   0.460  1.00 20.00    -0.125 Cl
ENDROOT
BRANCH   4   7
HETATM    7  C9  UNL     1     -34.280  14.729  -3.800  1.00 20.00     0.038 C 
BRANCH   7   8
HETATM    8  C2  UNL     1     -35.341  14.445  -4.838  1.00 20.00    -0.089 C 
HETATM    9  C1  UNL     1     -36.339  13.583  -4.584  1.00 20.00     0.014 C 
BRANCH   8  10
HETATM   10  C10 UNL     1     -35.253  15.156  -6.170  1.00 20.00     0.029 C 
HETATM   11  C8  UNL     1     -33.883  15.032  -6.820  1.00 20.00     0.010 C 
ENDBRANCH   8  10
ENDBRANCH   7   8
ENDBRANCH   4   7
TORSDOF 3
ENDMDL
MODEL 5
REMARK VINA RESULT:      -4.3      2.880      5.030
REMARK  3 active torsions:
REMARK  status: ('A' for Active; 'I' for Inactive)
REMARK    1  A    between atoms: C2_2  and  C9_9 
REMARK    2  A    between atoms: C2_2  and  C10_10 
REMARK    3  A    between atoms: C6_6  and  C9_9 
ROOT
HETATM    1  C3  UNL     1     -32.802  17.421  -2.190  1.00 20.00     0.006 C 
HETATM    2  C4  UNL     1     -31.984  18.196  -1.153  1.00 20.00     0.020 C 
HETATM    3  C5  UNL     1     -34.164  17.886  -0.235  1.00 20.00     0.025 C 
HETATM    4  C6  UNL     1     -34.257  17.444  -1.695  1.00 20.00    -0.009 C 
HETATM    5  C7  UNL     1     -33.019  18.887  -0.274  1.00 20.00     0.082 C 
HETATM    6 CL11 UNL     1     -32.395  19.261   1.337  1.00 20.00    -0.125 Cl
ENDROOT
BRANCH   4   7
HETATM    7  C9  UNL     1     -34.970  16.113  -1.868  1.00 20.00     0.038 C 
BRANCH   7   8
HETATM    8  C2  UNL     1     -35.135  15.717  -3.318  1.00 20.00    -0.089 C 
HETATM    9  C1  UNL     1     -35.782  16.518  -4.180  1.00 20.00     0.014 C 
BRANCH   8  10
HETATM   10  C10 UNL     1     -34.555  14.398  -3.774  1.00 20.00     0.029 C 
HETATM   11  C8  UNL     1     -33.201  14.546  -4.453  1.00 20.00     0.010 C 
ENDBRANCH   8  10
ENDBRANCH   7   8
ENDBRANCH   4   7
TORSDOF 3
ENDMDL
MODEL 6
REMARK VINA RESULT:      -4.1      1.404      2.270
REMARK  3 active torsions:
REMARK  status: ('A' for Active; 'I' for Inactive)
REMARK    1  A    between atoms: C2_2  and  C9_9 
REMARK    2  A    between atoms: C2_2  and  C10_10 
REMARK    3  A    between atoms: C6_6  and  C9_9 
ROOT
HETATM    1  C3  UNL     1     -34.543  13.952  -3.855  1.00 20.00     0.006 C 
HETATM    2  C4  UNL     1     -35.955  13.864  -4.442  1.00 20.00     0.020 C 
HETATM    3  C5  UNL     1     -35.629  16.121  -3.742  1.00 20.00     0.025 C 
HETATM    4  C6  UNL     1     -34.439  15.334  -3.192  1.00 20.00    -0.009 C 
HETATM    5  C7  UNL     1     -36.703  15.049  -3.845  1.00 20.00     0.082 C 
HETATM    6 CL11 UNL     1     -38.070  15.558  -4.845  1.00 20.00    -0.125 Cl
ENDROOT
BRANCH   4   7
HETATM    7  C9  UNL     1     -33.106  16.020  -3.442  1.00 20.00     0.038 C 
BRANCH   7   8
HETATM    8  C2  UNL     1     -33.074  17.446  -2.942  1.00 20.00    -0.089 C 
HETATM    9  C1  UNL     1     -33.008  18.475  -3.801  1.00 20.00     0.014 C 
BRANCH   8  10
HETATM   10  C10 UNL     1     -33.120  17.686  -1.450  1.00 20.00     0.029 C 
HETATM   11  C8  UNL     1     -31.837  18.300  -0.907  1.00 20.00     0.010 C 
ENDBRANCH   8  10
ENDBRANCH   7   8
ENDBRANCH   4   7
TORSDOF 3
ENDMDL
MODEL 7
REMARK VINA RESULT:      -4.1      2.585      5.193
REMARK  3 active torsions:
REMARK  status: ('A' for Active; 'I' for Inactive)
REMARK    1  A    between atoms: C2_2  and  C9_9 
REMARK    2  A    between atoms: C2_2  and  C10_10 
REMARK    3  A    between atoms: C6_6  and  C9_9 
ROOT
HETATM    1  C3  UNL     1     -35.099  16.671  -1.116  1.00 20.00     0.006 C 
HETATM    2  C4  UNL     1     -34.215  17.815  -0.611  1.00 20.00     0.020 C 
HETATM    3  C5  UNL     1     -33.434  17.237  -2.790  1.00 20.00     0.025 C 
HETATM    4  C6  UNL     1     -34.437  16.151  -2.401  1.00 20.00    -0.009 C 
HETATM    5  C7  UNL     1     -32.937  17.716  -1.434  1.00 20.00     0.082 C 
HETATM    6 CL11 UNL     1     -32.078  19.257  -1.537  1.00 20.00    -0.125 Cl
ENDROOT
BRANCH   4   7
HETATM    7  C9  UNL     1     -35.433  15.840  -3.506  1.00 20.00     0.038 C 
BRANCH   7   8
HETATM    8  C2  UNL     1     -35.055  14.619  -4.314  1.00 20.00    -0.089 C 
HETATM    9  C1  UNL     1     -35.861  13.546  -4.355  1.00 20.00     0.014 C 
BRANCH   8  10
HETATM   10  C10 UNL     1     -33.748  14.635  -5.074  1.00 20.00     0.029 C 
HETATM   11  C8  UNL     1     -33.914  15.031  -6.534  1.00 20.00     0.010 C 
ENDBRANCH   8  10
ENDBRANCH   7   8
ENDBRANCH   4   7
TORSDOF 3
ENDMDL
MODEL 8
REMARK VINA RESULT:      -4.1      1.805      2.789
REMARK  3 active torsions:
REMARK  status: ('A' for Active; 'I' for Inactive)
REMARK    1  A    between atoms: C2_2  and  C9_9 
REMARK    2  A    between atoms: C2_2  and  C10_10 
REMARK    3  A    between atoms: C6_6  and  C9_9 
ROOT
HETATM    1  C3  UNL     1     -33.234  15.930  -3.201  1.00 20.00     0.006 C 
HETATM    2  C4  UNL     1     -33.683  14.966  -4.303  1.00 20.00     0.020 C 
HETATM    3  C5  UNL     1     -35.617  15.507  -3.017  1.00 20.00     0.025 C 
HETATM    4  C6  UNL     1     -34.427  16.074  -2.243  1.00 20.00    -0.009 C 
HETATM    5  C7  UNL     1     -34.983  14.360  -3.789  1.00 20.00     0.082 C 
HETATM    6 CL11 UNL     1     -36.018  13.774  -5.096  1.00 20.00    -0.125 Cl
ENDROOT
BRANCH   4   7
HETATM    7  C9  UNL     1     -34.649  17.502  -1.773  1.00 20.00     0.038 C 
BRANCH   7   8
HETATM    8  C2  UNL     1     -35.678  17.606  -0.671  1.00 20.00    -0.089 C 
HETATM    9  C1  UNL     1     -35.397  17.188   0.574  1.00 20.00     0.014 C 
BRANCH   8  10
HETATM   10  C10 UNL     1     -37.032  18.192  -1.003  1.00 20.00     0.029 C 
HETATM   11  C8  UNL     1     -37.986  18.194   0.182  1.00 20.00     0.010 C 
ENDBRANCH   8  10
ENDBRANCH   7   8
ENDBRANCH   4   7
TORSDOF 3
ENDMDL
MODEL 9
REMARK VINA RESULT:      -4.1      1.380      1.819
REMARK  3 active torsions:
REMARK  status: ('A' for Active; 'I' for Inactive)
REMARK    1  A    between atoms: C2_2  and  C9_9 
REMARK    2  A    between atoms: C2_2  and  C10_10 
REMARK    3  A    between atoms: C6_6  and  C9_9 
ROOT
HETATM    1  C3  UNL     1     -33.071  17.127  -2.790  1.00 20.00     0.006 C 
HETATM    2  C4  UNL     1     -33.538  16.131  -3.855  1.00 20.00     0.020 C 
HETATM    3  C5  UNL     1     -35.163  16.102  -2.109  1.00 20.00     0.025 C 
HETATM    4  C6  UNL     1     -33.987  16.919  -1.574  1.00 20.00    -0.009 C 
HETATM    5  C7  UNL     1     -34.488  15.191  -3.122  1.00 20.00     0.082 C 
HETATM    6 CL11 UNL     1     -35.646  14.418  -4.212  1.00 20.00    -0.125 Cl
ENDROOT
BRANCH   4   7
HETATM    7  C9  UNL     1     -34.417  18.220  -0.917  1.00 20.00     0.038 C 
BRANCH   7   8
HETATM    8  C2  UNL     1     -34.375  18.160   0.592  1.00 20.00    -0.089 C 
HETATM    9  C1  UNL     1     -35.478  17.871   1.300  1.00 20.00     0.014 C 
BRANCH   8  10
HETATM   10  C10 UNL     1     -33.060  18.435   1.287  1.00 20.00     0.029 C 
HETATM   11  C8  UNL     1     -33.008  17.880   2.703  1.00 20.00     0.010 C 
ENDBRANCH   8  10
ENDBRANCH   7   8
ENDBRANCH   4   7
TORSDOF 3
ENDMDL
