MODEL 1
REMARK VINA RESULT:      -4.2      0.000      0.000
REMARK  5 active torsions:
REMARK  status: ('A' for Active; 'I' for Inactive)
REMARK    1  A    between atoms: C4_4  and  C5_5 
REMARK    2  A    between atoms: C4_4  and  C8_8 
REMARK    3  A    between atoms: C5_5  and  O9_9 
REMARK    4  A    between atoms: C6_6  and  C8_8 
REMARK    5  A    between atoms: C7_7  and  C8_8 
ROOT
HETATM    1  C8  UNL     1     -34.118  14.904  -4.219  1.00 20.00     0.005 C 
ENDROOT
BRANCH   1   2
HETATM    2  C4  UNL     1     -35.257  13.902  -3.900  1.00 20.00     0.032 C 
BRANCH   2   3
HETATM    3  C5  UNL     1     -36.292  13.738  -5.009  1.00 20.00     0.167 C 
BRANCH   3   4
HETATM    4  O9  UNL     1     -37.585  13.676  -4.419  1.00 20.00    -0.396 OA
HETATM    5  C3  UNL     1     -38.134  14.972  -4.232  1.00 20.00     0.201 C 
ENDBRANCH   3   4
ENDBRANCH   2   3
ENDBRANCH   1   2
BRANCH   1   6
HETATM    6  C6  UNL     1     -34.398  15.727  -5.494  1.00 20.00     0.119 C 
HETATM    7 CL10 UNL     1     -33.675  15.024  -6.961  1.00 20.00    -0.130 Cl
ENDBRANCH   1   6
BRANCH   1   8
HETATM    8  C7  UNL     1     -33.780  15.793  -2.976  1.00 20.00    -0.017 C 
HETATM    9  C1  UNL     1     -33.142  17.133  -3.375  1.00 20.00     0.010 C 
HETATM   10  C2  UNL     1     -35.014  16.090  -2.114  1.00 20.00     0.010 C 
ENDBRANCH   1   8
TORSDOF 5
ENDMDL
MODEL 2
REMARK VINA RESULT:      -4.1     11.164     12.081
REMARK  5 active torsions:
REMARK  status: ('A' for Active; 'I' for Inactive)
REMARK    1  A    between atoms: C4_4  and  C5_5 
REMARK    2  A    between atoms: C4_4  and  C8_8 
REMARK    3  A    between atoms: C5_5  and  O9_9 
REMARK    4  A    between atoms: C6_6  and  C8_8 
REMARK    5  A    between atoms: C7_7  and  C8_8 
ROOT
HETATM    1  C8  UNL     1     -34.067   6.122   3.682  1.00 20.00     0.005 C 
ENDROOT
BRANCH   1   2
HETATM    2  C4  UNL     1     -32.707   6.785   3.346  1.00 20.00     0.032 C 
BRANCH   2   3
HETATM    3  C5  UNL     1     -32.546   7.210   1.889  1.00 20.00     0.167 C 
BRANCH   3   4
HETATM    4  O9  UNL     1     -32.909   8.579   1.771  1.00 20.00    -0.396 OA
HETATM    5  C3  UNL     1     -32.960   8.989   0.412  1.00 20.00     0.201 C 
ENDBRANCH   3   4
ENDBRANCH   2   3
ENDBRANCH   1   2
BRANCH   1   6
HETATM    6  C6  UNL     1     -34.083   4.614   3.354  1.00 20.00     0.119 C 
HETATM    7 CL10 UNL     1     -32.901   4.151   2.105  1.00 20.00    -0.130 Cl
ENDBRANCH   1   6
BRANCH   1   8
HETATM    8  C7  UNL     1     -34.504   6.434   5.152  1.00 20.00    -0.017 C 
HETATM    9  C1  UNL     1     -34.817   5.159   5.950  1.00 20.00     0.010 C 
HETATM   10  C2  UNL     1     -33.443   7.232   5.922  1.00 20.00     0.010 C 
ENDBRANCH   1   8
TORSDOF 5
ENDMDL
MODEL 3
REMARK VINA RESULT:      -4.0      1.295      1.755
REMARK  5 active torsions:
REMARK  status: ('A' for Active; 'I' for Inactive)
REMARK    1  A    between atoms: C4_4  and  C5_5 
REMARK    2  A    between atoms: C4_4  and  C8_8 
REMARK    3  A    between atoms: C5_5  and  O9_9 
REMARK    4  A    between atoms: C6_6  and  C8_8 
REMARK    5  A    between atoms: C7_7  and  C8_8 
ROOT
HETATM    1  C8  UNL     1     -34.666  15.391  -3.240  1.00 20.00     0.005 C 
ENDROOT
BRANCH   1   2
HETATM    2  C4  UNL     1     -36.171  15.099  -3.466  1.00 20.00     0.032 C 
BRANCH   2   3
HETATM    3  C5  UNL     1     -36.462  13.955  -4.433  1.00 20.00     0.167 C 
BRANCH   3   4
HETATM    4  O9  UNL     1     -37.864  13.714  -4.444  1.00 20.00    -0.396 OA
HETATM    5  C3  UNL     1     -38.598  14.907  -4.206  1.00 20.00     0.201 C 
ENDBRANCH   3   4
ENDBRANCH   2   3
ENDBRANCH   1   2
BRANCH   1   6
HETATM    6  C6  UNL     1     -33.846  15.290  -4.544  1.00 20.00     0.119 C 
HETATM    7 CL10 UNL     1     -32.442  14.203  -4.411  1.00 20.00    -0.130 Cl
ENDBRANCH   1   6
BRANCH   1   8
HETATM    8  C7  UNL     1     -34.457  16.749  -2.488  1.00 20.00    -0.017 C 
HETATM    9  C1  UNL     1     -35.138  16.762  -1.111  1.00 20.00     0.010 C 
HETATM   10  C2  UNL     1     -32.973  17.088  -2.291  1.00 20.00     0.010 C 
ENDBRANCH   1   8
TORSDOF 5
ENDMDL
MODEL 4
REMARK VINA RESULT:      -3.8      1.647      2.149
REMARK  5 active torsions:
REMARK  status: ('A' for Active; 'I' for Inactive)
REMARK    1  A    between atoms: C4_4  and  C5_5 
REMARK    2  A    between atoms: C4_4  and  C8_8 
REMARK    3  A    between atoms: C5_5  and  O9_9 
REMARK    4  A    between atoms: C6_6  and  C8_8 
REMARK    5  A    between atoms: C7_7  and  C8_8 
ROOT
HETATM    1  C8  UNL     1     -34.711  15.419  -2.943  1.00 20.00     0.005 C 
ENDROOT
BRANCH   1   2
HETATM    2  C4  UNL     1     -35.750  15.249  -4.080  1.00 20.00     0.032 C 
BRANCH   2   3
HETATM    3  C5  UNL     1     -36.093  13.801  -4.421  1.00 20.00     0.167 C 
BRANCH   3   4
HETATM    4  O9  UNL     1     -36.076  13.651  -5.835  1.00 20.00    -0.396 OA
HETATM    5  C3  UNL     1     -35.563  14.810  -6.475  1.00 20.00     0.201 C 
ENDBRANCH   3   4
ENDBRANCH   2   3
ENDBRANCH   1   2
BRANCH   1   6
HETATM    6  C6  UNL     1     -33.302  15.750  -3.478  1.00 20.00     0.119 C 
HETATM    7 CL10 UNL     1     -32.568  14.417  -4.403  1.00 20.00    -0.130 Cl
ENDBRANCH   1   6
BRANCH   1   8
HETATM    8  C7  UNL     1     -35.211  16.437  -1.864  1.00 20.00    -0.017 C 
HETATM    9  C1  UNL     1     -34.084  17.349  -1.357  1.00 20.00     0.010 C 
HETATM   10  C2  UNL     1     -36.350  17.326  -2.380  1.00 20.00     0.010 C 
ENDBRANCH   1   8
TORSDOF 5
ENDMDL
MODEL 5
REMARK VINA RESULT:      -3.7      1.309      1.707
REMARK  5 active torsions:
REMARK  status: ('A' for Active; 'I' for Inactive)
REMARK    1  A    between atoms: C4_4  and  C5_5 
REMARK    2  A    between atoms: C4_4  and  C8_8 
REMARK    3  A    between atoms: C5_5  and  O9_9 
REMARK    4  A    between atoms: C6_6  and  C8_8 
REMARK    5  A    between atoms: C7_7  and  C8_8 
ROOT
HETATM    1  C8  UNL     1     -34.499  15.637  -3.690  1.00 20.00     0.005 C 
ENDROOT
BRANCH   1   2
HETATM    2  C4  UNL     1     -35.781  14.814  -3.406  1.00 20.00     0.032 C 
BRANCH   2   3
HETATM    3  C5  UNL     1     -36.124  13.776  -4.471  1.00 20.00     0.167 C 
BRANCH   3   4
HETATM    4  O9  UNL     1     -37.536  13.613  -4.509  1.00 20.00    -0.396 OA
HETATM    5  C3  UNL     1     -38.209  14.830  -4.219  1.00 20.00     0.201 C 
ENDBRANCH   3   4
ENDBRANCH   2   3
ENDBRANCH   1   2
BRANCH   1   6
HETATM    6  C6  UNL     1     -34.411  16.101  -5.159  1.00 20.00     0.119 C 
HETATM    7 CL10 UNL     1     -35.675  17.274  -5.605  1.00 20.00    -0.130 Cl
ENDBRANCH   1   6
BRANCH   1   8
HETATM    8  C7  UNL     1     -34.338  16.810  -2.666  1.00 20.00    -0.017 C 
HETATM    9  C1  UNL     1     -35.113  16.557  -1.363  1.00 20.00     0.010 C 
HETATM   10  C2  UNL     1     -32.871  17.077  -2.305  1.00 20.00     0.010 C 
ENDBRANCH   1   8
TORSDOF 5
ENDMDL
MODEL 6
REMARK VINA RESULT:      -3.6      2.776      3.544
REMARK  5 active torsions:
REMARK  status: ('A' for Active; 'I' for Inactive)
REMARK    1  A    between atoms: C4_4  and  C5_5 
REMARK    2  A    between atoms: C4_4  and  C8_8 
REMARK    3  A    between atoms: C5_5  and  O9_9 
REMARK    4  A    between atoms: C6_6  and  C8_8 
REMARK    5  A    between atoms: C7_7  and  C8_8 
ROOT
HETATM    1  C8  UNL     1     -33.589  16.369  -2.563  1.00 20.00     0.005 C 
ENDROOT
BRANCH   1   2
HETATM    2  C4  UNL     1     -33.399  15.706  -3.951  1.00 20.00     0.032 C 
BRANCH   2   3
HETATM    3  C5  UNL     1     -33.933  14.280  -4.056  1.00 20.00     0.167 C 
BRANCH   3   4
HETATM    4  O9  UNL     1     -34.700  14.169  -5.248  1.00 20.00    -0.396 OA
HETATM    5  C3  UNL     1     -34.240  15.066  -6.249  1.00 20.00     0.201 C 
ENDBRANCH   3   4
ENDBRANCH   2   3
ENDBRANCH   1   2
BRANCH   1   6
HETATM    6  C6  UNL     1     -33.015  17.801  -2.512  1.00 20.00     0.119 C 
HETATM    7 CL10 UNL     1     -31.888  18.061  -1.158  1.00 20.00    -0.130 Cl
ENDBRANCH   1   6
BRANCH   1   8
HETATM    8  C7  UNL     1     -35.081  16.289  -2.095  1.00 20.00    -0.017 C 
HETATM    9  C1  UNL     1     -35.289  16.910  -0.705  1.00 20.00     0.010 C 
HETATM   10  C2  UNL     1     -36.041  16.978  -3.075  1.00 20.00     0.010 C 
ENDBRANCH   1   8
TORSDOF 5
ENDMDL
MODEL 7
REMARK VINA RESULT:      -3.6      1.855      2.644
REMARK  5 active torsions:
REMARK  status: ('A' for Active; 'I' for Inactive)
REMARK    1  A    between atoms: C4_4  and  C5_5 
REMARK    2  A    between atoms: C4_4  and  C8_8 
REMARK    3  A    between atoms: C5_5  and  O9_9 
REMARK    4  A    between atoms: C6_6  and  C8_8 
REMARK    5  A    between atoms: C7_7  and  C8_8 
ROOT
HETATM    1  C8  UNL     1     -34.846  15.681  -3.908  1.00 20.00     0.005 C 
ENDROOT
BRANCH   1   2
HETATM    2  C4  UNL     1     -36.307  15.218  -3.673  1.00 20.00     0.032 C 
BRANCH   2   3
HETATM    3  C5  UNL     1     -36.736  14.011  -4.502  1.00 20.00     0.167 C 
BRANCH   3   4
HETATM    4  O9  UNL     1     -38.133  13.811  -4.326  1.00 20.00    -0.396 OA
HETATM    5  C3  UNL     1     -38.827  15.047  -4.227  1.00 20.00     0.201 C 
ENDBRANCH   3   4
ENDBRANCH   2   3
ENDBRANCH   1   2
BRANCH   1   6
HETATM    6  C6  UNL     1     -34.082  15.911  -2.588  1.00 20.00     0.119 C 
HETATM    7 CL10 UNL     1     -33.030  17.347  -2.623  1.00 20.00    -0.130 Cl
ENDBRANCH   1   6
BRANCH   1   8
HETATM    8  C7  UNL     1     -34.097  14.719  -4.891  1.00 20.00    -0.017 C 
HETATM    9  C1  UNL     1     -33.990  15.302  -6.308  1.00 20.00     0.010 C 
HETATM   10  C2  UNL     1     -32.682  14.374  -4.408  1.00 20.00     0.010 C 
ENDBRANCH   1   8
TORSDOF 5
ENDMDL
MODEL 8
REMARK VINA RESULT:      -3.6      1.767      2.043
REMARK  5 active torsions:
REMARK  status: ('A' for Active; 'I' for Inactive)
REMARK    1  A    between atoms: C4_4  and  C5_5 
REMARK    2  A    between atoms: C4_4  and  C8_8 
REMARK    3  A    between atoms: C5_5  and  O9_9 
REMARK    4  A    between atoms: C6_6  and  C8_8 
REMARK    5  A    between atoms: C7_7  and  C8_8 
ROOT
HETATM    1  C8  UNL     1     -33.675  16.304  -4.100  1.00 20.00     0.005 C 
ENDROOT
BRANCH   1   2
HETATM    2  C4  UNL     1     -33.910  14.894  -4.698  1.00 20.00     0.032 C 
BRANCH   2   3
HETATM    3  C5  UNL     1     -34.819  14.862  -5.923  1.00 20.00     0.167 C 
BRANCH   3   4
HETATM    4  O9  UNL     1     -35.716  13.766  -5.797  1.00 20.00    -0.396 OA
HETATM    5  C3  UNL     1     -36.458  13.838  -4.588  1.00 20.00     0.201 C 
ENDBRANCH   3   4
ENDBRANCH   2   3
ENDBRANCH   1   2
BRANCH   1   6
HETATM    6  C6  UNL     1     -34.642  17.357  -4.681  1.00 20.00     0.119 C 
HETATM    7 CL10 UNL     1     -33.809  18.736  -5.440  1.00 20.00    -0.130 Cl
ENDBRANCH   1   6
BRANCH   1   8
HETATM    8  C7  UNL     1     -33.679  16.265  -2.535  1.00 20.00    -0.017 C 
HETATM    9  C1  UNL     1     -32.998  17.497  -1.919  1.00 20.00     0.010 C 
HETATM   10  C2  UNL     1     -35.097  16.162  -1.954  1.00 20.00     0.010 C 
ENDBRANCH   1   8
TORSDOF 5
ENDMDL
MODEL 9
REMARK VINA RESULT:      -3.6      4.353      6.063
REMARK  5 active torsions:
REMARK  status: ('A' for Active; 'I' for Inactive)
REMARK    1  A    between atoms: C4_4  and  C5_5 
REMARK    2  A    between atoms: C4_4  and  C8_8 
REMARK    3  A    between atoms: C5_5  and  O9_9 
REMARK    4  A    between atoms: C6_6  and  C8_8 
REMARK    5  A    between atoms: C7_7  and  C8_8 
ROOT
HETATM    1  C8  UNL     1     -33.843  17.002  -1.573  1.00 20.00     0.005 C 
ENDROOT
BRANCH   1   2
HETATM    2  C4  UNL     1     -32.651  17.803  -2.155  1.00 20.00     0.032 C 
BRANCH   2   3
HETATM    3  C5  UNL     1     -32.077  18.864  -1.221  1.00 20.00     0.167 C 
BRANCH   3   4
HETATM    4  O9  UNL     1     -30.803  18.427  -0.763  1.00 20.00    -0.396 OA
HETATM    5  C3  UNL     1     -30.781  18.277   0.649  1.00 20.00     0.201 C 
ENDBRANCH   3   4
ENDBRANCH   2   3
ENDBRANCH   1   2
BRANCH   1   6
HETATM    6  C6  UNL     1     -35.011  17.915  -1.143  1.00 20.00     0.119 C 
HETATM    7 CL10 UNL     1     -35.772  17.414   0.386  1.00 20.00    -0.130 Cl
ENDBRANCH   1   6
BRANCH   1   8
HETATM    8  C7  UNL     1     -34.286  15.856  -2.544  1.00 20.00    -0.017 C 
HETATM    9  C1  UNL     1     -35.699  16.081  -3.103  1.00 20.00     0.010 C 
HETATM   10  C2  UNL     1     -33.325  15.687  -3.728  1.00 20.00     0.010 C 
ENDBRANCH   1   8
TORSDOF 5
ENDMDL
