MODEL 1
REMARK VINA RESULT:      -4.6      0.000      0.000
REMARK  4 active torsions:
REMARK  status: ('A' for Active; 'I' for Inactive)
REMARK    1  A    between atoms: C3_3  and  C5_5 
REMARK    2  A    between atoms: C4_4  and  C7_7 
REMARK    3  A    between atoms: C5_5  and  C7_7 
REMARK    4  A    between atoms: C6_6  and  C7_7 
ROOT
HETATM    1  C7  UNL     1     -33.753   6.643   3.750  1.00 20.00    -0.001 C 
ENDROOT
BRANCH   1   2
HETATM    2  C4  UNL     1     -33.729   6.888   5.278  1.00 20.00     0.001 C 
HETATM    3  C2  UNL     1     -34.518   5.858   6.075  1.00 20.00     0.005 C 
ENDBRANCH   1   2
BRANCH   1   4
HETATM    4  C5  UNL     1     -32.425   7.079   3.087  1.00 20.00     0.005 C 
BRANCH   4   5
HETATM    5  C3  UNL     1     -32.495   7.393   1.588  1.00 20.00    -0.004 C 
HETATM    6  C1  UNL     1     -32.895   8.829   1.287  1.00 20.00     0.005 C 
ENDBRANCH   4   5
ENDBRANCH   1   4
BRANCH   1   7
HETATM    7  C6  UNL     1     -34.148   5.184   3.446  1.00 20.00     0.119 C 
HETATM    8 CL8  UNL     1     -33.018   4.353   2.350  1.00 20.00    -0.130 Cl
ENDBRANCH   1   7
TORSDOF 4
ENDMDL
MODEL 2
REMARK VINA RESULT:      -4.5      1.024      1.024
REMARK  4 active torsions:
REMARK  status: ('A' for Active; 'I' for Inactive)
REMARK    1  A    between atoms: C3_3  and  C5_5 
REMARK    2  A    between atoms: C4_4  and  C7_7 
REMARK    3  A    between atoms: C5_5  and  C7_7 
REMARK    4  A    between atoms: C6_6  and  C7_7 
ROOT
HETATM    1  C7  UNL     1     -34.108   6.457   3.815  1.00 20.00    -0.001 C 
ENDROOT
BRANCH   1   2
HETATM    2  C4  UNL     1     -33.525   7.035   5.127  1.00 20.00     0.001 C 
HETATM    3  C2  UNL     1     -34.208   6.512   6.383  1.00 20.00     0.005 C 
ENDBRANCH   1   2
BRANCH   1   4
HETATM    4  C5  UNL     1     -33.001   6.221   2.761  1.00 20.00     0.005 C 
BRANCH   4   5
HETATM    5  C3  UNL     1     -32.173   7.450   2.372  1.00 20.00    -0.004 C 
HETATM    6  C1  UNL     1     -32.681   8.154   1.123  1.00 20.00     0.005 C 
ENDBRANCH   4   5
ENDBRANCH   1   4
BRANCH   1   7
HETATM    7  C6  UNL     1     -34.959   5.206   4.111  1.00 20.00     0.119 C 
HETATM    8 CL8  UNL     1     -34.071   3.676   3.911  1.00 20.00    -0.130 Cl
ENDBRANCH   1   7
TORSDOF 4
ENDMDL
MODEL 3
REMARK VINA RESULT:      -4.3      1.868      2.402
REMARK  4 active torsions:
REMARK  status: ('A' for Active; 'I' for Inactive)
REMARK    1  A    between atoms: C3_3  and  C5_5 
REMARK    2  A    between atoms: C4_4  and  C7_7 
REMARK    3  A    between atoms: C5_5  and  C7_7 
REMARK    4  A    between atoms: C6_6  and  C7_7 
ROOT
HETATM    1  C7  UNL     1     -32.908   6.456   3.497  1.00 20.00    -0.001 C 
ENDROOT
BRANCH   1   2
HETATM    2  C4  UNL     1     -33.304   5.263   2.594  1.00 20.00     0.001 C 
HETATM    3  C2  UNL     1     -34.053   4.160   3.330  1.00 20.00     0.005 C 
ENDBRANCH   1   2
BRANCH   1   4
HETATM    4  C5  UNL     1     -32.236   7.584   2.680  1.00 20.00     0.005 C 
BRANCH   4   5
HETATM    5  C3  UNL     1     -32.587   7.632   1.188  1.00 20.00    -0.004 C 
HETATM    6  C1  UNL     1     -32.928   9.027   0.690  1.00 20.00     0.005 C 
ENDBRANCH   4   5
ENDBRANCH   1   4
BRANCH   1   7
HETATM    7  C6  UNL     1     -34.120   6.927   4.325  1.00 20.00     0.119 C 
HETATM    8 CL8  UNL     1     -33.961   6.603   6.068  1.00 20.00    -0.130 Cl
ENDBRANCH   1   7
TORSDOF 4
ENDMDL
MODEL 4
REMARK VINA RESULT:      -4.3      1.695      3.824
REMARK  4 active torsions:
REMARK  status: ('A' for Active; 'I' for Inactive)
REMARK    1  A    between atoms: C3_3  and  C5_5 
REMARK    2  A    between atoms: C4_4  and  C7_7 
REMARK    3  A    between atoms: C5_5  and  C7_7 
REMARK    4  A    between atoms: C6_6  and  C7_7 
ROOT
HETATM    1  C7  UNL     1     -33.484   6.797   3.576  1.00 20.00    -0.001 C 
ENDROOT
BRANCH   1   2
HETATM    2  C4  UNL     1     -34.041   5.410   3.172  1.00 20.00     0.001 C 
HETATM    3  C2  UNL     1     -33.065   4.573   2.356  1.00 20.00     0.005 C 
ENDBRANCH   1   2
BRANCH   1   4
HETATM    4  C5  UNL     1     -33.219   6.877   5.098  1.00 20.00     0.005 C 
BRANCH   4   5
HETATM    5  C3  UNL     1     -34.417   6.573   6.004  1.00 20.00    -0.004 C 
HETATM    6  C1  UNL     1     -34.708   5.087   6.145  1.00 20.00     0.005 C 
ENDBRANCH   4   5
ENDBRANCH   1   4
BRANCH   1   7
HETATM    7  C6  UNL     1     -32.258   7.155   2.713  1.00 20.00     0.119 C 
HETATM    8 CL8  UNL     1     -32.667   8.062   1.237  1.00 20.00    -0.130 Cl
ENDBRANCH   1   7
TORSDOF 4
ENDMDL
MODEL 5
REMARK VINA RESULT:      -4.3      0.938      3.690
REMARK  4 active torsions:
REMARK  status: ('A' for Active; 'I' for Inactive)
REMARK    1  A    between atoms: C3_3  and  C5_5 
REMARK    2  A    between atoms: C4_4  and  C7_7 
REMARK    3  A    between atoms: C5_5  and  C7_7 
REMARK    4  A    between atoms: C6_6  and  C7_7 
ROOT
HETATM    1  C7  UNL     1     -32.875   6.401   3.480  1.00 20.00    -0.001 C 
ENDROOT
BRANCH   1   2
HETATM    2  C4  UNL     1     -32.144   7.548   2.741  1.00 20.00     0.001 C 
HETATM    3  C2  UNL     1     -32.579   7.718   1.292  1.00 20.00     0.005 C 
ENDBRANCH   1   2
BRANCH   1   4
HETATM    4  C5  UNL     1     -34.042   6.939   4.342  1.00 20.00     0.005 C 
BRANCH   4   5
HETATM    5  C3  UNL     1     -34.003   6.567   5.828  1.00 20.00    -0.004 C 
HETATM    6  C1  UNL     1     -34.782   5.304   6.158  1.00 20.00     0.005 C 
ENDBRANCH   4   5
ENDBRANCH   1   4
BRANCH   1   7
HETATM    7  C6  UNL     1     -33.294   5.303   2.484  1.00 20.00     0.119 C 
HETATM    8 CL8  UNL     1     -34.001   3.867   3.263  1.00 20.00    -0.130 Cl
ENDBRANCH   1   7
TORSDOF 4
ENDMDL
MODEL 6
REMARK VINA RESULT:      -3.8      1.991      4.000
REMARK  4 active torsions:
REMARK  status: ('A' for Active; 'I' for Inactive)
REMARK    1  A    between atoms: C3_3  and  C5_5 
REMARK    2  A    between atoms: C4_4  and  C7_7 
REMARK    3  A    between atoms: C5_5  and  C7_7 
REMARK    4  A    between atoms: C6_6  and  C7_7 
ROOT
HETATM    1  C7  UNL     1     -32.996   6.891   2.554  1.00 20.00    -0.001 C 
ENDROOT
BRANCH   1   2
HETATM    2  C4  UNL     1     -32.446   7.501   1.243  1.00 20.00     0.001 C 
HETATM    3  C2  UNL     1     -32.981   8.895   0.945  1.00 20.00     0.005 C 
ENDBRANCH   1   2
BRANCH   1   4
HETATM    4  C5  UNL     1     -33.220   5.366   2.417  1.00 20.00     0.005 C 
BRANCH   4   5
HETATM    5  C3  UNL     1     -33.872   4.673   3.618  1.00 20.00    -0.004 C 
HETATM    6  C1  UNL     1     -35.190   5.305   4.041  1.00 20.00     0.005 C 
ENDBRANCH   4   5
ENDBRANCH   1   4
BRANCH   1   7
HETATM    7  C6  UNL     1     -32.100   7.281   3.746  1.00 20.00     0.119 C 
HETATM    8 CL8  UNL     1     -32.995   7.492   5.270  1.00 20.00    -0.130 Cl
ENDBRANCH   1   7
TORSDOF 4
ENDMDL
MODEL 7
REMARK VINA RESULT:      -3.8     11.134     11.986
REMARK  4 active torsions:
REMARK  status: ('A' for Active; 'I' for Inactive)
REMARK    1  A    between atoms: C3_3  and  C5_5 
REMARK    2  A    between atoms: C4_4  and  C7_7 
REMARK    3  A    between atoms: C5_5  and  C7_7 
REMARK    4  A    between atoms: C6_6  and  C7_7 
ROOT
HETATM    1  C7  UNL     1     -33.853  14.868  -4.499  1.00 20.00    -0.001 C 
ENDROOT
BRANCH   1   2
HETATM    2  C4  UNL     1     -33.287  15.834  -3.431  1.00 20.00     0.001 C 
HETATM    3  C2  UNL     1     -34.277  16.174  -2.326  1.00 20.00     0.005 C 
ENDBRANCH   1   2
BRANCH   1   4
HETATM    4  C5  UNL     1     -34.951  13.952  -3.907  1.00 20.00     0.005 C 
BRANCH   4   5
HETATM    5  C3  UNL     1     -36.190  13.738  -4.784  1.00 20.00    -0.004 C 
HETATM    6  C1  UNL     1     -37.429  14.453  -4.268  1.00 20.00     0.005 C 
ENDBRANCH   4   5
ENDBRANCH   1   4
BRANCH   1   7
HETATM    7  C6  UNL     1     -34.306  15.652  -5.746  1.00 20.00     0.119 C 
HETATM    8 CL8  UNL     1     -33.668  14.994  -7.272  1.00 20.00    -0.130 Cl
ENDBRANCH   1   7
TORSDOF 4
ENDMDL
MODEL 8
REMARK VINA RESULT:      -3.6     11.005     11.760
REMARK  4 active torsions:
REMARK  status: ('A' for Active; 'I' for Inactive)
REMARK    1  A    between atoms: C3_3  and  C5_5 
REMARK    2  A    between atoms: C4_4  and  C7_7 
REMARK    3  A    between atoms: C5_5  and  C7_7 
REMARK    4  A    between atoms: C6_6  and  C7_7 
ROOT
HETATM    1  C7  UNL     1     -34.793  14.292  -3.766  1.00 20.00    -0.001 C 
ENDROOT
BRANCH   1   2
HETATM    2  C4  UNL     1     -33.645  14.652  -4.740  1.00 20.00     0.001 C 
HETATM    3  C2  UNL     1     -34.124  15.038  -6.133  1.00 20.00     0.005 C 
ENDBRANCH   1   2
BRANCH   1   4
HETATM    4  C5  UNL     1     -35.231  15.519  -2.932  1.00 20.00     0.005 C 
BRANCH   4   5
HETATM    5  C3  UNL     1     -34.101  16.327  -2.284  1.00 20.00    -0.004 C 
HETATM    6  C1  UNL     1     -34.569  17.219  -1.145  1.00 20.00     0.005 C 
ENDBRANCH   4   5
ENDBRANCH   1   4
BRANCH   1   7
HETATM    7  C6  UNL     1     -35.950  13.614  -4.526  1.00 20.00     0.119 C 
HETATM    8 CL8  UNL     1     -37.515  14.438  -4.324  1.00 20.00    -0.130 Cl
ENDBRANCH   1   7
TORSDOF 4
ENDMDL
MODEL 9
REMARK VINA RESULT:      -3.6     16.012     16.543
REMARK  4 active torsions:
REMARK  status: ('A' for Active; 'I' for Inactive)
REMARK    1  A    between atoms: C3_3  and  C5_5 
REMARK    2  A    between atoms: C4_4  and  C7_7 
REMARK    3  A    between atoms: C5_5  and  C7_7 
REMARK    4  A    between atoms: C6_6  and  C7_7 
ROOT
HETATM    1  C7  UNL     1     -23.427  17.996  11.178  1.00 20.00    -0.001 C 
ENDROOT
BRANCH   1   2
HETATM    2  C4  UNL     1     -23.439  16.661  11.961  1.00 20.00     0.001 C 
HETATM    3  C2  UNL     1     -24.586  15.737  11.577  1.00 20.00     0.005 C 
ENDBRANCH   1   2
BRANCH   1   4
HETATM    4  C5  UNL     1     -22.341  17.995  10.076  1.00 20.00     0.005 C 
BRANCH   4   5
HETATM    5  C3  UNL     1     -22.775  17.460   8.707  1.00 20.00    -0.004 C 
HETATM    6  C1  UNL     1     -21.629  17.325   7.717  1.00 20.00     0.005 C 
ENDBRANCH   4   5
ENDBRANCH   1   4
BRANCH   1   7
HETATM    7  C6  UNL     1     -24.839  18.325  10.656  1.00 20.00     0.119 C 
HETATM    8 CL8  UNL     1     -25.895  19.071  11.880  1.00 20.00    -0.130 Cl
ENDBRANCH   1   7
TORSDOF 4
ENDMDL
