MODEL 1
REMARK VINA RESULT:      -4.6      0.000      0.000
REMARK  5 active torsions:
REMARK  status: ('A' for Active; 'I' for Inactive)
REMARK    1  A    between atoms: C2_2  and  C8_8 
REMARK    2  A    between atoms: C2_2  and  C9_9 
REMARK    3  A    between atoms: C6_6  and  C10_10 
REMARK    4  A    between atoms: C9_9  and  C10_10 
REMARK    5  A    between atoms: C10_10  and  O11_11 
ROOT
HETATM    1  C10 UNL     1     -33.443  14.740  -4.623  1.00 20.00     0.126 C 
ENDROOT
BRANCH   1   2
HETATM    2  C6  UNL     1     -34.134  14.905  -5.960  1.00 20.00     0.015 C 
HETATM    3  C4  UNL     1     -34.545  16.347  -6.356  1.00 20.00     0.007 C 
HETATM    4  C3  UNL     1     -35.811  15.733  -6.990  1.00 20.00     0.001 C 
HETATM    5  C5  UNL     1     -35.643  14.554  -6.008  1.00 20.00     0.007 C 
ENDBRANCH   1   2
BRANCH   1   6
HETATM    6  C9  UNL     1     -34.473  14.825  -3.489  1.00 20.00     0.065 C 
BRANCH   6   7
HETATM    7  C2  UNL     1     -34.279  16.034  -2.591  1.00 20.00    -0.087 C 
HETATM    8  C1  UNL     1     -35.195  16.325  -1.652  1.00 20.00     0.014 C 
BRANCH   7   9
HETATM    9  C8  UNL     1     -33.001  16.818  -2.815  1.00 20.00     0.029 C 
HETATM   10  C7  UNL     1     -32.594  17.807  -1.729  1.00 20.00     0.010 C 
ENDBRANCH   7   9
ENDBRANCH   6   7
ENDBRANCH   1   6
BRANCH   1  11
HETATM   11  O11 UNL     1     -32.823  13.457  -4.593  1.00 20.00    -0.395 OA
HETATM   12  H29 UNL     1     -32.202  13.467  -3.848  1.00 20.00     0.210 HD
ENDBRANCH   1  11
TORSDOF 5
ENDMDL
MODEL 2
REMARK VINA RESULT:      -4.6      1.319      2.109
REMARK  5 active torsions:
REMARK  status: ('A' for Active; 'I' for Inactive)
REMARK    1  A    between atoms: C2_2  and  C8_8 
REMARK    2  A    between atoms: C2_2  and  C9_9 
REMARK    3  A    between atoms: C6_6  and  C10_10 
REMARK    4  A    between atoms: C9_9  and  C10_10 
REMARK    5  A    between atoms: C10_10  and  O11_11 
ROOT
HETATM    1  C10 UNL     1     -34.118  15.240  -5.324  1.00 20.00     0.126 C 
ENDROOT
BRANCH   1   2
HETATM    2  C6  UNL     1     -35.522  14.710  -5.528  1.00 20.00     0.015 C 
HETATM    3  C4  UNL     1     -36.686  15.637  -5.091  1.00 20.00     0.007 C 
HETATM    4  C3  UNL     1     -37.427  14.366  -4.628  1.00 20.00     0.001 C 
HETATM    5  C5  UNL     1     -36.043  13.703  -4.470  1.00 20.00     0.007 C 
ENDBRANCH   1   2
BRANCH   1   6
HETATM    6  C9  UNL     1     -33.640  14.916  -3.903  1.00 20.00     0.065 C 
BRANCH   6   7
HETATM    7  C2  UNL     1     -33.763  16.089  -2.946  1.00 20.00    -0.087 C 
HETATM    8  C1  UNL     1     -32.929  17.136  -3.060  1.00 20.00     0.014 C 
BRANCH   7   9
HETATM    9  C8  UNL     1     -34.882  15.990  -1.929  1.00 20.00     0.029 C 
HETATM   10  C7  UNL     1     -35.123  17.205  -1.041  1.00 20.00     0.010 C 
ENDBRANCH   7   9
ENDBRANCH   6   7
ENDBRANCH   1   6
BRANCH   1  11
HETATM   11  O11 UNL     1     -33.256  14.602  -6.262  1.00 20.00    -0.395 OA
HETATM   12  H29 UNL     1     -32.473  14.316  -5.767  1.00 20.00     0.210 HD
ENDBRANCH   1  11
TORSDOF 5
ENDMDL
MODEL 3
REMARK VINA RESULT:      -4.5      0.479      1.354
REMARK  5 active torsions:
REMARK  status: ('A' for Active; 'I' for Inactive)
REMARK    1  A    between atoms: C2_2  and  C8_8 
REMARK    2  A    between atoms: C2_2  and  C9_9 
REMARK    3  A    between atoms: C6_6  and  C10_10 
REMARK    4  A    between atoms: C9_9  and  C10_10 
REMARK    5  A    between atoms: C10_10  and  O11_11 
ROOT
HETATM    1  C10 UNL     1     -33.394  14.738  -4.638  1.00 20.00     0.126 C 
ENDROOT
BRANCH   1   2
HETATM    2  C6  UNL     1     -34.081  14.896  -5.978  1.00 20.00     0.015 C 
HETATM    3  C4  UNL     1     -34.497  16.335  -6.380  1.00 20.00     0.007 C 
HETATM    4  C3  UNL     1     -35.758  15.714  -7.015  1.00 20.00     0.001 C 
HETATM    5  C5  UNL     1     -35.590  14.539  -6.030  1.00 20.00     0.007 C 
ENDBRANCH   1   2
BRANCH   1   6
HETATM    6  C9  UNL     1     -34.421  14.870  -3.506  1.00 20.00     0.065 C 
BRANCH   6   7
HETATM    7  C2  UNL     1     -34.174  16.070  -2.609  1.00 20.00    -0.087 C 
HETATM    8  C1  UNL     1     -33.049  16.792  -2.750  1.00 20.00     0.014 C 
BRANCH   7   9
HETATM    9  C8  UNL     1     -35.276  16.385  -1.618  1.00 20.00     0.029 C 
HETATM   10  C7  UNL     1     -34.923  17.306  -0.455  1.00 20.00     0.010 C 
ENDBRANCH   7   9
ENDBRANCH   6   7
ENDBRANCH   1   6
BRANCH   1  11
HETATM   11  O11 UNL     1     -32.808  13.439  -4.585  1.00 20.00    -0.395 OA
HETATM   12  H29 UNL     1     -31.867  13.569  -4.390  1.00 20.00     0.210 HD
ENDBRANCH   1  11
TORSDOF 5
ENDMDL
MODEL 4
REMARK VINA RESULT:      -4.5     10.258     11.337
REMARK  5 active torsions:
REMARK  status: ('A' for Active; 'I' for Inactive)
REMARK    1  A    between atoms: C2_2  and  C8_8 
REMARK    2  A    between atoms: C2_2  and  C9_9 
REMARK    3  A    between atoms: C6_6  and  C10_10 
REMARK    4  A    between atoms: C9_9  and  C10_10 
REMARK    5  A    between atoms: C10_10  and  O11_11 
ROOT
HETATM    1  C10 UNL     1     -32.652   7.392   2.702  1.00 20.00     0.126 C 
ENDROOT
BRANCH   1   2
HETATM    2  C6  UNL     1     -32.409   7.975   1.326  1.00 20.00     0.015 C 
HETATM    3  C4  UNL     1     -32.984   9.391   1.060  1.00 20.00     0.007 C 
HETATM    4  C3  UNL     1     -33.294   8.915  -0.374  1.00 20.00     0.001 C 
HETATM    5  C5  UNL     1     -33.338   7.479   0.188  1.00 20.00     0.007 C 
ENDBRANCH   1   2
BRANCH   1   6
HETATM    6  C9  UNL     1     -32.999   5.902   2.583  1.00 20.00     0.065 C 
BRANCH   6   7
HETATM    7  C2  UNL     1     -33.957   5.421   3.660  1.00 20.00    -0.087 C 
HETATM    8  C1  UNL     1     -34.221   4.110   3.784  1.00 20.00     0.014 C 
BRANCH   7   9
HETATM    9  C8  UNL     1     -34.525   6.500   4.560  1.00 20.00     0.029 C 
HETATM   10  C7  UNL     1     -34.075   6.497   6.017  1.00 20.00     0.010 C 
ENDBRANCH   7   9
ENDBRANCH   6   7
ENDBRANCH   1   6
BRANCH   1  11
HETATM   11  O11 UNL     1     -31.457   7.530   3.466  1.00 20.00    -0.395 OA
HETATM   12  H29 UNL     1     -31.543   6.932   4.224  1.00 20.00     0.210 HD
ENDBRANCH   1  11
TORSDOF 5
ENDMDL
MODEL 5
REMARK VINA RESULT:      -4.4      1.648      3.740
REMARK  5 active torsions:
REMARK  status: ('A' for Active; 'I' for Inactive)
REMARK    1  A    between atoms: C2_2  and  C8_8 
REMARK    2  A    between atoms: C2_2  and  C9_9 
REMARK    3  A    between atoms: C6_6  and  C10_10 
REMARK    4  A    between atoms: C9_9  and  C10_10 
REMARK    5  A    between atoms: C10_10  and  O11_11 
ROOT
HETATM    1  C10 UNL     1     -35.860  13.955  -4.404  1.00 20.00     0.126 C 
ENDROOT
BRANCH   1   2
HETATM    2  C6  UNL     1     -34.613  14.363  -3.648  1.00 20.00     0.015 C 
HETATM    3  C4  UNL     1     -34.694  15.681  -2.834  1.00 20.00     0.007 C 
HETATM    4  C3  UNL     1     -33.230  15.939  -3.246  1.00 20.00     0.001 C 
HETATM    5  C5  UNL     1     -33.493  15.045  -4.475  1.00 20.00     0.007 C 
ENDBRANCH   1   2
BRANCH   1   6
HETATM    6  C9  UNL     1     -35.851  14.583  -5.803  1.00 20.00     0.065 C 
BRANCH   6   7
HETATM    7  C2  UNL     1     -36.639  15.879  -5.883  1.00 20.00    -0.087 C 
HETATM    8  C1  UNL     1     -37.861  15.955  -5.330  1.00 20.00     0.014 C 
BRANCH   7   9
HETATM    9  C8  UNL     1     -35.937  17.031  -6.576  1.00 20.00     0.029 C 
HETATM   10  C7  UNL     1     -35.329  18.109  -5.686  1.00 20.00     0.010 C 
ENDBRANCH   7   9
ENDBRANCH   6   7
ENDBRANCH   1   6
BRANCH   1  11
HETATM   11  O11 UNL     1     -35.862  12.535  -4.532  1.00 20.00    -0.395 OA
HETATM   12  H29 UNL     1     -36.170  12.181  -3.683  1.00 20.00     0.210 HD
ENDBRANCH   1  11
TORSDOF 5
ENDMDL
MODEL 6
REMARK VINA RESULT:      -4.3      1.175      4.165
REMARK  5 active torsions:
REMARK  status: ('A' for Active; 'I' for Inactive)
REMARK    1  A    between atoms: C2_2  and  C8_8 
REMARK    2  A    between atoms: C2_2  and  C9_9 
REMARK    3  A    between atoms: C6_6  and  C10_10 
REMARK    4  A    between atoms: C9_9  and  C10_10 
REMARK    5  A    between atoms: C10_10  and  O11_11 
ROOT
HETATM    1  C10 UNL     1     -33.481  14.814  -4.303  1.00 20.00     0.126 C 
ENDROOT
BRANCH   1   2
HETATM    2  C6  UNL     1     -33.362  15.796  -3.157  1.00 20.00     0.015 C 
HETATM    3  C4  UNL     1     -34.624  15.993  -2.277  1.00 20.00     0.007 C 
HETATM    4  C3  UNL     1     -34.233  17.482  -2.179  1.00 20.00     0.001 C 
HETATM    5  C5  UNL     1     -33.484  17.300  -3.516  1.00 20.00     0.007 C 
ENDBRANCH   1   2
BRANCH   1   6
HETATM    6  C9  UNL     1     -34.160  15.491  -5.501  1.00 20.00     0.065 C 
BRANCH   6   7
HETATM    7  C2  UNL     1     -35.397  14.754  -5.984  1.00 20.00    -0.087 C 
HETATM    8  C1  UNL     1     -35.782  14.861  -7.267  1.00 20.00     0.014 C 
BRANCH   7   9
HETATM    9  C8  UNL     1     -36.097  13.899  -4.946  1.00 20.00     0.029 C 
HETATM   10  C7  UNL     1     -37.362  14.469  -4.315  1.00 20.00     0.010 C 
ENDBRANCH   7   9
ENDBRANCH   6   7
ENDBRANCH   1   6
BRANCH   1  11
HETATM   11  O11 UNL     1     -32.169  14.406  -4.683  1.00 20.00    -0.395 OA
HETATM   12  H29 UNL     1     -31.739  14.075  -3.879  1.00 20.00     0.210 HD
ENDBRANCH   1  11
TORSDOF 5
ENDMDL
MODEL 7
REMARK VINA RESULT:      -4.3      2.124      4.279
REMARK  5 active torsions:
REMARK  status: ('A' for Active; 'I' for Inactive)
REMARK    1  A    between atoms: C2_2  and  C8_8 
REMARK    2  A    between atoms: C2_2  and  C9_9 
REMARK    3  A    between atoms: C6_6  and  C10_10 
REMARK    4  A    between atoms: C9_9  and  C10_10 
REMARK    5  A    between atoms: C10_10  and  O11_11 
ROOT
HETATM    1  C10 UNL     1     -35.867  13.931  -4.253  1.00 20.00     0.126 C 
ENDROOT
BRANCH   1   2
HETATM    2  C6  UNL     1     -34.546  14.385  -3.670  1.00 20.00     0.015 C 
HETATM    3  C4  UNL     1     -34.586  15.623  -2.738  1.00 20.00     0.007 C 
HETATM    4  C3  UNL     1     -33.232  16.038  -3.351  1.00 20.00     0.001 C 
HETATM    5  C5  UNL     1     -33.630  15.223  -4.599  1.00 20.00     0.007 C 
ENDBRANCH   1   2
BRANCH   1   6
HETATM    6  C9  UNL     1     -36.129  14.655  -5.579  1.00 20.00     0.065 C 
BRANCH   6   7
HETATM    7  C2  UNL     1     -37.142  15.780  -5.459  1.00 20.00    -0.087 C 
HETATM    8  C1  UNL     1     -37.242  16.699  -6.434  1.00 20.00     0.014 C 
BRANCH   7   9
HETATM    9  C8  UNL     1     -38.013  15.748  -4.219  1.00 20.00     0.029 C 
HETATM   10  C7  UNL     1     -39.362  15.047  -4.335  1.00 20.00     0.010 C 
ENDBRANCH   7   9
ENDBRANCH   6   7
ENDBRANCH   1   6
BRANCH   1  11
HETATM   11  O11 UNL     1     -35.793  12.528  -4.496  1.00 20.00    -0.395 OA
HETATM   12  H29 UNL     1     -35.091  12.399  -5.153  1.00 20.00     0.210 HD
ENDBRANCH   1  11
TORSDOF 5
ENDMDL
MODEL 8
REMARK VINA RESULT:      -4.1     10.552     12.026
REMARK  5 active torsions:
REMARK  status: ('A' for Active; 'I' for Inactive)
REMARK    1  A    between atoms: C2_2  and  C8_8 
REMARK    2  A    between atoms: C2_2  and  C9_9 
REMARK    3  A    between atoms: C6_6  and  C10_10 
REMARK    4  A    between atoms: C9_9  and  C10_10 
REMARK    5  A    between atoms: C10_10  and  O11_11 
ROOT
HETATM    1  C10 UNL     1     -33.568   5.947   2.688  1.00 20.00     0.126 C 
ENDROOT
BRANCH   1   2
HETATM    2  C6  UNL     1     -34.478   6.032   3.896  1.00 20.00     0.015 C 
HETATM    3  C4  UNL     1     -33.857   6.611   5.194  1.00 20.00     0.007 C 
HETATM    4  C3  UNL     1     -34.704   5.581   5.970  1.00 20.00     0.001 C 
HETATM    5  C5  UNL     1     -34.700   4.719   4.691  1.00 20.00     0.007 C 
ENDBRANCH   1   2
BRANCH   1   6
HETATM    6  C9  UNL     1     -32.540   7.084   2.729  1.00 20.00     0.065 C 
BRANCH   6   7
HETATM    7  C2  UNL     1     -32.386   7.802   1.400  1.00 20.00    -0.087 C 
HETATM    8  C1  UNL     1     -31.534   7.327   0.476  1.00 20.00     0.014 C 
BRANCH   7   9
HETATM    9  C8  UNL     1     -33.269   9.019   1.206  1.00 20.00     0.029 C 
HETATM   10  C7  UNL     1     -33.700   9.345  -0.220  1.00 20.00     0.010 C 
ENDBRANCH   7   9
ENDBRANCH   6   7
ENDBRANCH   1   6
BRANCH   1  11
HETATM   11  O11 UNL     1     -32.882   4.699   2.731  1.00 20.00    -0.395 OA
HETATM   12  H29 UNL     1     -32.922   4.331   1.835  1.00 20.00     0.210 HD
ENDBRANCH   1  11
TORSDOF 5
ENDMDL
MODEL 9
REMARK VINA RESULT:      -4.1      2.223      3.410
REMARK  5 active torsions:
REMARK  status: ('A' for Active; 'I' for Inactive)
REMARK    1  A    between atoms: C2_2  and  C8_8 
REMARK    2  A    between atoms: C2_2  and  C9_9 
REMARK    3  A    between atoms: C6_6  and  C10_10 
REMARK    4  A    between atoms: C9_9  and  C10_10 
REMARK    5  A    between atoms: C10_10  and  O11_11 
ROOT
HETATM    1  C10 UNL     1     -33.440  17.431  -2.900  1.00 20.00     0.126 C 
ENDROOT
BRANCH   1   2
HETATM    2  C6  UNL     1     -33.693  15.939  -2.847  1.00 20.00     0.015 C 
HETATM    3  C4  UNL     1     -33.373  15.135  -4.134  1.00 20.00     0.007 C 
HETATM    4  C3  UNL     1     -34.609  14.270  -3.813  1.00 20.00     0.001 C 
HETATM    5  C5  UNL     1     -35.163  15.478  -3.030  1.00 20.00     0.007 C 
ENDBRANCH   1   2
BRANCH   1   6
HETATM    6  C9  UNL     1     -32.485  17.838  -1.771  1.00 20.00     0.065 C 
BRANCH   6   7
HETATM    7  C2  UNL     1     -33.202  18.283  -0.509  1.00 20.00    -0.087 C 
HETATM    8  C1  UNL     1     -34.540  18.416  -0.510  1.00 20.00     0.014 C 
BRANCH   7   9
HETATM    9  C8  UNL     1     -32.319  18.512   0.702  1.00 20.00     0.029 C 
HETATM   10  C7  UNL     1     -30.823  18.277   0.524  1.00 20.00     0.010 C 
ENDBRANCH   7   9
ENDBRANCH   6   7
ENDBRANCH   1   6
BRANCH   1  11
HETATM   11  O11 UNL     1     -32.836  17.740  -4.153  1.00 20.00    -0.395 OA
HETATM   12  H29 UNL     1     -32.226  17.013  -4.352  1.00 20.00     0.210 HD
ENDBRANCH   1  11
TORSDOF 5
ENDMDL
