MODEL 1
REMARK VINA RESULT:      -4.9      0.000      0.000
REMARK  5 active torsions:
REMARK  status: ('A' for Active; 'I' for Inactive)
REMARK    1  A    between atoms: C2_2  and  C5_5 
REMARK    2  A    between atoms: C2_2  and  C6_6 
REMARK    3  A    between atoms: C6_6  and  C7_7 
REMARK    4  A    between atoms: C7_7  and  C9_9 
REMARK    5  A    between atoms: C8_8  and  C9_9 
ROOT
HETATM    1  C6  UNL     1     -33.380   5.957   2.567  1.00 20.00     0.033 C 
ENDROOT
BRANCH   1   2
HETATM    2  C2  UNL     1     -32.413   7.118   2.425  1.00 20.00    -0.090 C 
HETATM    3  C1  UNL     1     -31.705   7.649   3.437  1.00 20.00     0.014 C 
BRANCH   2   4
HETATM    4  C5  UNL     1     -32.294   7.706   1.034  1.00 20.00     0.029 C 
HETATM    5  C3  UNL     1     -32.994   9.050   0.897  1.00 20.00     0.010 C 
ENDBRANCH   2   4
ENDBRANCH   1   2
BRANCH   1   6
HETATM    6  C7  UNL     1     -34.581   6.162   3.505  1.00 20.00     0.009 C 
BRANCH   6   7
HETATM    7  C9  UNL     1     -34.863   4.940   4.408  1.00 20.00    -0.004 C 
HETATM    8  C4  UNL     1     -33.988   3.736   4.047  1.00 20.00     0.011 C 
BRANCH   7   9
HETATM    9  C8  UNL     1     -34.739   5.299   5.900  1.00 20.00     0.119 C 
HETATM   10 CL10 UNL     1     -33.967   6.875   6.195  1.00 20.00    -0.130 Cl
ENDBRANCH   7   9
ENDBRANCH   6   7
ENDBRANCH   1   6
TORSDOF 5
ENDMDL
MODEL 2
REMARK VINA RESULT:      -4.5      2.076      4.571
REMARK  5 active torsions:
REMARK  status: ('A' for Active; 'I' for Inactive)
REMARK    1  A    between atoms: C2_2  and  C5_5 
REMARK    2  A    between atoms: C2_2  and  C6_6 
REMARK    3  A    between atoms: C6_6  and  C7_7 
REMARK    4  A    between atoms: C7_7  and  C9_9 
REMARK    5  A    between atoms: C8_8  and  C9_9 
ROOT
HETATM    1  C6  UNL     1     -33.485   4.864   3.635  1.00 20.00     0.033 C 
ENDROOT
BRANCH   1   2
HETATM    2  C2  UNL     1     -34.740   5.288   4.377  1.00 20.00    -0.090 C 
HETATM    3  C1  UNL     1     -35.931   5.510   3.796  1.00 20.00     0.014 C 
BRANCH   2   4
HETATM    4  C5  UNL     1     -34.582   5.488   5.871  1.00 20.00     0.029 C 
HETATM    5  C3  UNL     1     -34.008   6.852   6.227  1.00 20.00     0.010 C 
ENDBRANCH   2   4
ENDBRANCH   1   2
BRANCH   1   6
HETATM    6  C7  UNL     1     -33.209   5.550   2.287  1.00 20.00     0.009 C 
BRANCH   6   7
HETATM    7  C9  UNL     1     -32.871   7.051   2.425  1.00 20.00    -0.004 C 
HETATM    8  C4  UNL     1     -31.825   7.313   3.513  1.00 20.00     0.011 C 
BRANCH   7   9
HETATM    9  C8  UNL     1     -32.447   7.662   1.078  1.00 20.00     0.119 C 
HETATM   10 CL10 UNL     1     -33.044   9.320   0.824  1.00 20.00    -0.130 Cl
ENDBRANCH   7   9
ENDBRANCH   6   7
ENDBRANCH   1   6
TORSDOF 5
ENDMDL
MODEL 3
REMARK VINA RESULT:      -3.9     11.403     12.302
REMARK  5 active torsions:
REMARK  status: ('A' for Active; 'I' for Inactive)
REMARK    1  A    between atoms: C2_2  and  C5_5 
REMARK    2  A    between atoms: C2_2  and  C6_6 
REMARK    3  A    between atoms: C6_6  and  C7_7 
REMARK    4  A    between atoms: C7_7  and  C9_9 
REMARK    5  A    between atoms: C8_8  and  C9_9 
ROOT
HETATM    1  C6  UNL     1     -33.530  15.491  -3.704  1.00 20.00     0.033 C 
ENDROOT
BRANCH   1   2
HETATM    2  C2  UNL     1     -33.785  16.418  -2.529  1.00 20.00    -0.090 C 
HETATM    3  C1  UNL     1     -32.926  17.357  -2.098  1.00 20.00     0.014 C 
BRANCH   2   4
HETATM    4  C5  UNL     1     -35.101  16.213  -1.807  1.00 20.00     0.029 C 
HETATM    5  C3  UNL     1     -35.230  17.072  -0.557  1.00 20.00     0.010 C 
ENDBRANCH   2   4
ENDBRANCH   1   2
BRANCH   1   6
HETATM    6  C7  UNL     1     -34.434  14.253  -3.823  1.00 20.00     0.009 C 
BRANCH   6   7
HETATM    7  C9  UNL     1     -35.418  14.329  -5.012  1.00 20.00    -0.004 C 
HETATM    8  C4  UNL     1     -36.880  14.360  -4.556  1.00 20.00     0.011 C 
BRANCH   7   9
HETATM    9  C8  UNL     1     -35.092  15.513  -5.940  1.00 20.00     0.119 C 
HETATM   10 CL10 UNL     1     -33.921  15.117  -7.221  1.00 20.00    -0.130 Cl
ENDBRANCH   7   9
ENDBRANCH   6   7
ENDBRANCH   1   6
TORSDOF 5
ENDMDL
MODEL 4
REMARK VINA RESULT:      -3.9     11.216     12.245
REMARK  5 active torsions:
REMARK  status: ('A' for Active; 'I' for Inactive)
REMARK    1  A    between atoms: C2_2  and  C5_5 
REMARK    2  A    between atoms: C2_2  and  C6_6 
REMARK    3  A    between atoms: C6_6  and  C7_7 
REMARK    4  A    between atoms: C7_7  and  C9_9 
REMARK    5  A    between atoms: C8_8  and  C9_9 
ROOT
HETATM    1  C6  UNL     1     -33.934  14.826  -4.019  1.00 20.00     0.033 C 
ENDROOT
BRANCH   1   2
HETATM    2  C2  UNL     1     -34.048  15.957  -3.014  1.00 20.00    -0.090 C 
HETATM    3  C1  UNL     1     -34.971  16.022  -2.038  1.00 20.00     0.014 C 
BRANCH   2   4
HETATM    4  C5  UNL     1     -33.049  17.084  -3.179  1.00 20.00     0.029 C 
HETATM    5  C3  UNL     1     -32.660  17.729  -1.857  1.00 20.00     0.010 C 
ENDBRANCH   2   4
ENDBRANCH   1   2
BRANCH   1   6
HETATM    6  C7  UNL     1     -35.000  13.719  -3.945  1.00 20.00     0.009 C 
BRANCH   6   7
HETATM    7  C9  UNL     1     -36.135  13.898  -4.977  1.00 20.00    -0.004 C 
HETATM    8  C4  UNL     1     -37.395  14.508  -4.355  1.00 20.00     0.011 C 
BRANCH   7   9
HETATM    9  C8  UNL     1     -35.665  14.704  -6.201  1.00 20.00     0.119 C 
HETATM   10 CL10 UNL     1     -36.270  16.378  -6.232  1.00 20.00    -0.130 Cl
ENDBRANCH   7   9
ENDBRANCH   6   7
ENDBRANCH   1   6
TORSDOF 5
ENDMDL
MODEL 5
REMARK VINA RESULT:      -3.9     11.235     11.902
REMARK  5 active torsions:
REMARK  status: ('A' for Active; 'I' for Inactive)
REMARK    1  A    between atoms: C2_2  and  C5_5 
REMARK    2  A    between atoms: C2_2  and  C6_6 
REMARK    3  A    between atoms: C6_6  and  C7_7 
REMARK    4  A    between atoms: C7_7  and  C9_9 
REMARK    5  A    between atoms: C8_8  and  C9_9 
ROOT
HETATM    1  C6  UNL     1     -34.745  15.701  -2.523  1.00 20.00     0.033 C 
ENDROOT
BRANCH   1   2
HETATM    2  C2  UNL     1     -34.371  14.804  -3.688  1.00 20.00    -0.090 C 
HETATM    3  C1  UNL     1     -33.169  14.795  -4.289  1.00 20.00     0.014 C 
BRANCH   2   4
HETATM    4  C5  UNL     1     -35.472  13.893  -4.193  1.00 20.00     0.029 C 
HETATM    5  C3  UNL     1     -36.846  14.547  -4.152  1.00 20.00     0.010 C 
ENDBRANCH   2   4
ENDBRANCH   1   2
BRANCH   1   6
HETATM    6  C7  UNL     1     -33.747  16.809  -2.149  1.00 20.00     0.009 C 
BRANCH   6   7
HETATM    7  C9  UNL     1     -34.278  17.764  -1.057  1.00 20.00    -0.004 C 
HETATM    8  C4  UNL     1     -35.408  17.136  -0.235  1.00 20.00     0.011 C 
BRANCH   7   9
HETATM    9  C8  UNL     1     -33.143  18.277  -0.153  1.00 20.00     0.119 C 
HETATM   10 CL10 UNL     1     -31.541  18.253  -0.931  1.00 20.00    -0.130 Cl
ENDBRANCH   7   9
ENDBRANCH   6   7
ENDBRANCH   1   6
TORSDOF 5
ENDMDL
MODEL 6
REMARK VINA RESULT:      -3.8     11.168     12.344
REMARK  5 active torsions:
REMARK  status: ('A' for Active; 'I' for Inactive)
REMARK    1  A    between atoms: C2_2  and  C5_5 
REMARK    2  A    between atoms: C2_2  and  C6_6 
REMARK    3  A    between atoms: C6_6  and  C7_7 
REMARK    4  A    between atoms: C7_7  and  C9_9 
REMARK    5  A    between atoms: C8_8  and  C9_9 
ROOT
HETATM    1  C6  UNL     1     -34.194  16.185  -2.466  1.00 20.00     0.033 C 
ENDROOT
BRANCH   1   2
HETATM    2  C2  UNL     1     -33.760  17.308  -1.541  1.00 20.00    -0.090 C 
HETATM    3  C1  UNL     1     -34.443  17.709  -0.455  1.00 20.00     0.014 C 
BRANCH   2   4
HETATM    4  C5  UNL     1     -32.477  18.015  -1.926  1.00 20.00     0.029 C 
HETATM    5  C3  UNL     1     -31.591  18.328  -0.729  1.00 20.00     0.010 C 
ENDBRANCH   2   4
ENDBRANCH   1   2
BRANCH   1   6
HETATM    6  C7  UNL     1     -33.221  15.795  -3.591  1.00 20.00     0.009 C 
BRANCH   6   7
HETATM    7  C9  UNL     1     -33.707  14.589  -4.425  1.00 20.00    -0.004 C 
HETATM    8  C4  UNL     1     -34.965  13.944  -3.836  1.00 20.00     0.011 C 
BRANCH   7   9
HETATM    9  C8  UNL     1     -33.908  14.967  -5.903  1.00 20.00     0.119 C 
HETATM   10 CL10 UNL     1     -35.542  14.614  -6.517  1.00 20.00    -0.130 Cl
ENDBRANCH   7   9
ENDBRANCH   6   7
ENDBRANCH   1   6
TORSDOF 5
ENDMDL
MODEL 7
REMARK VINA RESULT:      -3.8      0.988      1.708
REMARK  5 active torsions:
REMARK  status: ('A' for Active; 'I' for Inactive)
REMARK    1  A    between atoms: C2_2  and  C5_5 
REMARK    2  A    between atoms: C2_2  and  C6_6 
REMARK    3  A    between atoms: C6_6  and  C7_7 
REMARK    4  A    between atoms: C7_7  and  C9_9 
REMARK    5  A    between atoms: C8_8  and  C9_9 
ROOT
HETATM    1  C6  UNL     1     -32.185   7.149   2.880  1.00 20.00     0.033 C 
ENDROOT
BRANCH   1   2
HETATM    2  C2  UNL     1     -32.350   7.780   1.509  1.00 20.00    -0.090 C 
HETATM    3  C1  UNL     1     -31.766   7.328   0.386  1.00 20.00     0.014 C 
BRANCH   2   4
HETATM    4  C5  UNL     1     -33.219   9.020   1.460  1.00 20.00     0.029 C 
HETATM    5  C3  UNL     1     -33.590   9.426   0.040  1.00 20.00     0.010 C 
ENDBRANCH   2   4
ENDBRANCH   1   2
BRANCH   1   6
HETATM    6  C7  UNL     1     -33.472   6.845   3.666  1.00 20.00     0.009 C 
BRANCH   6   7
HETATM    7  C9  UNL     1     -34.129   5.506   3.264  1.00 20.00    -0.004 C 
HETATM    8  C4  UNL     1     -33.142   4.558   2.576  1.00 20.00     0.011 C 
BRANCH   7   9
HETATM    9  C8  UNL     1     -34.815   4.830   4.464  1.00 20.00     0.119 C 
HETATM   10 CL10 UNL     1     -34.619   5.718   5.995  1.00 20.00    -0.130 Cl
ENDBRANCH   7   9
ENDBRANCH   6   7
ENDBRANCH   1   6
TORSDOF 5
ENDMDL
MODEL 8
REMARK VINA RESULT:      -3.8     11.309     12.147
REMARK  5 active torsions:
REMARK  status: ('A' for Active; 'I' for Inactive)
REMARK    1  A    between atoms: C2_2  and  C5_5 
REMARK    2  A    between atoms: C2_2  and  C6_6 
REMARK    3  A    between atoms: C6_6  and  C7_7 
REMARK    4  A    between atoms: C7_7  and  C9_9 
REMARK    5  A    between atoms: C8_8  and  C9_9 
ROOT
HETATM    1  C6  UNL     1     -33.542  16.544  -2.842  1.00 20.00     0.033 C 
ENDROOT
BRANCH   1   2
HETATM    2  C2  UNL     1     -33.360  17.463  -1.647  1.00 20.00    -0.090 C 
HETATM    3  C1  UNL     1     -32.241  18.159  -1.383  1.00 20.00     0.014 C 
BRANCH   2   4
HETATM    4  C5  UNL     1     -34.540  17.546  -0.700  1.00 20.00     0.029 C 
HETATM    5  C3  UNL     1     -34.175  18.156   0.646  1.00 20.00     0.010 C 
ENDBRANCH   2   4
ENDBRANCH   1   2
BRANCH   1   6
HETATM    6  C7  UNL     1     -34.748  15.592  -2.811  1.00 20.00     0.009 C 
BRANCH   6   7
HETATM    7  C9  UNL     1     -34.569  14.353  -3.716  1.00 20.00    -0.004 C 
HETATM    8  C4  UNL     1     -35.867  13.961  -4.428  1.00 20.00     0.011 C 
BRANCH   7   9
HETATM    9  C8  UNL     1     -33.415  14.545  -4.716  1.00 20.00     0.119 C 
HETATM   10 CL10 UNL     1     -33.954  14.967  -6.360  1.00 20.00    -0.130 Cl
ENDBRANCH   7   9
ENDBRANCH   6   7
ENDBRANCH   1   6
TORSDOF 5
ENDMDL
MODEL 9
REMARK VINA RESULT:      -3.6     15.383     16.363
REMARK  5 active torsions:
REMARK  status: ('A' for Active; 'I' for Inactive)
REMARK    1  A    between atoms: C2_2  and  C5_5 
REMARK    2  A    between atoms: C2_2  and  C6_6 
REMARK    3  A    between atoms: C6_6  and  C7_7 
REMARK    4  A    between atoms: C7_7  and  C9_9 
REMARK    5  A    between atoms: C8_8  and  C9_9 
ROOT
HETATM    1  C6  UNL     1     -24.628  17.195  10.714  1.00 20.00     0.033 C 
ENDROOT
BRANCH   1   2
HETATM    2  C2  UNL     1     -23.229  17.781  10.767  1.00 20.00    -0.090 C 
HETATM    3  C1  UNL     1     -22.427  17.744  11.844  1.00 20.00     0.014 C 
BRANCH   2   4
HETATM    4  C5  UNL     1     -22.759  18.470   9.502  1.00 20.00     0.029 C 
HETATM    5  C3  UNL     1     -23.885  19.176   8.760  1.00 20.00     0.010 C 
ENDBRANCH   2   4
ENDBRANCH   1   2
BRANCH   1   6
HETATM    6  C7  UNL     1     -25.343  16.977  12.058  1.00 20.00     0.009 C 
BRANCH   6   7
HETATM    7  C9  UNL     1     -26.453  18.016  12.332  1.00 20.00    -0.004 C 
HETATM    8  C4  UNL     1     -26.379  19.211  11.377  1.00 20.00     0.011 C 
BRANCH   7   9
HETATM    9  C8  UNL     1     -27.849  17.369  12.317  1.00 20.00     0.119 C 
HETATM   10 CL10 UNL     1     -29.158  18.500  11.892  1.00 20.00    -0.130 Cl
ENDBRANCH   7   9
ENDBRANCH   6   7
ENDBRANCH   1   6
TORSDOF 5
ENDMDL
