MODEL 1
REMARK VINA RESULT:      -4.6      0.000      0.000
REMARK  5 active torsions:
REMARK  status: ('A' for Active; 'I' for Inactive)
REMARK    1  A    between atoms: C4_4  and  C5_5 
REMARK    2  A    between atoms: C5_5  and  C8_8 
REMARK    3  A    between atoms: C6_6  and  C8_8 
REMARK    4  A    between atoms: C6_6  and  C9_9 
REMARK    5  A    between atoms: C7_7  and  C9_9 
ROOT
HETATM    1  C6  UNL     1     -32.820   5.544   2.554  1.00 20.00     0.009 C 
ENDROOT
BRANCH   1   2
HETATM    2  C8  UNL     1     -34.117   4.917   3.107  1.00 20.00    -0.018 C 
HETATM    3  C2  UNL     1     -33.857   3.584   3.814  1.00 20.00     0.010 C 
BRANCH   2   4
HETATM    4  C5  UNL     1     -34.880   5.902   4.022  1.00 20.00     0.004 C 
BRANCH   4   5
HETATM    5  C4  UNL     1     -34.758   5.636   5.525  1.00 20.00    -0.004 C 
HETATM    6  C1  UNL     1     -33.972   6.741   6.217  1.00 20.00     0.005 C 
ENDBRANCH   4   5
ENDBRANCH   2   4
ENDBRANCH   1   2
BRANCH   1   7
HETATM    7  C9  UNL     1     -32.788   7.088   2.501  1.00 20.00    -0.004 C 
HETATM    8  C3  UNL     1     -31.768   7.615   3.519  1.00 20.00     0.011 C 
BRANCH   7   9
HETATM    9  C7  UNL     1     -32.535   7.676   1.104  1.00 20.00     0.119 C 
HETATM   10 CL10 UNL     1     -33.031   9.378   0.947  1.00 20.00    -0.130 Cl
ENDBRANCH   7   9
ENDBRANCH   1   7
TORSDOF 5
ENDMDL
MODEL 2
REMARK VINA RESULT:      -4.4      2.347      4.754
REMARK  5 active torsions:
REMARK  status: ('A' for Active; 'I' for Inactive)
REMARK    1  A    between atoms: C4_4  and  C5_5 
REMARK    2  A    between atoms: C5_5  and  C8_8 
REMARK    3  A    between atoms: C6_6  and  C8_8 
REMARK    4  A    between atoms: C6_6  and  C9_9 
REMARK    5  A    between atoms: C7_7  and  C9_9 
ROOT
HETATM    1  C6  UNL     1     -33.005   5.738   2.646  1.00 20.00     0.009 C 
ENDROOT
BRANCH   1   2
HETATM    2  C8  UNL     1     -32.670   7.245   2.672  1.00 20.00    -0.018 C 
HETATM    3  C2  UNL     1     -31.668   7.594   3.775  1.00 20.00     0.010 C 
BRANCH   2   4
HETATM    4  C5  UNL     1     -32.186   7.745   1.291  1.00 20.00     0.004 C 
BRANCH   4   5
HETATM    5  C4  UNL     1     -32.849   9.030   0.786  1.00 20.00    -0.004 C 
HETATM    6  C1  UNL     1     -33.554   8.798  -0.543  1.00 20.00     0.005 C 
ENDBRANCH   4   5
ENDBRANCH   2   4
ENDBRANCH   1   2
BRANCH   1   7
HETATM    7  C9  UNL     1     -34.252   5.312   3.452  1.00 20.00    -0.004 C 
HETATM    8  C3  UNL     1     -34.105   3.849   3.890  1.00 20.00     0.011 C 
BRANCH   7   9
HETATM    9  C7  UNL     1     -34.583   6.220   4.647  1.00 20.00     0.119 C 
HETATM   10 CL10 UNL     1     -34.721   5.343   6.190  1.00 20.00    -0.130 Cl
ENDBRANCH   7   9
ENDBRANCH   1   7
TORSDOF 5
ENDMDL
MODEL 3
REMARK VINA RESULT:      -3.9      2.285      4.318
REMARK  5 active torsions:
REMARK  status: ('A' for Active; 'I' for Inactive)
REMARK    1  A    between atoms: C4_4  and  C5_5 
REMARK    2  A    between atoms: C5_5  and  C8_8 
REMARK    3  A    between atoms: C6_6  and  C8_8 
REMARK    4  A    between atoms: C6_6  and  C9_9 
REMARK    5  A    between atoms: C7_7  and  C9_9 
ROOT
HETATM    1  C6  UNL     1     -33.678   6.914   3.856  1.00 20.00     0.009 C 
ENDROOT
BRANCH   1   2
HETATM    2  C8  UNL     1     -32.645   6.305   2.884  1.00 20.00    -0.018 C 
HETATM    3  C2  UNL     1     -33.171   5.040   2.203  1.00 20.00     0.010 C 
BRANCH   2   4
HETATM    4  C5  UNL     1     -32.158   7.344   1.847  1.00 20.00     0.004 C 
BRANCH   4   5
HETATM    5  C4  UNL     1     -33.173   8.428   1.473  1.00 20.00    -0.004 C 
HETATM    6  C1  UNL     1     -33.134   8.726  -0.020  1.00 20.00     0.005 C 
ENDBRANCH   4   5
ENDBRANCH   2   4
ENDBRANCH   1   2
BRANCH   1   7
HETATM    7  C9  UNL     1     -33.685   6.326   5.286  1.00 20.00    -0.004 C 
HETATM    8  C3  UNL     1     -33.671   7.467   6.310  1.00 20.00     0.011 C 
BRANCH   7   9
HETATM    9  C7  UNL     1     -34.830   5.340   5.566  1.00 20.00     0.119 C 
HETATM   10 CL10 UNL     1     -35.906   5.084   4.171  1.00 20.00    -0.130 Cl
ENDBRANCH   7   9
ENDBRANCH   1   7
TORSDOF 5
ENDMDL
MODEL 4
REMARK VINA RESULT:      -3.8     11.254     12.080
REMARK  5 active torsions:
REMARK  status: ('A' for Active; 'I' for Inactive)
REMARK    1  A    between atoms: C4_4  and  C5_5 
REMARK    2  A    between atoms: C5_5  and  C8_8 
REMARK    3  A    between atoms: C6_6  and  C8_8 
REMARK    4  A    between atoms: C6_6  and  C9_9 
REMARK    5  A    between atoms: C7_7  and  C9_9 
ROOT
HETATM    1  C6  UNL     1     -34.555  15.509  -2.757  1.00 20.00     0.009 C 
ENDROOT
BRANCH   1   2
HETATM    2  C8  UNL     1     -34.409  16.917  -2.143  1.00 20.00    -0.018 C 
HETATM    3  C2  UNL     1     -35.087  17.023  -0.775  1.00 20.00     0.010 C 
BRANCH   2   4
HETATM    4  C5  UNL     1     -32.929  17.359  -2.075  1.00 20.00     0.004 C 
BRANCH   4   5
HETATM    5  C4  UNL     1     -32.618  18.470  -1.068  1.00 20.00    -0.004 C 
HETATM    6  C1  UNL     1     -31.249  18.269  -0.433  1.00 20.00     0.005 C 
ENDBRANCH   4   5
ENDBRANCH   2   4
ENDBRANCH   1   2
BRANCH   1   7
HETATM    7  C9  UNL     1     -34.186  15.386  -4.253  1.00 20.00    -0.004 C 
HETATM    8  C3  UNL     1     -32.950  14.489  -4.405  1.00 20.00     0.011 C 
BRANCH   7   9
HETATM    9  C7  UNL     1     -35.333  14.911  -5.158  1.00 20.00     0.119 C 
HETATM   10 CL10 UNL     1     -36.223  13.514  -4.505  1.00 20.00    -0.130 Cl
ENDBRANCH   7   9
ENDBRANCH   1   7
TORSDOF 5
ENDMDL
MODEL 5
REMARK VINA RESULT:      -3.7     14.859     16.495
REMARK  5 active torsions:
REMARK  status: ('A' for Active; 'I' for Inactive)
REMARK    1  A    between atoms: C4_4  and  C5_5 
REMARK    2  A    between atoms: C5_5  and  C8_8 
REMARK    3  A    between atoms: C6_6  and  C8_8 
REMARK    4  A    between atoms: C6_6  and  C9_9 
REMARK    5  A    between atoms: C7_7  and  C9_9 
ROOT
HETATM    1  C6  UNL     1     -24.421  17.756   9.632  1.00 20.00     0.009 C 
ENDROOT
BRANCH   1   2
HETATM    2  C8  UNL     1     -23.494  18.499   8.647  1.00 20.00    -0.018 C 
HETATM    3  C2  UNL     1     -22.329  17.625   8.179  1.00 20.00     0.010 C 
BRANCH   2   4
HETATM    4  C5  UNL     1     -24.284  19.076   7.449  1.00 20.00     0.004 C 
BRANCH   4   5
HETATM    5  C4  UNL     1     -25.794  19.218   7.661  1.00 20.00    -0.004 C 
HETATM    6  C1  UNL     1     -26.570  18.681   6.467  1.00 20.00     0.005 C 
ENDBRANCH   4   5
ENDBRANCH   2   4
ENDBRANCH   1   2
BRANCH   1   7
HETATM    7  C9  UNL     1     -24.345  18.217  11.106  1.00 20.00    -0.004 C 
HETATM    8  C3  UNL     1     -25.714  18.746  11.549  1.00 20.00     0.011 C 
BRANCH   7   9
HETATM    9  C7  UNL     1     -23.816  17.155  12.082  1.00 20.00     0.119 C 
HETATM   10 CL10 UNL     1     -24.562  15.553  11.865  1.00 20.00    -0.130 Cl
ENDBRANCH   7   9
ENDBRANCH   1   7
TORSDOF 5
ENDMDL
MODEL 6
REMARK VINA RESULT:      -3.7     11.295     12.164
REMARK  5 active torsions:
REMARK  status: ('A' for Active; 'I' for Inactive)
REMARK    1  A    between atoms: C4_4  and  C5_5 
REMARK    2  A    between atoms: C5_5  and  C8_8 
REMARK    3  A    between atoms: C6_6  and  C8_8 
REMARK    4  A    between atoms: C6_6  and  C9_9 
REMARK    5  A    between atoms: C7_7  and  C9_9 
ROOT
HETATM    1  C6  UNL     1     -33.665  14.852  -4.362  1.00 20.00     0.009 C 
ENDROOT
BRANCH   1   2
HETATM    2  C8  UNL     1     -33.530  15.857  -3.199  1.00 20.00    -0.018 C 
HETATM    3  C2  UNL     1     -33.214  17.271  -3.691  1.00 20.00     0.010 C 
BRANCH   2   4
HETATM    4  C5  UNL     1     -34.779  15.843  -2.287  1.00 20.00     0.004 C 
BRANCH   4   5
HETATM    5  C4  UNL     1     -35.168  17.194  -1.681  1.00 20.00    -0.004 C 
HETATM    6  C1  UNL     1     -35.359  17.086  -0.174  1.00 20.00     0.005 C 
ENDBRANCH   4   5
ENDBRANCH   2   4
ENDBRANCH   1   2
BRANCH   1   7
HETATM    7  C9  UNL     1     -34.493  15.333  -5.575  1.00 20.00    -0.004 C 
HETATM    8  C3  UNL     1     -33.722  15.046  -6.870  1.00 20.00     0.011 C 
BRANCH   7   9
HETATM    9  C7  UNL     1     -35.920  14.768  -5.640  1.00 20.00     0.119 C 
HETATM   10 CL10 UNL     1     -36.213  13.441  -4.490  1.00 20.00    -0.130 Cl
ENDBRANCH   7   9
ENDBRANCH   1   7
TORSDOF 5
ENDMDL
MODEL 7
REMARK VINA RESULT:      -3.6     11.490     12.670
REMARK  5 active torsions:
REMARK  status: ('A' for Active; 'I' for Inactive)
REMARK    1  A    between atoms: C4_4  and  C5_5 
REMARK    2  A    between atoms: C5_5  and  C8_8 
REMARK    3  A    between atoms: C6_6  and  C8_8 
REMARK    4  A    between atoms: C6_6  and  C9_9 
REMARK    5  A    between atoms: C7_7  and  C9_9 
ROOT
HETATM    1  C6  UNL     1     -33.053  16.646  -2.677  1.00 20.00     0.009 C 
ENDROOT
BRANCH   1   2
HETATM    2  C8  UNL     1     -34.391  15.931  -2.395  1.00 20.00    -0.018 C 
HETATM    3  C2  UNL     1     -35.549  16.918  -2.231  1.00 20.00     0.010 C 
BRANCH   2   4
HETATM    4  C5  UNL     1     -34.705  14.866  -3.470  1.00 20.00     0.004 C 
BRANCH   4   5
HETATM    5  C4  UNL     1     -33.615  14.652  -4.524  1.00 20.00    -0.004 C 
HETATM    6  C1  UNL     1     -34.107  15.041  -5.911  1.00 20.00     0.005 C 
ENDBRANCH   4   5
ENDBRANCH   2   4
ENDBRANCH   1   2
BRANCH   1   7
HETATM    7  C9  UNL     1     -32.961  18.114  -2.201  1.00 20.00    -0.004 C 
HETATM    8  C3  UNL     1     -31.908  18.229  -1.091  1.00 20.00     0.011 C 
BRANCH   7   9
HETATM    9  C7  UNL     1     -32.702  19.134  -3.321  1.00 20.00     0.119 C 
HETATM   10 CL10 UNL     1     -33.500  18.722  -4.858  1.00 20.00    -0.130 Cl
ENDBRANCH   7   9
ENDBRANCH   1   7
TORSDOF 5
ENDMDL
MODEL 8
REMARK VINA RESULT:      -3.6     10.994     12.198
REMARK  5 active torsions:
REMARK  status: ('A' for Active; 'I' for Inactive)
REMARK    1  A    between atoms: C4_4  and  C5_5 
REMARK    2  A    between atoms: C5_5  and  C8_8 
REMARK    3  A    between atoms: C6_6  and  C8_8 
REMARK    4  A    between atoms: C6_6  and  C9_9 
REMARK    5  A    between atoms: C7_7  and  C9_9 
ROOT
HETATM    1  C6  UNL     1     -34.111  15.863  -2.658  1.00 20.00     0.009 C 
ENDROOT
BRANCH   1   2
HETATM    2  C8  UNL     1     -34.161  15.040  -3.963  1.00 20.00    -0.018 C 
HETATM    3  C2  UNL     1     -32.785  14.499  -4.357  1.00 20.00     0.010 C 
BRANCH   2   4
HETATM    4  C5  UNL     1     -35.211  13.908  -3.882  1.00 20.00     0.004 C 
BRANCH   4   5
HETATM    5  C4  UNL     1     -36.274  13.914  -4.985  1.00 20.00    -0.004 C 
HETATM    6  C1  UNL     1     -36.171  15.169  -5.840  1.00 20.00     0.005 C 
ENDBRANCH   4   5
ENDBRANCH   2   4
ENDBRANCH   1   2
BRANCH   1   7
HETATM    7  C9  UNL     1     -33.124  17.053  -2.650  1.00 20.00    -0.004 C 
HETATM    8  C3  UNL     1     -33.426  17.978  -3.835  1.00 20.00     0.011 C 
BRANCH   7   9
HETATM    9  C7  UNL     1     -33.077  17.836  -1.329  1.00 20.00     0.119 C 
HETATM   10 CL10 UNL     1     -31.426  18.243  -0.801  1.00 20.00    -0.130 Cl
ENDBRANCH   7   9
ENDBRANCH   1   7
TORSDOF 5
ENDMDL
MODEL 9
REMARK VINA RESULT:      -3.6      1.670      2.152
REMARK  5 active torsions:
REMARK  status: ('A' for Active; 'I' for Inactive)
REMARK    1  A    between atoms: C4_4  and  C5_5 
REMARK    2  A    between atoms: C5_5  and  C8_8 
REMARK    3  A    between atoms: C6_6  and  C8_8 
REMARK    4  A    between atoms: C6_6  and  C9_9 
REMARK    5  A    between atoms: C7_7  and  C9_9 
ROOT
HETATM    1  C6  UNL     1     -33.831   6.446   2.721  1.00 20.00     0.009 C 
ENDROOT
BRANCH   1   2
HETATM    2  C8  UNL     1     -33.965   4.911   2.645  1.00 20.00    -0.018 C 
HETATM    3  C2  UNL     1     -32.698   4.247   2.102  1.00 20.00     0.010 C 
BRANCH   2   4
HETATM    4  C5  UNL     1     -34.380   4.307   4.007  1.00 20.00     0.004 C 
BRANCH   4   5
HETATM    5  C4  UNL     1     -35.294   5.186   4.866  1.00 20.00    -0.004 C 
HETATM    6  C1  UNL     1     -34.753   5.321   6.283  1.00 20.00     0.005 C 
ENDBRANCH   4   5
ENDBRANCH   2   4
ENDBRANCH   1   2
BRANCH   1   7
HETATM    7  C9  UNL     1     -32.434   7.017   2.386  1.00 20.00    -0.004 C 
HETATM    8  C3  UNL     1     -32.549   8.001   1.216  1.00 20.00     0.011 C 
BRANCH   7   9
HETATM    9  C7  UNL     1     -31.700   7.652   3.578  1.00 20.00     0.119 C 
HETATM   10 CL10 UNL     1     -32.658   7.667   5.078  1.00 20.00    -0.130 Cl
ENDBRANCH   7   9
ENDBRANCH   1   7
TORSDOF 5
ENDMDL
