MODEL 1
REMARK VINA RESULT:      -4.9      0.000      0.000
REMARK  5 active torsions:
REMARK  status: ('A' for Active; 'I' for Inactive)
REMARK    1  A    between atoms: C4_4  and  C7_7 
REMARK    2  A    between atoms: C4_4  and  C8_8 
REMARK    3  A    between atoms: C6_6  and  C9_9 
REMARK    4  A    between atoms: C8_8  and  N10_10 
REMARK    5  A    between atoms: C9_9  and  N10_10 
ROOT
HETATM    1  C1  UNL     1     -33.730   7.229   6.252  1.00 20.00     0.012 C 
HETATM    2  C2  UNL     1     -34.260   6.207   5.910  1.00 20.00    -0.116 C 
HETATM    3  C6  UNL     1     -34.912   4.956   5.496  1.00 20.00     0.123 C 
ENDROOT
BRANCH   3   4
HETATM    4  C9  UNL     1     -34.436   4.491   4.122  1.00 20.00     0.282 C 
BRANCH   4   5
HETATM    5  N10 UNL     1     -34.322   5.616   3.206  1.00 20.00     0.088 N 
HETATM    6  H25 UNL     1     -35.072   5.569   2.518  1.00 20.00     0.316 HD
BRANCH   5   7
HETATM    7  C8  UNL     1     -33.038   5.592   2.513  1.00 20.00     0.302 C 
BRANCH   7   8
HETATM    8  C4  UNL     1     -32.450   6.970   2.319  1.00 20.00    -0.062 C 
HETATM    9  C3  UNL     1     -31.919   7.642   3.355  1.00 20.00     0.016 C 
BRANCH   8  10
HETATM   10  C7  UNL     1     -32.474   7.576   0.934  1.00 20.00     0.030 C 
HETATM   11  C5  UNL     1     -32.948   9.023   0.929  1.00 20.00     0.010 C 
ENDBRANCH   8  10
ENDBRANCH   7   8
ENDBRANCH   5   7
ENDBRANCH   4   5
ENDBRANCH   3   4
TORSDOF 5
ENDMDL
MODEL 2
REMARK VINA RESULT:      -4.5      0.996      4.648
REMARK  5 active torsions:
REMARK  status: ('A' for Active; 'I' for Inactive)
REMARK    1  A    between atoms: C4_4  and  C7_7 
REMARK    2  A    between atoms: C4_4  and  C8_8 
REMARK    3  A    between atoms: C6_6  and  C9_9 
REMARK    4  A    between atoms: C8_8  and  N10_10 
REMARK    5  A    between atoms: C9_9  and  N10_10 
ROOT
HETATM    1  C1  UNL     1     -33.264   8.813   0.089  1.00 20.00     0.012 C 
HETATM    2  C2  UNL     1     -32.697   8.174   0.933  1.00 20.00    -0.116 C 
HETATM    3  C6  UNL     1     -31.998   7.395   1.966  1.00 20.00     0.123 C 
ENDROOT
BRANCH   3   4
HETATM    4  C9  UNL     1     -32.971   6.722   2.930  1.00 20.00     0.282 C 
BRANCH   4   5
HETATM    5  N10 UNL     1     -33.391   5.424   2.421  1.00 20.00     0.088 N 
HETATM    6  H25 UNL     1     -34.178   5.548   1.787  1.00 20.00     0.316 HD
BRANCH   5   7
HETATM    7  C8  UNL     1     -33.793   4.544   3.513  1.00 20.00     0.302 C 
BRANCH   7   8
HETATM    8  C4  UNL     1     -34.867   5.146   4.388  1.00 20.00    -0.062 C 
HETATM    9  C3  UNL     1     -36.033   5.556   3.860  1.00 20.00     0.016 C 
BRANCH   8  10
HETATM   10  C7  UNL     1     -34.599   5.278   5.870  1.00 20.00     0.030 C 
HETATM   11  C5  UNL     1     -34.129   6.670   6.266  1.00 20.00     0.010 C 
ENDBRANCH   8  10
ENDBRANCH   7   8
ENDBRANCH   5   7
ENDBRANCH   4   5
ENDBRANCH   3   4
TORSDOF 5
ENDMDL
MODEL 3
REMARK VINA RESULT:      -4.4      1.260      4.489
REMARK  5 active torsions:
REMARK  status: ('A' for Active; 'I' for Inactive)
REMARK    1  A    between atoms: C4_4  and  C7_7 
REMARK    2  A    between atoms: C4_4  and  C8_8 
REMARK    3  A    between atoms: C6_6  and  C9_9 
REMARK    4  A    between atoms: C8_8  and  N10_10 
REMARK    5  A    between atoms: C9_9  and  N10_10 
ROOT
HETATM    1  C1  UNL     1     -32.890   9.201   0.435  1.00 20.00     0.012 C 
HETATM    2  C2  UNL     1     -32.694   8.290   1.193  1.00 20.00    -0.116 C 
HETATM    3  C6  UNL     1     -32.455   7.172   2.117  1.00 20.00     0.123 C 
ENDROOT
BRANCH   3   4
HETATM    4  C9  UNL     1     -31.826   7.638   3.427  1.00 20.00     0.282 C 
BRANCH   4   5
HETATM    5  N10 UNL     1     -32.669   7.287   4.560  1.00 20.00     0.088 N 
HETATM    6  H25 UNL     1     -32.209   6.566   5.114  1.00 20.00     0.316 HD
BRANCH   5   7
HETATM    7  C8  UNL     1     -33.964   6.787   4.109  1.00 20.00     0.302 C 
BRANCH   7   8
HETATM    8  C4  UNL     1     -34.384   5.522   4.819  1.00 20.00    -0.062 C 
HETATM    9  C3  UNL     1     -34.757   5.550   6.110  1.00 20.00     0.016 C 
BRANCH   8  10
HETATM   10  C7  UNL     1     -34.375   4.224   4.043  1.00 20.00     0.030 C 
HETATM   11  C5  UNL     1     -33.647   4.335   2.711  1.00 20.00     0.010 C 
ENDBRANCH   8  10
ENDBRANCH   7   8
ENDBRANCH   5   7
ENDBRANCH   4   5
ENDBRANCH   3   4
TORSDOF 5
ENDMDL
MODEL 4
REMARK VINA RESULT:      -4.1     11.470     12.553
REMARK  5 active torsions:
REMARK  status: ('A' for Active; 'I' for Inactive)
REMARK    1  A    between atoms: C4_4  and  C7_7 
REMARK    2  A    between atoms: C4_4  and  C8_8 
REMARK    3  A    between atoms: C6_6  and  C9_9 
REMARK    4  A    between atoms: C8_8  and  N10_10 
REMARK    5  A    between atoms: C9_9  and  N10_10 
ROOT
HETATM    1  C1  UNL     1     -35.047  16.202  -1.867  1.00 20.00     0.012 C 
HETATM    2  C2  UNL     1     -34.123  15.991  -2.604  1.00 20.00    -0.116 C 
HETATM    3  C6  UNL     1     -32.988  15.736  -3.504  1.00 20.00     0.123 C 
ENDROOT
BRANCH   3   4
HETATM    4  C9  UNL     1     -33.257  14.566  -4.446  1.00 20.00     0.282 C 
BRANCH   4   5
HETATM    5  N10 UNL     1     -33.351  15.022  -5.825  1.00 20.00     0.088 N 
HETATM    6  H25 UNL     1     -33.112  16.011  -5.872  1.00 20.00     0.316 HD
BRANCH   5   7
HETATM    7  C8  UNL     1     -34.702  14.833  -6.344  1.00 20.00     0.302 C 
BRANCH   7   8
HETATM    8  C4  UNL     1     -35.654  15.923  -5.912  1.00 20.00    -0.062 C 
HETATM    9  C3  UNL     1     -35.343  17.218  -6.092  1.00 20.00     0.016 C 
BRANCH   8  10
HETATM   10  C7  UNL     1     -36.965  15.523  -5.272  1.00 20.00     0.030 C 
HETATM   11  C5  UNL     1     -36.875  14.207  -4.512  1.00 20.00     0.010 C 
ENDBRANCH   8  10
ENDBRANCH   7   8
ENDBRANCH   5   7
ENDBRANCH   4   5
ENDBRANCH   3   4
TORSDOF 5
ENDMDL
MODEL 5
REMARK VINA RESULT:      -4.0     11.346     13.028
REMARK  5 active torsions:
REMARK  status: ('A' for Active; 'I' for Inactive)
REMARK    1  A    between atoms: C4_4  and  C7_7 
REMARK    2  A    between atoms: C4_4  and  C8_8 
REMARK    3  A    between atoms: C6_6  and  C9_9 
REMARK    4  A    between atoms: C8_8  and  N10_10 
REMARK    5  A    between atoms: C9_9  and  N10_10 
ROOT
HETATM    1  C1  UNL     1     -36.380  17.694  -5.352  1.00 20.00     0.012 C 
HETATM    2  C2  UNL     1     -35.604  17.106  -6.054  1.00 20.00    -0.116 C 
HETATM    3  C6  UNL     1     -34.651  16.390  -6.915  1.00 20.00     0.123 C 
ENDROOT
BRANCH   3   4
HETATM    4  C9  UNL     1     -34.371  14.978  -6.408  1.00 20.00     0.282 C 
BRANCH   4   5
HETATM    5  N10 UNL     1     -33.078  14.914  -5.742  1.00 20.00     0.088 N 
HETATM    6  H25 UNL     1     -32.473  14.262  -6.238  1.00 20.00     0.316 HD
BRANCH   5   7
HETATM    7  C8  UNL     1     -33.227  14.466  -4.360  1.00 20.00     0.302 C 
BRANCH   7   8
HETATM    8  C4  UNL     1     -33.672  15.571  -3.431  1.00 20.00    -0.062 C 
HETATM    9  C3  UNL     1     -32.912  16.666  -3.252  1.00 20.00     0.016 C 
BRANCH   8  10
HETATM   10  C7  UNL     1     -34.990  15.416  -2.706  1.00 20.00     0.030 C 
HETATM   11  C5  UNL     1     -35.195  16.463  -1.620  1.00 20.00     0.010 C 
ENDBRANCH   8  10
ENDBRANCH   7   8
ENDBRANCH   5   7
ENDBRANCH   4   5
ENDBRANCH   3   4
TORSDOF 5
ENDMDL
MODEL 6
REMARK VINA RESULT:      -3.9      9.701     10.645
REMARK  5 active torsions:
REMARK  status: ('A' for Active; 'I' for Inactive)
REMARK    1  A    between atoms: C4_4  and  C7_7 
REMARK    2  A    between atoms: C4_4  and  C8_8 
REMARK    3  A    between atoms: C6_6  and  C9_9 
REMARK    4  A    between atoms: C8_8  and  N10_10 
REMARK    5  A    between atoms: C9_9  and  N10_10 
ROOT
HETATM    1  C1  UNL     1     -41.552   2.385  -4.199  1.00 20.00     0.012 C 
HETATM    2  C2  UNL     1     -42.365   2.799  -3.419  1.00 20.00    -0.116 C 
HETATM    3  C6  UNL     1     -43.363   3.301  -2.463  1.00 20.00     0.123 C 
ENDROOT
BRANCH   3   4
HETATM    4  C9  UNL     1     -43.016   4.699  -1.957  1.00 20.00     0.282 C 
BRANCH   4   5
HETATM    5  N10 UNL     1     -42.113   4.628  -0.818  1.00 20.00     0.088 N 
HETATM    6  H25 UNL     1     -42.655   4.616   0.044  1.00 20.00     0.316 HD
BRANCH   5   7
HETATM    7  C8  UNL     1     -41.212   5.777  -0.798  1.00 20.00     0.302 C 
BRANCH   7   8
HETATM    8  C4  UNL     1     -41.820   6.986  -0.127  1.00 20.00    -0.062 C 
HETATM    9  C3  UNL     1     -42.576   6.853   0.976  1.00 20.00     0.016 C 
BRANCH   8  10
HETATM   10  C7  UNL     1     -41.557   8.350  -0.726  1.00 20.00     0.030 C 
HETATM   11  C5  UNL     1     -41.378   9.435   0.326  1.00 20.00     0.010 C 
ENDBRANCH   8  10
ENDBRANCH   7   8
ENDBRANCH   5   7
ENDBRANCH   4   5
ENDBRANCH   3   4
TORSDOF 5
ENDMDL
MODEL 7
REMARK VINA RESULT:      -3.9     11.342     13.107
REMARK  5 active torsions:
REMARK  status: ('A' for Active; 'I' for Inactive)
REMARK    1  A    between atoms: C4_4  and  C7_7 
REMARK    2  A    between atoms: C4_4  and  C8_8 
REMARK    3  A    between atoms: C6_6  and  C9_9 
REMARK    4  A    between atoms: C8_8  and  N10_10 
REMARK    5  A    between atoms: C9_9  and  N10_10 
ROOT
HETATM    1  C1  UNL     1     -36.235  17.691  -5.576  1.00 20.00     0.012 C 
HETATM    2  C2  UNL     1     -35.375  17.141  -6.208  1.00 20.00    -0.116 C 
HETATM    3  C6  UNL     1     -34.320  16.471  -6.984  1.00 20.00     0.123 C 
ENDROOT
BRANCH   3   4
HETATM    4  C9  UNL     1     -34.153  15.010  -6.577  1.00 20.00     0.282 C 
BRANCH   4   5
HETATM    5  N10 UNL     1     -33.115  14.869  -5.566  1.00 20.00     0.088 N 
HETATM    6  H25 UNL     1     -32.412  14.208  -5.892  1.00 20.00     0.316 HD
BRANCH   5   7
HETATM    7  C8  UNL     1     -33.678  14.384  -4.309  1.00 20.00     0.302 C 
BRANCH   7   8
HETATM    8  C4  UNL     1     -33.969  15.496  -3.329  1.00 20.00    -0.062 C 
HETATM    9  C3  UNL     1     -35.133  15.534  -2.659  1.00 20.00     0.016 C 
BRANCH   8  10
HETATM   10  C7  UNL     1     -32.920  16.566  -3.120  1.00 20.00     0.030 C 
HETATM   11  C5  UNL     1     -33.212  17.456  -1.921  1.00 20.00     0.010 C 
ENDBRANCH   8  10
ENDBRANCH   7   8
ENDBRANCH   5   7
ENDBRANCH   4   5
ENDBRANCH   3   4
TORSDOF 5
ENDMDL
MODEL 8
REMARK VINA RESULT:      -3.9     11.439     12.038
REMARK  5 active torsions:
REMARK  status: ('A' for Active; 'I' for Inactive)
REMARK    1  A    between atoms: C4_4  and  C7_7 
REMARK    2  A    between atoms: C4_4  and  C8_8 
REMARK    3  A    between atoms: C6_6  and  C9_9 
REMARK    4  A    between atoms: C8_8  and  N10_10 
REMARK    5  A    between atoms: C9_9  and  N10_10 
ROOT
HETATM    1  C1  UNL     1     -35.520  17.271  -0.291  1.00 20.00     0.012 C 
HETATM    2  C2  UNL     1     -35.099  16.668  -1.240  1.00 20.00    -0.116 C 
HETATM    3  C6  UNL     1     -34.589  15.927  -2.403  1.00 20.00     0.123 C 
ENDROOT
BRANCH   3   4
HETATM    4  C9  UNL     1     -33.258  16.485  -2.897  1.00 20.00     0.282 C 
BRANCH   4   5
HETATM    5  N10 UNL     1     -32.903  15.915  -4.188  1.00 20.00     0.088 N 
HETATM    6  H25 UNL     1     -33.060  16.606  -4.919  1.00 20.00     0.316 HD
BRANCH   5   7
HETATM    7  C8  UNL     1     -33.709  14.731  -4.472  1.00 20.00     0.302 C 
BRANCH   7   8
HETATM    8  C4  UNL     1     -34.435  14.819  -5.794  1.00 20.00    -0.062 C 
HETATM    9  C3  UNL     1     -33.766  15.083  -6.929  1.00 20.00     0.016 C 
BRANCH   8  10
HETATM   10  C7  UNL     1     -35.932  14.603  -5.809  1.00 20.00     0.030 C 
HETATM   11  C5  UNL     1     -36.418  13.742  -4.652  1.00 20.00     0.010 C 
ENDBRANCH   8  10
ENDBRANCH   7   8
ENDBRANCH   5   7
ENDBRANCH   4   5
ENDBRANCH   3   4
TORSDOF 5
ENDMDL
MODEL 9
REMARK VINA RESULT:      -3.8     11.499     12.952
REMARK  5 active torsions:
REMARK  status: ('A' for Active; 'I' for Inactive)
REMARK    1  A    between atoms: C4_4  and  C7_7 
REMARK    2  A    between atoms: C4_4  and  C8_8 
REMARK    3  A    between atoms: C6_6  and  C9_9 
REMARK    4  A    between atoms: C8_8  and  N10_10 
REMARK    5  A    between atoms: C9_9  and  N10_10 
ROOT
HETATM    1  C1  UNL     1     -35.086  16.227  -1.935  1.00 20.00     0.012 C 
HETATM    2  C2  UNL     1     -34.163  15.985  -2.664  1.00 20.00    -0.116 C 
HETATM    3  C6  UNL     1     -33.029  15.691  -3.552  1.00 20.00     0.123 C 
ENDROOT
BRANCH   3   4
HETATM    4  C9  UNL     1     -33.325  14.523  -4.489  1.00 20.00     0.282 C 
BRANCH   4   5
HETATM    5  N10 UNL     1     -33.199  14.930  -5.881  1.00 20.00     0.088 N 
HETATM    6  H25 UNL     1     -32.785  15.859  -5.926  1.00 20.00     0.316 HD
BRANCH   5   7
HETATM    7  C8  UNL     1     -34.505  14.960  -6.533  1.00 20.00     0.302 C 
BRANCH   7   8
HETATM    8  C4  UNL     1     -35.260  16.243  -6.277  1.00 20.00    -0.062 C 
HETATM    9  C3  UNL     1     -36.504  16.218  -5.770  1.00 20.00     0.016 C 
BRANCH   8  10
HETATM   10  C7  UNL     1     -34.583  17.555  -6.605  1.00 20.00     0.030 C 
HETATM   11  C5  UNL     1     -34.547  18.514  -5.424  1.00 20.00     0.010 C 
ENDBRANCH   8  10
ENDBRANCH   7   8
ENDBRANCH   5   7
ENDBRANCH   4   5
ENDBRANCH   3   4
TORSDOF 5
ENDMDL
