MODEL 1
REMARK VINA RESULT:      -4.4      0.000      0.000
REMARK  5 active torsions:
REMARK  status: ('A' for Active; 'I' for Inactive)
REMARK    1  A    between atoms: C2_2  and  C7_7 
REMARK    2  A    between atoms: C2_2  and  C8_8 
REMARK    3  A    between atoms: C3_3  and  C7_7 
REMARK    4  A    between atoms: C3_3  and  C10_10 
REMARK    5  A    between atoms: C9_9  and  C10_10 
ROOT
HETATM    1  C3  UNL     1     -36.264  14.259  -4.651  1.00 20.00     0.134 C 
HETATM    2  O11 UNL     1     -37.325  13.659  -4.476  1.00 20.00    -0.297 OA
ENDROOT
BRANCH   1   3
HETATM    3  C7  UNL     1     -34.996  13.928  -3.871  1.00 20.00     0.111 C 
BRANCH   3   4
HETATM    4  C2  UNL     1     -34.344  15.169  -3.310  1.00 20.00    -0.083 C 
HETATM    5  C1  UNL     1     -33.131  15.545  -3.747  1.00 20.00     0.014 C 
BRANCH   4   6
HETATM    6  C8  UNL     1     -35.140  15.892  -2.243  1.00 20.00     0.029 C 
HETATM    7  C4  UNL     1     -34.439  17.027  -1.505  1.00 20.00     0.010 C 
ENDBRANCH   4   6
ENDBRANCH   3   4
ENDBRANCH   1   3
BRANCH   1   8
HETATM    8  C10 UNL     1     -36.147  15.395  -5.667  1.00 20.00     0.051 C 
HETATM    9  C6  UNL     1     -37.505  16.082  -5.778  1.00 20.00     0.018 C 
BRANCH   8  10
HETATM   10  C9  UNL     1     -35.679  14.893  -7.041  1.00 20.00     0.007 C 
HETATM   11  C5  UNL     1     -34.242  15.295  -7.351  1.00 20.00     0.006 C 
ENDBRANCH   8  10
ENDBRANCH   1   8
TORSDOF 5
ENDMDL
MODEL 2
REMARK VINA RESULT:      -4.2      1.119      1.742
REMARK  5 active torsions:
REMARK  status: ('A' for Active; 'I' for Inactive)
REMARK    1  A    between atoms: C2_2  and  C7_7 
REMARK    2  A    between atoms: C2_2  and  C8_8 
REMARK    3  A    between atoms: C3_3  and  C7_7 
REMARK    4  A    between atoms: C3_3  and  C10_10 
REMARK    5  A    between atoms: C9_9  and  C10_10 
ROOT
HETATM    1  C3  UNL     1     -35.834  13.993  -4.448  1.00 20.00     0.134 C 
HETATM    2  O11 UNL     1     -35.843  12.766  -4.549  1.00 20.00    -0.297 OA
ENDROOT
BRANCH   1   3
HETATM    3  C7  UNL     1     -35.165  14.713  -3.282  1.00 20.00     0.111 C 
BRANCH   3   4
HETATM    4  C2  UNL     1     -33.764  15.157  -3.627  1.00 20.00    -0.083 C 
HETATM    5  C1  UNL     1     -32.999  14.397  -4.428  1.00 20.00     0.014 C 
BRANCH   4   6
HETATM    6  C8  UNL     1     -33.322  16.459  -2.992  1.00 20.00     0.029 C 
HETATM    7  C4  UNL     1     -34.162  16.986  -1.834  1.00 20.00     0.010 C 
ENDBRANCH   4   6
ENDBRANCH   3   4
ENDBRANCH   1   3
BRANCH   1   8
HETATM    8  C10 UNL     1     -36.505  14.887  -5.490  1.00 20.00     0.051 C 
HETATM    9  C6  UNL     1     -35.678  14.833  -6.772  1.00 20.00     0.018 C 
BRANCH   8  10
HETATM   10  C9  UNL     1     -36.651  16.334  -4.999  1.00 20.00     0.007 C 
HETATM   11  C5  UNL     1     -35.865  17.322  -5.853  1.00 20.00     0.006 C 
ENDBRANCH   8  10
ENDBRANCH   1   8
TORSDOF 5
ENDMDL
MODEL 3
REMARK VINA RESULT:      -4.2      1.019      1.895
REMARK  5 active torsions:
REMARK  status: ('A' for Active; 'I' for Inactive)
REMARK    1  A    between atoms: C2_2  and  C7_7 
REMARK    2  A    between atoms: C2_2  and  C8_8 
REMARK    3  A    between atoms: C3_3  and  C7_7 
REMARK    4  A    between atoms: C3_3  and  C10_10 
REMARK    5  A    between atoms: C9_9  and  C10_10 
ROOT
HETATM    1  C3  UNL     1     -35.876  14.131  -4.740  1.00 20.00     0.134 C 
HETATM    2  O11 UNL     1     -36.900  13.591  -4.320  1.00 20.00    -0.297 OA
ENDROOT
BRANCH   1   3
HETATM    3  C7  UNL     1     -34.579  14.161  -3.940  1.00 20.00     0.111 C 
BRANCH   3   4
HETATM    4  C2  UNL     1     -34.451  15.428  -3.128  1.00 20.00    -0.083 C 
HETATM    5  C1  UNL     1     -35.478  15.843  -2.368  1.00 20.00     0.014 C 
BRANCH   4   6
HETATM    6  C8  UNL     1     -33.132  16.158  -3.272  1.00 20.00     0.029 C 
HETATM    7  C4  UNL     1     -32.878  17.324  -2.322  1.00 20.00     0.010 C 
ENDBRANCH   4   6
ENDBRANCH   3   4
ENDBRANCH   1   3
BRANCH   1   8
HETATM    8  C10 UNL     1     -35.837  14.821  -6.104  1.00 20.00     0.051 C 
HETATM    9  C6  UNL     1     -34.380  14.931  -6.544  1.00 20.00     0.018 C 
BRANCH   8  10
HETATM   10  C9  UNL     1     -36.499  16.206  -6.067  1.00 20.00     0.007 C 
HETATM   11  C5  UNL     1     -35.481  17.339  -6.097  1.00 20.00     0.006 C 
ENDBRANCH   8  10
ENDBRANCH   1   8
TORSDOF 5
ENDMDL
MODEL 4
REMARK VINA RESULT:      -4.2     10.874     12.487
REMARK  5 active torsions:
REMARK  status: ('A' for Active; 'I' for Inactive)
REMARK    1  A    between atoms: C2_2  and  C7_7 
REMARK    2  A    between atoms: C2_2  and  C8_8 
REMARK    3  A    between atoms: C3_3  and  C7_7 
REMARK    4  A    between atoms: C3_3  and  C10_10 
REMARK    5  A    between atoms: C9_9  and  C10_10 
ROOT
HETATM    1  C3  UNL     1     -33.679   5.155   3.022  1.00 20.00     0.134 C 
HETATM    2  O11 UNL     1     -32.832   4.390   2.561  1.00 20.00    -0.297 OA
ENDROOT
BRANCH   1   3
HETATM    3  C7  UNL     1     -33.856   6.582   2.515  1.00 20.00     0.111 C 
BRANCH   3   4
HETATM    4  C2  UNL     1     -32.535   7.306   2.409  1.00 20.00    -0.083 C 
HETATM    5  C1  UNL     1     -31.767   7.463   3.500  1.00 20.00     0.014 C 
BRANCH   4   6
HETATM    6  C8  UNL     1     -32.194   7.834   1.031  1.00 20.00     0.029 C 
HETATM    7  C4  UNL     1     -32.944   9.074   0.557  1.00 20.00     0.010 C 
ENDBRANCH   4   6
ENDBRANCH   3   4
ENDBRANCH   1   3
BRANCH   1   8
HETATM    8  C10 UNL     1     -34.615   4.726   4.152  1.00 20.00     0.051 C 
HETATM    9  C6  UNL     1     -35.920   5.507   4.016  1.00 20.00     0.018 C 
BRANCH   8  10
HETATM   10  C9  UNL     1     -33.989   4.953   5.536  1.00 20.00     0.007 C 
HETATM   11  C5  UNL     1     -34.287   6.340   6.090  1.00 20.00     0.006 C 
ENDBRANCH   8  10
ENDBRANCH   1   8
TORSDOF 5
ENDMDL
MODEL 5
REMARK VINA RESULT:      -4.1      1.615      2.302
REMARK  5 active torsions:
REMARK  status: ('A' for Active; 'I' for Inactive)
REMARK    1  A    between atoms: C2_2  and  C7_7 
REMARK    2  A    between atoms: C2_2  and  C8_8 
REMARK    3  A    between atoms: C3_3  and  C7_7 
REMARK    4  A    between atoms: C3_3  and  C10_10 
REMARK    5  A    between atoms: C9_9  and  C10_10 
ROOT
HETATM    1  C3  UNL     1     -34.674  14.604  -5.187  1.00 20.00     0.134 C 
HETATM    2  O11 UNL     1     -33.783  14.636  -6.036  1.00 20.00    -0.297 OA
ENDROOT
BRANCH   1   3
HETATM    3  C7  UNL     1     -34.386  14.395  -3.704  1.00 20.00     0.111 C 
BRANCH   3   4
HETATM    4  C2  UNL     1     -34.151  15.704  -2.990  1.00 20.00    -0.083 C 
HETATM    5  C1  UNL     1     -33.009  16.382  -3.190  1.00 20.00     0.014 C 
BRANCH   4   6
HETATM    6  C8  UNL     1     -35.261  16.139  -2.055  1.00 20.00     0.029 C 
HETATM    7  C4  UNL     1     -34.881  17.083  -0.919  1.00 20.00     0.010 C 
ENDBRANCH   4   6
ENDBRANCH   3   4
ENDBRANCH   1   3
BRANCH   1   8
HETATM    8  C10 UNL     1     -36.146  14.766  -5.566  1.00 20.00     0.051 C 
HETATM    9  C6  UNL     1     -36.428  16.253  -5.769  1.00 20.00     0.018 C 
BRANCH   8  10
HETATM   10  C9  UNL     1     -37.083  14.176  -4.503  1.00 20.00     0.007 C 
HETATM   11  C5  UNL     1     -38.331  15.024  -4.290  1.00 20.00     0.006 C 
ENDBRANCH   8  10
ENDBRANCH   1   8
TORSDOF 5
ENDMDL
MODEL 6
REMARK VINA RESULT:      -4.0      1.056      3.759
REMARK  5 active torsions:
REMARK  status: ('A' for Active; 'I' for Inactive)
REMARK    1  A    between atoms: C2_2  and  C7_7 
REMARK    2  A    between atoms: C2_2  and  C8_8 
REMARK    3  A    between atoms: C3_3  and  C7_7 
REMARK    4  A    between atoms: C3_3  and  C10_10 
REMARK    5  A    between atoms: C9_9  and  C10_10 
ROOT
HETATM    1  C3  UNL     1     -35.882  14.032  -4.383  1.00 20.00     0.134 C 
HETATM    2  O11 UNL     1     -35.891  12.832  -4.661  1.00 20.00    -0.297 OA
ENDROOT
BRANCH   1   3
HETATM    3  C7  UNL     1     -36.815  15.035  -5.054  1.00 20.00     0.111 C 
BRANCH   3   4
HETATM    4  C2  UNL     1     -36.114  15.807  -6.146  1.00 20.00    -0.083 C 
HETATM    5  C1  UNL     1     -36.114  17.150  -6.124  1.00 20.00     0.014 C 
BRANCH   4   6
HETATM    6  C8  UNL     1     -35.468  14.961  -7.225  1.00 20.00     0.029 C 
HETATM    7  C4  UNL     1     -34.008  15.251  -7.553  1.00 20.00     0.010 C 
ENDBRANCH   4   6
ENDBRANCH   3   4
ENDBRANCH   1   3
BRANCH   1   8
HETATM    8  C10 UNL     1     -34.921  14.605  -3.342  1.00 20.00     0.051 C 
HETATM    9  C6  UNL     1     -35.580  15.824  -2.702  1.00 20.00     0.018 C 
BRANCH   8  10
HETATM   10  C9  UNL     1     -33.564  14.981  -3.955  1.00 20.00     0.007 C 
HETATM   11  C5  UNL     1     -33.079  16.352  -3.500  1.00 20.00     0.006 C 
ENDBRANCH   8  10
ENDBRANCH   1   8
TORSDOF 5
ENDMDL
MODEL 7
REMARK VINA RESULT:      -4.0     10.863     12.205
REMARK  5 active torsions:
REMARK  status: ('A' for Active; 'I' for Inactive)
REMARK    1  A    between atoms: C2_2  and  C7_7 
REMARK    2  A    between atoms: C2_2  and  C8_8 
REMARK    3  A    between atoms: C3_3  and  C7_7 
REMARK    4  A    between atoms: C3_3  and  C10_10 
REMARK    5  A    between atoms: C9_9  and  C10_10 
ROOT
HETATM    1  C3  UNL     1     -33.176   5.995   2.551  1.00 20.00     0.134 C 
HETATM    2  O11 UNL     1     -32.956   4.883   2.070  1.00 20.00    -0.297 OA
ENDROOT
BRANCH   1   3
HETATM    3  C7  UNL     1     -34.365   6.272   3.465  1.00 20.00     0.111 C 
BRANCH   3   4
HETATM    4  C2  UNL     1     -34.462   5.256   4.578  1.00 20.00    -0.083 C 
HETATM    5  C1  UNL     1     -34.452   3.944   4.291  1.00 20.00     0.014 C 
BRANCH   4   6
HETATM    6  C8  UNL     1     -34.594   5.834   5.972  1.00 20.00     0.029 C 
HETATM    7  C4  UNL     1     -33.844   7.130   6.260  1.00 20.00     0.010 C 
ENDBRANCH   4   6
ENDBRANCH   3   4
ENDBRANCH   1   3
BRANCH   1   8
HETATM    8  C10 UNL     1     -32.267   7.189   2.256  1.00 20.00     0.051 C 
HETATM    9  C6  UNL     1     -31.612   7.627   3.563  1.00 20.00     0.018 C 
BRANCH   8  10
HETATM   10  C9  UNL     1     -33.036   8.354   1.617  1.00 20.00     0.007 C 
HETATM   11  C5  UNL     1     -32.820   8.440   0.112  1.00 20.00     0.006 C 
ENDBRANCH   8  10
ENDBRANCH   1   8
TORSDOF 5
ENDMDL
MODEL 8
REMARK VINA RESULT:      -4.0      1.712      2.610
REMARK  5 active torsions:
REMARK  status: ('A' for Active; 'I' for Inactive)
REMARK    1  A    between atoms: C2_2  and  C7_7 
REMARK    2  A    between atoms: C2_2  and  C8_8 
REMARK    3  A    between atoms: C3_3  and  C7_7 
REMARK    4  A    between atoms: C3_3  and  C10_10 
REMARK    5  A    between atoms: C9_9  and  C10_10 
ROOT
HETATM    1  C3  UNL     1     -34.364  15.786  -4.837  1.00 20.00     0.134 C 
HETATM    2  O11 UNL     1     -34.591  16.910  -5.286  1.00 20.00    -0.297 OA
ENDROOT
BRANCH   1   3
HETATM    3  C7  UNL     1     -33.432  15.551  -3.653  1.00 20.00     0.111 C 
BRANCH   3   4
HETATM    4  C2  UNL     1     -33.739  16.482  -2.506  1.00 20.00    -0.083 C 
HETATM    5  C1  UNL     1     -32.850  17.425  -2.150  1.00 20.00     0.014 C 
BRANCH   4   6
HETATM    6  C8  UNL     1     -35.066  16.242  -1.815  1.00 20.00     0.029 C 
HETATM    7  C4  UNL     1     -35.329  17.016  -0.528  1.00 20.00     0.010 C 
ENDBRANCH   4   6
ENDBRANCH   3   4
ENDBRANCH   1   3
BRANCH   1   8
HETATM    8  C10 UNL     1     -35.000  14.537  -5.446  1.00 20.00     0.051 C 
HETATM    9  C6  UNL     1     -35.761  14.951  -6.703  1.00 20.00     0.018 C 
BRANCH   8  10
HETATM   10  C9  UNL     1     -35.933  13.825  -4.456  1.00 20.00     0.007 C 
HETATM   11  C5  UNL     1     -37.286  14.515  -4.332  1.00 20.00     0.006 C 
ENDBRANCH   8  10
ENDBRANCH   1   8
TORSDOF 5
ENDMDL
MODEL 9
REMARK VINA RESULT:      -4.0      1.802      2.904
REMARK  5 active torsions:
REMARK  status: ('A' for Active; 'I' for Inactive)
REMARK    1  A    between atoms: C2_2  and  C7_7 
REMARK    2  A    between atoms: C2_2  and  C8_8 
REMARK    3  A    between atoms: C3_3  and  C7_7 
REMARK    4  A    between atoms: C3_3  and  C10_10 
REMARK    5  A    between atoms: C9_9  and  C10_10 
ROOT
HETATM    1  C3  UNL     1     -34.051  16.079  -4.895  1.00 20.00     0.134 C 
HETATM    2  O11 UNL     1     -34.419  17.215  -5.195  1.00 20.00    -0.297 OA
ENDROOT
BRANCH   1   3
HETATM    3  C7  UNL     1     -33.244  15.785  -3.635  1.00 20.00     0.111 C 
BRANCH   3   4
HETATM    4  C2  UNL     1     -33.828  16.473  -2.424  1.00 20.00    -0.083 C 
HETATM    5  C1  UNL     1     -35.036  16.109  -1.963  1.00 20.00     0.014 C 
BRANCH   4   6
HETATM    6  C8  UNL     1     -32.972  17.573  -1.830  1.00 20.00     0.029 C 
HETATM    7  C4  UNL     1     -33.407  18.139  -0.483  1.00 20.00     0.010 C 
ENDBRANCH   4   6
ENDBRANCH   3   4
ENDBRANCH   1   3
BRANCH   1   8
HETATM    8  C10 UNL     1     -34.375  14.874  -5.778  1.00 20.00     0.051 C 
HETATM    9  C6  UNL     1     -33.919  15.186  -7.201  1.00 20.00     0.018 C 
BRANCH   8  10
HETATM   10  C9  UNL     1     -35.871  14.526  -5.752  1.00 20.00     0.007 C 
HETATM   11  C5  UNL     1     -36.244  13.646  -4.566  1.00 20.00     0.006 C 
ENDBRANCH   8  10
ENDBRANCH   1   8
TORSDOF 5
ENDMDL
