MODEL 1
REMARK VINA RESULT:      -4.5      0.000      0.000
REMARK  3 active torsions:
REMARK  status: ('A' for Active; 'I' for Inactive)
REMARK    1  A    between atoms: C6_6  and  C7_7 
REMARK    2  A    between atoms: C6_6  and  C8_8 
REMARK    3  A    between atoms: C8_8  and  O10_10 
ROOT
HETATM    1  C1  UNL     1     -36.422  14.302  -4.546  1.00 20.00     0.097 C 
HETATM    2  C4  UNL     1     -35.373  16.407  -5.256  1.00 20.00     0.062 C 
HETATM    3  C8  UNL     1     -35.136  15.012  -4.662  1.00 20.00     0.144 C 
HETATM    4  N9  UNL     1     -37.435  13.742  -4.453  1.00 20.00    -0.194 NA
ENDROOT
BRANCH   3   5
HETATM    5  C6  UNL     1     -34.437  15.150  -3.291  1.00 20.00     0.057 C 
BRANCH   5   6
HETATM    6  C7  UNL     1     -34.373  16.564  -2.662  1.00 20.00    -0.019 C 
HETATM    7  C2  UNL     1     -35.157  16.566  -1.344  1.00 20.00     0.009 C 
HETATM    8  C3  UNL     1     -32.951  17.060  -2.407  1.00 20.00     0.009 C 
ENDBRANCH   5   6
ENDBRANCH   3   5
BRANCH   3   9
HETATM    9  O10 UNL     1     -34.275  14.312  -5.558  1.00 20.00    -0.371 OA
HETATM   10  C5  UNL     1     -34.040  15.062  -6.739  1.00 20.00     0.204 C 
ENDBRANCH   3   9
TORSDOF 3
ENDMDL
MODEL 2
REMARK VINA RESULT:      -4.3      1.472      2.095
REMARK  3 active torsions:
REMARK  status: ('A' for Active; 'I' for Inactive)
REMARK    1  A    between atoms: C6_6  and  C7_7 
REMARK    2  A    between atoms: C6_6  and  C8_8 
REMARK    3  A    between atoms: C8_8  and  O10_10 
ROOT
HETATM    1  C1  UNL     1     -36.184  13.645  -4.589  1.00 20.00     0.097 C 
HETATM    2  C4  UNL     1     -38.020  15.247  -4.271  1.00 20.00     0.062 C 
HETATM    3  C8  UNL     1     -36.622  15.025  -4.863  1.00 20.00     0.144 C 
HETATM    4  N9  UNL     1     -35.837  12.559  -4.371  1.00 20.00    -0.194 NA
ENDROOT
BRANCH   3   5
HETATM    5  C6  UNL     1     -35.643  16.062  -4.271  1.00 20.00     0.057 C 
BRANCH   5   6
HETATM    6  C7  UNL     1     -34.746  15.604  -3.094  1.00 20.00    -0.019 C 
HETATM    7  C2  UNL     1     -33.276  15.847  -3.456  1.00 20.00     0.009 C 
HETATM    8  C3  UNL     1     -35.064  16.300  -1.772  1.00 20.00     0.009 C 
ENDBRANCH   5   6
ENDBRANCH   3   5
BRANCH   3   9
HETATM    9  O10 UNL     1     -36.724  15.229  -6.272  1.00 20.00    -0.371 OA
HETATM   10  C5  UNL     1     -35.465  15.074  -6.908  1.00 20.00     0.204 C 
ENDBRANCH   3   9
TORSDOF 3
ENDMDL
MODEL 3
REMARK VINA RESULT:      -4.2      1.946      2.882
REMARK  3 active torsions:
REMARK  status: ('A' for Active; 'I' for Inactive)
REMARK    1  A    between atoms: C6_6  and  C7_7 
REMARK    2  A    between atoms: C6_6  and  C8_8 
REMARK    3  A    between atoms: C8_8  and  O10_10 
ROOT
HETATM    1  C1  UNL     1     -36.042  14.459  -6.045  1.00 20.00     0.097 C 
HETATM    2  C4  UNL     1     -35.295  13.141  -4.110  1.00 20.00     0.062 C 
HETATM    3  C8  UNL     1     -36.253  14.233  -4.604  1.00 20.00     0.144 C 
HETATM    4  N9  UNL     1     -35.874  14.639  -7.179  1.00 20.00    -0.194 NA
ENDROOT
BRANCH   3   5
HETATM    5  C6  UNL     1     -36.025  15.524  -3.787  1.00 20.00     0.057 C 
BRANCH   5   6
HETATM    6  C7  UNL     1     -34.822  15.547  -2.812  1.00 20.00    -0.019 C 
HETATM    7  C2  UNL     1     -33.592  16.101  -3.541  1.00 20.00     0.009 C 
HETATM    8  C3  UNL     1     -35.072  16.366  -1.546  1.00 20.00     0.009 C 
ENDBRANCH   5   6
ENDBRANCH   3   5
BRANCH   3   9
HETATM    9  O10 UNL     1     -37.581  13.763  -4.377  1.00 20.00    -0.371 OA
HETATM   10  C5  UNL     1     -38.493  14.841  -4.240  1.00 20.00     0.204 C 
ENDBRANCH   3   9
TORSDOF 3
ENDMDL
MODEL 4
REMARK VINA RESULT:      -4.1      1.800      2.668
REMARK  3 active torsions:
REMARK  status: ('A' for Active; 'I' for Inactive)
REMARK    1  A    between atoms: C6_6  and  C7_7 
REMARK    2  A    between atoms: C6_6  and  C8_8 
REMARK    3  A    between atoms: C8_8  and  O10_10 
ROOT
HETATM    1  C1  UNL     1     -34.064  14.994  -6.243  1.00 20.00     0.097 C 
HETATM    2  C4  UNL     1     -32.627  14.339  -4.360  1.00 20.00     0.062 C 
HETATM    3  C8  UNL     1     -34.039  14.762  -4.788  1.00 20.00     0.144 C 
HETATM    4  N9  UNL     1     -34.083  15.179  -7.389  1.00 20.00    -0.194 NA
ENDROOT
BRANCH   3   5
HETATM    5  C6  UNL     1     -34.456  16.025  -4.003  1.00 20.00     0.057 C 
BRANCH   5   6
HETATM    6  C7  UNL     1     -33.998  16.130  -2.528  1.00 20.00    -0.019 C 
HETATM    7  C2  UNL     1     -32.989  17.277  -2.392  1.00 20.00     0.009 C 
HETATM    8  C3  UNL     1     -35.145  16.347  -1.542  1.00 20.00     0.009 C 
ENDBRANCH   5   6
ENDBRANCH   3   5
BRANCH   3   9
HETATM    9  O10 UNL     1     -34.920  13.690  -4.454  1.00 20.00    -0.371 OA
HETATM   10  C5  UNL     1     -36.277  14.060  -4.641  1.00 20.00     0.204 C 
ENDBRANCH   3   9
TORSDOF 3
ENDMDL
MODEL 5
REMARK VINA RESULT:      -3.9      1.283      1.774
REMARK  3 active torsions:
REMARK  status: ('A' for Active; 'I' for Inactive)
REMARK    1  A    between atoms: C6_6  and  C7_7 
REMARK    2  A    between atoms: C6_6  and  C8_8 
REMARK    3  A    between atoms: C8_8  and  O10_10 
ROOT
HETATM    1  C1  UNL     1     -36.651  14.170  -4.653  1.00 20.00     0.097 C 
HETATM    2  C4  UNL     1     -35.194  14.930  -6.479  1.00 20.00     0.062 C 
HETATM    3  C8  UNL     1     -35.326  14.733  -4.963  1.00 20.00     0.144 C 
HETATM    4  N9  UNL     1     -37.696  13.728  -4.408  1.00 20.00    -0.194 NA
ENDROOT
BRANCH   3   5
HETATM    5  C6  UNL     1     -35.100  16.084  -4.248  1.00 20.00     0.057 C 
BRANCH   5   6
HETATM    6  C7  UNL     1     -35.843  16.315  -2.910  1.00 20.00    -0.019 C 
HETATM    7  C2  UNL     1     -34.818  16.417  -1.774  1.00 20.00     0.009 C 
HETATM    8  C3  UNL     1     -36.729  17.560  -2.905  1.00 20.00     0.009 C 
ENDBRANCH   5   6
ENDBRANCH   3   5
BRANCH   3   9
HETATM    9  O10 UNL     1     -34.306  13.818  -4.566  1.00 20.00    -0.371 OA
HETATM   10  C5  UNL     1     -33.047  14.463  -4.456  1.00 20.00     0.204 C 
ENDBRANCH   3   9
TORSDOF 3
ENDMDL
MODEL 6
REMARK VINA RESULT:      -3.9      1.803      2.286
REMARK  3 active torsions:
REMARK  status: ('A' for Active; 'I' for Inactive)
REMARK    1  A    between atoms: C6_6  and  C7_7 
REMARK    2  A    between atoms: C6_6  and  C8_8 
REMARK    3  A    between atoms: C8_8  and  O10_10 
ROOT
HETATM    1  C1  UNL     1     -34.459  14.893  -5.678  1.00 20.00     0.097 C 
HETATM    2  C4  UNL     1     -36.332  13.818  -4.506  1.00 20.00     0.062 C 
HETATM    3  C8  UNL     1     -35.395  15.032  -4.548  1.00 20.00     0.144 C 
HETATM    4  N9  UNL     1     -33.720  14.783  -6.566  1.00 20.00    -0.194 NA
ENDROOT
BRANCH   3   5
HETATM    5  C6  UNL     1     -34.649  15.151  -3.201  1.00 20.00     0.057 C 
BRANCH   5   6
HETATM    6  C7  UNL     1     -34.466  16.571  -2.611  1.00 20.00    -0.019 C 
HETATM    7  C2  UNL     1     -35.145  16.639  -1.238  1.00 20.00     0.009 C 
HETATM    8  C3  UNL     1     -33.004  16.996  -2.475  1.00 20.00     0.009 C 
ENDBRANCH   5   6
ENDBRANCH   3   5
BRANCH   3   9
HETATM    9  O10 UNL     1     -36.211  16.188  -4.735  1.00 20.00    -0.371 OA
HETATM   10  C5  UNL     1     -37.101  16.021  -5.827  1.00 20.00     0.204 C 
ENDBRANCH   3   9
TORSDOF 3
ENDMDL
MODEL 7
REMARK VINA RESULT:      -3.8      1.734      2.333
REMARK  3 active torsions:
REMARK  status: ('A' for Active; 'I' for Inactive)
REMARK    1  A    between atoms: C6_6  and  C7_7 
REMARK    2  A    between atoms: C6_6  and  C8_8 
REMARK    3  A    between atoms: C8_8  and  O10_10 
ROOT
HETATM    1  C1  UNL     1     -37.390  14.804  -4.201  1.00 20.00     0.097 C 
HETATM    2  C4  UNL     1     -37.194  17.045  -3.212  1.00 20.00     0.062 C 
HETATM    3  C8  UNL     1     -36.467  15.931  -3.977  1.00 20.00     0.144 C 
HETATM    4  N9  UNL     1     -38.115  13.915  -4.375  1.00 20.00    -0.194 NA
ENDROOT
BRANCH   3   5
HETATM    5  C6  UNL     1     -35.217  15.494  -3.182  1.00 20.00     0.057 C 
BRANCH   5   6
HETATM    6  C7  UNL     1     -33.834  15.880  -3.762  1.00 20.00    -0.019 C 
HETATM    7  C2  UNL     1     -33.040  16.654  -2.703  1.00 20.00     0.009 C 
HETATM    8  C3  UNL     1     -33.010  14.683  -4.236  1.00 20.00     0.009 C 
ENDBRANCH   5   6
ENDBRANCH   3   5
BRANCH   3   9
HETATM    9  O10 UNL     1     -36.058  16.478  -5.230  1.00 20.00    -0.371 OA
HETATM   10  C5  UNL     1     -36.621  17.763  -5.441  1.00 20.00     0.204 C 
ENDBRANCH   3   9
TORSDOF 3
ENDMDL
MODEL 8
REMARK VINA RESULT:      -3.8      1.688      2.315
REMARK  3 active torsions:
REMARK  status: ('A' for Active; 'I' for Inactive)
REMARK    1  A    between atoms: C6_6  and  C7_7 
REMARK    2  A    between atoms: C6_6  and  C8_8 
REMARK    3  A    between atoms: C8_8  and  O10_10 
ROOT
HETATM    1  C1  UNL     1     -34.552  16.134  -5.254  1.00 20.00     0.097 C 
HETATM    2  C4  UNL     1     -32.893  14.483  -4.506  1.00 20.00     0.062 C 
HETATM    3  C8  UNL     1     -34.351  14.949  -4.402  1.00 20.00     0.144 C 
HETATM    4  N9  UNL     1     -34.710  17.069  -5.923  1.00 20.00    -0.194 NA
ENDROOT
BRANCH   3   5
HETATM    5  C6  UNL     1     -34.691  15.245  -2.925  1.00 20.00     0.057 C 
BRANCH   5   6
HETATM    6  C7  UNL     1     -34.512  16.701  -2.431  1.00 20.00    -0.019 C 
HETATM    7  C2  UNL     1     -35.289  16.890  -1.122  1.00 20.00     0.009 C 
HETATM    8  C3  UNL     1     -33.054  17.104  -2.216  1.00 20.00     0.009 C 
ENDBRANCH   5   6
ENDBRANCH   3   5
BRANCH   3   9
HETATM    9  O10 UNL     1     -35.171  13.876  -4.865  1.00 20.00    -0.371 OA
HETATM   10  C5  UNL     1     -36.513  14.027  -4.431  1.00 20.00     0.204 C 
ENDBRANCH   3   9
TORSDOF 3
ENDMDL
MODEL 9
REMARK VINA RESULT:      -3.7      1.624      3.648
REMARK  3 active torsions:
REMARK  status: ('A' for Active; 'I' for Inactive)
REMARK    1  A    between atoms: C6_6  and  C7_7 
REMARK    2  A    between atoms: C6_6  and  C8_8 
REMARK    3  A    between atoms: C8_8  and  O10_10 
ROOT
HETATM    1  C1  UNL     1     -35.278  13.669  -4.263  1.00 20.00     0.097 C 
HETATM    2  C4  UNL     1     -32.945  14.439  -4.311  1.00 20.00     0.062 C 
HETATM    3  C8  UNL     1     -34.413  14.858  -4.160  1.00 20.00     0.144 C 
HETATM    4  N9  UNL     1     -35.960  12.734  -4.347  1.00 20.00    -0.194 NA
ENDROOT
BRANCH   3   5
HETATM    5  C6  UNL     1     -34.760  15.910  -5.237  1.00 20.00     0.057 C 
BRANCH   5   6
HETATM    6  C7  UNL     1     -35.162  15.389  -6.638  1.00 20.00    -0.019 C 
HETATM    7  C2  UNL     1     -36.311  16.244  -7.185  1.00 20.00     0.009 C 
HETATM    8  C3  UNL     1     -34.012  15.384  -7.645  1.00 20.00     0.009 C 
ENDBRANCH   5   6
ENDBRANCH   3   5
BRANCH   3   9
HETATM    9  O10 UNL     1     -34.553  15.447  -2.868  1.00 20.00    -0.371 OA
HETATM   10  C5  UNL     1     -33.581  16.457  -2.653  1.00 20.00     0.204 C 
ENDBRANCH   3   9
TORSDOF 3
ENDMDL
