MODEL 1
REMARK VINA RESULT:      -3.9      0.000      0.000
REMARK  2 active torsions:
REMARK  status: ('A' for Active; 'I' for Inactive)
REMARK    1  A    between atoms: C5_5  and  C6_6 
REMARK    2  A    between atoms: C6_6  and  O8_8 
ROOT
HETATM    1  C1  UNL     1     -35.325  13.777  -4.334  1.00 20.00     0.097 C 
HETATM    2  C3  UNL     1     -33.030  14.658  -4.307  1.00 20.00     0.062 C 
HETATM    3  C6  UNL     1     -34.514  14.992  -4.128  1.00 20.00     0.144 C 
HETATM    4  N7  UNL     1     -35.963  12.821  -4.496  1.00 20.00    -0.194 NA
ENDROOT
BRANCH   3   5
HETATM    5  C5  UNL     1     -34.752  15.590  -2.728  1.00 20.00     0.049 C 
HETATM    6  C2  UNL     1     -33.735  16.654  -2.321  1.00 20.00     0.009 C 
ENDBRANCH   3   5
BRANCH   3   7
HETATM    7  O8  UNL     1     -34.868  15.972  -5.105  1.00 20.00    -0.371 OA
HETATM    8  C4  UNL     1     -34.431  15.590  -6.399  1.00 20.00     0.204 C 
ENDBRANCH   3   7
TORSDOF 2
ENDMDL
MODEL 2
REMARK VINA RESULT:      -3.7     16.927     18.314
REMARK  2 active torsions:
REMARK  status: ('A' for Active; 'I' for Inactive)
REMARK    1  A    between atoms: C5_5  and  C6_6 
REMARK    2  A    between atoms: C6_6  and  O8_8 
ROOT
HETATM    1  C1  UNL     1     -22.313  17.235   8.376  1.00 20.00     0.097 C 
HETATM    2  C3  UNL     1     -23.947  16.607  10.102  1.00 20.00     0.062 C 
HETATM    3  C6  UNL     1     -23.033  17.715   9.570  1.00 20.00     0.144 C 
HETATM    4  N7  UNL     1     -21.747  16.856   7.436  1.00 20.00    -0.194 NA
ENDROOT
BRANCH   3   5
HETATM    5  C5  UNL     1     -23.865  18.972   9.252  1.00 20.00     0.049 C 
HETATM    6  C2  UNL     1     -24.698  18.866   7.977  1.00 20.00     0.009 C 
ENDBRANCH   3   5
BRANCH   3   7
HETATM    7  O8  UNL     1     -22.093  18.041  10.595  1.00 20.00    -0.371 OA
HETATM    8  C4  UNL     1     -22.589  17.695  11.878  1.00 20.00     0.204 C 
ENDBRANCH   3   7
TORSDOF 2
ENDMDL
MODEL 3
REMARK VINA RESULT:      -3.6      1.031      1.270
REMARK  2 active torsions:
REMARK  status: ('A' for Active; 'I' for Inactive)
REMARK    1  A    between atoms: C5_5  and  C6_6 
REMARK    2  A    between atoms: C6_6  and  O8_8 
ROOT
HETATM    1  C1  UNL     1     -35.601  13.833  -4.510  1.00 20.00     0.097 C 
HETATM    2  C3  UNL     1     -34.001  15.104  -5.877  1.00 20.00     0.062 C 
HETATM    3  C6  UNL     1     -34.915  15.131  -4.648  1.00 20.00     0.144 C 
HETATM    4  N7  UNL     1     -36.141  12.812  -4.403  1.00 20.00    -0.194 NA
ENDROOT
BRANCH   3   5
HETATM    5  C5  UNL     1     -34.090  15.463  -3.390  1.00 20.00     0.049 C 
HETATM    6  C2  UNL     1     -34.922  15.951  -2.206  1.00 20.00     0.009 C 
ENDBRANCH   3   5
BRANCH   3   7
HETATM    7  O8  UNL     1     -35.882  16.164  -4.840  1.00 20.00    -0.371 OA
HETATM    8  C4  UNL     1     -36.545  16.024  -6.087  1.00 20.00     0.204 C 
ENDBRANCH   3   7
TORSDOF 2
ENDMDL
MODEL 4
REMARK VINA RESULT:      -3.6     17.731     18.776
REMARK  2 active torsions:
REMARK  status: ('A' for Active; 'I' for Inactive)
REMARK    1  A    between atoms: C5_5  and  C6_6 
REMARK    2  A    between atoms: C6_6  and  O8_8 
ROOT
HETATM    1  C1  UNL     1     -24.707  18.512   9.722  1.00 20.00     0.097 C 
HETATM    2  C3  UNL     1     -24.399  16.343  10.838  1.00 20.00     0.062 C 
HETATM    3  C6  UNL     1     -24.188  17.856  10.938  1.00 20.00     0.144 C 
HETATM    4  N7  UNL     1     -25.115  19.027   8.766  1.00 20.00    -0.194 NA
ENDROOT
BRANCH   3   5
HETATM    5  C5  UNL     1     -24.880  18.399  12.202  1.00 20.00     0.049 C 
HETATM    6  C2  UNL     1     -26.397  18.528  12.081  1.00 20.00     0.009 C 
ENDBRANCH   3   5
BRANCH   3   7
HETATM    7  O8  UNL     1     -22.785  18.100  11.049  1.00 20.00    -0.371 OA
HETATM    8  C4  UNL     1     -22.299  17.738  12.332  1.00 20.00     0.204 C 
ENDBRANCH   3   7
TORSDOF 2
ENDMDL
MODEL 5
REMARK VINA RESULT:      -3.4      1.575      1.879
REMARK  2 active torsions:
REMARK  status: ('A' for Active; 'I' for Inactive)
REMARK    1  A    between atoms: C5_5  and  C6_6 
REMARK    2  A    between atoms: C6_6  and  O8_8 
ROOT
HETATM    1  C1  UNL     1     -36.529  14.357  -4.503  1.00 20.00     0.097 C 
HETATM    2  C3  UNL     1     -34.623  15.212  -3.206  1.00 20.00     0.062 C 
HETATM    3  C6  UNL     1     -35.249  15.084  -4.598  1.00 20.00     0.144 C 
HETATM    4  N7  UNL     1     -37.535  13.784  -4.428  1.00 20.00    -0.194 NA
ENDROOT
BRANCH   3   5
HETATM    5  C5  UNL     1     -35.447  16.483  -5.213  1.00 20.00     0.049 C 
HETATM    6  C2  UNL     1     -35.406  17.625  -4.200  1.00 20.00     0.009 C 
ENDBRANCH   3   5
BRANCH   3   7
HETATM    7  O8  UNL     1     -34.344  14.351  -5.424  1.00 20.00    -0.371 OA
HETATM    8  C4  UNL     1     -34.074  15.042  -6.633  1.00 20.00     0.204 C 
ENDBRANCH   3   7
TORSDOF 2
ENDMDL
MODEL 6
REMARK VINA RESULT:      -3.4     17.511     18.076
REMARK  2 active torsions:
REMARK  status: ('A' for Active; 'I' for Inactive)
REMARK    1  A    between atoms: C5_5  and  C6_6 
REMARK    2  A    between atoms: C6_6  and  O8_8 
ROOT
HETATM    1  C1  UNL     1     -23.997  16.465  10.533  1.00 20.00     0.097 C 
HETATM    2  C3  UNL     1     -22.084  18.009  10.537  1.00 20.00     0.062 C 
HETATM    3  C6  UNL     1     -23.145  17.314   9.679  1.00 20.00     0.144 C 
HETATM    4  N7  UNL     1     -24.666  15.796  11.206  1.00 20.00    -0.194 NA
ENDROOT
BRANCH   3   5
HETATM    5  C5  UNL     1     -23.982  18.367   8.928  1.00 20.00     0.049 C 
HETATM    6  C2  UNL     1     -25.080  19.013   9.771  1.00 20.00     0.009 C 
ENDBRANCH   3   5
BRANCH   3   7
HETATM    7  O8  UNL     1     -22.472  16.501   8.718  1.00 20.00    -0.371 OA
HETATM    8  C4  UNL     1     -21.721  17.291   7.809  1.00 20.00     0.204 C 
ENDBRANCH   3   7
TORSDOF 2
ENDMDL
MODEL 7
REMARK VINA RESULT:      -3.4     17.665     18.612
REMARK  2 active torsions:
REMARK  status: ('A' for Active; 'I' for Inactive)
REMARK    1  A    between atoms: C5_5  and  C6_6 
REMARK    2  A    between atoms: C6_6  and  O8_8 
ROOT
HETATM    1  C1  UNL     1     -25.178  18.491  11.365  1.00 20.00     0.097 C 
HETATM    2  C3  UNL     1     -24.463  18.373   9.015  1.00 20.00     0.062 C 
HETATM    3  C6  UNL     1     -24.205  17.877  10.441  1.00 20.00     0.144 C 
HETATM    4  N7  UNL     1     -25.943  18.974  12.091  1.00 20.00    -0.194 NA
ENDROOT
BRANCH   3   5
HETATM    5  C5  UNL     1     -24.288  16.340  10.484  1.00 20.00     0.049 C 
HETATM    6  C2  UNL     1     -24.572  15.766  11.871  1.00 20.00     0.009 C 
ENDBRANCH   3   5
BRANCH   3   7
HETATM    7  O8  UNL     1     -22.883  18.270  10.812  1.00 20.00    -0.371 OA
HETATM    8  C4  UNL     1     -21.976  18.111   9.732  1.00 20.00     0.204 C 
ENDBRANCH   3   7
TORSDOF 2
ENDMDL
MODEL 8
REMARK VINA RESULT:      -3.4      1.154      2.679
REMARK  2 active torsions:
REMARK  status: ('A' for Active; 'I' for Inactive)
REMARK    1  A    between atoms: C5_5  and  C6_6 
REMARK    2  A    between atoms: C6_6  and  O8_8 
ROOT
HETATM    1  C1  UNL     1     -35.370  13.801  -4.338  1.00 20.00     0.097 C 
HETATM    2  C3  UNL     1     -35.678  15.933  -3.152  1.00 20.00     0.062 C 
HETATM    3  C6  UNL     1     -34.850  15.174  -4.194  1.00 20.00     0.144 C 
HETATM    4  N7  UNL     1     -35.779  12.721  -4.450  1.00 20.00    -0.194 NA
ENDROOT
BRANCH   3   5
HETATM    5  C5  UNL     1     -34.884  15.926  -5.538  1.00 20.00     0.049 C 
HETATM    6  C2  UNL     1     -34.155  15.213  -6.675  1.00 20.00     0.009 C 
ENDBRANCH   3   5
BRANCH   3   7
HETATM    7  O8  UNL     1     -33.499  15.127  -3.736  1.00 20.00    -0.371 OA
HETATM    8  C4  UNL     1     -33.155  16.305  -3.024  1.00 20.00     0.204 C 
ENDBRANCH   3   7
TORSDOF 2
ENDMDL
MODEL 9
REMARK VINA RESULT:      -3.4     10.556     11.701
REMARK  2 active torsions:
REMARK  status: ('A' for Active; 'I' for Inactive)
REMARK    1  A    between atoms: C5_5  and  C6_6 
REMARK    2  A    between atoms: C6_6  and  O8_8 
ROOT
HETATM    1  C1  UNL     1     -42.736   7.437  -1.149  1.00 20.00     0.097 C 
HETATM    2  C3  UNL     1     -42.688   5.861   0.737  1.00 20.00     0.062 C 
HETATM    3  C6  UNL     1     -41.871   6.835  -0.117  1.00 20.00     0.144 C 
HETATM    4  N7  UNL     1     -43.417   7.911  -1.961  1.00 20.00    -0.194 NA
ENDROOT
BRANCH   3   5
HETATM    5  C5  UNL     1     -41.239   7.915   0.781  1.00 20.00     0.049 C 
HETATM    6  C2  UNL     1     -41.429   9.343   0.272  1.00 20.00     0.009 C 
ENDBRANCH   3   5
BRANCH   3   7
HETATM    7  O8  UNL     1     -40.822   6.098  -0.745  1.00 20.00    -0.371 OA
HETATM    8  C4  UNL     1     -41.319   4.924  -1.369  1.00 20.00     0.204 C 
ENDBRANCH   3   7
TORSDOF 2
ENDMDL
