MODEL 1
REMARK VINA RESULT:      -4.5      0.000      0.000
REMARK  5 active torsions:
REMARK  status: ('A' for Active; 'I' for Inactive)
REMARK    1  A    between atoms: C5_5  and  C6_6 
REMARK    2  A    between atoms: C6_6  and  C9_9 
REMARK    3  A    between atoms: C7_7  and  O11_11 
REMARK    4  A    between atoms: C8_8  and  C9_9 
REMARK    5  A    between atoms: C8_8  and  O11_11 
ROOT
HETATM    1  C1  UNL     1     -36.913  14.112  -4.620  1.00 20.00     0.091 C 
HETATM    2  C8  UNL     1     -35.517  14.268  -5.053  1.00 20.00     0.231 C 
HETATM    3  N10 UNL     1     -38.015  13.985  -4.279  1.00 20.00    -0.195 NA
ENDROOT
BRANCH   2   4
HETATM    4  C9  UNL     1     -34.521  14.364  -3.874  1.00 20.00     0.024 C 
HETATM    5  C4  UNL     1     -33.065  14.512  -4.347  1.00 20.00     0.014 C 
BRANCH   4   6
HETATM    6  C6  UNL     1     -34.853  15.486  -2.866  1.00 20.00     0.007 C 
BRANCH   6   7
HETATM    7  C5  UNL     1     -33.688  16.445  -2.608  1.00 20.00    -0.004 C 
HETATM    8  C2  UNL     1     -33.975  17.358  -1.425  1.00 20.00     0.005 C 
ENDBRANCH   6   7
ENDBRANCH   4   6
ENDBRANCH   2   4
BRANCH   2   9
HETATM    9  O11 UNL     1     -35.392  15.446  -5.851  1.00 20.00    -0.372 OA
BRANCH   9  10
HETATM   10  C7  UNL     1     -35.441  15.138  -7.234  1.00 20.00     0.165 C 
HETATM   11  C3  UNL     1     -34.074  15.371  -7.842  1.00 20.00     0.033 C 
ENDBRANCH   9  10
ENDBRANCH   2   9
TORSDOF 5
ENDMDL
MODEL 2
REMARK VINA RESULT:      -4.4      1.163      1.692
REMARK  5 active torsions:
REMARK  status: ('A' for Active; 'I' for Inactive)
REMARK    1  A    between atoms: C5_5  and  C6_6 
REMARK    2  A    between atoms: C6_6  and  C9_9 
REMARK    3  A    between atoms: C7_7  and  O11_11 
REMARK    4  A    between atoms: C8_8  and  C9_9 
REMARK    5  A    between atoms: C8_8  and  O11_11 
ROOT
HETATM    1  C1  UNL     1     -36.040  13.940  -4.337  1.00 20.00     0.091 C 
HETATM    2  C8  UNL     1     -34.645  14.360  -4.135  1.00 20.00     0.231 C 
HETATM    3  N10 UNL     1     -37.140  13.608  -4.492  1.00 20.00    -0.195 NA
ENDROOT
BRANCH   2   4
HETATM    4  C9  UNL     1     -34.516  15.763  -3.502  1.00 20.00     0.024 C 
HETATM    5  C4  UNL     1     -35.363  15.912  -2.227  1.00 20.00     0.014 C 
BRANCH   4   6
HETATM    6  C6  UNL     1     -33.059  16.183  -3.204  1.00 20.00     0.007 C 
BRANCH   6   7
HETATM    7  C5  UNL     1     -32.888  17.686  -2.970  1.00 20.00    -0.004 C 
HETATM    8  C2  UNL     1     -32.348  17.971  -1.576  1.00 20.00     0.005 C 
ENDBRANCH   6   7
ENDBRANCH   4   6
ENDBRANCH   2   4
BRANCH   2   9
HETATM    9  O11 UNL     1     -33.959  14.361  -5.388  1.00 20.00    -0.372 OA
BRANCH   9  10
HETATM   10  C7  UNL     1     -34.626  15.176  -6.338  1.00 20.00     0.165 C 
HETATM   11  C3  UNL     1     -33.812  15.215  -7.614  1.00 20.00     0.033 C 
ENDBRANCH   9  10
ENDBRANCH   2   9
TORSDOF 5
ENDMDL
MODEL 3
REMARK VINA RESULT:      -4.4      0.931      1.122
REMARK  5 active torsions:
REMARK  status: ('A' for Active; 'I' for Inactive)
REMARK    1  A    between atoms: C5_5  and  C6_6 
REMARK    2  A    between atoms: C6_6  and  C9_9 
REMARK    3  A    between atoms: C7_7  and  O11_11 
REMARK    4  A    between atoms: C8_8  and  C9_9 
REMARK    5  A    between atoms: C8_8  and  O11_11 
ROOT
HETATM    1  C1  UNL     1     -36.427  14.222  -4.492  1.00 20.00     0.091 C 
HETATM    2  C8  UNL     1     -35.096  14.834  -4.621  1.00 20.00     0.231 C 
HETATM    3  N10 UNL     1     -37.475  13.736  -4.391  1.00 20.00    -0.195 NA
ENDROOT
BRANCH   2   4
HETATM    4  C9  UNL     1     -34.454  15.190  -3.261  1.00 20.00     0.024 C 
HETATM    5  C4  UNL     1     -33.120  15.937  -3.419  1.00 20.00     0.014 C 
BRANCH   4   6
HETATM    6  C6  UNL     1     -35.384  15.988  -2.322  1.00 20.00     0.007 C 
BRANCH   6   7
HETATM    7  C5  UNL     1     -34.650  17.009  -1.450  1.00 20.00    -0.004 C 
HETATM    8  C2  UNL     1     -35.288  17.123  -0.073  1.00 20.00     0.005 C 
ENDBRANCH   6   7
ENDBRANCH   4   6
ENDBRANCH   2   4
BRANCH   2   9
HETATM    9  O11 UNL     1     -35.189  16.024  -5.405  1.00 20.00    -0.372 OA
BRANCH   9  10
HETATM   10  C7  UNL     1     -35.265  15.724  -6.789  1.00 20.00     0.165 C 
HETATM   11  C3  UNL     1     -33.931  15.173  -7.249  1.00 20.00     0.033 C 
ENDBRANCH   9  10
ENDBRANCH   2   9
TORSDOF 5
ENDMDL
MODEL 4
REMARK VINA RESULT:      -4.3      1.381      1.381
REMARK  5 active torsions:
REMARK  status: ('A' for Active; 'I' for Inactive)
REMARK    1  A    between atoms: C5_5  and  C6_6 
REMARK    2  A    between atoms: C6_6  and  C9_9 
REMARK    3  A    between atoms: C7_7  and  O11_11 
REMARK    4  A    between atoms: C8_8  and  C9_9 
REMARK    5  A    between atoms: C8_8  and  O11_11 
ROOT
HETATM    1  C1  UNL     1     -37.120  14.479  -4.471  1.00 20.00     0.091 C 
HETATM    2  C8  UNL     1     -35.818  15.108  -4.742  1.00 20.00     0.231 C 
HETATM    3  N10 UNL     1     -38.146  13.981  -4.260  1.00 20.00    -0.195 NA
ENDROOT
BRANCH   2   4
HETATM    4  C9  UNL     1     -34.748  14.774  -3.679  1.00 20.00     0.024 C 
HETATM    5  C4  UNL     1     -33.355  14.563  -4.294  1.00 20.00     0.014 C 
BRANCH   4   6
HETATM    6  C6  UNL     1     -34.655  15.813  -2.539  1.00 20.00     0.007 C 
BRANCH   6   7
HETATM    7  C5  UNL     1     -33.334  16.585  -2.516  1.00 20.00    -0.004 C 
HETATM    8  C2  UNL     1     -33.340  17.660  -1.439  1.00 20.00     0.005 C 
ENDBRANCH   6   7
ENDBRANCH   4   6
ENDBRANCH   2   4
BRANCH   2   9
HETATM    9  O11 UNL     1     -35.974  16.526  -4.802  1.00 20.00    -0.372 OA
BRANCH   9  10
HETATM   10  C7  UNL     1     -35.543  17.039  -6.052  1.00 20.00     0.165 C 
HETATM   11  C3  UNL     1     -34.382  17.983  -5.824  1.00 20.00     0.033 C 
ENDBRANCH   9  10
ENDBRANCH   2   9
TORSDOF 5
ENDMDL
MODEL 5
REMARK VINA RESULT:      -4.1      2.036      2.461
REMARK  5 active torsions:
REMARK  status: ('A' for Active; 'I' for Inactive)
REMARK    1  A    between atoms: C5_5  and  C6_6 
REMARK    2  A    between atoms: C6_6  and  C9_9 
REMARK    3  A    between atoms: C7_7  and  O11_11 
REMARK    4  A    between atoms: C8_8  and  C9_9 
REMARK    5  A    between atoms: C8_8  and  O11_11 
ROOT
HETATM    1  C1  UNL     1     -36.835  14.652  -4.172  1.00 20.00     0.091 C 
HETATM    2  C8  UNL     1     -35.944  15.782  -3.869  1.00 20.00     0.231 C 
HETATM    3  N10 UNL     1     -37.537  13.761  -4.415  1.00 20.00    -0.195 NA
ENDROOT
BRANCH   2   4
HETATM    4  C9  UNL     1     -34.706  15.375  -3.038  1.00 20.00     0.024 C 
HETATM    5  C4  UNL     1     -33.508  14.988  -3.921  1.00 20.00     0.014 C 
BRANCH   4   6
HETATM    6  C6  UNL     1     -34.266  16.441  -2.010  1.00 20.00     0.007 C 
BRANCH   6   7
HETATM    7  C5  UNL     1     -33.168  17.375  -2.524  1.00 20.00    -0.004 C 
HETATM    8  C2  UNL     1     -32.354  17.957  -1.377  1.00 20.00     0.005 C 
ENDBRANCH   6   7
ENDBRANCH   4   6
ENDBRANCH   2   4
BRANCH   2   9
HETATM    9  O11 UNL     1     -36.666  16.782  -3.149  1.00 20.00    -0.372 OA
BRANCH   9  10
HETATM   10  C7  UNL     1     -37.163  17.785  -4.019  1.00 20.00     0.165 C 
HETATM   11  C3  UNL     1     -36.004  18.411  -4.765  1.00 20.00     0.033 C 
ENDBRANCH   9  10
ENDBRANCH   2   9
TORSDOF 5
ENDMDL
MODEL 6
REMARK VINA RESULT:      -4.0      1.812      2.714
REMARK  5 active torsions:
REMARK  status: ('A' for Active; 'I' for Inactive)
REMARK    1  A    between atoms: C5_5  and  C6_6 
REMARK    2  A    between atoms: C6_6  and  C9_9 
REMARK    3  A    between atoms: C7_7  and  O11_11 
REMARK    4  A    between atoms: C8_8  and  C9_9 
REMARK    5  A    between atoms: C8_8  and  O11_11 
ROOT
HETATM    1  C1  UNL     1     -35.978  14.521  -5.822  1.00 20.00     0.091 C 
HETATM    2  C8  UNL     1     -36.196  14.955  -4.433  1.00 20.00     0.231 C 
HETATM    3  N10 UNL     1     -35.806  14.182  -6.917  1.00 20.00    -0.195 NA
ENDROOT
BRANCH   2   4
HETATM    4  C9  UNL     1     -34.972  14.716  -3.521  1.00 20.00     0.024 C 
HETATM    5  C4  UNL     1     -33.675  14.513  -4.321  1.00 20.00     0.014 C 
BRANCH   4   6
HETATM    6  C6  UNL     1     -34.757  15.820  -2.462  1.00 20.00     0.007 C 
BRANCH   6   7
HETATM    7  C5  UNL     1     -33.440  16.582  -2.626  1.00 20.00    -0.004 C 
HETATM    8  C2  UNL     1     -33.273  17.638  -1.543  1.00 20.00     0.005 C 
ENDBRANCH   6   7
ENDBRANCH   4   6
ENDBRANCH   2   4
BRANCH   2   9
HETATM    9  O11 UNL     1     -37.316  14.259  -3.884  1.00 20.00    -0.372 OA
BRANCH   9  10
HETATM   10  C7  UNL     1     -38.537  14.890  -4.234  1.00 20.00     0.165 C 
HETATM   11  C3  UNL     1     -38.456  16.357  -3.870  1.00 20.00     0.033 C 
ENDBRANCH   9  10
ENDBRANCH   2   9
TORSDOF 5
ENDMDL
MODEL 7
REMARK VINA RESULT:      -3.9      2.186      2.889
REMARK  5 active torsions:
REMARK  status: ('A' for Active; 'I' for Inactive)
REMARK    1  A    between atoms: C5_5  and  C6_6 
REMARK    2  A    between atoms: C6_6  and  C9_9 
REMARK    3  A    between atoms: C7_7  and  O11_11 
REMARK    4  A    between atoms: C8_8  and  C9_9 
REMARK    5  A    between atoms: C8_8  and  O11_11 
ROOT
HETATM    1  C1  UNL     1     -35.844  13.873  -4.270  1.00 20.00     0.091 C 
HETATM    2  C8  UNL     1     -35.858  15.308  -3.949  1.00 20.00     0.231 C 
HETATM    3  N10 UNL     1     -35.829  12.742  -4.526  1.00 20.00    -0.195 NA
ENDROOT
BRANCH   2   4
HETATM    4  C9  UNL     1     -34.981  15.668  -2.729  1.00 20.00     0.024 C 
HETATM    5  C4  UNL     1     -33.513  15.913  -3.114  1.00 20.00     0.014 C 
BRANCH   4   6
HETATM    6  C6  UNL     1     -35.507  16.870  -1.914  1.00 20.00     0.007 C 
BRANCH   6   7
HETATM    7  C5  UNL     1     -34.584  17.287  -0.767  1.00 20.00    -0.004 C 
HETATM    8  C2  UNL     1     -35.321  17.292   0.564  1.00 20.00     0.005 C 
ENDBRANCH   6   7
ENDBRANCH   4   6
ENDBRANCH   2   4
BRANCH   2   9
HETATM    9  O11 UNL     1     -37.198  15.726  -3.685  1.00 20.00    -0.372 OA
BRANCH   9  10
HETATM   10  C7  UNL     1     -38.025  15.553  -4.824  1.00 20.00     0.165 C 
HETATM   11  C3  UNL     1     -39.369  15.012  -4.381  1.00 20.00     0.033 C 
ENDBRANCH   9  10
ENDBRANCH   2   9
TORSDOF 5
ENDMDL
MODEL 8
REMARK VINA RESULT:      -3.8      3.155      5.437
REMARK  5 active torsions:
REMARK  status: ('A' for Active; 'I' for Inactive)
REMARK    1  A    between atoms: C5_5  and  C6_6 
REMARK    2  A    between atoms: C6_6  and  C9_9 
REMARK    3  A    between atoms: C7_7  and  O11_11 
REMARK    4  A    between atoms: C8_8  and  C9_9 
REMARK    5  A    between atoms: C8_8  and  O11_11 
ROOT
HETATM    1  C1  UNL     1     -33.247  18.121  -3.666  1.00 20.00     0.091 C 
HETATM    2  C8  UNL     1     -32.932  17.124  -2.632  1.00 20.00     0.231 C 
HETATM    3  N10 UNL     1     -33.493  18.906  -4.484  1.00 20.00    -0.195 NA
ENDROOT
BRANCH   2   4
HETATM    4  C9  UNL     1     -33.941  15.954  -2.586  1.00 20.00     0.024 C 
HETATM    5  C4  UNL     1     -35.221  16.314  -1.814  1.00 20.00     0.014 C 
BRANCH   4   6
HETATM    6  C6  UNL     1     -34.317  15.399  -3.977  1.00 20.00     0.007 C 
BRANCH   6   7
HETATM    7  C5  UNL     1     -34.788  13.943  -3.951  1.00 20.00    -0.004 C 
HETATM    8  C2  UNL     1     -36.192  13.805  -4.524  1.00 20.00     0.005 C 
ENDBRANCH   6   7
ENDBRANCH   4   6
ENDBRANCH   2   4
BRANCH   2   9
HETATM    9  O11 UNL     1     -32.907  17.754  -1.351  1.00 20.00    -0.372 OA
BRANCH   9  10
HETATM   10  C7  UNL     1     -31.822  18.661  -1.244  1.00 20.00     0.165 C 
HETATM   11  C3  UNL     1     -31.015  18.322  -0.008  1.00 20.00     0.033 C 
ENDBRANCH   9  10
ENDBRANCH   2   9
TORSDOF 5
ENDMDL
MODEL 9
REMARK VINA RESULT:      -3.8      4.014      6.346
REMARK  5 active torsions:
REMARK  status: ('A' for Active; 'I' for Inactive)
REMARK    1  A    between atoms: C5_5  and  C6_6 
REMARK    2  A    between atoms: C6_6  and  C9_9 
REMARK    3  A    between atoms: C7_7  and  O11_11 
REMARK    4  A    between atoms: C8_8  and  C9_9 
REMARK    5  A    between atoms: C8_8  and  O11_11 
ROOT
HETATM    1  C1  UNL     1     -31.719  18.235  -0.657  1.00 20.00     0.091 C 
HETATM    2  C8  UNL     1     -33.151  18.021  -0.915  1.00 20.00     0.231 C 
HETATM    3  N10 UNL     1     -30.589  18.399  -0.452  1.00 20.00    -0.195 NA
ENDROOT
BRANCH   2   4
HETATM    4  C9  UNL     1     -33.478  17.835  -2.415  1.00 20.00     0.024 C 
HETATM    5  C4  UNL     1     -32.659  18.774  -3.315  1.00 20.00     0.014 C 
BRANCH   4   6
HETATM    6  C6  UNL     1     -33.325  16.381  -2.911  1.00 20.00     0.007 C 
BRANCH   6   7
HETATM    7  C5  UNL     1     -34.599  15.545  -2.772  1.00 20.00    -0.004 C 
HETATM    8  C2  UNL     1     -34.659  14.447  -3.824  1.00 20.00     0.005 C 
ENDBRANCH   6   7
ENDBRANCH   4   6
ENDBRANCH   2   4
BRANCH   2   9
HETATM    9  O11 UNL     1     -33.898  19.133  -0.422  1.00 20.00    -0.372 OA
BRANCH   9  10
HETATM   10  C7  UNL     1     -34.529  18.824   0.810  1.00 20.00     0.165 C 
HETATM   11  C3  UNL     1     -35.182  17.462   0.702  1.00 20.00     0.033 C 
ENDBRANCH   9  10
ENDBRANCH   2   9
TORSDOF 5
ENDMDL
