MODEL 1
REMARK VINA RESULT:      -4.1      0.000      0.000
REMARK  6 active torsions:
REMARK  status: ('A' for Active; 'I' for Inactive)
REMARK    1  A    between atoms: C4_4  and  C6_6 
REMARK    2  A    between atoms: C4_4  and  C9_9 
REMARK    3  A    between atoms: C5_5  and  O10_10 
REMARK    4  A    between atoms: C6_6  and  O10_10 
REMARK    5  A    between atoms: C7_7  and  C9_9 
REMARK    6  A    between atoms: C8_8  and  C9_9 
ROOT
HETATM    1  C9  UNL     1     -34.705  15.668  -4.016  1.00 20.00     0.005 C 
ENDROOT
BRANCH   1   2
HETATM    2  C4  UNL     1     -36.216  15.336  -3.927  1.00 20.00     0.032 C 
BRANCH   2   3
HETATM    3  C6  UNL     1     -36.598  13.956  -4.453  1.00 20.00     0.168 C 
BRANCH   3   4
HETATM    4  O10 UNL     1     -38.013  13.821  -4.396  1.00 20.00    -0.391 OA
BRANCH   4   5
HETATM    5  C5  UNL     1     -38.649  15.078  -4.212  1.00 20.00     0.163 C 
HETATM    6  C1  UNL     1     -40.108  14.955  -4.598  1.00 20.00     0.033 C 
ENDBRANCH   4   5
ENDBRANCH   3   4
ENDBRANCH   2   3
ENDBRANCH   1   2
BRANCH   1   7
HETATM    7  C7  UNL     1     -33.912  14.617  -4.822  1.00 20.00     0.119 C 
HETATM    8 CL11 UNL     1     -33.842  14.972  -6.565  1.00 20.00    -0.130 Cl
ENDBRANCH   1   7
BRANCH   1   9
HETATM    9  C8  UNL     1     -34.093  15.924  -2.598  1.00 20.00    -0.017 C 
HETATM   10  C2  UNL     1     -32.960  16.960  -2.632  1.00 20.00     0.010 C 
HETATM   11  C3  UNL     1     -35.144  16.396  -1.583  1.00 20.00     0.010 C 
ENDBRANCH   1   9
TORSDOF 6
ENDMDL
MODEL 2
REMARK VINA RESULT:      -4.0      2.219      3.173
REMARK  6 active torsions:
REMARK  status: ('A' for Active; 'I' for Inactive)
REMARK    1  A    between atoms: C4_4  and  C6_6 
REMARK    2  A    between atoms: C4_4  and  C9_9 
REMARK    3  A    between atoms: C5_5  and  O10_10 
REMARK    4  A    between atoms: C6_6  and  O10_10 
REMARK    5  A    between atoms: C7_7  and  C9_9 
REMARK    6  A    between atoms: C8_8  and  C9_9 
ROOT
HETATM    1  C9  UNL     1     -35.088  15.327  -3.203  1.00 20.00     0.005 C 
ENDROOT
BRANCH   1   2
HETATM    2  C4  UNL     1     -35.355  13.974  -3.910  1.00 20.00     0.032 C 
BRANCH   2   3
HETATM    3  C6  UNL     1     -36.462  14.010  -4.958  1.00 20.00     0.168 C 
BRANCH   3   4
HETATM    4  O10 UNL     1     -35.880  13.824  -6.243  1.00 20.00    -0.391 OA
BRANCH   4   5
HETATM    5  C5  UNL     1     -35.803  15.046  -6.963  1.00 20.00     0.163 C 
HETATM    6  C1  UNL     1     -34.365  15.295  -7.363  1.00 20.00     0.033 C 
ENDBRANCH   4   5
ENDBRANCH   3   4
ENDBRANCH   2   3
ENDBRANCH   1   2
BRANCH   1   7
HETATM    7  C7  UNL     1     -36.272  16.309  -3.332  1.00 20.00     0.119 C 
HETATM    8 CL11 UNL     1     -35.969  17.627  -4.490  1.00 20.00    -0.130 Cl
ENDBRANCH   1   7
BRANCH   1   9
HETATM    9  C8  UNL     1     -33.732  15.956  -3.670  1.00 20.00    -0.017 C 
HETATM   10  C2  UNL     1     -33.059  16.776  -2.561  1.00 20.00     0.010 C 
HETATM   11  C3  UNL     1     -32.733  14.898  -4.158  1.00 20.00     0.010 C 
ENDBRANCH   1   9
TORSDOF 6
ENDMDL
MODEL 3
REMARK VINA RESULT:      -3.9     11.349     12.026
REMARK  6 active torsions:
REMARK  status: ('A' for Active; 'I' for Inactive)
REMARK    1  A    between atoms: C4_4  and  C6_6 
REMARK    2  A    between atoms: C4_4  and  C9_9 
REMARK    3  A    between atoms: C5_5  and  O10_10 
REMARK    4  A    between atoms: C6_6  and  O10_10 
REMARK    5  A    between atoms: C7_7  and  C9_9 
REMARK    6  A    between atoms: C8_8  and  C9_9 
ROOT
HETATM    1  C9  UNL     1     -33.604   5.810   3.992  1.00 20.00     0.005 C 
ENDROOT
BRANCH   1   2
HETATM    2  C4  UNL     1     -33.515   6.957   2.953  1.00 20.00     0.032 C 
BRANCH   2   3
HETATM    3  C6  UNL     1     -32.097   7.405   2.617  1.00 20.00     0.168 C 
BRANCH   3   4
HETATM    4  O10 UNL     1     -32.032   7.710   1.228  1.00 20.00    -0.391 OA
BRANCH   4   5
HETATM    5  C5  UNL     1     -32.784   8.873   0.914  1.00 20.00     0.163 C 
HETATM    6  C1  UNL     1     -33.477   8.669  -0.417  1.00 20.00     0.033 C 
ENDBRANCH   4   5
ENDBRANCH   3   4
ENDBRANCH   2   3
ENDBRANCH   1   2
BRANCH   1   7
HETATM    7  C7  UNL     1     -34.069   4.477   3.367  1.00 20.00     0.119 C 
HETATM    8 CL11 UNL     1     -33.178   4.044   1.888  1.00 20.00    -0.130 Cl
ENDBRANCH   1   7
BRANCH   1   9
HETATM    9  C8  UNL     1     -34.469   6.227   5.229  1.00 20.00    -0.017 C 
HETATM   10  C2  UNL     1     -34.922   5.016   6.056  1.00 20.00     0.010 C 
HETATM   11  C3  UNL     1     -33.727   7.194   6.162  1.00 20.00     0.010 C 
ENDBRANCH   1   9
TORSDOF 6
ENDMDL
MODEL 4
REMARK VINA RESULT:      -3.9      1.932      2.917
REMARK  6 active torsions:
REMARK  status: ('A' for Active; 'I' for Inactive)
REMARK    1  A    between atoms: C4_4  and  C6_6 
REMARK    2  A    between atoms: C4_4  and  C9_9 
REMARK    3  A    between atoms: C5_5  and  O10_10 
REMARK    4  A    between atoms: C6_6  and  O10_10 
REMARK    5  A    between atoms: C7_7  and  C9_9 
REMARK    6  A    between atoms: C8_8  and  C9_9 
ROOT
HETATM    1  C9  UNL     1     -34.075  14.816  -4.473  1.00 20.00     0.005 C 
ENDROOT
BRANCH   1   2
HETATM    2  C4  UNL     1     -35.104  13.769  -3.976  1.00 20.00     0.032 C 
BRANCH   2   3
HETATM    3  C6  UNL     1     -36.381  13.685  -4.806  1.00 20.00     0.168 C 
BRANCH   3   4
HETATM    4  O10 UNL     1     -37.489  14.007  -3.972  1.00 20.00    -0.391 OA
BRANCH   4   5
HETATM    5  C5  UNL     1     -38.277  15.048  -4.531  1.00 20.00     0.163 C 
HETATM    6  C1  UNL     1     -37.839  16.371  -3.939  1.00 20.00     0.033 C 
ENDBRANCH   4   5
ENDBRANCH   3   4
ENDBRANCH   2   3
ENDBRANCH   1   2
BRANCH   1   7
HETATM    7  C7  UNL     1     -33.622  15.781  -3.355  1.00 20.00     0.119 C 
HETATM    8 CL11 UNL     1     -34.827  15.972  -2.059  1.00 20.00    -0.130 Cl
ENDBRANCH   1   7
BRANCH   1   9
HETATM    9  C8  UNL     1     -34.598  15.572  -5.741  1.00 20.00    -0.017 C 
HETATM   10  C2  UNL     1     -34.485  17.096  -5.598  1.00 20.00     0.010 C 
HETATM   11  C3  UNL     1     -33.856  15.154  -7.018  1.00 20.00     0.010 C 
ENDBRANCH   1   9
TORSDOF 6
ENDMDL
MODEL 5
REMARK VINA RESULT:      -3.9      1.883      2.487
REMARK  6 active torsions:
REMARK  status: ('A' for Active; 'I' for Inactive)
REMARK    1  A    between atoms: C4_4  and  C6_6 
REMARK    2  A    between atoms: C4_4  and  C9_9 
REMARK    3  A    between atoms: C5_5  and  O10_10 
REMARK    4  A    between atoms: C6_6  and  O10_10 
REMARK    5  A    between atoms: C7_7  and  C9_9 
REMARK    6  A    between atoms: C8_8  and  C9_9 
ROOT
HETATM    1  C9  UNL     1     -35.109  15.377  -3.010  1.00 20.00     0.005 C 
ENDROOT
BRANCH   1   2
HETATM    2  C4  UNL     1     -36.399  15.418  -3.868  1.00 20.00     0.032 C 
BRANCH   2   3
HETATM    3  C6  UNL     1     -36.775  14.091  -4.519  1.00 20.00     0.168 C 
BRANCH   3   4
HETATM    4  O10 UNL     1     -38.171  13.878  -4.347  1.00 20.00    -0.391 OA
BRANCH   4   5
HETATM    5  C5  UNL     1     -38.861  15.100  -4.127  1.00 20.00     0.163 C 
HETATM    6  C1  UNL     1     -40.258  14.988  -4.700  1.00 20.00     0.033 C 
ENDBRANCH   4   5
ENDBRANCH   3   4
ENDBRANCH   2   3
ENDBRANCH   1   2
BRANCH   1   7
HETATM    7  C7  UNL     1     -35.223  16.225  -1.724  1.00 20.00     0.119 C 
HETATM    8 CL11 UNL     1     -36.375  17.575  -1.871  1.00 20.00    -0.130 Cl
ENDBRANCH   1   7
BRANCH   1   9
HETATM    9  C8  UNL     1     -33.847  15.745  -3.860  1.00 20.00    -0.017 C 
HETATM   10  C2  UNL     1     -32.866  16.638  -3.088  1.00 20.00     0.010 C 
HETATM   11  C3  UNL     1     -33.085  14.503  -4.344  1.00 20.00     0.010 C 
ENDBRANCH   1   9
TORSDOF 6
ENDMDL
MODEL 6
REMARK VINA RESULT:      -3.9      2.600      3.451
REMARK  6 active torsions:
REMARK  status: ('A' for Active; 'I' for Inactive)
REMARK    1  A    between atoms: C4_4  and  C6_6 
REMARK    2  A    between atoms: C4_4  and  C9_9 
REMARK    3  A    between atoms: C5_5  and  O10_10 
REMARK    4  A    between atoms: C6_6  and  O10_10 
REMARK    5  A    between atoms: C7_7  and  C9_9 
REMARK    6  A    between atoms: C8_8  and  C9_9 
ROOT
HETATM    1  C9  UNL     1     -34.926  15.161  -3.086  1.00 20.00     0.005 C 
ENDROOT
BRANCH   1   2
HETATM    2  C4  UNL     1     -35.259  13.898  -3.921  1.00 20.00     0.032 C 
BRANCH   2   3
HETATM    3  C6  UNL     1     -36.403  14.075  -4.915  1.00 20.00     0.168 C 
BRANCH   3   4
HETATM    4  O10 UNL     1     -35.890  13.915  -6.233  1.00 20.00    -0.391 OA
BRANCH   4   5
HETATM    5  C5  UNL     1     -35.771  15.162  -6.901  1.00 20.00     0.163 C 
HETATM    6  C1  UNL     1     -34.369  15.293  -7.457  1.00 20.00     0.033 C 
ENDBRANCH   4   5
ENDBRANCH   3   4
ENDBRANCH   2   3
ENDBRANCH   1   2
BRANCH   1   7
HETATM    7  C7  UNL     1     -36.019  16.247  -3.188  1.00 20.00     0.119 C 
HETATM    8 CL11 UNL     1     -36.111  17.290  -1.749  1.00 20.00    -0.130 Cl
ENDBRANCH   1   7
BRANCH   1   9
HETATM    9  C8  UNL     1     -33.500  15.711  -3.428  1.00 20.00    -0.017 C 
HETATM   10  C2  UNL     1     -32.690  14.731  -4.288  1.00 20.00     0.010 C 
HETATM   11  C3  UNL     1     -33.554  17.059  -4.160  1.00 20.00     0.010 C 
ENDBRANCH   1   9
TORSDOF 6
ENDMDL
MODEL 7
REMARK VINA RESULT:      -3.9      2.851      3.594
REMARK  6 active torsions:
REMARK  status: ('A' for Active; 'I' for Inactive)
REMARK    1  A    between atoms: C4_4  and  C6_6 
REMARK    2  A    between atoms: C4_4  and  C9_9 
REMARK    3  A    between atoms: C5_5  and  O10_10 
REMARK    4  A    between atoms: C6_6  and  O10_10 
REMARK    5  A    between atoms: C7_7  and  C9_9 
REMARK    6  A    between atoms: C8_8  and  C9_9 
ROOT
HETATM    1  C9  UNL     1     -33.587  16.402  -2.440  1.00 20.00     0.005 C 
ENDROOT
BRANCH   1   2
HETATM    2  C4  UNL     1     -33.299  15.857  -3.862  1.00 20.00     0.032 C 
BRANCH   2   3
HETATM    3  C6  UNL     1     -33.915  14.493  -4.159  1.00 20.00     0.168 C 
BRANCH   3   4
HETATM    4  O10 UNL     1     -34.252  14.436  -5.540  1.00 20.00    -0.391 OA
BRANCH   4   5
HETATM    5  C5  UNL     1     -35.658  14.472  -5.735  1.00 20.00     0.163 C 
HETATM    6  C1  UNL     1     -36.336  13.780  -4.572  1.00 20.00     0.033 C 
ENDBRANCH   4   5
ENDBRANCH   3   4
ENDBRANCH   2   3
ENDBRANCH   1   2
BRANCH   1   7
HETATM    7  C7  UNL     1     -35.030  16.109  -1.972  1.00 20.00     0.119 C 
HETATM    8 CL11 UNL     1     -35.454  16.924  -0.447  1.00 20.00    -0.130 Cl
ENDBRANCH   1   7
BRANCH   1   9
HETATM    9  C8  UNL     1     -33.216  17.919  -2.325  1.00 20.00    -0.017 C 
HETATM   10  C2  UNL     1     -32.052  18.160  -1.354  1.00 20.00     0.010 C 
HETATM   11  C3  UNL     1     -32.845  18.535  -3.681  1.00 20.00     0.010 C 
ENDBRANCH   1   9
TORSDOF 6
ENDMDL
MODEL 8
REMARK VINA RESULT:      -3.9      3.257      3.941
REMARK  6 active torsions:
REMARK  status: ('A' for Active; 'I' for Inactive)
REMARK    1  A    between atoms: C4_4  and  C6_6 
REMARK    2  A    between atoms: C4_4  and  C9_9 
REMARK    3  A    between atoms: C5_5  and  O10_10 
REMARK    4  A    between atoms: C6_6  and  O10_10 
REMARK    5  A    between atoms: C7_7  and  C9_9 
REMARK    6  A    between atoms: C8_8  and  C9_9 
ROOT
HETATM    1  C9  UNL     1     -34.538  16.113  -2.295  1.00 20.00     0.005 C 
ENDROOT
BRANCH   1   2
HETATM    2  C4  UNL     1     -35.222  15.316  -3.434  1.00 20.00     0.032 C 
BRANCH   2   3
HETATM    3  C6  UNL     1     -34.492  14.042  -3.849  1.00 20.00     0.168 C 
BRANCH   3   4
HETATM    4  O10 UNL     1     -33.945  14.234  -5.149  1.00 20.00    -0.391 OA
BRANCH   4   5
HETATM    5  C5  UNL     1     -34.873  14.866  -6.018  1.00 20.00     0.163 C 
HETATM    6  C1  UNL     1     -34.127  15.446  -7.201  1.00 20.00     0.033 C 
ENDBRANCH   4   5
ENDBRANCH   3   4
ENDBRANCH   2   3
ENDBRANCH   1   2
BRANCH   1   7
HETATM    7  C7  UNL     1     -35.509  17.075  -1.577  1.00 20.00     0.119 C 
HETATM    8 CL11 UNL     1     -35.430  16.959   0.198  1.00 20.00    -0.130 Cl
ENDBRANCH   1   7
BRANCH   1   9
HETATM    9  C8  UNL     1     -33.243  16.834  -2.801  1.00 20.00    -0.017 C 
HETATM   10  C2  UNL     1     -33.512  17.719  -4.027  1.00 20.00     0.010 C 
HETATM   11  C3  UNL     1     -32.596  17.705  -1.715  1.00 20.00     0.010 C 
ENDBRANCH   1   9
TORSDOF 6
ENDMDL
MODEL 9
REMARK VINA RESULT:      -3.8      3.729      6.197
REMARK  6 active torsions:
REMARK  status: ('A' for Active; 'I' for Inactive)
REMARK    1  A    between atoms: C4_4  and  C6_6 
REMARK    2  A    between atoms: C4_4  and  C9_9 
REMARK    3  A    between atoms: C5_5  and  O10_10 
REMARK    4  A    between atoms: C6_6  and  O10_10 
REMARK    5  A    between atoms: C7_7  and  C9_9 
REMARK    6  A    between atoms: C8_8  and  C9_9 
ROOT
HETATM    1  C9  UNL     1     -34.382  16.654  -2.938  1.00 20.00     0.005 C 
ENDROOT
BRANCH   1   2
HETATM    2  C4  UNL     1     -33.025  17.065  -2.312  1.00 20.00     0.032 C 
BRANCH   2   3
HETATM    3  C6  UNL     1     -32.663  18.537  -2.485  1.00 20.00     0.168 C 
BRANCH   3   4
HETATM    4  O10 UNL     1     -31.533  18.827  -1.670  1.00 20.00    -0.391 OA
BRANCH   4   5
HETATM    5  C5  UNL     1     -31.893  18.936  -0.300  1.00 20.00     0.163 C 
HETATM    6  C1  UNL     1     -30.835  18.258   0.544  1.00 20.00     0.033 C 
ENDBRANCH   4   5
ENDBRANCH   3   4
ENDBRANCH   2   3
ENDBRANCH   1   2
BRANCH   1   7
HETATM    7  C7  UNL     1     -35.589  17.101  -2.084  1.00 20.00     0.119 C 
HETATM    8 CL11 UNL     1     -35.307  16.952  -0.333  1.00 20.00    -0.130 Cl
ENDBRANCH   1   7
BRANCH   1   9
HETATM    9  C8  UNL     1     -34.417  15.125  -3.270  1.00 20.00    -0.017 C 
HETATM   10  C2  UNL     1     -35.774  14.683  -3.835  1.00 20.00     0.010 C 
HETATM   11  C3  UNL     1     -33.327  14.719  -4.272  1.00 20.00     0.010 C 
ENDBRANCH   1   9
TORSDOF 6
ENDMDL
