MODEL 1
REMARK VINA RESULT:      -4.1      0.000      0.000
REMARK  4 active torsions:
REMARK  status: ('A' for Active; 'I' for Inactive)
REMARK    1  A    between atoms: C4_4  and  C7_7 
REMARK    2  A    between atoms: C4_4  and  C8_8 
REMARK    3  A    between atoms: C7_7  and  C9_9 
REMARK    4  A    between atoms: C9_9  and  C10_10 
ROOT
HETATM    1  C1  UNL     1     -36.228  13.679  -4.552  1.00 20.00     0.002 C 
HETATM    2  C2  UNL     1     -36.549  14.988  -3.805  1.00 20.00     0.010 C 
HETATM    3  C3  UNL     1     -34.775  13.811  -4.055  1.00 20.00     0.010 C 
HETATM    4  C4  UNL     1     -35.031  15.334  -3.855  1.00 20.00    -0.028 C 
ENDROOT
BRANCH   4   5
HETATM    5  C7  UNL     1     -34.478  15.891  -2.549  1.00 20.00     0.011 C 
BRANCH   5   6
HETATM    6  C9  UNL     1     -33.083  16.488  -2.742  1.00 20.00     0.005 C 
BRANCH   6   7
HETATM    7  C10 UNL     1     -32.794  17.686  -1.819  1.00 20.00    -0.023 C 
HETATM    8  C5  UNL     1     -33.990  17.929  -0.895  1.00 20.00     0.009 C 
HETATM    9  C6  UNL     1     -32.478  18.963  -2.599  1.00 20.00     0.009 C 
ENDBRANCH   6   7
ENDBRANCH   5   6
ENDBRANCH   4   5
BRANCH   4  10
HETATM   10  C8  UNL     1     -34.625  16.199  -5.050  1.00 20.00     0.124 C 
HETATM   11 CL11 UNL     1     -35.335  17.814  -4.898  1.00 20.00    -0.130 Cl
ENDBRANCH   4  10
TORSDOF 4
ENDMDL
MODEL 2
REMARK VINA RESULT:      -4.1      0.585      1.153
REMARK  4 active torsions:
REMARK  status: ('A' for Active; 'I' for Inactive)
REMARK    1  A    between atoms: C4_4  and  C7_7 
REMARK    2  A    between atoms: C4_4  and  C8_8 
REMARK    3  A    between atoms: C7_7  and  C9_9 
REMARK    4  A    between atoms: C9_9  and  C10_10 
ROOT
HETATM    1  C1  UNL     1     -36.084  13.645  -4.543  1.00 20.00     0.002 C 
HETATM    2  C2  UNL     1     -36.511  14.930  -3.809  1.00 20.00     0.010 C 
HETATM    3  C3  UNL     1     -34.681  13.821  -3.929  1.00 20.00     0.010 C 
HETATM    4  C4  UNL     1     -35.008  15.331  -3.733  1.00 20.00    -0.028 C 
ENDROOT
BRANCH   4   5
HETATM    5  C7  UNL     1     -34.582  15.888  -2.379  1.00 20.00     0.011 C 
BRANCH   5   6
HETATM    6  C9  UNL     1     -33.291  16.700  -2.491  1.00 20.00     0.005 C 
BRANCH   6   7
HETATM    7  C10 UNL     1     -33.259  17.932  -1.568  1.00 20.00    -0.023 C 
HETATM    8  C5  UNL     1     -31.843  18.138  -1.025  1.00 20.00     0.009 C 
HETATM    9  C6  UNL     1     -34.246  17.817  -0.405  1.00 20.00     0.009 C 
ENDBRANCH   6   7
ENDBRANCH   5   6
ENDBRANCH   4   5
BRANCH   4  10
HETATM   10  C8  UNL     1     -34.540  16.227  -4.880  1.00 20.00     0.124 C 
HETATM   11 CL11 UNL     1     -35.557  17.675  -4.973  1.00 20.00    -0.130 Cl
ENDBRANCH   4  10
TORSDOF 4
ENDMDL
MODEL 3
REMARK VINA RESULT:      -4.0      1.721      2.641
REMARK  4 active torsions:
REMARK  status: ('A' for Active; 'I' for Inactive)
REMARK    1  A    between atoms: C4_4  and  C7_7 
REMARK    2  A    between atoms: C4_4  and  C8_8 
REMARK    3  A    between atoms: C7_7  and  C9_9 
REMARK    4  A    between atoms: C9_9  and  C10_10 
ROOT
HETATM    1  C1  UNL     1     -34.679  14.934  -3.475  1.00 20.00     0.002 C 
HETATM    2  C2  UNL     1     -34.862  15.893  -2.283  1.00 20.00     0.010 C 
HETATM    3  C3  UNL     1     -33.295  15.571  -3.710  1.00 20.00     0.010 C 
HETATM    4  C4  UNL     1     -33.790  16.822  -2.926  1.00 20.00    -0.028 C 
ENDROOT
BRANCH   4   5
HETATM    5  C7  UNL     1     -32.774  17.377  -1.935  1.00 20.00     0.011 C 
BRANCH   5   6
HETATM    6  C9  UNL     1     -33.404  18.426  -1.017  1.00 20.00     0.005 C 
BRANCH   6   7
HETATM    7  C10 UNL     1     -32.481  18.871   0.132  1.00 20.00    -0.023 C 
HETATM    8  C5  UNL     1     -31.056  18.378  -0.127  1.00 20.00     0.009 C 
HETATM    9  C6  UNL     1     -32.961  18.368   1.495  1.00 20.00     0.009 C 
ENDBRANCH   6   7
ENDBRANCH   5   6
ENDBRANCH   4   5
BRANCH   4  10
HETATM   10  C8  UNL     1     -34.369  17.927  -3.812  1.00 20.00     0.124 C 
HETATM   11 CL11 UNL     1     -33.062  18.931  -4.463  1.00 20.00    -0.130 Cl
ENDBRANCH   4  10
TORSDOF 4
ENDMDL
MODEL 4
REMARK VINA RESULT:      -4.0      1.814      2.938
REMARK  4 active torsions:
REMARK  status: ('A' for Active; 'I' for Inactive)
REMARK    1  A    between atoms: C4_4  and  C7_7 
REMARK    2  A    between atoms: C4_4  and  C8_8 
REMARK    3  A    between atoms: C7_7  and  C9_9 
REMARK    4  A    between atoms: C9_9  and  C10_10 
ROOT
HETATM    1  C1  UNL     1     -34.492  16.446  -7.201  1.00 20.00     0.002 C 
HETATM    2  C2  UNL     1     -34.091  15.106  -6.556  1.00 20.00     0.010 C 
HETATM    3  C3  UNL     1     -34.491  17.067  -5.790  1.00 20.00     0.010 C 
HETATM    4  C4  UNL     1     -34.670  15.634  -5.210  1.00 20.00    -0.028 C 
ENDROOT
BRANCH   4   5
HETATM    5  C7  UNL     1     -33.793  15.339  -3.999  1.00 20.00     0.011 C 
BRANCH   5   6
HETATM    6  C9  UNL     1     -34.552  15.567  -2.690  1.00 20.00     0.005 C 
BRANCH   6   7
HETATM    7  C10 UNL     1     -34.399  16.994  -2.132  1.00 20.00    -0.023 C 
HETATM    8  C5  UNL     1     -32.919  17.379  -2.091  1.00 20.00     0.009 C 
HETATM    9  C6  UNL     1     -35.010  17.145  -0.738  1.00 20.00     0.009 C 
ENDBRANCH   6   7
ENDBRANCH   5   6
ENDBRANCH   4   5
BRANCH   4  10
HETATM   10  C8  UNL     1     -36.126  15.238  -4.957  1.00 20.00     0.124 C 
HETATM   11 CL11 UNL     1     -36.244  13.488  -4.707  1.00 20.00    -0.130 Cl
ENDBRANCH   4  10
TORSDOF 4
ENDMDL
MODEL 5
REMARK VINA RESULT:      -4.0      1.387      1.760
REMARK  4 active torsions:
REMARK  status: ('A' for Active; 'I' for Inactive)
REMARK    1  A    between atoms: C4_4  and  C7_7 
REMARK    2  A    between atoms: C4_4  and  C8_8 
REMARK    3  A    between atoms: C7_7  and  C9_9 
REMARK    4  A    between atoms: C9_9  and  C10_10 
ROOT
HETATM    1  C1  UNL     1     -37.397  14.455  -4.515  1.00 20.00     0.002 C 
HETATM    2  C2  UNL     1     -36.795  15.640  -3.735  1.00 20.00     0.010 C 
HETATM    3  C3  UNL     1     -36.014  13.778  -4.453  1.00 20.00     0.010 C 
HETATM    4  C4  UNL     1     -35.387  15.183  -4.220  1.00 20.00    -0.028 C 
ENDROOT
BRANCH   4   5
HETATM    5  C7  UNL     1     -34.317  15.215  -3.135  1.00 20.00     0.011 C 
BRANCH   5   6
HETATM    6  C9  UNL     1     -33.408  16.437  -3.282  1.00 20.00     0.005 C 
BRANCH   6   7
HETATM    7  C10 UNL     1     -33.676  17.531  -2.232  1.00 20.00    -0.023 C 
HETATM    8  C5  UNL     1     -32.355  17.980  -1.603  1.00 20.00     0.009 C 
HETATM    9  C6  UNL     1     -34.637  17.066  -1.136  1.00 20.00     0.009 C 
ENDBRANCH   6   7
ENDBRANCH   5   6
ENDBRANCH   4   5
BRANCH   4  10
HETATM   10  C8  UNL     1     -34.910  15.877  -5.498  1.00 20.00     0.124 C 
HETATM   11 CL11 UNL     1     -33.772  14.833  -6.366  1.00 20.00    -0.130 Cl
ENDBRANCH   4  10
TORSDOF 4
ENDMDL
MODEL 6
REMARK VINA RESULT:      -3.9      1.137      4.593
REMARK  4 active torsions:
REMARK  status: ('A' for Active; 'I' for Inactive)
REMARK    1  A    between atoms: C4_4  and  C7_7 
REMARK    2  A    between atoms: C4_4  and  C8_8 
REMARK    3  A    between atoms: C7_7  and  C9_9 
REMARK    4  A    between atoms: C9_9  and  C10_10 
ROOT
HETATM    1  C1  UNL     1     -32.971  18.751  -0.292  1.00 20.00     0.002 C 
HETATM    2  C2  UNL     1     -32.207  18.274  -1.542  1.00 20.00     0.010 C 
HETATM    3  C3  UNL     1     -34.025  17.665  -0.582  1.00 20.00     0.010 C 
HETATM    4  C4  UNL     1     -33.539  17.655  -2.061  1.00 20.00    -0.028 C 
ENDROOT
BRANCH   4   5
HETATM    5  C7  UNL     1     -33.385  16.260  -2.656  1.00 20.00     0.011 C 
BRANCH   5   6
HETATM    6  C9  UNL     1     -34.743  15.583  -2.852  1.00 20.00     0.005 C 
BRANCH   6   7
HETATM    7  C10 UNL     1     -34.698  14.384  -3.817  1.00 20.00    -0.023 C 
HETATM    8  C5  UNL     1     -33.772  14.700  -4.994  1.00 20.00     0.009 C 
HETATM    9  C6  UNL     1     -36.084  14.002  -4.340  1.00 20.00     0.009 C 
ENDBRANCH   6   7
ENDBRANCH   5   6
ENDBRANCH   4   5
BRANCH   4  10
HETATM   10  C8  UNL     1     -34.337  18.574  -2.988  1.00 20.00     0.124 C 
HETATM   11 CL11 UNL     1     -33.698  18.475  -4.638  1.00 20.00    -0.130 Cl
ENDBRANCH   4  10
TORSDOF 4
ENDMDL
MODEL 7
REMARK VINA RESULT:      -3.9      1.267      1.787
REMARK  4 active torsions:
REMARK  status: ('A' for Active; 'I' for Inactive)
REMARK    1  A    between atoms: C4_4  and  C7_7 
REMARK    2  A    between atoms: C4_4  and  C8_8 
REMARK    3  A    between atoms: C7_7  and  C9_9 
REMARK    4  A    between atoms: C9_9  and  C10_10 
ROOT
HETATM    1  C1  UNL     1     -33.441  14.416  -4.530  1.00 20.00     0.002 C 
HETATM    2  C2  UNL     1     -34.797  14.396  -3.799  1.00 20.00     0.010 C 
HETATM    3  C3  UNL     1     -33.016  15.573  -3.604  1.00 20.00     0.010 C 
HETATM    4  C4  UNL     1     -34.525  15.863  -3.351  1.00 20.00    -0.028 C 
ENDROOT
BRANCH   4   5
HETATM    5  C7  UNL     1     -34.869  16.141  -1.893  1.00 20.00     0.011 C 
BRANCH   5   6
HETATM    6  C9  UNL     1     -34.699  17.622  -1.551  1.00 20.00     0.005 C 
BRANCH   6   7
HETATM    7  C10 UNL     1     -33.397  17.931  -0.791  1.00 20.00    -0.023 C 
HETATM    8  C5  UNL     1     -33.707  18.773   0.449  1.00 20.00     0.009 C 
HETATM    9  C6  UNL     1     -32.369  18.655  -1.662  1.00 20.00     0.009 C 
ENDBRANCH   6   7
ENDBRANCH   5   6
ENDBRANCH   4   5
BRANCH   4  10
HETATM   10  C8  UNL     1     -35.123  16.921  -4.280  1.00 20.00     0.124 C 
HETATM   11 CL11 UNL     1     -36.892  16.842  -4.231  1.00 20.00    -0.130 Cl
ENDBRANCH   4  10
TORSDOF 4
ENDMDL
MODEL 8
REMARK VINA RESULT:      -3.9      1.653      4.742
REMARK  4 active torsions:
REMARK  status: ('A' for Active; 'I' for Inactive)
REMARK    1  A    between atoms: C4_4  and  C7_7 
REMARK    2  A    between atoms: C4_4  and  C8_8 
REMARK    3  A    between atoms: C7_7  and  C9_9 
REMARK    4  A    between atoms: C9_9  and  C10_10 
ROOT
HETATM    1  C1  UNL     1     -32.405  19.257  -2.345  1.00 20.00     0.002 C 
HETATM    2  C2  UNL     1     -33.016  18.511  -3.547  1.00 20.00     0.010 C 
HETATM    3  C3  UNL     1     -32.431  17.926  -1.570  1.00 20.00     0.010 C 
HETATM    4  C4  UNL     1     -33.531  17.428  -2.553  1.00 20.00    -0.028 C 
ENDROOT
BRANCH   4   5
HETATM    5  C7  UNL     1     -33.331  15.996  -3.037  1.00 20.00     0.011 C 
BRANCH   5   6
HETATM    6  C9  UNL     1     -34.659  15.240  -3.106  1.00 20.00     0.005 C 
BRANCH   6   7
HETATM    7  C10 UNL     1     -34.743  14.255  -4.287  1.00 20.00    -0.023 C 
HETATM    8  C5  UNL     1     -34.216  14.922  -5.558  1.00 20.00     0.009 C 
HETATM    9  C6  UNL     1     -36.166  13.746  -4.524  1.00 20.00     0.009 C 
ENDBRANCH   6   7
ENDBRANCH   5   6
ENDBRANCH   4   5
BRANCH   4  10
HETATM   10  C8  UNL     1     -34.961  17.659  -2.062  1.00 20.00     0.124 C 
HETATM   11 CL11 UNL     1     -35.128  17.093  -0.392  1.00 20.00    -0.130 Cl
ENDBRANCH   4  10
TORSDOF 4
ENDMDL
MODEL 9
REMARK VINA RESULT:      -3.9      1.436      4.360
REMARK  4 active torsions:
REMARK  status: ('A' for Active; 'I' for Inactive)
REMARK    1  A    between atoms: C4_4  and  C7_7 
REMARK    2  A    between atoms: C4_4  and  C8_8 
REMARK    3  A    between atoms: C7_7  and  C9_9 
REMARK    4  A    between atoms: C9_9  and  C10_10 
ROOT
HETATM    1  C1  UNL     1     -34.110  17.748  -0.844  1.00 20.00     0.002 C 
HETATM    2  C2  UNL     1     -33.289  17.225  -2.038  1.00 20.00     0.010 C 
HETATM    3  C3  UNL     1     -35.166  16.672  -1.164  1.00 20.00     0.010 C 
HETATM    4  C4  UNL     1     -34.601  16.616  -2.614  1.00 20.00    -0.028 C 
ENDROOT
BRANCH   4   5
HETATM    5  C7  UNL     1     -34.441  15.203  -3.164  1.00 20.00     0.011 C 
BRANCH   5   6
HETATM    6  C9  UNL     1     -34.214  15.216  -4.677  1.00 20.00     0.005 C 
BRANCH   6   7
HETATM    7  C10 UNL     1     -35.232  14.363  -5.457  1.00 20.00    -0.023 C 
HETATM    8  C5  UNL     1     -35.918  15.220  -6.523  1.00 20.00     0.009 C 
HETATM    9  C6  UNL     1     -36.285  13.731  -4.546  1.00 20.00     0.009 C 
ENDBRANCH   6   7
ENDBRANCH   5   6
ENDBRANCH   4   5
BRANCH   4  10
HETATM   10  C8  UNL     1     -35.331  17.524  -3.606  1.00 20.00     0.124 C 
HETATM   11 CL11 UNL     1     -37.058  17.133  -3.629  1.00 20.00    -0.130 Cl
ENDBRANCH   4  10
TORSDOF 4
ENDMDL
