MODEL 1
REMARK VINA RESULT:      -4.1      0.000      0.000
REMARK  4 active torsions:
REMARK  status: ('A' for Active; 'I' for Inactive)
REMARK    1  A    between atoms: C4_4  and  C5_5 
REMARK    2  A    between atoms: C5_5  and  C7_7 
REMARK    3  A    between atoms: C6_6  and  O9_9 
REMARK    4  A    between atoms: C7_7  and  O9_9 
ROOT
HETATM    1  C1  UNL     1     -33.245   5.132   2.543  1.00 20.00     0.091 C 
HETATM    2  C7  UNL     1     -33.556   6.524   2.899  1.00 20.00     0.227 C 
HETATM    3  N8  UNL     1     -33.002   4.033   2.262  1.00 20.00    -0.195 NA
ENDROOT
BRANCH   2   4
HETATM    4  C5  UNL     1     -32.396   7.472   2.581  1.00 20.00     0.046 C 
BRANCH   4   5
HETATM    5  C4  UNL     1     -32.270   7.789   1.089  1.00 20.00    -0.001 C 
HETATM    6  C2  UNL     1     -32.970   9.092   0.738  1.00 20.00     0.005 C 
ENDBRANCH   4   5
ENDBRANCH   2   4
BRANCH   2   7
HETATM    7  O9  UNL     1     -33.812   6.607   4.300  1.00 20.00    -0.372 OA
BRANCH   7   8
HETATM    8  C6  UNL     1     -34.917   5.796   4.672  1.00 20.00     0.165 C 
HETATM    9  C3  UNL     1     -34.688   5.266   6.071  1.00 20.00     0.033 C 
ENDBRANCH   7   8
ENDBRANCH   2   7
TORSDOF 4
ENDMDL
MODEL 2
REMARK VINA RESULT:      -4.1     11.058     12.057
REMARK  4 active torsions:
REMARK  status: ('A' for Active; 'I' for Inactive)
REMARK    1  A    between atoms: C4_4  and  C5_5 
REMARK    2  A    between atoms: C5_5  and  C7_7 
REMARK    3  A    between atoms: C6_6  and  O9_9 
REMARK    4  A    between atoms: C7_7  and  O9_9 
ROOT
HETATM    1  C1  UNL     1     -35.976  13.936  -4.338  1.00 20.00     0.091 C 
HETATM    2  C7  UNL     1     -34.545  14.225  -4.166  1.00 20.00     0.227 C 
HETATM    3  N8  UNL     1     -37.105  13.706  -4.473  1.00 20.00    -0.195 NA
ENDROOT
BRANCH   2   4
HETATM    4  C5  UNL     1     -34.308  15.599  -3.534  1.00 20.00     0.046 C 
BRANCH   4   5
HETATM    5  C4  UNL     1     -35.119  15.821  -2.255  1.00 20.00    -0.001 C 
HETATM    6  C2  UNL     1     -34.571  16.984  -1.445  1.00 20.00     0.005 C 
ENDBRANCH   4   5
ENDBRANCH   2   4
BRANCH   2   7
HETATM    7  O9  UNL     1     -33.906  14.220  -5.442  1.00 20.00    -0.372 OA
BRANCH   7   8
HETATM    8  C6  UNL     1     -34.251  15.372  -6.196  1.00 20.00     0.165 C 
HETATM    9  C3  UNL     1     -33.848  15.154  -7.639  1.00 20.00     0.033 C 
ENDBRANCH   7   8
ENDBRANCH   2   7
TORSDOF 4
ENDMDL
MODEL 3
REMARK VINA RESULT:      -4.0      0.992      4.132
REMARK  4 active torsions:
REMARK  status: ('A' for Active; 'I' for Inactive)
REMARK    1  A    between atoms: C4_4  and  C5_5 
REMARK    2  A    between atoms: C5_5  and  C7_7 
REMARK    3  A    between atoms: C6_6  and  O9_9 
REMARK    4  A    between atoms: C7_7  and  O9_9 
ROOT
HETATM    1  C1  UNL     1     -33.101   5.312   2.587  1.00 20.00     0.091 C 
HETATM    2  C7  UNL     1     -32.873   6.613   3.232  1.00 20.00     0.227 C 
HETATM    3  N8  UNL     1     -33.278   4.286   2.076  1.00 20.00    -0.195 NA
ENDROOT
BRANCH   2   4
HETATM    4  C5  UNL     1     -33.668   6.757   4.533  1.00 20.00     0.046 C 
BRANCH   4   5
HETATM    5  C4  UNL     1     -34.827   5.763   4.642  1.00 20.00    -0.001 C 
HETATM    6  C2  UNL     1     -34.793   5.013   5.964  1.00 20.00     0.005 C 
ENDBRANCH   4   5
ENDBRANCH   2   4
BRANCH   2   7
HETATM    7  O9  UNL     1     -33.291   7.656   2.352  1.00 20.00    -0.372 OA
BRANCH   7   8
HETATM    8  C6  UNL     1     -32.353   7.855   1.305  1.00 20.00     0.165 C 
HETATM    9  C3  UNL     1     -32.917   8.859   0.323  1.00 20.00     0.033 C 
ENDBRANCH   7   8
ENDBRANCH   2   7
TORSDOF 4
ENDMDL
MODEL 4
REMARK VINA RESULT:      -3.7     11.072     12.213
REMARK  4 active torsions:
REMARK  status: ('A' for Active; 'I' for Inactive)
REMARK    1  A    between atoms: C4_4  and  C5_5 
REMARK    2  A    between atoms: C5_5  and  C7_7 
REMARK    3  A    between atoms: C6_6  and  O9_9 
REMARK    4  A    between atoms: C7_7  and  O9_9 
ROOT
HETATM    1  C1  UNL     1     -35.569  13.879  -4.298  1.00 20.00     0.091 C 
HETATM    2  C7  UNL     1     -35.175  15.267  -4.019  1.00 20.00     0.227 C 
HETATM    3  N8  UNL     1     -35.879  12.784  -4.521  1.00 20.00    -0.195 NA
ENDROOT
BRANCH   2   4
HETATM    4  C5  UNL     1     -35.200  15.581  -2.520  1.00 20.00     0.046 C 
BRANCH   4   5
HETATM    5  C4  UNL     1     -34.206  16.674  -2.118  1.00 20.00    -0.001 C 
HETATM    6  C2  UNL     1     -32.950  16.622  -2.971  1.00 20.00     0.005 C 
ENDBRANCH   4   5
ENDBRANCH   2   4
BRANCH   2   7
HETATM    7  O9  UNL     1     -36.087  16.156  -4.662  1.00 20.00    -0.372 OA
BRANCH   7   8
HETATM    8  C6  UNL     1     -35.844  16.223  -6.059  1.00 20.00     0.165 C 
HETATM    9  C3  UNL     1     -34.584  17.028  -6.301  1.00 20.00     0.033 C 
ENDBRANCH   7   8
ENDBRANCH   2   7
TORSDOF 4
ENDMDL
MODEL 5
REMARK VINA RESULT:      -3.6     11.246     11.987
REMARK  4 active torsions:
REMARK  status: ('A' for Active; 'I' for Inactive)
REMARK    1  A    between atoms: C4_4  and  C5_5 
REMARK    2  A    between atoms: C5_5  and  C7_7 
REMARK    3  A    between atoms: C6_6  and  O9_9 
REMARK    4  A    between atoms: C7_7  and  O9_9 
ROOT
HETATM    1  C1  UNL     1     -37.194  14.567  -4.293  1.00 20.00     0.091 C 
HETATM    2  C7  UNL     1     -36.066  15.499  -4.160  1.00 20.00     0.227 C 
HETATM    3  N8  UNL     1     -38.087  13.832  -4.394  1.00 20.00    -0.195 NA
ENDROOT
BRANCH   2   4
HETATM    4  C5  UNL     1     -35.602  16.037  -5.517  1.00 20.00     0.046 C 
BRANCH   4   5
HETATM    5  C4  UNL     1     -35.292  14.930  -6.528  1.00 20.00    -0.001 C 
HETATM    6  C2  UNL     1     -33.920  15.121  -7.155  1.00 20.00     0.005 C 
ENDBRANCH   4   5
ENDBRANCH   2   4
BRANCH   2   7
HETATM    7  O9  UNL     1     -34.961  14.821  -3.564  1.00 20.00    -0.372 OA
BRANCH   7   8
HETATM    8  C6  UNL     1     -34.100  15.728  -2.892  1.00 20.00     0.165 C 
HETATM    9  C3  UNL     1     -34.862  16.385  -1.761  1.00 20.00     0.033 C 
ENDBRANCH   7   8
ENDBRANCH   2   7
TORSDOF 4
ENDMDL
MODEL 6
REMARK VINA RESULT:      -3.5     11.662     12.328
REMARK  4 active torsions:
REMARK  status: ('A' for Active; 'I' for Inactive)
REMARK    1  A    between atoms: C4_4  and  C5_5 
REMARK    2  A    between atoms: C5_5  and  C7_7 
REMARK    3  A    between atoms: C6_6  and  O9_9 
REMARK    4  A    between atoms: C7_7  and  O9_9 
ROOT
HETATM    1  C1  UNL     1     -31.682  18.196  -0.824  1.00 20.00     0.091 C 
HETATM    2  C7  UNL     1     -33.003  17.770  -1.305  1.00 20.00     0.227 C 
HETATM    3  N8  UNL     1     -30.639  18.532  -0.441  1.00 20.00    -0.195 NA
ENDROOT
BRANCH   2   4
HETATM    4  C5  UNL     1     -33.021  17.556  -2.821  1.00 20.00     0.046 C 
BRANCH   4   5
HETATM    5  C4  UNL     1     -33.218  16.091  -3.219  1.00 20.00    -0.001 C 
HETATM    6  C2  UNL     1     -34.592  15.585  -2.810  1.00 20.00     0.005 C 
ENDBRANCH   4   5
ENDBRANCH   2   4
BRANCH   2   7
HETATM    7  O9  UNL     1     -33.965  18.778  -0.999  1.00 20.00    -0.372 OA
BRANCH   7   8
HETATM    8  C6  UNL     1     -34.478  18.620   0.315  1.00 20.00     0.165 C 
HETATM    9  C3  UNL     1     -35.299  17.349   0.374  1.00 20.00     0.033 C 
ENDBRANCH   7   8
ENDBRANCH   2   7
TORSDOF 4
ENDMDL
MODEL 7
REMARK VINA RESULT:      -3.4     11.250     12.083
REMARK  4 active torsions:
REMARK  status: ('A' for Active; 'I' for Inactive)
REMARK    1  A    between atoms: C4_4  and  C5_5 
REMARK    2  A    between atoms: C5_5  and  C7_7 
REMARK    3  A    between atoms: C6_6  and  O9_9 
REMARK    4  A    between atoms: C7_7  and  O9_9 
ROOT
HETATM    1  C1  UNL     1     -34.577  14.906  -6.034  1.00 20.00     0.091 C 
HETATM    2  C7  UNL     1     -35.517  14.994  -4.908  1.00 20.00     0.227 C 
HETATM    3  N8  UNL     1     -33.836  14.839  -6.925  1.00 20.00    -0.195 NA
ENDROOT
BRANCH   2   4
HETATM    4  C5  UNL     1     -34.874  14.558  -3.588  1.00 20.00     0.046 C 
BRANCH   4   5
HETATM    5  C4  UNL     1     -34.681  15.713  -2.603  1.00 20.00    -0.001 C 
HETATM    6  C2  UNL     1     -33.347  16.409  -2.818  1.00 20.00     0.005 C 
ENDBRANCH   4   5
ENDBRANCH   2   4
BRANCH   2   7
HETATM    7  O9  UNL     1     -36.628  14.134  -5.153  1.00 20.00    -0.372 OA
BRANCH   7   8
HETATM    8  C6  UNL     1     -37.754  14.511  -4.373  1.00 20.00     0.165 C 
HETATM    9  C3  UNL     1     -38.131  15.938  -4.711  1.00 20.00     0.033 C 
ENDBRANCH   7   8
ENDBRANCH   2   7
TORSDOF 4
ENDMDL
MODEL 8
REMARK VINA RESULT:      -3.4     11.338     11.861
REMARK  4 active torsions:
REMARK  status: ('A' for Active; 'I' for Inactive)
REMARK    1  A    between atoms: C4_4  and  C5_5 
REMARK    2  A    between atoms: C5_5  and  C7_7 
REMARK    3  A    between atoms: C6_6  and  O9_9 
REMARK    4  A    between atoms: C7_7  and  O9_9 
ROOT
HETATM    1  C1  UNL     1     -33.797  14.754  -5.640  1.00 20.00     0.091 C 
HETATM    2  C7  UNL     1     -33.833  14.611  -4.178  1.00 20.00     0.227 C 
HETATM    3  N8  UNL     1     -33.766  14.865  -6.795  1.00 20.00    -0.195 NA
ENDROOT
BRANCH   2   4
HETATM    4  C5  UNL     1     -35.248  14.782  -3.618  1.00 20.00     0.046 C 
BRANCH   4   5
HETATM    5  C4  UNL     1     -36.292  13.939  -4.355  1.00 20.00    -0.001 C 
HETATM    6  C2  UNL     1     -37.659  14.604  -4.332  1.00 20.00     0.005 C 
ENDBRANCH   4   5
ENDBRANCH   2   4
BRANCH   2   7
HETATM    7  O9  UNL     1     -33.010  15.615  -3.585  1.00 20.00    -0.372 OA
BRANCH   7   8
HETATM    8  C6  UNL     1     -33.711  16.328  -2.577  1.00 20.00     0.165 C 
HETATM    9  C3  UNL     1     -32.866  17.501  -2.127  1.00 20.00     0.033 C 
ENDBRANCH   7   8
ENDBRANCH   2   7
TORSDOF 4
ENDMDL
MODEL 9
REMARK VINA RESULT:      -3.4      2.011      3.291
REMARK  4 active torsions:
REMARK  status: ('A' for Active; 'I' for Inactive)
REMARK    1  A    between atoms: C4_4  and  C5_5 
REMARK    2  A    between atoms: C5_5  and  C7_7 
REMARK    3  A    between atoms: C6_6  and  O9_9 
REMARK    4  A    between atoms: C7_7  and  O9_9 
ROOT
HETATM    1  C1  UNL     1     -32.681   7.720   1.754  1.00 20.00     0.091 C 
HETATM    2  C7  UNL     1     -32.603   6.841   2.928  1.00 20.00     0.227 C 
HETATM    3  N8  UNL     1     -32.740   8.416   0.827  1.00 20.00    -0.195 NA
ENDROOT
BRANCH   2   4
HETATM    4  C5  UNL     1     -32.742   5.363   2.550  1.00 20.00     0.046 C 
BRANCH   4   5
HETATM    5  C4  UNL     1     -34.142   4.803   2.814  1.00 20.00    -0.001 C 
HETATM    6  C2  UNL     1     -34.144   3.848   3.996  1.00 20.00     0.005 C 
ENDBRANCH   4   5
ENDBRANCH   2   4
BRANCH   2   7
HETATM    7  O9  UNL     1     -33.665   7.158   3.827  1.00 20.00    -0.372 OA
BRANCH   7   8
HETATM    8  C6  UNL     1     -33.194   7.273   5.162  1.00 20.00     0.165 C 
HETATM    9  C3  UNL     1     -34.193   6.621   6.094  1.00 20.00     0.033 C 
ENDBRANCH   7   8
ENDBRANCH   2   7
TORSDOF 4
ENDMDL
