MODEL 1
REMARK VINA RESULT:      -3.9      0.000      0.000
REMARK  2 active torsions:
REMARK  status: ('A' for Active; 'I' for Inactive)
REMARK    1  A    between atoms: C5_5  and  O9_9 
REMARK    2  A    between atoms: C7_7  and  O9_9 
ROOT
HETATM    1  C1  UNL     1     -36.544  14.468  -4.237  1.00 20.00     0.098 C 
HETATM    2  C2  UNL     1     -34.089  14.787  -4.477  1.00 20.00     0.065 C 
HETATM    3  C3  UNL     1     -34.076  14.937  -5.990  1.00 20.00     0.078 C 
HETATM    4  C4  UNL     1     -35.577  16.722  -4.645  1.00 20.00     0.127 C 
HETATM    5  C5  UNL     1     -35.409  15.366  -3.958  1.00 20.00     0.157 C 
HETATM    6  N8  UNL     1     -37.437  13.761  -4.455  1.00 20.00    -0.194 NA
HETATM    7  S10 UNL     1     -34.858  16.543  -6.307  1.00 20.00    -0.165 SA
ENDROOT
BRANCH   5   8
HETATM    8  O9  UNL     1     -35.325  15.546  -2.549  1.00 20.00    -0.365 OA
BRANCH   8   9
HETATM    9  C7  UNL     1     -34.205  16.343  -2.195  1.00 20.00     0.165 C 
HETATM   10  C6  UNL     1     -34.599  17.279  -1.072  1.00 20.00     0.033 C 
ENDBRANCH   8   9
ENDBRANCH   5   8
TORSDOF 2
ENDMDL
MODEL 2
REMARK VINA RESULT:      -3.9      2.166      3.633
REMARK  2 active torsions:
REMARK  status: ('A' for Active; 'I' for Inactive)
REMARK    1  A    between atoms: C5_5  and  O9_9 
REMARK    2  A    between atoms: C7_7  and  O9_9 
ROOT
HETATM    1  C1  UNL     1     -36.934  14.303  -4.577  1.00 20.00     0.098 C 
HETATM    2  C2  UNL     1     -35.605  16.363  -4.996  1.00 20.00     0.065 C 
HETATM    3  C3  UNL     1     -35.747  16.954  -3.603  1.00 20.00     0.078 C 
HETATM    4  C4  UNL     1     -34.604  14.520  -3.736  1.00 20.00     0.127 C 
HETATM    5  C5  UNL     1     -35.590  14.837  -4.861  1.00 20.00     0.157 C 
HETATM    6  N8  UNL     1     -37.991  13.882  -4.354  1.00 20.00    -0.194 NA
HETATM    7  S10 UNL     1     -34.748  15.880  -2.536  1.00 20.00    -0.165 SA
ENDROOT
BRANCH   5   8
HETATM    8  O9  UNL     1     -35.134  14.259  -6.079  1.00 20.00    -0.365 OA
BRANCH   8   9
HETATM    9  C7  UNL     1     -35.184  15.194  -7.146  1.00 20.00     0.165 C 
HETATM   10  C6  UNL     1     -33.834  15.237  -7.829  1.00 20.00     0.033 C 
ENDBRANCH   8   9
ENDBRANCH   5   8
TORSDOF 2
ENDMDL
MODEL 3
REMARK VINA RESULT:      -3.8      1.453      1.523
REMARK  2 active torsions:
REMARK  status: ('A' for Active; 'I' for Inactive)
REMARK    1  A    between atoms: C5_5  and  O9_9 
REMARK    2  A    between atoms: C7_7  and  O9_9 
ROOT
HETATM    1  C1  UNL     1     -35.619  13.873  -4.284  1.00 20.00     0.098 C 
HETATM    2  C2  UNL     1     -34.547  15.917  -5.212  1.00 20.00     0.065 C 
HETATM    3  C3  UNL     1     -35.583  16.187  -6.291  1.00 20.00     0.078 C 
HETATM    4  C4  UNL     1     -36.506  16.136  -3.762  1.00 20.00     0.127 C 
HETATM    5  C5  UNL     1     -35.266  15.279  -4.019  1.00 20.00     0.157 C 
HETATM    6  N8  UNL     1     -35.896  12.767  -4.493  1.00 20.00    -0.194 NA
HETATM    7  S10 UNL     1     -37.065  16.721  -5.392  1.00 20.00    -0.165 SA
ENDROOT
BRANCH   5   8
HETATM    8  O9  UNL     1     -34.413  15.313  -2.879  1.00 20.00    -0.365 OA
BRANCH   8   9
HETATM    9  C7  UNL     1     -33.330  16.211  -3.071  1.00 20.00     0.165 C 
HETATM   10  C6  UNL     1     -33.345  17.244  -1.965  1.00 20.00     0.033 C 
ENDBRANCH   8   9
ENDBRANCH   5   8
TORSDOF 2
ENDMDL
MODEL 4
REMARK VINA RESULT:      -3.6      1.322      1.420
REMARK  2 active torsions:
REMARK  status: ('A' for Active; 'I' for Inactive)
REMARK    1  A    between atoms: C5_5  and  O9_9 
REMARK    2  A    between atoms: C7_7  and  O9_9 
ROOT
HETATM    1  C1  UNL     1     -37.114  14.662  -4.135  1.00 20.00     0.098 C 
HETATM    2  C2  UNL     1     -34.855  15.098  -3.190  1.00 20.00     0.065 C 
HETATM    3  C3  UNL     1     -34.077  14.256  -4.189  1.00 20.00     0.078 C 
HETATM    4  C4  UNL     1     -35.551  16.256  -5.230  1.00 20.00     0.127 C 
HETATM    5  C5  UNL     1     -36.073  15.682  -3.913  1.00 20.00     0.157 C 
HETATM    6  N8  UNL     1     -37.932  13.859  -4.309  1.00 20.00    -0.194 NA
HETATM    7  S10 UNL     1     -34.189  15.169  -5.753  1.00 20.00    -0.165 SA
ENDROOT
BRANCH   5   8
HETATM    8  O9  UNL     1     -36.638  16.723  -3.123  1.00 20.00    -0.365 OA
BRANCH   8   9
HETATM    9  C7  UNL     1     -35.661  17.325  -2.286  1.00 20.00     0.165 C 
HETATM   10  C6  UNL     1     -36.319  17.763  -0.995  1.00 20.00     0.033 C 
ENDBRANCH   8   9
ENDBRANCH   5   8
TORSDOF 2
ENDMDL
MODEL 5
REMARK VINA RESULT:      -3.5      2.170      3.390
REMARK  2 active torsions:
REMARK  status: ('A' for Active; 'I' for Inactive)
REMARK    1  A    between atoms: C5_5  and  O9_9 
REMARK    2  A    between atoms: C7_7  and  O9_9 
ROOT
HETATM    1  C1  UNL     1     -35.817  13.949  -4.554  1.00 20.00     0.098 C 
HETATM    2  C2  UNL     1     -35.992  16.058  -3.248  1.00 20.00     0.065 C 
HETATM    3  C3  UNL     1     -34.772  15.828  -2.371  1.00 20.00     0.078 C 
HETATM    4  C4  UNL     1     -34.320  15.877  -5.026  1.00 20.00     0.127 C 
HETATM    5  C5  UNL     1     -35.719  15.418  -4.614  1.00 20.00     0.157 C 
HETATM    6  N8  UNL     1     -35.894  12.793  -4.508  1.00 20.00    -0.194 NA
HETATM    7  S10 UNL     1     -33.354  16.006  -3.489  1.00 20.00    -0.165 SA
ENDROOT
BRANCH   5   8
HETATM    8  O9  UNL     1     -36.677  15.887  -5.556  1.00 20.00    -0.365 OA
BRANCH   8   9
HETATM    9  C7  UNL     1     -37.991  15.850  -5.019  1.00 20.00     0.165 C 
HETATM   10  C6  UNL     1     -38.915  16.639  -5.922  1.00 20.00     0.033 C 
ENDBRANCH   8   9
ENDBRANCH   5   8
TORSDOF 2
ENDMDL
MODEL 6
REMARK VINA RESULT:      -3.4      1.734      2.056
REMARK  2 active torsions:
REMARK  status: ('A' for Active; 'I' for Inactive)
REMARK    1  A    between atoms: C5_5  and  O9_9 
REMARK    2  A    between atoms: C7_7  and  O9_9 
ROOT
HETATM    1  C1  UNL     1     -37.307  14.723  -4.223  1.00 20.00     0.098 C 
HETATM    2  C2  UNL     1     -35.743  16.292  -5.353  1.00 20.00     0.065 C 
HETATM    3  C3  UNL     1     -36.804  17.197  -5.958  1.00 20.00     0.078 C 
HETATM    4  C4  UNL     1     -36.841  16.974  -3.275  1.00 20.00     0.127 C 
HETATM    5  C5  UNL     1     -36.281  15.762  -4.020  1.00 20.00     0.157 C 
HETATM    6  N8  UNL     1     -38.114  13.906  -4.382  1.00 20.00    -0.194 NA
HETATM    7  S10 UNL     1     -37.523  18.082  -4.547  1.00 20.00    -0.165 SA
ENDROOT
BRANCH   5   8
HETATM    8  O9  UNL     1     -35.214  15.187  -3.274  1.00 20.00    -0.365 OA
BRANCH   8   9
HETATM    9  C7  UNL     1     -34.725  16.089  -2.293  1.00 20.00     0.165 C 
HETATM   10  C6  UNL     1     -33.299  16.466  -2.635  1.00 20.00     0.033 C 
ENDBRANCH   8   9
ENDBRANCH   5   8
TORSDOF 2
ENDMDL
MODEL 7
REMARK VINA RESULT:      -3.4      1.944      3.324
REMARK  2 active torsions:
REMARK  status: ('A' for Active; 'I' for Inactive)
REMARK    1  A    between atoms: C5_5  and  O9_9 
REMARK    2  A    between atoms: C7_7  and  O9_9 
ROOT
HETATM    1  C1  UNL     1     -34.093  14.589  -4.149  1.00 20.00     0.098 C 
HETATM    2  C2  UNL     1     -34.879  15.907  -2.192  1.00 20.00     0.065 C 
HETATM    3  C3  UNL     1     -33.781  16.958  -2.231  1.00 20.00     0.078 C 
HETATM    4  C4  UNL     1     -35.288  16.748  -4.453  1.00 20.00     0.127 C 
HETATM    5  C5  UNL     1     -35.160  15.465  -3.632  1.00 20.00     0.157 C 
HETATM    6  N8  UNL     1     -33.254  13.900  -4.555  1.00 20.00    -0.194 NA
HETATM    7  S10 UNL     1     -34.130  17.942  -3.714  1.00 20.00    -0.165 SA
ENDROOT
BRANCH   5   8
HETATM    8  O9  UNL     1     -36.384  14.740  -3.674  1.00 20.00    -0.365 OA
BRANCH   8   9
HETATM    9  C7  UNL     1     -37.290  15.311  -4.606  1.00 20.00     0.165 C 
HETATM   10  C6  UNL     1     -38.699  14.891  -4.245  1.00 20.00     0.033 C 
ENDBRANCH   8   9
ENDBRANCH   5   8
TORSDOF 2
ENDMDL
MODEL 8
REMARK VINA RESULT:      -3.4      2.293      3.149
REMARK  2 active torsions:
REMARK  status: ('A' for Active; 'I' for Inactive)
REMARK    1  A    between atoms: C5_5  and  O9_9 
REMARK    2  A    between atoms: C7_7  and  O9_9 
ROOT
HETATM    1  C1  UNL     1     -36.134  13.777  -4.922  1.00 20.00     0.098 C 
HETATM    2  C2  UNL     1     -35.847  16.240  -4.728  1.00 20.00     0.065 C 
HETATM    3  C3  UNL     1     -34.372  16.277  -5.096  1.00 20.00     0.078 C 
HETATM    4  C4  UNL     1     -36.018  15.218  -6.945  1.00 20.00     0.127 C 
HETATM    5  C5  UNL     1     -36.495  15.085  -5.499  1.00 20.00     0.157 C 
HETATM    6  N8  UNL     1     -35.851  12.749  -4.468  1.00 20.00    -0.194 NA
HETATM    7  S10 UNL     1     -34.321  15.870  -6.862  1.00 20.00    -0.165 SA
ENDROOT
BRANCH   5   8
HETATM    8  O9  UNL     1     -37.911  15.216  -5.444  1.00 20.00    -0.365 OA
BRANCH   8   9
HETATM    9  C7  UNL     1     -38.324  15.878  -4.258  1.00 20.00     0.165 C 
HETATM   10  C6  UNL     1     -39.706  15.393  -3.877  1.00 20.00     0.033 C 
ENDBRANCH   8   9
ENDBRANCH   5   8
TORSDOF 2
ENDMDL
MODEL 9
REMARK VINA RESULT:      -3.3      2.217      2.801
REMARK  2 active torsions:
REMARK  status: ('A' for Active; 'I' for Inactive)
REMARK    1  A    between atoms: C5_5  and  O9_9 
REMARK    2  A    between atoms: C7_7  and  O9_9 
ROOT
HETATM    1  C1  UNL     1     -34.085  15.185  -6.023  1.00 20.00     0.098 C 
HETATM    2  C2  UNL     1     -35.577  16.549  -4.574  1.00 20.00     0.065 C 
HETATM    3  C3  UNL     1     -36.891  15.975  -5.080  1.00 20.00     0.078 C 
HETATM    4  C4  UNL     1     -35.167  14.203  -4.012  1.00 20.00     0.127 C 
HETATM    5  C5  UNL     1     -34.523  15.439  -4.639  1.00 20.00     0.157 C 
HETATM    6  N8  UNL     1     -33.741  14.986  -7.112  1.00 20.00    -0.194 NA
HETATM    7  S10 UNL     1     -36.933  14.276  -4.444  1.00 20.00    -0.165 SA
ENDROOT
BRANCH   5   8
HETATM    8  O9  UNL     1     -33.382  15.826  -3.880  1.00 20.00    -0.365 OA
BRANCH   8   9
HETATM    9  C7  UNL     1     -33.749  16.257  -2.578  1.00 20.00     0.165 C 
HETATM   10  C6  UNL     1     -32.871  17.424  -2.178  1.00 20.00     0.033 C 
ENDBRANCH   8   9
ENDBRANCH   5   8
TORSDOF 2
ENDMDL
