MODEL 1
REMARK VINA RESULT:      -4.6      0.000      0.000
REMARK  4 active torsions:
REMARK  status: ('A' for Active; 'I' for Inactive)
REMARK    1  A    between atoms: C2_2  and  C7_7 
REMARK    2  A    between atoms: C2_2  and  C8_8 
REMARK    3  A    between atoms: C3_3  and  C9_9 
REMARK    4  A    between atoms: C8_8  and  C9_9 
ROOT
HETATM    1  C8  UNL     1     -34.005  14.910  -3.742  1.00 20.00     0.045 C 
ENDROOT
BRANCH   1   2
HETATM    2  C2  UNL     1     -33.986  16.044  -2.734  1.00 20.00    -0.089 C 
HETATM    3  C1  UNL     1     -32.953  16.903  -2.689  1.00 20.00     0.014 C 
BRANCH   2   4
HETATM    4  C7  UNL     1     -35.153  16.191  -1.784  1.00 20.00     0.029 C 
HETATM    5  C5  UNL     1     -34.920  17.244  -0.710  1.00 20.00     0.010 C 
ENDBRANCH   2   4
ENDBRANCH   1   2
BRANCH   1   6
HETATM    6  C9  UNL     1     -35.136  15.008  -4.781  1.00 20.00     0.055 C 
HETATM    7  C6  UNL     1     -34.585  14.862  -6.197  1.00 20.00     0.018 C 
BRANCH   6   8
HETATM    8  C3  UNL     1     -36.198  13.934  -4.562  1.00 20.00     0.127 C 
HETATM    9  C4  UNL     1     -37.608  14.412  -4.330  1.00 20.00     0.091 C 
HETATM   10  O10 UNL     1     -35.936  12.732  -4.606  1.00 20.00    -0.298 OA
ENDBRANCH   6   8
ENDBRANCH   1   6
TORSDOF 4
ENDMDL
MODEL 2
REMARK VINA RESULT:      -4.6      0.526      1.327
REMARK  4 active torsions:
REMARK  status: ('A' for Active; 'I' for Inactive)
REMARK    1  A    between atoms: C2_2  and  C7_7 
REMARK    2  A    between atoms: C2_2  and  C8_8 
REMARK    3  A    between atoms: C3_3  and  C9_9 
REMARK    4  A    between atoms: C8_8  and  C9_9 
ROOT
HETATM    1  C8  UNL     1     -34.056  14.939  -3.649  1.00 20.00     0.045 C 
ENDROOT
BRANCH   1   2
HETATM    2  C2  UNL     1     -34.069  16.082  -2.653  1.00 20.00    -0.089 C 
HETATM    3  C1  UNL     1     -35.082  16.218  -1.779  1.00 20.00     0.014 C 
BRANCH   2   4
HETATM    4  C7  UNL     1     -32.920  17.064  -2.659  1.00 20.00     0.029 C 
HETATM    5  C5  UNL     1     -32.829  17.888  -1.383  1.00 20.00     0.010 C 
ENDBRANCH   2   4
ENDBRANCH   1   2
BRANCH   1   6
HETATM    6  C9  UNL     1     -35.151  15.026  -4.727  1.00 20.00     0.055 C 
HETATM    7  C6  UNL     1     -34.551  14.878  -6.123  1.00 20.00     0.018 C 
BRANCH   6   8
HETATM    8  C3  UNL     1     -36.213  13.946  -4.541  1.00 20.00     0.127 C 
HETATM    9  C4  UNL     1     -37.628  14.418  -4.328  1.00 20.00     0.091 C 
HETATM   10  O10 UNL     1     -35.947  12.746  -4.594  1.00 20.00    -0.298 OA
ENDBRANCH   6   8
ENDBRANCH   1   6
TORSDOF 4
ENDMDL
MODEL 3
REMARK VINA RESULT:      -4.4     16.526     18.129
REMARK  4 active torsions:
REMARK  status: ('A' for Active; 'I' for Inactive)
REMARK    1  A    between atoms: C2_2  and  C7_7 
REMARK    2  A    between atoms: C2_2  and  C8_8 
REMARK    3  A    between atoms: C3_3  and  C9_9 
REMARK    4  A    between atoms: C8_8  and  C9_9 
ROOT
HETATM    1  C8  UNL     1     -23.541  16.971  10.160  1.00 20.00     0.045 C 
ENDROOT
BRANCH   1   2
HETATM    2  C2  UNL     1     -23.609  17.366  11.623  1.00 20.00    -0.089 C 
HETATM    3  C1  UNL     1     -22.496  17.715  12.291  1.00 20.00     0.014 C 
BRANCH   2   4
HETATM    4  C7  UNL     1     -24.954  17.364  12.314  1.00 20.00     0.029 C 
HETATM    5  C5  UNL     1     -25.695  18.687  12.182  1.00 20.00     0.010 C 
ENDBRANCH   2   4
ENDBRANCH   1   2
BRANCH   1   6
HETATM    6  C9  UNL     1     -22.773  17.965   9.271  1.00 20.00     0.055 C 
HETATM    7  C6  UNL     1     -21.572  17.289   8.614  1.00 20.00     0.018 C 
BRANCH   6   8
HETATM    8  C3  UNL     1     -23.662  18.546   8.175  1.00 20.00     0.127 C 
HETATM    9  C4  UNL     1     -24.909  19.263   8.623  1.00 20.00     0.091 C 
HETATM   10  O10 UNL     1     -23.368  18.470   6.982  1.00 20.00    -0.298 OA
ENDBRANCH   6   8
ENDBRANCH   1   6
TORSDOF 4
ENDMDL
MODEL 4
REMARK VINA RESULT:      -4.4     10.708     11.362
REMARK  4 active torsions:
REMARK  status: ('A' for Active; 'I' for Inactive)
REMARK    1  A    between atoms: C2_2  and  C7_7 
REMARK    2  A    between atoms: C2_2  and  C8_8 
REMARK    3  A    between atoms: C3_3  and  C9_9 
REMARK    4  A    between atoms: C8_8  and  C9_9 
ROOT
HETATM    1  C8  UNL     1     -33.082   5.887   2.452  1.00 20.00     0.045 C 
ENDROOT
BRANCH   1   2
HETATM    2  C2  UNL     1     -33.960   5.314   3.548  1.00 20.00    -0.089 C 
HETATM    3  C1  UNL     1     -34.088   3.984   3.699  1.00 20.00     0.014 C 
BRANCH   2   4
HETATM    4  C7  UNL     1     -34.684   6.267   4.471  1.00 20.00     0.029 C 
HETATM    5  C5  UNL     1     -34.381   6.022   5.942  1.00 20.00     0.010 C 
ENDBRANCH   2   4
ENDBRANCH   1   2
BRANCH   1   6
HETATM    6  C9  UNL     1     -32.789   7.390   2.598  1.00 20.00     0.055 C 
HETATM    7  C6  UNL     1     -31.584   7.622   3.507  1.00 20.00     0.018 C 
BRANCH   6   8
HETATM    8  C3  UNL     1     -32.509   8.045   1.248  1.00 20.00     0.127 C 
HETATM    9  C4  UNL     1     -33.220   9.343   0.964  1.00 20.00     0.091 C 
HETATM   10  O10 UNL     1     -31.719   7.565   0.436  1.00 20.00    -0.298 OA
ENDBRANCH   6   8
ENDBRANCH   1   6
TORSDOF 4
ENDMDL
MODEL 5
REMARK VINA RESULT:      -4.4      3.333      5.597
REMARK  4 active torsions:
REMARK  status: ('A' for Active; 'I' for Inactive)
REMARK    1  A    between atoms: C2_2  and  C7_7 
REMARK    2  A    between atoms: C2_2  and  C8_8 
REMARK    3  A    between atoms: C3_3  and  C9_9 
REMARK    4  A    between atoms: C8_8  and  C9_9 
ROOT
HETATM    1  C8  UNL     1     -33.723  17.356  -1.606  1.00 20.00     0.045 C 
ENDROOT
BRANCH   1   2
HETATM    2  C2  UNL     1     -34.089  16.249  -2.575  1.00 20.00    -0.089 C 
HETATM    3  C1  UNL     1     -35.319  15.707  -2.565  1.00 20.00     0.014 C 
BRANCH   2   4
HETATM    4  C7  UNL     1     -33.044  15.768  -3.556  1.00 20.00     0.029 C 
HETATM    5  C5  UNL     1     -33.459  14.510  -4.305  1.00 20.00     0.010 C 
ENDBRANCH   2   4
ENDBRANCH   1   2
BRANCH   1   6
HETATM    6  C9  UNL     1     -32.340  17.983  -1.854  1.00 20.00     0.055 C 
HETATM    7  C6  UNL     1     -32.463  19.262  -2.679  1.00 20.00     0.018 C 
BRANCH   6   8
HETATM    8  C3  UNL     1     -31.629  18.317  -0.546  1.00 20.00     0.127 C 
HETATM    9  C4  UNL     1     -32.504  18.601   0.648  1.00 20.00     0.091 C 
HETATM   10  O10 UNL     1     -30.402  18.324  -0.448  1.00 20.00    -0.298 OA
ENDBRANCH   6   8
ENDBRANCH   1   6
TORSDOF 4
ENDMDL
MODEL 6
REMARK VINA RESULT:      -4.3      0.973      2.513
REMARK  4 active torsions:
REMARK  status: ('A' for Active; 'I' for Inactive)
REMARK    1  A    between atoms: C2_2  and  C7_7 
REMARK    2  A    between atoms: C2_2  and  C8_8 
REMARK    3  A    between atoms: C3_3  and  C9_9 
REMARK    4  A    between atoms: C8_8  and  C9_9 
ROOT
HETATM    1  C8  UNL     1     -35.717  16.162  -3.897  1.00 20.00     0.045 C 
ENDROOT
BRANCH   1   2
HETATM    2  C2  UNL     1     -34.722  16.254  -2.756  1.00 20.00    -0.089 C 
HETATM    3  C1  UNL     1     -35.143  16.376  -1.486  1.00 20.00     0.014 C 
BRANCH   2   4
HETATM    4  C7  UNL     1     -33.245  16.202  -3.076  1.00 20.00     0.029 C 
HETATM    5  C5  UNL     1     -32.885  15.097  -4.059  1.00 20.00     0.010 C 
ENDBRANCH   2   4
ENDBRANCH   1   2
BRANCH   1   6
HETATM    6  C9  UNL     1     -36.588  14.893  -3.875  1.00 20.00     0.055 C 
HETATM    7  C6  UNL     1     -38.044  15.229  -4.187  1.00 20.00     0.018 C 
BRANCH   6   8
HETATM    8  C3  UNL     1     -36.103  13.858  -4.886  1.00 20.00     0.127 C 
HETATM    9  C4  UNL     1     -35.805  14.356  -6.276  1.00 20.00     0.091 C 
HETATM   10  O10 UNL     1     -35.926  12.678  -4.584  1.00 20.00    -0.298 OA
ENDBRANCH   6   8
ENDBRANCH   1   6
TORSDOF 4
ENDMDL
MODEL 7
REMARK VINA RESULT:      -4.3      1.071      1.914
REMARK  4 active torsions:
REMARK  status: ('A' for Active; 'I' for Inactive)
REMARK    1  A    between atoms: C2_2  and  C7_7 
REMARK    2  A    between atoms: C2_2  and  C8_8 
REMARK    3  A    between atoms: C3_3  and  C9_9 
REMARK    4  A    between atoms: C8_8  and  C9_9 
ROOT
HETATM    1  C8  UNL     1     -34.441  15.163  -3.187  1.00 20.00     0.045 C 
ENDROOT
BRANCH   1   2
HETATM    2  C2  UNL     1     -34.234  16.354  -2.272  1.00 20.00    -0.089 C 
HETATM    3  C1  UNL     1     -35.087  16.600  -1.262  1.00 20.00     0.014 C 
BRANCH   2   4
HETATM    4  C7  UNL     1     -33.047  17.258  -2.514  1.00 20.00     0.029 C 
HETATM    5  C5  UNL     1     -32.598  18.004  -1.266  1.00 20.00     0.010 C 
ENDBRANCH   2   4
ENDBRANCH   1   2
BRANCH   1   6
HETATM    6  C9  UNL     1     -35.839  15.090  -3.825  1.00 20.00     0.055 C 
HETATM    7  C6  UNL     1     -36.201  16.414  -4.493  1.00 20.00     0.018 C 
BRANCH   6   8
HETATM    8  C3  UNL     1     -35.926  13.981  -4.870  1.00 20.00     0.127 C 
HETATM    9  C4  UNL     1     -35.829  14.401  -6.313  1.00 20.00     0.091 C 
HETATM   10  O10 UNL     1     -36.034  12.794  -4.561  1.00 20.00    -0.298 OA
ENDBRANCH   6   8
ENDBRANCH   1   6
TORSDOF 4
ENDMDL
MODEL 8
REMARK VINA RESULT:      -4.2      1.503      2.536
REMARK  4 active torsions:
REMARK  status: ('A' for Active; 'I' for Inactive)
REMARK    1  A    between atoms: C2_2  and  C7_7 
REMARK    2  A    between atoms: C2_2  and  C8_8 
REMARK    3  A    between atoms: C3_3  and  C9_9 
REMARK    4  A    between atoms: C8_8  and  C9_9 
ROOT
HETATM    1  C8  UNL     1     -35.709  14.966  -3.477  1.00 20.00     0.045 C 
ENDROOT
BRANCH   1   2
HETATM    2  C2  UNL     1     -34.679  15.797  -2.737  1.00 20.00    -0.089 C 
HETATM    3  C1  UNL     1     -35.008  16.456  -1.613  1.00 20.00     0.014 C 
BRANCH   2   4
HETATM    4  C7  UNL     1     -33.272  15.865  -3.286  1.00 20.00     0.029 C 
HETATM    5  C5  UNL     1     -32.977  14.781  -4.314  1.00 20.00     0.010 C 
ENDBRANCH   2   4
ENDBRANCH   1   2
BRANCH   1   6
HETATM    6  C9  UNL     1     -36.905  15.773  -4.013  1.00 20.00     0.055 C 
HETATM    7  C6  UNL     1     -36.563  16.429  -5.348  1.00 20.00     0.018 C 
BRANCH   6   8
HETATM    8  C3  UNL     1     -38.137  14.893  -4.209  1.00 20.00     0.127 C 
HETATM    9  C4  UNL     1     -39.477  15.579  -4.141  1.00 20.00     0.091 C 
HETATM   10  O10 UNL     1     -38.053  13.688  -4.446  1.00 20.00    -0.298 OA
ENDBRANCH   6   8
ENDBRANCH   1   6
TORSDOF 4
ENDMDL
MODEL 9
REMARK VINA RESULT:      -4.2     11.194     11.841
REMARK  4 active torsions:
REMARK  status: ('A' for Active; 'I' for Inactive)
REMARK    1  A    between atoms: C2_2  and  C7_7 
REMARK    2  A    between atoms: C2_2  and  C8_8 
REMARK    3  A    between atoms: C3_3  and  C9_9 
REMARK    4  A    between atoms: C8_8  and  C9_9 
ROOT
HETATM    1  C8  UNL     1     -33.278   5.928   3.184  1.00 20.00     0.045 C 
ENDROOT
BRANCH   1   2
HETATM    2  C2  UNL     1     -32.454   7.083   2.648  1.00 20.00    -0.089 C 
HETATM    3  C1  UNL     1     -31.623   7.765   3.455  1.00 20.00     0.014 C 
BRANCH   2   4
HETATM    4  C7  UNL     1     -32.583   7.449   1.187  1.00 20.00     0.029 C 
HETATM    5  C5  UNL     1     -32.893   8.922   0.965  1.00 20.00     0.010 C 
ENDBRANCH   2   4
ENDBRANCH   1   2
BRANCH   1   6
HETATM    6  C9  UNL     1     -34.468   6.353   4.063  1.00 20.00     0.055 C 
HETATM    7  C6  UNL     1     -35.694   5.493   3.768  1.00 20.00     0.018 C 
BRANCH   6   8
HETATM    8  C3  UNL     1     -34.142   6.238   5.549  1.00 20.00     0.127 C 
HETATM    9  C4  UNL     1     -34.679   5.029   6.270  1.00 20.00     0.091 C 
HETATM   10  O10 UNL     1     -33.446   7.068   6.135  1.00 20.00    -0.298 OA
ENDBRANCH   6   8
ENDBRANCH   1   6
TORSDOF 4
ENDMDL
