MODEL 1
REMARK VINA RESULT:      -4.7      0.000      0.000
REMARK  1 active torsions:
REMARK  status: ('A' for Active; 'I' for Inactive)
REMARK    1  A    between atoms: C3_3  and  C8_8 
ROOT
HETATM    1  C1  UNL     1     -36.881  14.493  -4.027  1.00 20.00     0.218 C 
HETATM    2  C2  UNL     1     -35.397  14.261  -4.159  1.00 20.00     0.109 C 
HETATM    3  C3  UNL     1     -34.798  15.264  -3.164  1.00 20.00     0.021 C 
HETATM    4  C4  UNL     1     -35.809  16.432  -3.170  1.00 20.00     0.029 C 
HETATM    5  C5  UNL     1     -35.567  17.461  -4.283  1.00 20.00     0.038 C 
HETATM    6  C6  UNL     1     -35.858  17.139  -1.814  1.00 20.00     0.038 C 
HETATM    7  N9  UNL     1     -37.056  15.736  -3.429  1.00 20.00    -0.352 N 
HETATM    8  O10 UNL     1     -37.752  13.730  -4.414  1.00 20.00    -0.274 OA
HETATM    9  H25 UNL     1     -37.968  16.119  -3.197  1.00 20.00     0.163 HD
ENDROOT
BRANCH   3  10
HETATM   10  C8  UNL     1     -33.354  15.617  -3.494  1.00 20.00     0.003 C 
HETATM   11  C7  UNL     1     -32.707  14.575  -4.348  1.00 20.00     0.005 C 
ENDBRANCH   3  10
TORSDOF 1
ENDMDL
MODEL 2
REMARK VINA RESULT:      -4.6      1.299      1.663
REMARK  1 active torsions:
REMARK  status: ('A' for Active; 'I' for Inactive)
REMARK    1  A    between atoms: C3_3  and  C8_8 
ROOT
HETATM    1  C1  UNL     1     -35.609  13.772  -4.251  1.00 20.00     0.218 C 
HETATM    2  C2  UNL     1     -34.212  14.197  -3.872  1.00 20.00     0.109 C 
HETATM    3  C3  UNL     1     -34.435  15.557  -3.195  1.00 20.00     0.021 C 
HETATM    4  C4  UNL     1     -35.681  16.122  -3.912  1.00 20.00     0.029 C 
HETATM    5  C5  UNL     1     -35.366  16.874  -5.212  1.00 20.00     0.038 C 
HETATM    6  C6  UNL     1     -36.504  17.017  -2.983  1.00 20.00     0.038 C 
HETATM    7  N9  UNL     1     -36.410  14.908  -4.229  1.00 20.00    -0.352 N 
HETATM    8  O10 UNL     1     -35.943  12.637  -4.554  1.00 20.00    -0.274 OA
HETATM    9  H25 UNL     1     -37.408  14.889  -4.417  1.00 20.00     0.163 HD
ENDROOT
BRANCH   3  10
HETATM   10  C8  UNL     1     -33.187  16.429  -3.218  1.00 20.00     0.003 C 
HETATM   11  C7  UNL     1     -33.092  17.297  -2.005  1.00 20.00     0.005 C 
ENDBRANCH   3  10
TORSDOF 1
ENDMDL
MODEL 3
REMARK VINA RESULT:      -4.4      1.538      2.303
REMARK  1 active torsions:
REMARK  status: ('A' for Active; 'I' for Inactive)
REMARK    1  A    between atoms: C3_3  and  C8_8 
ROOT
HETATM    1  C1  UNL     1     -36.662  14.352  -4.588  1.00 20.00     0.218 C 
HETATM    2  C2  UNL     1     -35.508  14.416  -3.620  1.00 20.00     0.109 C 
HETATM    3  C3  UNL     1     -34.784  15.707  -4.028  1.00 20.00     0.021 C 
HETATM    4  C4  UNL     1     -35.051  15.811  -5.546  1.00 20.00     0.029 C 
HETATM    5  C5  UNL     1     -34.050  15.031  -6.411  1.00 20.00     0.038 C 
HETATM    6  C6  UNL     1     -35.106  17.269  -6.007  1.00 20.00     0.038 C 
HETATM    7  N9  UNL     1     -36.359  15.191  -5.655  1.00 20.00    -0.352 N 
HETATM    8  O10 UNL     1     -37.657  13.656  -4.456  1.00 20.00    -0.274 OA
HETATM    9  H25 UNL     1     -36.990  15.353  -6.434  1.00 20.00     0.163 HD
ENDROOT
BRANCH   3  10
HETATM   10  C8  UNL     1     -33.324  15.715  -3.595  1.00 20.00     0.003 C 
HETATM   11  C7  UNL     1     -33.030  16.835  -2.649  1.00 20.00     0.005 C 
ENDBRANCH   3  10
TORSDOF 1
ENDMDL
MODEL 4
REMARK VINA RESULT:      -4.4      1.992      2.527
REMARK  1 active torsions:
REMARK  status: ('A' for Active; 'I' for Inactive)
REMARK    1  A    between atoms: C3_3  and  C8_8 
ROOT
HETATM    1  C1  UNL     1     -34.569  14.800  -3.496  1.00 20.00     0.218 C 
HETATM    2  C2  UNL     1     -33.353  15.687  -3.599  1.00 20.00     0.109 C 
HETATM    3  C3  UNL     1     -33.491  16.610  -2.381  1.00 20.00     0.021 C 
HETATM    4  C4  UNL     1     -35.019  16.729  -2.185  1.00 20.00     0.029 C 
HETATM    5  C5  UNL     1     -35.673  17.829  -3.034  1.00 20.00     0.038 C 
HETATM    6  C6  UNL     1     -35.382  16.929  -0.712  1.00 20.00     0.038 C 
HETATM    7  N9  UNL     1     -35.475  15.433  -2.652  1.00 20.00    -0.352 N 
HETATM    8  O10 UNL     1     -34.722  13.741  -4.084  1.00 20.00    -0.274 OA
HETATM    9  H25 UNL     1     -36.368  15.027  -2.390  1.00 20.00     0.163 HD
ENDROOT
BRANCH   3  10
HETATM   10  C8  UNL     1     -32.727  17.916  -2.551  1.00 20.00     0.003 C 
HETATM   11  C7  UNL     1     -31.980  18.289  -1.311  1.00 20.00     0.005 C 
ENDBRANCH   3  10
TORSDOF 1
ENDMDL
MODEL 5
REMARK VINA RESULT:      -4.1      1.425      2.834
REMARK  1 active torsions:
REMARK  status: ('A' for Active; 'I' for Inactive)
REMARK    1  A    between atoms: C3_3  and  C8_8 
ROOT
HETATM    1  C1  UNL     1     -36.595  14.293  -4.459  1.00 20.00     0.218 C 
HETATM    2  C2  UNL     1     -36.495  15.684  -5.034  1.00 20.00     0.109 C 
HETATM    3  C3  UNL     1     -34.981  15.888  -5.185  1.00 20.00     0.021 C 
HETATM    4  C4  UNL     1     -34.382  15.046  -4.037  1.00 20.00     0.029 C 
HETATM    5  C5  UNL     1     -34.302  15.787  -2.695  1.00 20.00     0.038 C 
HETATM    6  C6  UNL     1     -33.004  14.494  -4.406  1.00 20.00     0.038 C 
HETATM    7  N9  UNL     1     -35.351  13.970  -3.929  1.00 20.00    -0.352 N 
HETATM    8  O10 UNL     1     -37.606  13.607  -4.442  1.00 20.00    -0.274 OA
HETATM    9  H25 UNL     1     -35.141  13.070  -3.507  1.00 20.00     0.163 HD
ENDROOT
BRANCH   3  10
HETATM   10  C8  UNL     1     -34.594  17.361  -5.217  1.00 20.00     0.003 C 
HETATM   11  C7  UNL     1     -35.772  18.239  -5.492  1.00 20.00     0.005 C 
ENDBRANCH   3  10
TORSDOF 1
ENDMDL
MODEL 6
REMARK VINA RESULT:      -4.1      1.490      2.778
REMARK  1 active torsions:
REMARK  status: ('A' for Active; 'I' for Inactive)
REMARK    1  A    between atoms: C3_3  and  C8_8 
ROOT
HETATM    1  C1  UNL     1     -35.676  13.872  -4.342  1.00 20.00     0.218 C 
HETATM    2  C2  UNL     1     -36.436  15.108  -4.754  1.00 20.00     0.109 C 
HETATM    3  C3  UNL     1     -35.409  16.230  -4.552  1.00 20.00     0.021 C 
HETATM    4  C4  UNL     1     -34.538  15.722  -3.381  1.00 20.00     0.029 C 
HETATM    5  C5  UNL     1     -35.104  16.054  -1.993  1.00 20.00     0.038 C 
HETATM    6  C6  UNL     1     -33.100  16.234  -3.489  1.00 20.00     0.038 C 
HETATM    7  N9  UNL     1     -34.586  14.286  -3.584  1.00 20.00    -0.352 N 
HETATM    8  O10 UNL     1     -35.998  12.724  -4.606  1.00 20.00    -0.274 OA
HETATM    9  H25 UNL     1     -33.893  13.646  -3.209  1.00 20.00     0.163 HD
ENDROOT
BRANCH   3  10
HETATM   10  C8  UNL     1     -36.065  17.592  -4.367  1.00 20.00     0.003 C 
HETATM   11  C7  UNL     1     -35.424  18.639  -5.219  1.00 20.00     0.005 C 
ENDBRANCH   3  10
TORSDOF 1
ENDMDL
MODEL 7
REMARK VINA RESULT:      -4.1      2.163      2.871
REMARK  1 active torsions:
REMARK  status: ('A' for Active; 'I' for Inactive)
REMARK    1  A    between atoms: C3_3  and  C8_8 
ROOT
HETATM    1  C1  UNL     1     -34.236  14.918  -5.839  1.00 20.00     0.218 C 
HETATM    2  C2  UNL     1     -33.779  15.288  -4.450  1.00 20.00     0.109 C 
HETATM    3  C3  UNL     1     -35.032  15.045  -3.597  1.00 20.00     0.021 C 
HETATM    4  C4  UNL     1     -36.197  15.340  -4.567  1.00 20.00     0.029 C 
HETATM    5  C5  UNL     1     -36.589  16.823  -4.640  1.00 20.00     0.038 C 
HETATM    6  C6  UNL     1     -37.430  14.495  -4.238  1.00 20.00     0.038 C 
HETATM    7  N9  UNL     1     -35.626  14.937  -5.839  1.00 20.00    -0.352 N 
HETATM    8  O10 UNL     1     -33.500  14.685  -6.785  1.00 20.00    -0.274 OA
HETATM    9  H25 UNL     1     -36.186  14.692  -6.650  1.00 20.00     0.163 HD
ENDROOT
BRANCH   3  10
HETATM   10  C8  UNL     1     -35.014  15.842  -2.299  1.00 20.00     0.003 C 
HETATM   11  C7  UNL     1     -33.795  16.700  -2.190  1.00 20.00     0.005 C 
ENDBRANCH   3  10
TORSDOF 1
ENDMDL
MODEL 8
REMARK VINA RESULT:      -4.0      2.718      3.802
REMARK  1 active torsions:
REMARK  status: ('A' for Active; 'I' for Inactive)
REMARK    1  A    between atoms: C3_3  and  C8_8 
ROOT
HETATM    1  C1  UNL     1     -33.808  16.978  -1.854  1.00 20.00     0.218 C 
HETATM    2  C2  UNL     1     -35.197  16.417  -2.030  1.00 20.00     0.109 C 
HETATM    3  C3  UNL     1     -34.990  15.293  -3.054  1.00 20.00     0.021 C 
HETATM    4  C4  UNL     1     -33.809  15.795  -3.914  1.00 20.00     0.029 C 
HETATM    5  C5  UNL     1     -34.225  16.713  -5.073  1.00 20.00     0.038 C 
HETATM    6  C6  UNL     1     -32.972  14.632  -4.450  1.00 20.00     0.038 C 
HETATM    7  N9  UNL     1     -33.051  16.566  -2.945  1.00 20.00    -0.352 N 
HETATM    8  O10 UNL     1     -33.446  17.691  -0.931  1.00 20.00    -0.274 OA
HETATM    9  H25 UNL     1     -32.065  16.785  -3.054  1.00 20.00     0.163 HD
ENDROOT
BRANCH   3  10
HETATM   10  C8  UNL     1     -36.271  14.946  -3.801  1.00 20.00     0.003 C 
HETATM   11  C7  UNL     1     -36.186  13.606  -4.459  1.00 20.00     0.005 C 
ENDBRANCH   3  10
TORSDOF 1
ENDMDL
MODEL 9
REMARK VINA RESULT:      -3.9      1.603      2.227
REMARK  1 active torsions:
REMARK  status: ('A' for Active; 'I' for Inactive)
REMARK    1  A    between atoms: C3_3  and  C8_8 
ROOT
HETATM    1  C1  UNL     1     -35.817  14.560  -5.244  1.00 20.00     0.218 C 
HETATM    2  C2  UNL     1     -35.099  14.469  -3.921  1.00 20.00     0.109 C 
HETATM    3  C3  UNL     1     -35.504  15.771  -3.215  1.00 20.00     0.021 C 
HETATM    4  C4  UNL     1     -35.704  16.769  -4.377  1.00 20.00     0.029 C 
HETATM    5  C5  UNL     1     -34.413  17.469  -4.827  1.00 20.00     0.038 C 
HETATM    6  C6  UNL     1     -36.769  17.815  -4.041  1.00 20.00     0.038 C 
HETATM    7  N9  UNL     1     -36.164  15.893  -5.438  1.00 20.00    -0.352 N 
HETATM    8  O10 UNL     1     -36.015  13.627  -6.006  1.00 20.00    -0.274 OA
HETATM    9  H25 UNL     1     -36.688  16.220  -6.244  1.00 20.00     0.163 HD
ENDROOT
BRANCH   3  10
HETATM   10  C8  UNL     1     -34.511  16.178  -2.135  1.00 20.00     0.003 C 
HETATM   11  C7  UNL     1     -35.191  16.822  -0.969  1.00 20.00     0.005 C 
ENDBRANCH   3  10
TORSDOF 1
ENDMDL
