MODEL 1
REMARK VINA RESULT:      -5.0      0.000      0.000
REMARK  1 active torsions:
REMARK  status: ('A' for Active; 'I' for Inactive)
REMARK    1  A    between atoms: C3_3  and  C8_8 
ROOT
HETATM    1  C1  UNL     1     -23.096  17.470   8.930  1.00 20.00     0.218 C 
HETATM    2  C2  UNL     1     -24.042  18.551   9.388  1.00 20.00     0.109 C 
HETATM    3  C3  UNL     1     -24.804  17.882  10.541  1.00 20.00     0.021 C 
HETATM    4  C4  UNL     1     -23.774  16.893  11.133  1.00 20.00     0.029 C 
HETATM    5  C5  UNL     1     -24.457  15.660  11.727  1.00 20.00     0.038 C 
HETATM    6  C6  UNL     1     -22.837  17.519  12.175  1.00 20.00     0.038 C 
HETATM    7  N9  UNL     1     -23.004  16.535   9.955  1.00 20.00    -0.352 N 
HETATM    8  O10 UNL     1     -22.503  17.456   7.863  1.00 20.00    -0.274 OA
HETATM    9  H25 UNL     1     -22.453  15.685   9.886  1.00 20.00     0.163 HD
ENDROOT
BRANCH   3  10
HETATM   10  C8  UNL     1     -25.404  18.893  11.507  1.00 20.00     0.003 C 
HETATM   11  C7  UNL     1     -26.778  18.498  11.945  1.00 20.00     0.005 C 
ENDBRANCH   3  10
TORSDOF 1
ENDMDL
MODEL 2
REMARK VINA RESULT:      -4.7     18.407     19.232
REMARK  1 active torsions:
REMARK  status: ('A' for Active; 'I' for Inactive)
REMARK    1  A    between atoms: C3_3  and  C8_8 
ROOT
HETATM    1  C1  UNL     1     -36.491  14.189  -4.656  1.00 20.00     0.218 C 
HETATM    2  C2  UNL     1     -35.513  14.593  -3.582  1.00 20.00     0.109 C 
HETATM    3  C3  UNL     1     -34.225  14.867  -4.370  1.00 20.00     0.021 C 
HETATM    4  C4  UNL     1     -34.735  15.365  -5.741  1.00 20.00     0.029 C 
HETATM    5  C5  UNL     1     -33.769  14.993  -6.868  1.00 20.00     0.038 C 
HETATM    6  C6  UNL     1     -35.031  16.870  -5.788  1.00 20.00     0.038 C 
HETATM    7  N9  UNL     1     -35.981  14.630  -5.872  1.00 20.00    -0.352 N 
HETATM    8  O10 UNL     1     -37.551  13.612  -4.466  1.00 20.00    -0.274 OA
HETATM    9  H25 UNL     1     -36.434  14.455  -6.763  1.00 20.00     0.163 HD
ENDROOT
BRANCH   3  10
HETATM   10  C8  UNL     1     -33.274  15.793  -3.626  1.00 20.00     0.003 C 
HETATM   11  C7  UNL     1     -33.886  16.332  -2.373  1.00 20.00     0.005 C 
ENDBRANCH   3  10
TORSDOF 1
ENDMDL
MODEL 3
REMARK VINA RESULT:      -4.4     17.864     18.697
REMARK  1 active torsions:
REMARK  status: ('A' for Active; 'I' for Inactive)
REMARK    1  A    between atoms: C3_3  and  C8_8 
ROOT
HETATM    1  C1  UNL     1     -36.879  14.523  -4.085  1.00 20.00     0.218 C 
HETATM    2  C2  UNL     1     -35.418  14.189  -4.252  1.00 20.00     0.109 C 
HETATM    3  C3  UNL     1     -34.740  15.566  -4.211  1.00 20.00     0.021 C 
HETATM    4  C4  UNL     1     -35.657  16.397  -3.284  1.00 20.00     0.029 C 
HETATM    5  C5  UNL     1     -35.647  17.878  -3.666  1.00 20.00     0.038 C 
HETATM    6  C6  UNL     1     -35.338  16.244  -1.791  1.00 20.00     0.038 C 
HETATM    7  N9  UNL     1     -36.956  15.807  -3.556  1.00 20.00    -0.352 N 
HETATM    8  O10 UNL     1     -37.809  13.773  -4.340  1.00 20.00    -0.274 OA
HETATM    9  H25 UNL     1     -37.834  16.284  -3.378  1.00 20.00     0.163 HD
ENDROOT
BRANCH   3  10
HETATM   10  C8  UNL     1     -33.274  15.481  -3.812  1.00 20.00     0.003 C 
HETATM   11  C7  UNL     1     -32.595  14.302  -4.432  1.00 20.00     0.005 C 
ENDBRANCH   3  10
TORSDOF 1
ENDMDL
MODEL 4
REMARK VINA RESULT:      -4.4      2.075      3.344
REMARK  1 active torsions:
REMARK  status: ('A' for Active; 'I' for Inactive)
REMARK    1  A    between atoms: C3_3  and  C8_8 
ROOT
HETATM    1  C1  UNL     1     -25.158  18.816   8.796  1.00 20.00     0.218 C 
HETATM    2  C2  UNL     1     -23.709  18.618   8.427  1.00 20.00     0.109 C 
HETATM    3  C3  UNL     1     -23.022  18.458   9.790  1.00 20.00     0.021 C 
HETATM    4  C4  UNL     1     -24.109  17.803  10.672  1.00 20.00     0.029 C 
HETATM    5  C5  UNL     1     -23.965  18.217  12.138  1.00 20.00     0.038 C 
HETATM    6  C6  UNL     1     -24.159  16.273  10.568  1.00 20.00     0.038 C 
HETATM    7  N9  UNL     1     -25.322  18.360  10.100  1.00 20.00    -0.352 N 
HETATM    8  O10 UNL     1     -26.021  19.263   8.057  1.00 20.00    -0.274 OA
HETATM    9  H25 UNL     1     -26.203  18.412  10.602  1.00 20.00     0.163 HD
ENDROOT
BRANCH   3  10
HETATM   10  C8  UNL     1     -21.696  17.718   9.689  1.00 20.00     0.003 C 
HETATM   11  C7  UNL     1     -21.393  17.304   8.285  1.00 20.00     0.005 C 
ENDBRANCH   3  10
TORSDOF 1
ENDMDL
MODEL 5
REMARK VINA RESULT:      -4.4     16.068     16.813
REMARK  1 active torsions:
REMARK  status: ('A' for Active; 'I' for Inactive)
REMARK    1  A    between atoms: C3_3  and  C8_8 
ROOT
HETATM    1  C1  UNL     1     -33.634  15.029  -3.990  1.00 20.00     0.218 C 
HETATM    2  C2  UNL     1     -34.856  15.184  -3.120  1.00 20.00     0.109 C 
HETATM    3  C3  UNL     1     -34.434  16.267  -2.118  1.00 20.00     0.021 C 
HETATM    4  C4  UNL     1     -33.446  17.143  -2.921  1.00 20.00     0.029 C 
HETATM    5  C5  UNL     1     -32.381  17.763  -2.014  1.00 20.00     0.038 C 
HETATM    6  C6  UNL     1     -34.120  18.240  -3.755  1.00 20.00     0.038 C 
HETATM    7  N9  UNL     1     -32.850  16.164  -3.814  1.00 20.00    -0.352 N 
HETATM    8  O10 UNL     1     -33.411  14.086  -4.734  1.00 20.00    -0.274 OA
HETATM    9  H25 UNL     1     -31.950  16.295  -4.264  1.00 20.00     0.163 HD
ENDROOT
BRANCH   3  10
HETATM   10  C8  UNL     1     -35.626  16.985  -1.500  1.00 20.00     0.003 C 
HETATM   11  C7  UNL     1     -35.481  17.132  -0.019  1.00 20.00     0.005 C 
ENDBRANCH   3  10
TORSDOF 1
ENDMDL
MODEL 6
REMARK VINA RESULT:      -4.3     17.702     18.425
REMARK  1 active torsions:
REMARK  status: ('A' for Active; 'I' for Inactive)
REMARK    1  A    between atoms: C3_3  and  C8_8 
ROOT
HETATM    1  C1  UNL     1     -36.534  14.327  -4.270  1.00 20.00     0.218 C 
HETATM    2  C2  UNL     1     -36.315  15.252  -3.098  1.00 20.00     0.109 C 
HETATM    3  C3  UNL     1     -34.786  15.322  -2.993  1.00 20.00     0.021 C 
HETATM    4  C4  UNL     1     -34.310  15.143  -4.452  1.00 20.00     0.029 C 
HETATM    5  C5  UNL     1     -32.946  14.452  -4.517  1.00 20.00     0.038 C 
HETATM    6  C6  UNL     1     -34.270  16.447  -5.260  1.00 20.00     0.038 C 
HETATM    7  N9  UNL     1     -35.347  14.280  -4.991  1.00 20.00    -0.352 N 
HETATM    8  O10 UNL     1     -37.584  13.761  -4.537  1.00 20.00    -0.274 OA
HETATM    9  H25 UNL     1     -35.217  13.700  -5.814  1.00 20.00     0.163 HD
ENDROOT
BRANCH   3  10
HETATM   10  C8  UNL     1     -34.310  16.577  -2.276  1.00 20.00     0.003 C 
HETATM   11  C7  UNL     1     -35.166  16.904  -1.094  1.00 20.00     0.005 C 
ENDBRANCH   3  10
TORSDOF 1
ENDMDL
MODEL 7
REMARK VINA RESULT:      -4.1     17.755     18.453
REMARK  1 active torsions:
REMARK  status: ('A' for Active; 'I' for Inactive)
REMARK    1  A    between atoms: C3_3  and  C8_8 
ROOT
HETATM    1  C1  UNL     1     -35.596  13.745  -4.243  1.00 20.00     0.218 C 
HETATM    2  C2  UNL     1     -36.657  14.761  -3.899  1.00 20.00     0.109 C 
HETATM    3  C3  UNL     1     -35.859  15.877  -3.211  1.00 20.00     0.021 C 
HETATM    4  C4  UNL     1     -34.474  15.810  -3.894  1.00 20.00     0.029 C 
HETATM    5  C5  UNL     1     -33.358  16.245  -2.942  1.00 20.00     0.038 C 
HETATM    6  C6  UNL     1     -34.383  16.611  -5.199  1.00 20.00     0.038 C 
HETATM    7  N9  UNL     1     -34.367  14.394  -4.196  1.00 20.00    -0.352 N 
HETATM    8  O10 UNL     1     -35.805  12.579  -4.541  1.00 20.00    -0.274 OA
HETATM    9  H25 UNL     1     -33.482  13.923  -4.356  1.00 20.00     0.163 HD
ENDROOT
BRANCH   3  10
HETATM   10  C8  UNL     1     -36.574  17.220  -3.262  1.00 20.00     0.003 C 
HETATM   11  C7  UNL     1     -36.630  17.873  -1.918  1.00 20.00     0.005 C 
ENDBRANCH   3  10
TORSDOF 1
ENDMDL
MODEL 8
REMARK VINA RESULT:      -4.0     18.393     19.188
REMARK  1 active torsions:
REMARK  status: ('A' for Active; 'I' for Inactive)
REMARK    1  A    between atoms: C3_3  and  C8_8 
ROOT
HETATM    1  C1  UNL     1     -36.662  14.411  -4.429  1.00 20.00     0.218 C 
HETATM    2  C2  UNL     1     -36.321  15.456  -5.462  1.00 20.00     0.109 C 
HETATM    3  C3  UNL     1     -35.299  16.341  -4.736  1.00 20.00     0.021 C 
HETATM    4  C4  UNL     1     -34.585  15.363  -3.775  1.00 20.00     0.029 C 
HETATM    5  C5  UNL     1     -34.116  16.070  -2.502  1.00 20.00     0.038 C 
HETATM    6  C6  UNL     1     -33.412  14.607  -4.412  1.00 20.00     0.038 C 
HETATM    7  N9  UNL     1     -35.651  14.423  -3.475  1.00 20.00    -0.352 N 
HETATM    8  O10 UNL     1     -37.635  13.674  -4.464  1.00 20.00    -0.274 OA
HETATM    9  H25 UNL     1     -35.657  13.833  -2.649  1.00 20.00     0.163 HD
ENDROOT
BRANCH   3  10
HETATM   10  C8  UNL     1     -34.408  17.112  -5.700  1.00 20.00     0.003 C 
HETATM   11  C7  UNL     1     -34.744  16.817  -7.127  1.00 20.00     0.005 C 
ENDBRANCH   3  10
TORSDOF 1
ENDMDL
MODEL 9
REMARK VINA RESULT:      -4.0     23.476     24.154
REMARK  1 active torsions:
REMARK  status: ('A' for Active; 'I' for Inactive)
REMARK    1  A    between atoms: C3_3  and  C8_8 
ROOT
HETATM    1  C1  UNL     1     -42.911   5.424   1.336  1.00 20.00     0.218 C 
HETATM    2  C2  UNL     1     -42.386   6.814   1.077  1.00 20.00     0.109 C 
HETATM    3  C3  UNL     1     -41.506   6.626  -0.167  1.00 20.00     0.021 C 
HETATM    4  C4  UNL     1     -42.191   5.469  -0.928  1.00 20.00     0.029 C 
HETATM    5  C5  UNL     1     -41.177   4.639  -1.718  1.00 20.00     0.038 C 
HETATM    6  C6  UNL     1     -43.329   5.918  -1.855  1.00 20.00     0.038 C 
HETATM    7  N9  UNL     1     -42.747   4.691   0.166  1.00 20.00    -0.352 N 
HETATM    8  O10 UNL     1     -43.417   5.043   2.381  1.00 20.00    -0.274 OA
HETATM    9  H25 UNL     1     -42.992   3.709   0.084  1.00 20.00     0.163 HD
ENDROOT
BRANCH   3  10
HETATM   10  C8  UNL     1     -41.310   7.922  -0.941  1.00 20.00     0.003 C 
HETATM   11  C7  UNL     1     -41.555   9.124  -0.087  1.00 20.00     0.005 C 
ENDBRANCH   3  10
TORSDOF 1
ENDMDL
