MODEL 1
REMARK VINA RESULT:      -4.6      0.000      0.000
REMARK  2 active torsions:
REMARK  status: ('A' for Active; 'I' for Inactive)
REMARK    1  A    between atoms: C4_4  and  C7_7 
REMARK    2  A    between atoms: C7_7  and  C8_8 
ROOT
HETATM    1  C1  UNL     1     -23.081  17.006   9.307  1.00 20.00     0.218 C 
HETATM    2  C2  UNL     1     -23.407  18.268  10.070  1.00 20.00     0.113 C 
HETATM    3  C3  UNL     1     -24.191  16.342  11.275  1.00 20.00     0.132 C 
HETATM    4  C4  UNL     1     -23.687  17.770  11.502  1.00 20.00    -0.020 C 
HETATM    5  C5  UNL     1     -22.391  17.762  12.332  1.00 20.00     0.017 C 
HETATM    6  N9  UNL     1     -23.550  15.935  10.054  1.00 20.00    -0.360 N 
HETATM    7  O10 UNL     1     -22.538  16.963   8.213  1.00 20.00    -0.274 OA
HETATM    8  H25 UNL     1     -23.452  14.966   9.769  1.00 20.00     0.162 HD
ENDROOT
BRANCH   4   9
HETATM    9  C7  UNL     1     -24.736  18.633  12.202  1.00 20.00     0.011 C 
BRANCH   9  10
HETATM   10  C8  UNL     1     -25.925  18.889  11.288  1.00 20.00    -0.004 C 
HETATM   11  C6  UNL     1     -27.223  18.468  11.957  1.00 20.00     0.005 C 
ENDBRANCH   9  10
ENDBRANCH   4   9
TORSDOF 2
ENDMDL
MODEL 2
REMARK VINA RESULT:      -4.5     17.395     18.175
REMARK  2 active torsions:
REMARK  status: ('A' for Active; 'I' for Inactive)
REMARK    1  A    between atoms: C4_4  and  C7_7 
REMARK    2  A    between atoms: C7_7  and  C8_8 
ROOT
HETATM    1  C1  UNL     1     -35.588  13.866  -4.365  1.00 20.00     0.218 C 
HETATM    2  C2  UNL     1     -34.301  14.314  -3.714  1.00 20.00     0.113 C 
HETATM    3  C3  UNL     1     -35.531  16.216  -4.520  1.00 20.00     0.132 C 
HETATM    4  C4  UNL     1     -34.534  15.811  -3.429  1.00 20.00    -0.020 C 
HETATM    5  C5  UNL     1     -35.151  16.003  -2.033  1.00 20.00     0.017 C 
HETATM    6  N9  UNL     1     -36.252  15.004  -4.800  1.00 20.00    -0.360 N 
HETATM    7  O10 UNL     1     -35.940  12.704  -4.506  1.00 20.00    -0.274 OA
HETATM    8  H25 UNL     1     -37.153  14.984  -5.268  1.00 20.00     0.162 HD
ENDROOT
BRANCH   4   9
HETATM    9  C7  UNL     1     -33.235  16.611  -3.528  1.00 20.00     0.011 C 
BRANCH   9  10
HETATM   10  C8  UNL     1     -32.878  17.232  -2.186  1.00 20.00    -0.004 C 
HETATM   11  C6  UNL     1     -32.440  18.678  -2.359  1.00 20.00     0.005 C 
ENDBRANCH   9  10
ENDBRANCH   4   9
TORSDOF 2
ENDMDL
MODEL 3
REMARK VINA RESULT:      -4.5      2.392      3.316
REMARK  2 active torsions:
REMARK  status: ('A' for Active; 'I' for Inactive)
REMARK    1  A    between atoms: C4_4  and  C7_7 
REMARK    2  A    between atoms: C7_7  and  C8_8 
ROOT
HETATM    1  C1  UNL     1     -23.950  16.357  11.410  1.00 20.00     0.218 C 
HETATM    2  C2  UNL     1     -24.335  17.107  10.157  1.00 20.00     0.113 C 
HETATM    3  C3  UNL     1     -22.257  17.949  11.024  1.00 20.00     0.132 C 
HETATM    4  C4  UNL     1     -23.019  17.772   9.707  1.00 20.00    -0.020 C 
HETATM    5  C5  UNL     1     -22.245  16.845   8.754  1.00 20.00     0.017 C 
HETATM    6  N9  UNL     1     -22.745  16.882  11.856  1.00 20.00    -0.360 N 
HETATM    7  O10 UNL     1     -24.614  15.479  11.939  1.00 20.00    -0.274 OA
HETATM    8  H25 UNL     1     -22.259  16.549  12.681  1.00 20.00     0.162 HD
ENDROOT
BRANCH   4   9
HETATM    9  C7  UNL     1     -23.273  19.114   9.019  1.00 20.00     0.011 C 
BRANCH   9  10
HETATM   10  C8  UNL     1     -24.705  19.200   8.512  1.00 20.00    -0.004 C 
HETATM   11  C6  UNL     1     -24.738  19.263   6.994  1.00 20.00     0.005 C 
ENDBRANCH   9  10
ENDBRANCH   4   9
TORSDOF 2
ENDMDL
MODEL 4
REMARK VINA RESULT:      -4.4     17.894     18.683
REMARK  2 active torsions:
REMARK  status: ('A' for Active; 'I' for Inactive)
REMARK    1  A    between atoms: C4_4  and  C7_7 
REMARK    2  A    between atoms: C7_7  and  C8_8 
ROOT
HETATM    1  C1  UNL     1     -36.959  14.211  -4.230  1.00 20.00     0.218 C 
HETATM    2  C2  UNL     1     -36.417  15.458  -3.573  1.00 20.00     0.113 C 
HETATM    3  C3  UNL     1     -34.638  13.896  -3.987  1.00 20.00     0.132 C 
HETATM    4  C4  UNL     1     -34.905  15.400  -3.865  1.00 20.00    -0.020 C 
HETATM    5  C5  UNL     1     -34.583  16.117  -5.187  1.00 20.00     0.017 C 
HETATM    6  N9  UNL     1     -35.888  13.356  -4.448  1.00 20.00    -0.360 N 
HETATM    7  O10 UNL     1     -38.137  13.999  -4.477  1.00 20.00    -0.274 OA
HETATM    8  H25 UNL     1     -35.977  12.446  -4.887  1.00 20.00     0.162 HD
ENDROOT
BRANCH   4   9
HETATM    9  C7  UNL     1     -34.089  16.026  -2.733  1.00 20.00     0.011 C 
BRANCH   9  10
HETATM   10  C8  UNL     1     -34.989  16.421  -1.572  1.00 20.00    -0.004 C 
HETATM   11  C6  UNL     1     -34.427  17.628  -0.838  1.00 20.00     0.005 C 
ENDBRANCH   9  10
ENDBRANCH   4   9
TORSDOF 2
ENDMDL
MODEL 5
REMARK VINA RESULT:      -4.3     18.082     18.876
REMARK  2 active torsions:
REMARK  status: ('A' for Active; 'I' for Inactive)
REMARK    1  A    between atoms: C4_4  and  C7_7 
REMARK    2  A    between atoms: C7_7  and  C8_8 
ROOT
HETATM    1  C1  UNL     1     -36.615  14.221  -4.578  1.00 20.00     0.218 C 
HETATM    2  C2  UNL     1     -35.853  14.953  -3.500  1.00 20.00     0.113 C 
HETATM    3  C3  UNL     1     -34.569  14.895  -5.531  1.00 20.00     0.132 C 
HETATM    4  C4  UNL     1     -34.787  15.749  -4.278  1.00 20.00    -0.020 C 
HETATM    5  C5  UNL     1     -35.323  17.141  -4.657  1.00 20.00     0.017 C 
HETATM    6  N9  UNL     1     -35.828  14.228  -5.722  1.00 20.00    -0.360 N 
HETATM    7  O10 UNL     1     -37.708  13.692  -4.435  1.00 20.00    -0.274 OA
HETATM    8  H25 UNL     1     -36.112  13.807  -6.600  1.00 20.00     0.162 HD
ENDROOT
BRANCH   4   9
HETATM    9  C7  UNL     1     -33.498  15.902  -3.470  1.00 20.00     0.011 C 
BRANCH   9  10
HETATM   10  C8  UNL     1     -33.747  16.697  -2.197  1.00 20.00    -0.004 C 
HETATM   11  C6  UNL     1     -32.631  17.700  -1.958  1.00 20.00     0.005 C 
ENDBRANCH   9  10
ENDBRANCH   4   9
TORSDOF 2
ENDMDL
MODEL 6
REMARK VINA RESULT:      -4.2      1.846      2.588
REMARK  2 active torsions:
REMARK  status: ('A' for Active; 'I' for Inactive)
REMARK    1  A    between atoms: C4_4  and  C7_7 
REMARK    2  A    between atoms: C7_7  and  C8_8 
ROOT
HETATM    1  C1  UNL     1     -21.931  17.233   8.113  1.00 20.00     0.218 C 
HETATM    2  C2  UNL     1     -22.923  16.616   9.070  1.00 20.00     0.113 C 
HETATM    3  C3  UNL     1     -21.809  18.473  10.112  1.00 20.00     0.132 C 
HETATM    4  C4  UNL     1     -23.137  17.709  10.135  1.00 20.00    -0.020 C 
HETATM    5  C5  UNL     1     -24.301  18.632   9.734  1.00 20.00     0.017 C 
HETATM    6  N9  UNL     1     -21.329  18.299   8.768  1.00 20.00    -0.360 N 
HETATM    7  O10 UNL     1     -21.690  16.826   6.986  1.00 20.00    -0.274 OA
HETATM    8  H25 UNL     1     -20.625  18.893   8.343  1.00 20.00     0.162 HD
ENDROOT
BRANCH   4   9
HETATM    9  C7  UNL     1     -23.415  17.106  11.512  1.00 20.00     0.011 C 
BRANCH   9  10
HETATM   10  C8  UNL     1     -24.531  16.075  11.437  1.00 20.00    -0.004 C 
HETATM   11  C6  UNL     1     -25.695  16.469  12.331  1.00 20.00     0.005 C 
ENDBRANCH   9  10
ENDBRANCH   4   9
TORSDOF 2
ENDMDL
MODEL 7
REMARK VINA RESULT:      -4.1     16.960     17.743
REMARK  2 active torsions:
REMARK  status: ('A' for Active; 'I' for Inactive)
REMARK    1  A    between atoms: C4_4  and  C7_7 
REMARK    2  A    between atoms: C7_7  and  C8_8 
ROOT
HETATM    1  C1  UNL     1     -32.704  18.118  -2.934  1.00 20.00     0.218 C 
HETATM    2  C2  UNL     1     -33.340  16.897  -2.314  1.00 20.00     0.113 C 
HETATM    3  C3  UNL     1     -34.113  17.179  -4.572  1.00 20.00     0.132 C 
HETATM    4  C4  UNL     1     -33.851  16.092  -3.526  1.00 20.00    -0.020 C 
HETATM    5  C5  UNL     1     -32.770  15.115  -4.018  1.00 20.00     0.017 C 
HETATM    6  N9  UNL     1     -33.183  18.222  -4.233  1.00 20.00    -0.360 N 
HETATM    7  O10 UNL     1     -31.941  18.883  -2.364  1.00 20.00    -0.274 OA
HETATM    8  H25 UNL     1     -32.905  18.956  -4.876  1.00 20.00     0.162 HD
ENDROOT
BRANCH   4   9
HETATM    9  C7  UNL     1     -35.125  15.317  -3.188  1.00 20.00     0.011 C 
BRANCH   9  10
HETATM   10  C8  UNL     1     -35.163  13.988  -3.929  1.00 20.00    -0.004 C 
HETATM   11  C6  UNL     1     -36.490  13.807  -4.647  1.00 20.00     0.005 C 
ENDBRANCH   9  10
ENDBRANCH   4   9
TORSDOF 2
ENDMDL
MODEL 8
REMARK VINA RESULT:      -4.1     18.016     18.748
REMARK  2 active torsions:
REMARK  status: ('A' for Active; 'I' for Inactive)
REMARK    1  A    between atoms: C4_4  and  C7_7 
REMARK    2  A    between atoms: C7_7  and  C8_8 
ROOT
HETATM    1  C1  UNL     1     -35.737  14.725  -5.921  1.00 20.00     0.218 C 
HETATM    2  C2  UNL     1     -34.842  15.780  -5.316  1.00 20.00     0.113 C 
HETATM    3  C3  UNL     1     -35.280  14.042  -3.714  1.00 20.00     0.132 C 
HETATM    4  C4  UNL     1     -34.216  15.075  -4.096  1.00 20.00    -0.020 C 
HETATM    5  C5  UNL     1     -32.902  14.379  -4.492  1.00 20.00     0.017 C 
HETATM    6  N9  UNL     1     -35.946  13.751  -4.955  1.00 20.00    -0.360 N 
HETATM    7  O10 UNL     1     -36.211  14.764  -7.047  1.00 20.00    -0.274 OA
HETATM    8  H25 UNL     1     -36.509  12.921  -5.107  1.00 20.00     0.162 HD
ENDROOT
BRANCH   4   9
HETATM    9  C7  UNL     1     -33.949  16.057  -2.955  1.00 20.00     0.011 C 
BRANCH   9  10
HETATM   10  C8  UNL     1     -35.125  16.101  -1.991  1.00 20.00    -0.004 C 
HETATM   11  C6  UNL     1     -34.899  17.142  -0.907  1.00 20.00     0.005 C 
ENDBRANCH   9  10
ENDBRANCH   4   9
TORSDOF 2
ENDMDL
MODEL 9
REMARK VINA RESULT:      -4.1     16.230     17.039
REMARK  2 active torsions:
REMARK  status: ('A' for Active; 'I' for Inactive)
REMARK    1  A    between atoms: C4_4  and  C7_7 
REMARK    2  A    between atoms: C7_7  and  C8_8 
ROOT
HETATM    1  C1  UNL     1     -33.699  14.877  -4.144  1.00 20.00     0.218 C 
HETATM    2  C2  UNL     1     -34.873  15.088  -3.218  1.00 20.00     0.113 C 
HETATM    3  C3  UNL     1     -33.130  16.667  -2.722  1.00 20.00     0.132 C 
HETATM    4  C4  UNL     1     -34.652  16.508  -2.661  1.00 20.00    -0.020 C 
HETATM    5  C5  UNL     1     -35.342  17.552  -3.557  1.00 20.00     0.017 C 
HETATM    6  N9  UNL     1     -32.734  15.819  -3.814  1.00 20.00    -0.360 N 
HETATM    7  O10 UNL     1     -33.619  14.004  -4.995  1.00 20.00    -0.274 OA
HETATM    8  H25 UNL     1     -31.843  15.901  -4.292  1.00 20.00     0.162 HD
ENDROOT
BRANCH   4   9
HETATM    9  C7  UNL     1     -35.175  16.639  -1.230  1.00 20.00     0.011 C 
BRANCH   9  10
HETATM   10  C8  UNL     1     -34.554  17.840  -0.533  1.00 20.00    -0.004 C 
HETATM   11  C6  UNL     1     -34.690  17.721   0.976  1.00 20.00     0.005 C 
ENDBRANCH   9  10
ENDBRANCH   4   9
TORSDOF 2
ENDMDL
