MODEL 1
REMARK VINA RESULT:      -5.0      0.000      0.000
REMARK  1 active torsions:
REMARK  status: ('A' for Active; 'I' for Inactive)
REMARK    1  A    between atoms: C4_4  and  C8_8 
ROOT
HETATM    1  C1  UNL     1     -36.586  14.198  -4.580  1.00 20.00     0.218 C 
HETATM    2  C2  UNL     1     -35.273  13.649  -4.078  1.00 20.00     0.114 C 
HETATM    3  C3  UNL     1     -34.897  15.682  -5.328  1.00 20.00     0.088 C 
HETATM    4  C4  UNL     1     -34.317  14.860  -4.152  1.00 20.00    -0.016 C 
HETATM    5  C5  UNL     1     -34.355  15.332  -6.711  1.00 20.00     0.033 C 
HETATM    6  C6  UNL     1     -32.866  14.406  -4.337  1.00 20.00     0.018 C 
HETATM    7  N9  UNL     1     -36.309  15.370  -5.270  1.00 20.00    -0.356 N 
HETATM    8  O10 UNL     1     -37.678  13.674  -4.421  1.00 20.00    -0.274 OA
HETATM    9  H25 UNL     1     -37.027  15.955  -5.695  1.00 20.00     0.162 HD
ENDROOT
BRANCH   4  10
HETATM   10  C8  UNL     1     -34.411  15.677  -2.847  1.00 20.00     0.007 C 
HETATM   11  C7  UNL     1     -33.268  16.627  -2.712  1.00 20.00     0.006 C 
ENDBRANCH   4  10
TORSDOF 1
ENDMDL
MODEL 2
REMARK VINA RESULT:      -4.7      1.135      1.458
REMARK  1 active torsions:
REMARK  status: ('A' for Active; 'I' for Inactive)
REMARK    1  A    between atoms: C4_4  and  C8_8 
ROOT
HETATM    1  C1  UNL     1     -35.592  13.887  -4.428  1.00 20.00     0.218 C 
HETATM    2  C2  UNL     1     -34.289  14.256  -3.761  1.00 20.00     0.114 C 
HETATM    3  C3  UNL     1     -35.376  16.240  -4.609  1.00 20.00     0.088 C 
HETATM    4  C4  UNL     1     -34.440  15.765  -3.472  1.00 20.00    -0.016 C 
HETATM    5  C5  UNL     1     -34.683  16.685  -5.894  1.00 20.00     0.033 C 
HETATM    6  C6  UNL     1     -33.075  16.458  -3.429  1.00 20.00     0.018 C 
HETATM    7  N9  UNL     1     -36.176  15.064  -4.876  1.00 20.00    -0.356 N 
HETATM    8  O10 UNL     1     -36.019  12.751  -4.563  1.00 20.00    -0.274 OA
HETATM    9  H25 UNL     1     -37.079  15.099  -5.346  1.00 20.00     0.162 HD
ENDROOT
BRANCH   4  10
HETATM   10  C8  UNL     1     -35.132  15.967  -2.107  1.00 20.00     0.007 C 
HETATM   11  C7  UNL     1     -34.507  17.081  -1.335  1.00 20.00     0.006 C 
ENDBRANCH   4  10
TORSDOF 1
ENDMDL
MODEL 3
REMARK VINA RESULT:      -4.6      1.661      2.147
REMARK  1 active torsions:
REMARK  status: ('A' for Active; 'I' for Inactive)
REMARK    1  A    between atoms: C4_4  and  C8_8 
ROOT
HETATM    1  C1  UNL     1     -35.859  13.842  -4.330  1.00 20.00     0.218 C 
HETATM    2  C2  UNL     1     -34.699  14.742  -4.682  1.00 20.00     0.114 C 
HETATM    3  C3  UNL     1     -36.511  16.049  -3.763  1.00 20.00     0.088 C 
HETATM    4  C4  UNL     1     -34.968  16.023  -3.862  1.00 20.00    -0.016 C 
HETATM    5  C5  UNL     1     -37.235  16.774  -4.895  1.00 20.00     0.033 C 
HETATM    6  C6  UNL     1     -34.344  17.249  -4.535  1.00 20.00     0.018 C 
HETATM    7  N9  UNL     1     -36.857  14.644  -3.793  1.00 20.00    -0.356 N 
HETATM    8  O10 UNL     1     -35.901  12.637  -4.521  1.00 20.00    -0.274 OA
HETATM    9  H25 UNL     1     -37.746  14.281  -3.452  1.00 20.00     0.162 HD
ENDROOT
BRANCH   4  10
HETATM   10  C8  UNL     1     -34.356  15.877  -2.452  1.00 20.00     0.007 C 
HETATM   11  C7  UNL     1     -35.113  16.672  -1.442  1.00 20.00     0.006 C 
ENDBRANCH   4  10
TORSDOF 1
ENDMDL
MODEL 4
REMARK VINA RESULT:      -4.3      2.045      2.849
REMARK  1 active torsions:
REMARK  status: ('A' for Active; 'I' for Inactive)
REMARK    1  A    between atoms: C4_4  and  C8_8 
ROOT
HETATM    1  C1  UNL     1     -34.066  15.336  -5.011  1.00 20.00     0.218 C 
HETATM    2  C2  UNL     1     -33.211  15.467  -3.775  1.00 20.00     0.114 C 
HETATM    3  C3  UNL     1     -34.523  17.471  -4.090  1.00 20.00     0.088 C 
HETATM    4  C4  UNL     1     -33.891  16.601  -2.977  1.00 20.00    -0.016 C 
HETATM    5  C5  UNL     1     -33.632  18.575  -4.654  1.00 20.00     0.033 C 
HETATM    6  C6  UNL     1     -32.882  17.329  -2.085  1.00 20.00     0.018 C 
HETATM    7  N9  UNL     1     -34.807  16.504  -5.129  1.00 20.00    -0.356 N 
HETATM    8  O10 UNL     1     -34.067  14.380  -5.771  1.00 20.00    -0.274 OA
HETATM    9  H25 UNL     1     -35.485  16.667  -5.872  1.00 20.00     0.162 HD
ENDROOT
BRANCH   4  10
HETATM   10  C8  UNL     1     -35.001  16.013  -2.080  1.00 20.00     0.007 C 
HETATM   11  C7  UNL     1     -35.292  16.900  -0.917  1.00 20.00     0.006 C 
ENDBRANCH   4  10
TORSDOF 1
ENDMDL
MODEL 5
REMARK VINA RESULT:      -4.2      1.075      2.892
REMARK  1 active torsions:
REMARK  status: ('A' for Active; 'I' for Inactive)
REMARK    1  A    between atoms: C4_4  and  C8_8 
ROOT
HETATM    1  C1  UNL     1     -36.427  14.221  -4.519  1.00 20.00     0.218 C 
HETATM    2  C2  UNL     1     -36.260  15.540  -5.234  1.00 20.00     0.114 C 
HETATM    3  C3  UNL     1     -34.229  14.977  -4.052  1.00 20.00     0.088 C 
HETATM    4  C4  UNL     1     -34.728  15.722  -5.313  1.00 20.00    -0.016 C 
HETATM    5  C5  UNL     1     -34.136  15.815  -2.780  1.00 20.00     0.033 C 
HETATM    6  C6  UNL     1     -34.353  17.206  -5.375  1.00 20.00     0.018 C 
HETATM    7  N9  UNL     1     -35.228  13.944  -3.876  1.00 20.00    -0.356 N 
HETATM    8  O10 UNL     1     -37.449  13.554  -4.497  1.00 20.00    -0.274 OA
HETATM    9  H25 UNL     1     -35.064  13.097  -3.335  1.00 20.00     0.162 HD
ENDROOT
BRANCH   4  10
HETATM   10  C8  UNL     1     -34.185  15.028  -6.580  1.00 20.00     0.007 C 
HETATM   11  C7  UNL     1     -34.126  15.969  -7.737  1.00 20.00     0.006 C 
ENDBRANCH   4  10
TORSDOF 1
ENDMDL
MODEL 6
REMARK VINA RESULT:      -4.1      2.035      2.959
REMARK  1 active torsions:
REMARK  status: ('A' for Active; 'I' for Inactive)
REMARK    1  A    between atoms: C4_4  and  C8_8 
ROOT
HETATM    1  C1  UNL     1     -34.366  16.293  -5.824  1.00 20.00     0.218 C 
HETATM    2  C2  UNL     1     -34.943  16.835  -4.538  1.00 20.00     0.114 C 
HETATM    3  C3  UNL     1     -33.894  14.695  -4.139  1.00 20.00     0.088 C 
HETATM    4  C4  UNL     1     -34.199  16.042  -3.441  1.00 20.00    -0.016 C 
HETATM    5  C5  UNL     1     -34.971  13.622  -4.006  1.00 20.00     0.033 C 
HETATM    6  C6  UNL     1     -35.046  15.932  -2.170  1.00 20.00     0.018 C 
HETATM    7  N9  UNL     1     -33.764  15.078  -5.529  1.00 20.00    -0.356 N 
HETATM    8  O10 UNL     1     -34.453  16.829  -6.918  1.00 20.00    -0.274 OA
HETATM    9  H25 UNL     1     -33.277  14.509  -6.220  1.00 20.00     0.162 HD
ENDROOT
BRANCH   4  10
HETATM   10  C8  UNL     1     -32.878  16.758  -3.086  1.00 20.00     0.007 C 
HETATM   11  C7  UNL     1     -33.020  17.591  -1.857  1.00 20.00     0.006 C 
ENDBRANCH   4  10
TORSDOF 1
ENDMDL
MODEL 7
REMARK VINA RESULT:      -3.9      1.655      3.041
REMARK  1 active torsions:
REMARK  status: ('A' for Active; 'I' for Inactive)
REMARK    1  A    between atoms: C4_4  and  C8_8 
ROOT
HETATM    1  C1  UNL     1     -35.631  13.761  -4.312  1.00 20.00     0.218 C 
HETATM    2  C2  UNL     1     -36.536  14.919  -4.654  1.00 20.00     0.114 C 
HETATM    3  C3  UNL     1     -34.557  15.721  -3.526  1.00 20.00     0.088 C 
HETATM    4  C4  UNL     1     -35.603  16.147  -4.583  1.00 20.00    -0.016 C 
HETATM    5  C5  UNL     1     -34.903  16.060  -2.078  1.00 20.00     0.033 C 
HETATM    6  C6  UNL     1     -36.387  17.416  -4.239  1.00 20.00     0.018 C 
HETATM    7  N9  UNL     1     -34.508  14.284  -3.685  1.00 20.00    -0.356 N 
HETATM    8  O10 UNL     1     -35.876  12.584  -4.529  1.00 20.00    -0.274 OA
HETATM    9  H25 UNL     1     -33.725  13.714  -3.369  1.00 20.00     0.162 HD
ENDROOT
BRANCH   4  10
HETATM   10  C8  UNL     1     -34.912  16.355  -5.947  1.00 20.00     0.007 C 
HETATM   11  C7  UNL     1     -34.636  17.799  -6.207  1.00 20.00     0.006 C 
ENDBRANCH   4  10
TORSDOF 1
ENDMDL
MODEL 8
REMARK VINA RESULT:      -3.9      1.430      2.050
REMARK  1 active torsions:
REMARK  status: ('A' for Active; 'I' for Inactive)
REMARK    1  A    between atoms: C4_4  and  C8_8 
ROOT
HETATM    1  C1  UNL     1     -36.254  14.319  -4.396  1.00 20.00     0.218 C 
HETATM    2  C2  UNL     1     -35.862  15.074  -3.150  1.00 20.00     0.114 C 
HETATM    3  C3  UNL     1     -34.145  15.308  -4.834  1.00 20.00     0.088 C 
HETATM    4  C4  UNL     1     -34.785  16.064  -3.645  1.00 20.00    -0.016 C 
HETATM    5  C5  UNL     1     -32.968  14.400  -4.484  1.00 20.00     0.033 C 
HETATM    6  C6  UNL     1     -33.815  16.433  -2.519  1.00 20.00     0.018 C 
HETATM    7  N9  UNL     1     -35.242  14.504  -5.329  1.00 20.00    -0.356 N 
HETATM    8  O10 UNL     1     -37.266  13.648  -4.526  1.00 20.00    -0.274 OA
HETATM    9  H25 UNL     1     -35.268  14.116  -6.270  1.00 20.00     0.162 HD
ENDROOT
BRANCH   4  10
HETATM   10  C8  UNL     1     -35.459  17.357  -4.151  1.00 20.00     0.007 C 
HETATM   11  C7  UNL     1     -36.468  17.866  -3.177  1.00 20.00     0.006 C 
ENDBRANCH   4  10
TORSDOF 1
ENDMDL
MODEL 9
REMARK VINA RESULT:      -3.9      2.363      3.683
REMARK  1 active torsions:
REMARK  status: ('A' for Active; 'I' for Inactive)
REMARK    1  A    between atoms: C4_4  and  C8_8 
ROOT
HETATM    1  C1  UNL     1     -33.580  15.104  -4.035  1.00 20.00     0.218 C 
HETATM    2  C2  UNL     1     -34.667  15.164  -2.989  1.00 20.00     0.114 C 
HETATM    3  C3  UNL     1     -33.587  17.316  -3.185  1.00 20.00     0.088 C 
HETATM    4  C4  UNL     1     -34.953  16.675  -2.845  1.00 20.00    -0.016 C 
HETATM    5  C5  UNL     1     -32.636  17.513  -2.007  1.00 20.00     0.033 C 
HETATM    6  C6  UNL     1     -35.489  17.003  -1.448  1.00 20.00     0.018 C 
HETATM    7  N9  UNL     1     -33.011  16.368  -4.115  1.00 20.00    -0.356 N 
HETATM    8  O10 UNL     1     -33.257  14.107  -4.662  1.00 20.00    -0.274 OA
HETATM    9  H25 UNL     1     -32.263  16.608  -4.764  1.00 20.00     0.162 HD
ENDROOT
BRANCH   4  10
HETATM   10  C8  UNL     1     -36.007  17.107  -3.886  1.00 20.00     0.007 C 
HETATM   11  C7  UNL     1     -37.155  16.156  -3.930  1.00 20.00     0.006 C 
ENDBRANCH   4  10
TORSDOF 1
ENDMDL
