MODEL 1
REMARK VINA RESULT:      -4.9      0.000      0.000
REMARK  1 active torsions:
REMARK  status: ('A' for Active; 'I' for Inactive)
REMARK    1  A    between atoms: C5_5  and  C6_6 
ROOT
HETATM    1  C1  UNL     1     -36.352  14.241  -4.732  1.00 20.00     0.218 C 
HETATM    2  C2  UNL     1     -35.062  14.151  -3.957  1.00 20.00     0.110 C 
HETATM    3  C5  UNL     1     -34.320  15.449  -4.330  1.00 20.00     0.026 C 
HETATM    4  C7  UNL     1     -34.836  15.753  -5.758  1.00 20.00     0.030 C 
HETATM    5  C8  UNL     1     -33.993  15.002  -6.804  1.00 20.00     0.038 C 
HETATM    6  C9  UNL     1     -34.881  17.237  -6.127  1.00 20.00     0.038 C 
HETATM    7  N10 UNL     1     -36.173  15.190  -5.731  1.00 20.00    -0.352 N 
HETATM    8  O11 UNL     1     -37.349  13.566  -4.525  1.00 20.00    -0.274 OA
HETATM    9  H26 UNL     1     -36.907  15.462  -6.379  1.00 20.00     0.163 HD
ENDROOT
BRANCH   3  10
HETATM   10  C6  UNL     1     -34.612  16.534  -3.288  1.00 20.00    -0.008 A 
HETATM   11  C3  UNL     1     -34.939  16.149  -1.877  1.00 20.00     0.005 A 
HETATM   12  C4  UNL     1     -33.624  16.806  -2.194  1.00 20.00     0.005 A 
ENDBRANCH   3  10
TORSDOF 1
ENDMDL
MODEL 2
REMARK VINA RESULT:      -4.6      1.277      3.445
REMARK  1 active torsions:
REMARK  status: ('A' for Active; 'I' for Inactive)
REMARK    1  A    between atoms: C5_5  and  C6_6 
ROOT
HETATM    1  C1  UNL     1     -36.506  14.258  -4.529  1.00 20.00     0.218 C 
HETATM    2  C2  UNL     1     -36.354  15.592  -5.215  1.00 20.00     0.110 C 
HETATM    3  C5  UNL     1     -34.829  15.757  -5.360  1.00 20.00     0.026 C 
HETATM    4  C7  UNL     1     -34.272  14.968  -4.149  1.00 20.00     0.030 C 
HETATM    5  C8  UNL     1     -34.225  15.864  -2.900  1.00 20.00     0.038 C 
HETATM    6  C9  UNL     1     -32.894  14.341  -4.365  1.00 20.00     0.038 C 
HETATM    7  N10 UNL     1     -35.279  13.940  -3.960  1.00 20.00    -0.352 N 
HETATM    8  O11 UNL     1     -37.540  13.611  -4.465  1.00 20.00    -0.274 OA
HETATM    9  H26 UNL     1     -35.105  13.073  -3.460  1.00 20.00     0.163 HD
ENDROOT
BRANCH   3  10
HETATM   10  C6  UNL     1     -34.376  15.248  -6.732  1.00 20.00    -0.008 A 
HETATM   11  C3  UNL     1     -35.316  15.305  -7.899  1.00 20.00     0.005 A 
HETATM   12  C4  UNL     1     -34.124  16.220  -7.844  1.00 20.00     0.005 A 
ENDBRANCH   3  10
TORSDOF 1
ENDMDL
MODEL 3
REMARK VINA RESULT:      -4.4      1.761      2.687
REMARK  1 active torsions:
REMARK  status: ('A' for Active; 'I' for Inactive)
REMARK    1  A    between atoms: C5_5  and  C6_6 
ROOT
HETATM    1  C1  UNL     1     -37.263  14.713  -4.253  1.00 20.00     0.218 C 
HETATM    2  C2  UNL     1     -36.060  15.153  -5.047  1.00 20.00     0.110 C 
HETATM    3  C5  UNL     1     -35.457  16.289  -4.199  1.00 20.00     0.026 C 
HETATM    4  C7  UNL     1     -36.691  16.882  -3.475  1.00 20.00     0.030 C 
HETATM    5  C8  UNL     1     -37.374  17.940  -4.359  1.00 20.00     0.038 C 
HETATM    6  C9  UNL     1     -36.404  17.491  -2.101  1.00 20.00     0.038 C 
HETATM    7  N10 UNL     1     -37.563  15.729  -3.354  1.00 20.00    -0.352 N 
HETATM    8  O11 UNL     1     -37.872  13.667  -4.414  1.00 20.00    -0.274 OA
HETATM    9  H26 UNL     1     -38.318  15.669  -2.677  1.00 20.00     0.163 HD
ENDROOT
BRANCH   3  10
HETATM   10  C6  UNL     1     -34.368  15.730  -3.276  1.00 20.00    -0.008 A 
HETATM   11  C3  UNL     1     -33.109  15.164  -3.860  1.00 20.00     0.005 A 
HETATM   12  C4  UNL     1     -33.075  16.469  -3.113  1.00 20.00     0.005 A 
ENDBRANCH   3  10
TORSDOF 1
ENDMDL
MODEL 4
REMARK VINA RESULT:      -4.3      1.906      2.837
REMARK  1 active torsions:
REMARK  status: ('A' for Active; 'I' for Inactive)
REMARK    1  A    between atoms: C5_5  and  C6_6 
ROOT
HETATM    1  C1  UNL     1     -34.391  15.249  -6.885  1.00 20.00     0.218 C 
HETATM    2  C2  UNL     1     -34.310  16.455  -5.984  1.00 20.00     0.110 C 
HETATM    3  C5  UNL     1     -35.216  16.085  -4.794  1.00 20.00     0.026 C 
HETATM    4  C7  UNL     1     -36.265  15.139  -5.430  1.00 20.00     0.030 C 
HETATM    5  C8  UNL     1     -37.426  15.951  -6.030  1.00 20.00     0.038 C 
HETATM    6  C9  UNL     1     -36.834  14.077  -4.488  1.00 20.00     0.038 C 
HETATM    7  N10 UNL     1     -35.512  14.521  -6.505  1.00 20.00    -0.352 N 
HETATM    8  O11 UNL     1     -33.622  14.998  -7.799  1.00 20.00    -0.274 OA
HETATM    9  H26 UNL     1     -35.778  13.641  -6.939  1.00 20.00     0.163 HD
ENDROOT
BRANCH   3  10
HETATM   10  C6  UNL     1     -34.378  15.465  -3.672  1.00 20.00    -0.008 A 
HETATM   11  C3  UNL     1     -33.208  16.216  -3.109  1.00 20.00     0.005 A 
HETATM   12  C4  UNL     1     -34.452  16.029  -2.285  1.00 20.00     0.005 A 
ENDBRANCH   3  10
TORSDOF 1
ENDMDL
MODEL 5
REMARK VINA RESULT:      -4.3      1.714      2.150
REMARK  1 active torsions:
REMARK  status: ('A' for Active; 'I' for Inactive)
REMARK    1  A    between atoms: C5_5  and  C6_6 
ROOT
HETATM    1  C1  UNL     1     -36.005  13.692  -4.470  1.00 20.00     0.218 C 
HETATM    2  C2  UNL     1     -34.916  14.729  -4.581  1.00 20.00     0.110 C 
HETATM    3  C5  UNL     1     -35.614  16.038  -4.163  1.00 20.00     0.026 C 
HETATM    4  C7  UNL     1     -37.086  15.803  -4.583  1.00 20.00     0.030 C 
HETATM    5  C8  UNL     1     -37.292  16.194  -6.057  1.00 20.00     0.038 C 
HETATM    6  C9  UNL     1     -38.127  16.526  -3.726  1.00 20.00     0.038 C 
HETATM    7  N10 UNL     1     -37.220  14.365  -4.450  1.00 20.00    -0.352 N 
HETATM    8  O11 UNL     1     -35.829  12.484  -4.442  1.00 20.00    -0.274 OA
HETATM    9  H26 UNL     1     -38.116  13.894  -4.351  1.00 20.00     0.163 HD
ENDROOT
BRANCH   3  10
HETATM   10  C6  UNL     1     -35.398  16.291  -2.667  1.00 20.00    -0.008 A 
HETATM   11  C3  UNL     1     -34.009  16.475  -2.132  1.00 20.00     0.005 A 
HETATM   12  C4  UNL     1     -34.955  17.642  -2.194  1.00 20.00     0.005 A 
ENDBRANCH   3  10
TORSDOF 1
ENDMDL
MODEL 6
REMARK VINA RESULT:      -4.0      3.195      4.698
REMARK  1 active torsions:
REMARK  status: ('A' for Active; 'I' for Inactive)
REMARK    1  A    between atoms: C5_5  and  C6_6 
ROOT
HETATM    1  C1  UNL     1     -33.094  18.444  -2.652  1.00 20.00     0.218 C 
HETATM    2  C2  UNL     1     -32.807  17.012  -2.277  1.00 20.00     0.110 C 
HETATM    3  C5  UNL     1     -34.191  16.336  -2.324  1.00 20.00     0.026 C 
HETATM    4  C7  UNL     1     -35.160  17.492  -1.970  1.00 20.00     0.030 C 
HETATM    5  C8  UNL     1     -35.305  17.622  -0.444  1.00 20.00     0.038 C 
HETATM    6  C9  UNL     1     -36.552  17.383  -2.595  1.00 20.00     0.038 C 
HETATM    7  N10 UNL     1     -34.457  18.653  -2.482  1.00 20.00    -0.352 N 
HETATM    8  O11 UNL     1     -32.259  19.263  -3.002  1.00 20.00    -0.274 OA
HETATM    9  H26 UNL     1     -34.916  19.534  -2.696  1.00 20.00     0.163 HD
ENDROOT
BRANCH   3  10
HETATM   10  C6  UNL     1     -34.414  15.700  -3.700  1.00 20.00    -0.008 A 
HETATM   11  C3  UNL     1     -33.392  14.759  -4.264  1.00 20.00     0.005 A 
HETATM   12  C4  UNL     1     -34.726  14.237  -3.805  1.00 20.00     0.005 A 
ENDBRANCH   3  10
TORSDOF 1
ENDMDL
MODEL 7
REMARK VINA RESULT:      -3.9      2.278      3.323
REMARK  1 active torsions:
REMARK  status: ('A' for Active; 'I' for Inactive)
REMARK    1  A    between atoms: C5_5  and  C6_6 
ROOT
HETATM    1  C1  UNL     1     -33.567  14.854  -4.073  1.00 20.00     0.218 C 
HETATM    2  C2  UNL     1     -34.770  15.058  -3.186  1.00 20.00     0.110 C 
HETATM    3  C5  UNL     1     -35.014  16.579  -3.247  1.00 20.00     0.026 C 
HETATM    4  C7  UNL     1     -33.596  17.155  -3.488  1.00 20.00     0.030 C 
HETATM    5  C8  UNL     1     -32.863  17.352  -2.149  1.00 20.00     0.038 C 
HETATM    6  C9  UNL     1     -33.556  18.465  -4.275  1.00 20.00     0.038 C 
HETATM    7  N10 UNL     1     -32.951  16.089  -4.231  1.00 20.00    -0.352 N 
HETATM    8  O11 UNL     1     -33.199  13.781  -4.527  1.00 20.00    -0.274 OA
HETATM    9  H26 UNL     1     -32.129  16.231  -4.811  1.00 20.00     0.163 HD
ENDROOT
BRANCH   3  10
HETATM   10  C6  UNL     1     -36.040  16.900  -4.339  1.00 20.00    -0.008 A 
HETATM   11  C3  UNL     1     -37.098  15.898  -4.688  1.00 20.00     0.005 A 
HETATM   12  C4  UNL     1     -37.468  17.164  -3.967  1.00 20.00     0.005 A 
ENDBRANCH   3  10
TORSDOF 1
ENDMDL
MODEL 8
REMARK VINA RESULT:      -3.9      2.296      2.944
REMARK  1 active torsions:
REMARK  status: ('A' for Active; 'I' for Inactive)
REMARK    1  A    between atoms: C5_5  and  C6_6 
ROOT
HETATM    1  C1  UNL     1     -34.654  17.753  -4.994  1.00 20.00     0.218 C 
HETATM    2  C2  UNL     1     -35.752  17.233  -4.100  1.00 20.00     0.110 C 
HETATM    3  C5  UNL     1     -35.237  15.852  -3.653  1.00 20.00     0.026 C 
HETATM    4  C7  UNL     1     -34.353  15.402  -4.843  1.00 20.00     0.030 C 
HETATM    5  C8  UNL     1     -35.210  14.706  -5.914  1.00 20.00     0.038 C 
HETATM    6  C9  UNL     1     -33.182  14.490  -4.471  1.00 20.00     0.038 C 
HETATM    7  N10 UNL     1     -33.871  16.667  -5.366  1.00 20.00    -0.352 N 
HETATM    8  O11 UNL     1     -34.520  18.915  -5.344  1.00 20.00    -0.274 OA
HETATM    9  H26 UNL     1     -33.042  16.751  -5.948  1.00 20.00     0.163 HD
ENDROOT
BRANCH   3  10
HETATM   10  C6  UNL     1     -34.506  15.977  -2.312  1.00 20.00    -0.008 A 
HETATM   11  C3  UNL     1     -33.979  17.308  -1.867  1.00 20.00     0.005 A 
HETATM   12  C4  UNL     1     -35.160  16.693  -1.169  1.00 20.00     0.005 A 
ENDBRANCH   3  10
TORSDOF 1
ENDMDL
MODEL 9
REMARK VINA RESULT:      -3.9      1.853      2.628
REMARK  1 active torsions:
REMARK  status: ('A' for Active; 'I' for Inactive)
REMARK    1  A    between atoms: C5_5  and  C6_6 
ROOT
HETATM    1  C1  UNL     1     -35.687  16.734  -4.770  1.00 20.00     0.218 C 
HETATM    2  C2  UNL     1     -35.760  16.623  -3.268  1.00 20.00     0.110 C 
HETATM    3  C5  UNL     1     -34.555  15.733  -2.908  1.00 20.00     0.026 C 
HETATM    4  C7  UNL     1     -34.386  14.842  -4.164  1.00 20.00     0.030 C 
HETATM    5  C8  UNL     1     -35.294  13.604  -4.069  1.00 20.00     0.038 C 
HETATM    6  C9  UNL     1     -32.952  14.388  -4.446  1.00 20.00     0.038 C 
HETATM    7  N10 UNL     1     -34.868  15.707  -5.224  1.00 20.00    -0.352 N 
HETATM    8  O11 UNL     1     -36.279  17.560  -5.447  1.00 20.00    -0.274 OA
HETATM    9  H26 UNL     1     -34.631  15.575  -6.203  1.00 20.00     0.163 HD
ENDROOT
BRANCH   3  10
HETATM   10  C6  UNL     1     -33.344  16.608  -2.564  1.00 20.00    -0.008 A 
HETATM   11  C3  UNL     1     -33.368  18.074  -2.875  1.00 20.00     0.005 A 
HETATM   12  C4  UNL     1     -33.436  17.605  -1.448  1.00 20.00     0.005 A 
ENDBRANCH   3  10
TORSDOF 1
ENDMDL
