MODEL 1
REMARK VINA RESULT:      -3.9      0.000      0.000
REMARK  4 active torsions:
REMARK  status: ('A' for Active; 'I' for Inactive)
REMARK    1  A    between atoms: C5_5  and  C6_6 
REMARK    2  A    between atoms: C6_6  and  S10_10 
REMARK    3  A    between atoms: C7_7  and  C8_8 
REMARK    4  A    between atoms: C7_7  and  S10_10 
ROOT
HETATM    1  C1  UNL     1     -37.044  14.448  -4.494  1.00 20.00     0.074 C 
HETATM    2  C7  UNL     1     -35.735  15.069  -4.760  1.00 20.00     0.157 C 
HETATM    3  N9  UNL     1     -38.074  13.955  -4.288  1.00 20.00    -0.196 NA
ENDROOT
BRANCH   2   4
HETATM    4  C8  UNL     1     -34.660  14.691  -3.711  1.00 20.00     0.005 C 
HETATM    5  C3  UNL     1     -34.612  15.728  -2.578  1.00 20.00     0.011 C 
HETATM    6  C4  UNL     1     -33.248  14.494  -4.279  1.00 20.00     0.011 C 
ENDBRANCH   2   4
BRANCH   2   7
HETATM    7  S10 UNL     1     -35.914  16.886  -4.930  1.00 20.00    -0.149 SA
BRANCH   7   8
HETATM    8  C6  UNL     1     -34.912  17.093  -6.416  1.00 20.00     0.075 C 
BRANCH   8   9
HETATM    9  C5  UNL     1     -35.161  15.949  -7.393  1.00 20.00     0.006 C 
HETATM   10  C2  UNL     1     -33.851  15.380  -7.917  1.00 20.00     0.006 C 
ENDBRANCH   8   9
ENDBRANCH   7   8
ENDBRANCH   2   7
TORSDOF 4
ENDMDL
MODEL 2
REMARK VINA RESULT:      -3.8      1.762      1.977
REMARK  4 active torsions:
REMARK  status: ('A' for Active; 'I' for Inactive)
REMARK    1  A    between atoms: C5_5  and  C6_6 
REMARK    2  A    between atoms: C6_6  and  S10_10 
REMARK    3  A    between atoms: C7_7  and  C8_8 
REMARK    4  A    between atoms: C7_7  and  S10_10 
ROOT
HETATM    1  C1  UNL     1     -35.677  13.919  -4.330  1.00 20.00     0.074 C 
HETATM    2  C7  UNL     1     -35.380  15.340  -4.076  1.00 20.00     0.157 C 
HETATM    3  N9  UNL     1     -35.907  12.800  -4.533  1.00 20.00    -0.196 NA
ENDROOT
BRANCH   2   4
HETATM    4  C8  UNL     1     -34.427  15.555  -2.873  1.00 20.00     0.005 C 
HETATM    5  C3  UNL     1     -35.133  16.327  -1.748  1.00 20.00     0.011 C 
HETATM    6  C4  UNL     1     -33.105  16.252  -3.217  1.00 20.00     0.011 C 
ENDBRANCH   2   4
BRANCH   2   7
HETATM    7  S10 UNL     1     -36.934  16.294  -3.895  1.00 20.00    -0.149 SA
BRANCH   7   8
HETATM    8  C6  UNL     1     -36.483  17.697  -4.936  1.00 20.00     0.075 C 
BRANCH   8   9
HETATM    9  C5  UNL     1     -35.487  17.269  -6.009  1.00 20.00     0.006 C 
HETATM   10  C2  UNL     1     -34.364  18.286  -6.151  1.00 20.00     0.006 C 
ENDBRANCH   8   9
ENDBRANCH   7   8
ENDBRANCH   2   7
TORSDOF 4
ENDMDL
MODEL 3
REMARK VINA RESULT:      -3.8      1.482      3.475
REMARK  4 active torsions:
REMARK  status: ('A' for Active; 'I' for Inactive)
REMARK    1  A    between atoms: C5_5  and  C6_6 
REMARK    2  A    between atoms: C6_6  and  S10_10 
REMARK    3  A    between atoms: C7_7  and  C8_8 
REMARK    4  A    between atoms: C7_7  and  S10_10 
ROOT
HETATM    1  C1  UNL     1     -35.891  13.941  -4.801  1.00 20.00     0.074 C 
HETATM    2  C7  UNL     1     -35.855  15.383  -5.099  1.00 20.00     0.157 C 
HETATM    3  N9  UNL     1     -35.922  12.804  -4.571  1.00 20.00    -0.196 NA
ENDROOT
BRANCH   2   4
HETATM    4  C8  UNL     1     -34.498  15.847  -5.687  1.00 20.00     0.005 C 
HETATM    5  C3  UNL     1     -34.505  17.360  -5.949  1.00 20.00     0.011 C 
HETATM    6  C4  UNL     1     -34.065  15.111  -6.961  1.00 20.00     0.011 C 
ENDBRANCH   2   4
BRANCH   2   7
HETATM    7  S10 UNL     1     -36.324  16.353  -3.616  1.00 20.00    -0.149 SA
BRANCH   7   8
HETATM    8  C6  UNL     1     -35.078  15.694  -2.488  1.00 20.00     0.075 C 
BRANCH   8   9
HETATM    9  C5  UNL     1     -34.321  16.828  -1.806  1.00 20.00     0.006 C 
HETATM   10  C2  UNL     1     -32.997  17.101  -2.505  1.00 20.00     0.006 C 
ENDBRANCH   8   9
ENDBRANCH   7   8
ENDBRANCH   2   7
TORSDOF 4
ENDMDL
MODEL 4
REMARK VINA RESULT:      -3.7      1.479      1.731
REMARK  4 active torsions:
REMARK  status: ('A' for Active; 'I' for Inactive)
REMARK    1  A    between atoms: C5_5  and  C6_6 
REMARK    2  A    between atoms: C6_6  and  S10_10 
REMARK    3  A    between atoms: C7_7  and  C8_8 
REMARK    4  A    between atoms: C7_7  and  S10_10 
ROOT
HETATM    1  C1  UNL     1     -36.331  14.025  -4.369  1.00 20.00     0.074 C 
HETATM    2  C7  UNL     1     -34.896  14.348  -4.291  1.00 20.00     0.157 C 
HETATM    3  N9  UNL     1     -37.461  13.767  -4.429  1.00 20.00    -0.196 NA
ENDROOT
BRANCH   2   4
HETATM    4  C8  UNL     1     -34.542  15.250  -3.082  1.00 20.00     0.005 C 
HETATM    5  C3  UNL     1     -35.697  16.210  -2.759  1.00 20.00     0.011 C 
HETATM    6  C4  UNL     1     -33.242  16.050  -3.236  1.00 20.00     0.011 C 
ENDBRANCH   2   4
BRANCH   2   7
HETATM    7  S10 UNL     1     -34.317  15.070  -5.873  1.00 20.00    -0.149 SA
BRANCH   7   8
HETATM    8  C6  UNL     1     -35.893  15.759  -6.419  1.00 20.00     0.075 C 
BRANCH   8   9
HETATM    9  C5  UNL     1     -35.859  17.282  -6.361  1.00 20.00     0.006 C 
HETATM   10  C2  UNL     1     -34.430  17.795  -6.264  1.00 20.00     0.006 C 
ENDBRANCH   8   9
ENDBRANCH   7   8
ENDBRANCH   2   7
TORSDOF 4
ENDMDL
MODEL 5
REMARK VINA RESULT:      -3.6      1.739      3.984
REMARK  4 active torsions:
REMARK  status: ('A' for Active; 'I' for Inactive)
REMARK    1  A    between atoms: C5_5  and  C6_6 
REMARK    2  A    between atoms: C6_6  and  S10_10 
REMARK    3  A    between atoms: C7_7  and  C8_8 
REMARK    4  A    between atoms: C7_7  and  S10_10 
ROOT
HETATM    1  C1  UNL     1     -35.570  13.916  -4.594  1.00 20.00     0.074 C 
HETATM    2  C7  UNL     1     -35.026  15.285  -4.642  1.00 20.00     0.157 C 
HETATM    3  N9  UNL     1     -36.003  12.840  -4.555  1.00 20.00    -0.196 NA
ENDROOT
BRANCH   2   4
HETATM    4  C8  UNL     1     -35.059  15.901  -6.063  1.00 20.00     0.005 C 
HETATM    5  C3  UNL     1     -36.488  15.900  -6.628  1.00 20.00     0.011 C 
HETATM    6  C4  UNL     1     -34.113  15.238  -7.073  1.00 20.00     0.011 C 
ENDBRANCH   2   4
BRANCH   2   7
HETATM    7  S10 UNL     1     -33.343  15.328  -3.918  1.00 20.00    -0.149 SA
BRANCH   7   8
HETATM    8  C6  UNL     1     -33.684  16.483  -2.574  1.00 20.00     0.075 C 
BRANCH   8   9
HETATM    9  C5  UNL     1     -35.010  16.145  -1.902  1.00 20.00     0.006 C 
HETATM   10  C2  UNL     1     -35.249  17.029  -0.686  1.00 20.00     0.006 C 
ENDBRANCH   8   9
ENDBRANCH   7   8
ENDBRANCH   2   7
TORSDOF 4
ENDMDL
MODEL 6
REMARK VINA RESULT:      -3.4      1.489      2.229
REMARK  4 active torsions:
REMARK  status: ('A' for Active; 'I' for Inactive)
REMARK    1  A    between atoms: C5_5  and  C6_6 
REMARK    2  A    between atoms: C6_6  and  S10_10 
REMARK    3  A    between atoms: C7_7  and  C8_8 
REMARK    4  A    between atoms: C7_7  and  S10_10 
ROOT
HETATM    1  C1  UNL     1     -36.223  14.133  -4.510  1.00 20.00     0.074 C 
HETATM    2  C7  UNL     1     -34.836  14.619  -4.614  1.00 20.00     0.157 C 
HETATM    3  N9  UNL     1     -37.314  13.747  -4.424  1.00 20.00    -0.196 NA
ENDROOT
BRANCH   2   4
HETATM    4  C8  UNL     1     -34.537  15.809  -3.668  1.00 20.00     0.005 C 
HETATM    5  C3  UNL     1     -33.025  15.972  -3.454  1.00 20.00     0.011 C 
HETATM    6  C4  UNL     1     -35.239  15.739  -2.306  1.00 20.00     0.011 C 
ENDBRANCH   2   4
BRANCH   2   7
HETATM    7  S10 UNL     1     -34.428  15.013  -6.357  1.00 20.00    -0.149 SA
BRANCH   7   8
HETATM    8  C6  UNL     1     -35.974  15.837  -6.791  1.00 20.00     0.075 C 
BRANCH   8   9
HETATM    9  C5  UNL     1     -35.799  17.352  -6.761  1.00 20.00     0.006 C 
HETATM   10  C2  UNL     1     -36.734  17.992  -5.746  1.00 20.00     0.006 C 
ENDBRANCH   8   9
ENDBRANCH   7   8
ENDBRANCH   2   7
TORSDOF 4
ENDMDL
MODEL 7
REMARK VINA RESULT:      -3.4     11.175     12.249
REMARK  4 active torsions:
REMARK  status: ('A' for Active; 'I' for Inactive)
REMARK    1  A    between atoms: C5_5  and  C6_6 
REMARK    2  A    between atoms: C6_6  and  S10_10 
REMARK    3  A    between atoms: C7_7  and  C8_8 
REMARK    4  A    between atoms: C7_7  and  S10_10 
ROOT
HETATM    1  C1  UNL     1     -33.825   6.864   5.176  1.00 20.00     0.074 C 
HETATM    2  C7  UNL     1     -33.747   6.722   3.712  1.00 20.00     0.157 C 
HETATM    3  N9  UNL     1     -33.892   6.978   6.329  1.00 20.00    -0.196 NA
ENDROOT
BRANCH   2   4
HETATM    4  C8  UNL     1     -34.133   5.305   3.218  1.00 20.00     0.005 C 
HETATM    5  C3  UNL     1     -34.716   4.467   4.365  1.00 20.00     0.011 C 
HETATM    6  C4  UNL     1     -32.995   4.527   2.546  1.00 20.00     0.011 C 
ENDBRANCH   2   4
BRANCH   2   7
HETATM    7  S10 UNL     1     -32.090   7.227   3.110  1.00 20.00    -0.149 SA
BRANCH   7   8
HETATM    8  C6  UNL     1     -32.513   7.429   1.368  1.00 20.00     0.075 C 
BRANCH   8   9
HETATM    9  C5  UNL     1     -32.861   8.883   1.067  1.00 20.00     0.006 C 
HETATM   10  C2  UNL     1     -33.463   9.026  -0.323  1.00 20.00     0.006 C 
ENDBRANCH   8   9
ENDBRANCH   7   8
ENDBRANCH   2   7
TORSDOF 4
ENDMDL
MODEL 8
REMARK VINA RESULT:      -3.4      2.266      2.925
REMARK  4 active torsions:
REMARK  status: ('A' for Active; 'I' for Inactive)
REMARK    1  A    between atoms: C5_5  and  C6_6 
REMARK    2  A    between atoms: C6_6  and  S10_10 
REMARK    3  A    between atoms: C7_7  and  C8_8 
REMARK    4  A    between atoms: C7_7  and  S10_10 
ROOT
HETATM    1  C1  UNL     1     -35.724  13.951  -4.352  1.00 20.00     0.074 C 
HETATM    2  C7  UNL     1     -35.420  15.364  -4.070  1.00 20.00     0.157 C 
HETATM    3  N9  UNL     1     -35.960  12.837  -4.578  1.00 20.00    -0.196 NA
ENDROOT
BRANCH   2   4
HETATM    4  C8  UNL     1     -34.440  15.549  -2.884  1.00 20.00     0.005 C 
HETATM    5  C3  UNL     1     -35.096  16.352  -1.751  1.00 20.00     0.011 C 
HETATM    6  C4  UNL     1     -33.098  16.195  -3.254  1.00 20.00     0.011 C 
ENDBRANCH   2   4
BRANCH   2   7
HETATM    7  S10 UNL     1     -36.969  16.314  -3.828  1.00 20.00    -0.149 SA
BRANCH   7   8
HETATM    8  C6  UNL     1     -37.549  16.276  -5.537  1.00 20.00     0.075 C 
BRANCH   8   9
HETATM    9  C5  UNL     1     -39.069  16.383  -5.588  1.00 20.00     0.006 C 
HETATM   10  C2  UNL     1     -39.505  17.725  -6.159  1.00 20.00     0.006 C 
ENDBRANCH   8   9
ENDBRANCH   7   8
ENDBRANCH   2   7
TORSDOF 4
ENDMDL
MODEL 9
REMARK VINA RESULT:      -3.4      2.259      4.087
REMARK  4 active torsions:
REMARK  status: ('A' for Active; 'I' for Inactive)
REMARK    1  A    between atoms: C5_5  and  C6_6 
REMARK    2  A    between atoms: C6_6  and  S10_10 
REMARK    3  A    between atoms: C7_7  and  C8_8 
REMARK    4  A    between atoms: C7_7  and  S10_10 
ROOT
HETATM    1  C1  UNL     1     -35.911  13.879  -4.392  1.00 20.00     0.074 C 
HETATM    2  C7  UNL     1     -35.900  15.321  -4.087  1.00 20.00     0.157 C 
HETATM    3  N9  UNL     1     -35.923  12.743  -4.627  1.00 20.00    -0.196 NA
ENDROOT
BRANCH   2   4
HETATM    4  C8  UNL     1     -36.996  16.110  -4.846  1.00 20.00     0.005 C 
HETATM    5  C3  UNL     1     -36.460  17.466  -5.329  1.00 20.00     0.011 C 
HETATM    6  C4  UNL     1     -38.294  16.328  -4.056  1.00 20.00     0.011 C 
ENDBRANCH   2   4
BRANCH   2   7
HETATM    7  S10 UNL     1     -34.231  16.021  -4.377  1.00 20.00    -0.149 SA
BRANCH   7   8
HETATM    8  C6  UNL     1     -33.744  16.219  -2.651  1.00 20.00     0.075 C 
BRANCH   8   9
HETATM    9  C5  UNL     1     -34.971  16.213  -1.746  1.00 20.00     0.006 C 
HETATM   10  C2  UNL     1     -35.051  17.490  -0.922  1.00 20.00     0.006 C 
ENDBRANCH   8   9
ENDBRANCH   7   8
ENDBRANCH   2   7
TORSDOF 4
ENDMDL
