MODEL 1
REMARK VINA RESULT:      -4.9      0.000      0.000
REMARK  0 active torsions:
REMARK  status: ('A' for Active; 'I' for Inactive)
ROOT
HETATM    1  C1  UNL     1     -32.738  16.638  -3.043  1.00 20.00     0.010 A 
HETATM    2  C2  UNL     1     -32.933  17.443  -1.919  1.00 20.00     0.019 A 
HETATM    3  C3  UNL     1     -35.168  16.534  -1.596  1.00 20.00     0.026 A 
HETATM    4  C4  UNL     1     -33.761  15.785  -3.425  1.00 20.00    -0.033 A 
HETATM    5  C5  UNL     1     -34.961  15.730  -2.704  1.00 20.00    -0.049 A 
HETATM    6  C6  UNL     1     -34.139  17.392  -1.201  1.00 20.00     0.011 A 
HETATM    7  C7  UNL     1     -35.917  14.763  -3.331  1.00 20.00     0.041 C 
HETATM    8  C8  UNL     1     -34.962  13.928  -4.199  1.00 20.00     0.030 C 
HETATM    9  C9  UNL     1     -33.799  14.854  -4.599  1.00 20.00     0.116 C 
HETATM   10 CL10 UNL     1     -34.169  15.753  -6.084  1.00 20.00    -0.120 Cl
HETATM   11 BR11 UNL     1     -34.374  18.503   0.311  1.00 20.00    -0.051 Br
ENDROOT
TORSDOF 0
ENDMDL
MODEL 2
REMARK VINA RESULT:      -4.9      3.223      4.504
REMARK  0 active torsions:
REMARK  status: ('A' for Active; 'I' for Inactive)
ROOT
HETATM    1  C1  UNL     1     -32.775  17.410  -2.201  1.00 20.00     0.010 A 
HETATM    2  C2  UNL     1     -33.094  16.352  -3.056  1.00 20.00     0.019 A 
HETATM    3  C3  UNL     1     -35.216  16.009  -1.913  1.00 20.00     0.026 A 
HETATM    4  C4  UNL     1     -33.685  17.757  -1.217  1.00 20.00    -0.033 A 
HETATM    5  C5  UNL     1     -34.896  17.066  -1.079  1.00 20.00    -0.049 A 
HETATM    6  C6  UNL     1     -34.305  15.657  -2.912  1.00 20.00     0.011 A 
HETATM    7  C7  UNL     1     -35.689  17.602   0.073  1.00 20.00     0.041 C 
HETATM    8  C8  UNL     1     -35.023  18.973   0.274  1.00 20.00     0.030 C 
HETATM    9  C9  UNL     1     -33.558  18.826  -0.174  1.00 20.00     0.116 C 
HETATM   10 CL10 UNL     1     -32.528  18.265   1.158  1.00 20.00    -0.120 Cl
HETATM   11 BR11 UNL     1     -34.703  14.222  -4.079  1.00 20.00    -0.051 Br
ENDROOT
TORSDOF 0
ENDMDL
MODEL 3
REMARK VINA RESULT:      -4.9     15.260     16.680
REMARK  0 active torsions:
REMARK  status: ('A' for Active; 'I' for Inactive)
ROOT
HETATM    1  C1  UNL     1     -22.791  17.730   9.311  1.00 20.00     0.010 A 
HETATM    2  C2  UNL     1     -23.085  18.128   8.005  1.00 20.00     0.019 A 
HETATM    3  C3  UNL     1     -25.258  18.974   8.704  1.00 20.00     0.026 A 
HETATM    4  C4  UNL     1     -23.733  17.967  10.299  1.00 20.00    -0.033 A 
HETATM    5  C5  UNL     1     -24.952  18.588   9.998  1.00 20.00    -0.049 A 
HETATM    6  C6  UNL     1     -24.311  18.745   7.704  1.00 20.00     0.011 A 
HETATM    7  C7  UNL     1     -25.811  18.699  11.219  1.00 20.00     0.041 C 
HETATM    8  C8  UNL     1     -24.766  18.511  12.330  1.00 20.00     0.030 C 
HETATM    9  C9  UNL     1     -23.660  17.610  11.752  1.00 20.00     0.116 C 
HETATM   10 CL10 UNL     1     -24.037  15.891  11.983  1.00 20.00    -0.120 Cl
HETATM   11 BR11 UNL     1     -24.683  19.262   5.923  1.00 20.00    -0.051 Br
ENDROOT
TORSDOF 0
ENDMDL
MODEL 4
REMARK VINA RESULT:      -4.7      1.443      2.051
REMARK  0 active torsions:
REMARK  status: ('A' for Active; 'I' for Inactive)
ROOT
HETATM    1  C1  UNL     1     -32.837  18.087  -1.121  1.00 20.00     0.010 A 
HETATM    2  C2  UNL     1     -33.398  18.442   0.108  1.00 20.00     0.019 A 
HETATM    3  C3  UNL     1     -35.329  17.020  -0.311  1.00 20.00     0.026 A 
HETATM    4  C4  UNL     1     -33.527  17.196  -1.926  1.00 20.00    -0.033 A 
HETATM    5  C5  UNL     1     -34.759  16.664  -1.521  1.00 20.00    -0.049 A 
HETATM    6  C6  UNL     1     -34.636  17.913   0.509  1.00 20.00     0.011 A 
HETATM    7  C7  UNL     1     -35.321  15.758  -2.573  1.00 20.00     0.041 C 
HETATM    8  C8  UNL     1     -34.063  15.459  -3.405  1.00 20.00     0.030 C 
HETATM    9  C9  UNL     1     -33.147  16.690  -3.284  1.00 20.00     0.116 C 
HETATM   10 CL10 UNL     1     -33.529  17.904  -4.522  1.00 20.00    -0.120 Cl
HETATM   11 BR11 UNL     1     -35.374  18.422   2.174  1.00 20.00    -0.051 Br
ENDROOT
TORSDOF 0
ENDMDL
MODEL 5
REMARK VINA RESULT:      -4.6      3.044      4.678
REMARK  0 active torsions:
REMARK  status: ('A' for Active; 'I' for Inactive)
ROOT
HETATM    1  C1  UNL     1     -35.143  16.095  -1.747  1.00 20.00     0.010 A 
HETATM    2  C2  UNL     1     -35.005  15.435  -2.970  1.00 20.00     0.019 A 
HETATM    3  C3  UNL     1     -32.983  16.694  -3.474  1.00 20.00     0.026 A 
HETATM    4  C4  UNL     1     -34.194  17.043  -1.401  1.00 20.00    -0.033 A 
HETATM    5  C5  UNL     1     -33.122  17.335  -2.254  1.00 20.00    -0.049 A 
HETATM    6  C6  UNL     1     -33.933  15.733  -3.827  1.00 20.00     0.011 A 
HETATM    7  C7  UNL     1     -32.257  18.413  -1.677  1.00 20.00     0.041 C 
HETATM    8  C8  UNL     1     -32.678  18.366  -0.199  1.00 20.00     0.030 C 
HETATM    9  C9  UNL     1     -34.143  17.895  -0.169  1.00 20.00     0.116 C 
HETATM   10 CL10 UNL     1     -35.266  19.262  -0.320  1.00 20.00    -0.120 Cl
HETATM   11 BR11 UNL     1     -33.780  14.827  -5.481  1.00 20.00    -0.051 Br
ENDROOT
TORSDOF 0
ENDMDL
MODEL 6
REMARK VINA RESULT:      -4.4      1.421      2.237
REMARK  0 active torsions:
REMARK  status: ('A' for Active; 'I' for Inactive)
ROOT
HETATM    1  C1  UNL     1     -36.270  16.607  -3.103  1.00 20.00     0.010 A 
HETATM    2  C2  UNL     1     -35.889  17.324  -1.967  1.00 20.00     0.019 A 
HETATM    3  C3  UNL     1     -33.590  16.557  -2.196  1.00 20.00     0.026 A 
HETATM    4  C4  UNL     1     -35.302  15.878  -3.775  1.00 20.00    -0.033 A 
HETATM    5  C5  UNL     1     -33.975  15.859  -3.328  1.00 20.00    -0.049 A 
HETATM    6  C6  UNL     1     -34.559  17.299  -1.517  1.00 20.00     0.011 A 
HETATM    7  C7  UNL     1     -33.131  14.977  -4.196  1.00 20.00     0.041 C 
HETATM    8  C8  UNL     1     -34.009  14.878  -5.454  1.00 20.00     0.030 C 
HETATM    9  C9  UNL     1     -35.470  15.015  -4.989  1.00 20.00     0.116 C 
HETATM   10 CL10 UNL     1     -36.155  13.442  -4.535  1.00 20.00    -0.120 Cl
HETATM   11 BR11 UNL     1     -34.079  18.274   0.031  1.00 20.00    -0.051 Br
ENDROOT
TORSDOF 0
ENDMDL
MODEL 7
REMARK VINA RESULT:      -4.2      1.643      2.463
REMARK  0 active torsions:
REMARK  status: ('A' for Active; 'I' for Inactive)
ROOT
HETATM    1  C1  UNL     1     -35.456  15.898  -2.397  1.00 20.00     0.010 A 
HETATM    2  C2  UNL     1     -34.586  16.701  -1.657  1.00 20.00     0.019 A 
HETATM    3  C3  UNL     1     -32.940  16.649  -3.450  1.00 20.00     0.026 A 
HETATM    4  C4  UNL     1     -35.058  15.486  -3.658  1.00 20.00    -0.033 A 
HETATM    5  C5  UNL     1     -33.815  15.864  -4.181  1.00 20.00    -0.049 A 
HETATM    6  C6  UNL     1     -33.336  17.073  -2.179  1.00 20.00     0.011 A 
HETATM    7  C7  UNL     1     -33.602  15.268  -5.538  1.00 20.00     0.041 C 
HETATM    8  C8  UNL     1     -35.044  14.907  -5.929  1.00 20.00     0.030 C 
HETATM    9  C9  UNL     1     -35.798  14.607  -4.621  1.00 20.00     0.116 C 
HETATM   10 CL10 UNL     1     -35.628  12.903  -4.153  1.00 20.00    -0.120 Cl
HETATM   11 BR11 UNL     1     -32.176  18.153  -1.148  1.00 20.00    -0.051 Br
ENDROOT
TORSDOF 0
ENDMDL
MODEL 8
REMARK VINA RESULT:      -4.2      3.596      4.927
REMARK  0 active torsions:
REMARK  status: ('A' for Active; 'I' for Inactive)
ROOT
HETATM    1  C1  UNL     1     -34.530  18.223   1.089  1.00 20.00     0.010 A 
HETATM    2  C2  UNL     1     -34.099  18.263   2.416  1.00 20.00     0.019 A 
HETATM    3  C3  UNL     1     -31.774  18.383   1.707  1.00 20.00     0.026 A 
HETATM    4  C4  UNL     1     -33.576  18.269   0.086  1.00 20.00    -0.033 A 
HETATM    5  C5  UNL     1     -32.211  18.354   0.393  1.00 20.00    -0.049 A 
HETATM    6  C6  UNL     1     -32.731  18.342   2.723  1.00 20.00     0.011 A 
HETATM    7  C7  UNL     1     -31.382  18.355  -0.853  1.00 20.00     0.041 C 
HETATM    8  C8  UNL     1     -32.434  18.742  -1.905  1.00 20.00     0.030 C 
HETATM    9  C9  UNL     1     -33.787  18.213  -1.396  1.00 20.00     0.116 C 
HETATM   10 CL10 UNL     1     -34.062  16.537  -1.914  1.00 20.00    -0.120 Cl
HETATM   11 BR11 UNL     1     -32.180  18.385   4.532  1.00 20.00    -0.051 Br
ENDROOT
TORSDOF 0
ENDMDL
MODEL 9
REMARK VINA RESULT:      -4.2      2.204      3.482
REMARK  0 active torsions:
REMARK  status: ('A' for Active; 'I' for Inactive)
ROOT
HETATM    1  C1  UNL     1     -35.474  17.093  -0.409  1.00 20.00     0.010 A 
HETATM    2  C2  UNL     1     -35.217  17.480   0.908  1.00 20.00     0.019 A 
HETATM    3  C3  UNL     1     -33.052  18.390   0.266  1.00 20.00     0.026 A 
HETATM    4  C4  UNL     1     -34.518  17.366  -1.373  1.00 20.00    -0.033 A 
HETATM    5  C5  UNL     1     -33.322  18.014  -1.039  1.00 20.00    -0.049 A 
HETATM    6  C6  UNL     1     -34.014  18.123   1.243  1.00 20.00     0.011 A 
HETATM    7  C7  UNL     1     -32.441  18.164  -2.240  1.00 20.00     0.041 C 
HETATM    8  C8  UNL     1     -33.458  17.964  -3.376  1.00 20.00     0.030 C 
HETATM    9  C9  UNL     1     -34.553  17.028  -2.833  1.00 20.00     0.116 C 
HETATM   10 CL10 UNL     1     -34.126  15.323  -3.079  1.00 20.00    -0.120 Cl
HETATM   11 BR11 UNL     1     -33.692  18.625   3.038  1.00 20.00    -0.051 Br
ENDROOT
TORSDOF 0
ENDMDL
