MODEL 1
REMARK VINA RESULT:      -4.2      0.000      0.000
REMARK  1 active torsions:
REMARK  status: ('A' for Active; 'I' for Inactive)
REMARK    1  A    between atoms: C3_3  and  C6_6 
ROOT
HETATM    1  C1  UNL     1     -33.644   6.982   5.086  1.00 20.00     0.131 A 
HETATM    2  C2  UNL     1     -34.898   5.534   6.151  1.00 20.00     0.166 A 
HETATM    3  C3  UNL     1     -33.885   6.111   4.044  1.00 20.00     0.005 A 
HETATM    4  N7  UNL     1     -34.224   6.654   6.294  1.00 20.00    -0.265 NA
HETATM    5  S8  UNL     1     -34.876   4.822   4.590  1.00 20.00    -0.085 SA
ENDROOT
BRANCH   3   6
HETATM    6  C6  UNL     1     -33.411   6.165   2.604  1.00 20.00     0.019 C 
HETATM    7  C4  UNL     1     -33.008   4.780   2.092  1.00 20.00     0.015 C 
HETATM    8  C5  UNL     1     -32.267   7.165   2.424  1.00 20.00     0.015 C 
ENDBRANCH   3   6
TORSDOF 1
ENDMDL
MODEL 2
REMARK VINA RESULT:      -3.9     12.236     12.575
REMARK  1 active torsions:
REMARK  status: ('A' for Active; 'I' for Inactive)
REMARK    1  A    between atoms: C3_3  and  C6_6 
ROOT
HETATM    1  C1  UNL     1     -36.244  13.882  -4.374  1.00 20.00     0.131 A 
HETATM    2  C2  UNL     1     -38.155  14.951  -4.274  1.00 20.00     0.166 A 
HETATM    3  C3  UNL     1     -35.762  15.142  -4.088  1.00 20.00     0.005 A 
HETATM    4  N7  UNL     1     -37.616  13.770  -4.480  1.00 20.00    -0.265 NA
HETATM    5  S8  UNL     1     -37.072  16.241  -3.947  1.00 20.00    -0.085 SA
ENDROOT
BRANCH   3   6
HETATM    6  C6  UNL     1     -34.332  15.617  -3.903  1.00 20.00     0.019 C 
HETATM    7  C4  UNL     1     -33.325  14.549  -4.334  1.00 20.00     0.015 C 
HETATM    8  C5  UNL     1     -34.069  16.066  -2.464  1.00 20.00     0.015 C 
ENDBRANCH   3   6
TORSDOF 1
ENDMDL
MODEL 3
REMARK VINA RESULT:      -3.9     15.898     16.808
REMARK  1 active torsions:
REMARK  status: ('A' for Active; 'I' for Inactive)
REMARK    1  A    between atoms: C3_3  and  C6_6 
ROOT
HETATM    1  C1  UNL     1     -22.604  17.317   8.761  1.00 20.00     0.131 A 
HETATM    2  C2  UNL     1     -23.995  18.776   7.900  1.00 20.00     0.166 A 
HETATM    3  C3  UNL     1     -23.425  17.491   9.855  1.00 20.00     0.005 A 
HETATM    4  N7  UNL     1     -22.930  18.052   7.639  1.00 20.00    -0.265 NA
HETATM    5  S8  UNL     1     -24.658  18.622   9.475  1.00 20.00    -0.085 SA
ENDROOT
BRANCH   3   6
HETATM    6  C6  UNL     1     -23.361  16.851  11.229  1.00 20.00     0.019 C 
HETATM    7  C4  UNL     1     -24.583  15.969  11.498  1.00 20.00     0.015 C 
HETATM    8  C5  UNL     1     -23.192  17.899  12.331  1.00 20.00     0.015 C 
ENDBRANCH   3   6
TORSDOF 1
ENDMDL
MODEL 4
REMARK VINA RESULT:      -3.9     11.561     12.303
REMARK  1 active torsions:
REMARK  status: ('A' for Active; 'I' for Inactive)
REMARK    1  A    between atoms: C3_3  and  C6_6 
ROOT
HETATM    1  C1  UNL     1     -34.840  13.622  -3.888  1.00 20.00     0.131 A 
HETATM    2  C2  UNL     1     -36.850  13.940  -4.701  1.00 20.00     0.166 A 
HETATM    3  C3  UNL     1     -35.044  14.909  -3.437  1.00 20.00     0.005 A 
HETATM    4  N7  UNL     1     -35.874  13.064  -4.613  1.00 20.00    -0.265 NA
HETATM    5  S8  UNL     1     -36.592  15.454  -3.937  1.00 20.00    -0.085 SA
ENDROOT
BRANCH   3   6
HETATM    6  C6  UNL     1     -34.133  15.809  -2.624  1.00 20.00     0.019 C 
HETATM    7  C4  UNL     1     -34.921  16.636  -1.605  1.00 20.00     0.015 C 
HETATM    8  C5  UNL     1     -33.288  16.715  -3.523  1.00 20.00     0.015 C 
ENDBRANCH   3   6
TORSDOF 1
ENDMDL
MODEL 5
REMARK VINA RESULT:      -3.9     12.331     12.933
REMARK  1 active torsions:
REMARK  status: ('A' for Active; 'I' for Inactive)
REMARK    1  A    between atoms: C3_3  and  C6_6 
ROOT
HETATM    1  C1  UNL     1     -35.648  13.897  -4.321  1.00 20.00     0.131 A 
HETATM    2  C2  UNL     1     -35.646  14.638  -6.384  1.00 20.00     0.166 A 
HETATM    3  C3  UNL     1     -34.855  15.011  -4.140  1.00 20.00     0.005 A 
HETATM    4  N7  UNL     1     -36.104  13.682  -5.606  1.00 20.00    -0.265 NA
HETATM    5  S8  UNL     1     -34.662  15.828  -5.637  1.00 20.00    -0.085 SA
ENDROOT
BRANCH   3   6
HETATM    6  C6  UNL     1     -34.194  15.540  -2.881  1.00 20.00     0.019 C 
HETATM    7  C4  UNL     1     -35.211  16.202  -1.948  1.00 20.00     0.015 C 
HETATM    8  C5  UNL     1     -33.047  16.499  -3.207  1.00 20.00     0.015 C 
ENDBRANCH   3   6
TORSDOF 1
ENDMDL
MODEL 6
REMARK VINA RESULT:      -3.8      1.311      1.449
REMARK  1 active torsions:
REMARK  status: ('A' for Active; 'I' for Inactive)
REMARK    1  A    between atoms: C3_3  and  C6_6 
ROOT
HETATM    1  C1  UNL     1     -34.838   5.015   4.629  1.00 20.00     0.131 A 
HETATM    2  C2  UNL     1     -34.416   6.287   6.363  1.00 20.00     0.166 A 
HETATM    3  C3  UNL     1     -33.983   5.913   4.024  1.00 20.00     0.005 A 
HETATM    4  N7  UNL     1     -35.086   5.227   5.970  1.00 20.00    -0.265 NA
HETATM    5  S8  UNL     1     -33.466   7.077   5.173  1.00 20.00    -0.085 SA
ENDROOT
BRANCH   3   6
HETATM    6  C6  UNL     1     -33.499   5.976   2.588  1.00 20.00     0.019 C 
HETATM    7  C4  UNL     1     -33.019   4.609   2.094  1.00 20.00     0.015 C 
HETATM    8  C5  UNL     1     -32.408   7.034   2.407  1.00 20.00     0.015 C 
ENDBRANCH   3   6
TORSDOF 1
ENDMDL
MODEL 7
REMARK VINA RESULT:      -3.8     12.148     12.547
REMARK  1 active torsions:
REMARK  status: ('A' for Active; 'I' for Inactive)
REMARK    1  A    between atoms: C3_3  and  C6_6 
ROOT
HETATM    1  C1  UNL     1     -36.330  13.741  -4.337  1.00 20.00     0.131 A 
HETATM    2  C2  UNL     1     -37.967  15.199  -4.310  1.00 20.00     0.166 A 
HETATM    3  C3  UNL     1     -35.633  14.826  -3.846  1.00 20.00     0.005 A 
HETATM    4  N7  UNL     1     -37.668  13.953  -4.603  1.00 20.00    -0.265 NA
HETATM    5  S8  UNL     1     -36.687  16.173  -3.710  1.00 20.00    -0.085 SA
ENDROOT
BRANCH   3   6
HETATM    6  C6  UNL     1     -34.173  14.945  -3.452  1.00 20.00     0.019 C 
HETATM    7  C4  UNL     1     -33.867  16.309  -2.829  1.00 20.00     0.015 C 
HETATM    8  C5  UNL     1     -33.246  14.667  -4.638  1.00 20.00     0.015 C 
ENDBRANCH   3   6
TORSDOF 1
ENDMDL
MODEL 8
REMARK VINA RESULT:      -3.7     12.368     12.897
REMARK  1 active torsions:
REMARK  status: ('A' for Active; 'I' for Inactive)
REMARK    1  A    between atoms: C3_3  and  C6_6 
ROOT
HETATM    1  C1  UNL     1     -33.923  14.986  -5.067  1.00 20.00     0.131 A 
HETATM    2  C2  UNL     1     -35.956  14.400  -5.642  1.00 20.00     0.166 A 
HETATM    3  C3  UNL     1     -34.575  15.322  -3.898  1.00 20.00     0.005 A 
HETATM    4  N7  UNL     1     -34.713  14.457  -6.068  1.00 20.00    -0.265 NA
HETATM    5  S8  UNL     1     -36.246  14.966  -4.049  1.00 20.00    -0.085 SA
ENDROOT
BRANCH   3   6
HETATM    6  C6  UNL     1     -34.024  15.917  -2.616  1.00 20.00     0.019 C 
HETATM    7  C4  UNL     1     -35.145  16.380  -1.683  1.00 20.00     0.015 C 
HETATM    8  C5  UNL     1     -33.045  17.059  -2.900  1.00 20.00     0.015 C 
ENDBRANCH   3   6
TORSDOF 1
ENDMDL
MODEL 9
REMARK VINA RESULT:      -3.6     12.698     13.427
REMARK  1 active torsions:
REMARK  status: ('A' for Active; 'I' for Inactive)
REMARK    1  A    between atoms: C3_3  and  C6_6 
ROOT
HETATM    1  C1  UNL     1     -33.496  14.656  -4.841  1.00 20.00     0.131 A 
HETATM    2  C2  UNL     1     -34.476  15.759  -6.462  1.00 20.00     0.166 A 
HETATM    3  C3  UNL     1     -33.941  15.740  -4.114  1.00 20.00     0.005 A 
HETATM    4  N7  UNL     1     -33.802  14.664  -6.187  1.00 20.00    -0.265 NA
HETATM    5  S8  UNL     1     -34.776  16.823  -5.150  1.00 20.00    -0.085 SA
ENDROOT
BRANCH   3   6
HETATM    6  C6  UNL     1     -33.784  16.050  -2.637  1.00 20.00     0.019 C 
HETATM    7  C4  UNL     1     -35.141  16.184  -1.942  1.00 20.00     0.015 C 
HETATM    8  C5  UNL     1     -32.931  17.300  -2.411  1.00 20.00     0.015 C 
ENDBRANCH   3   6
TORSDOF 1
ENDMDL
