MODEL 1
REMARK VINA RESULT:      -3.9      0.000      0.000
REMARK  1 active torsions:
REMARK  status: ('A' for Active; 'I' for Inactive)
REMARK    1  A    between atoms: C2_2  and  C6_6 
ROOT
HETATM    1  C1  UNL     1     -23.727  16.532  10.115  1.00 20.00     0.111 C 
HETATM    2  C2  UNL     1     -23.818  18.053  10.009  1.00 20.00     0.231 C 
HETATM    3  C3  UNL     1     -24.633  17.825  12.227  1.00 20.00     0.278 C 
HETATM    4  C4  UNL     1     -26.019  18.458  12.262  1.00 20.00     0.054 C 
HETATM    5  N7  UNL     1     -23.721  18.602  11.374  1.00 20.00     0.102 N 
HETATM    6  S8  UNL     1     -24.725  16.134  11.567  1.00 20.00    -0.132 SA
HETATM    7  H21 UNL     1     -22.768  18.452  11.710  1.00 20.00     0.317 HD
ENDROOT
BRANCH   2   8
HETATM    8  C6  UNL     1     -22.708  18.619   9.131  1.00 20.00     0.032 C 
HETATM    9  C5  UNL     1     -22.057  17.558   8.306  1.00 20.00     0.007 C 
ENDBRANCH   2   8
TORSDOF 1
ENDMDL
MODEL 2
REMARK VINA RESULT:      -3.8      1.901      3.903
REMARK  1 active torsions:
REMARK  status: ('A' for Active; 'I' for Inactive)
REMARK    1  A    between atoms: C2_2  and  C6_6 
ROOT
HETATM    1  C1  UNL     1     -24.665  18.087  10.062  1.00 20.00     0.111 C 
HETATM    2  C2  UNL     1     -23.927  16.757  10.199  1.00 20.00     0.231 C 
HETATM    3  C3  UNL     1     -22.142  18.038   9.298  1.00 20.00     0.278 C 
HETATM    4  C4  UNL     1     -21.690  17.341   8.020  1.00 20.00     0.054 C 
HETATM    5  N7  UNL     1     -22.489  17.058  10.338  1.00 20.00     0.102 N 
HETATM    6  S8  UNL     1     -23.606  19.067   8.977  1.00 20.00    -0.132 SA
HETATM    7  H21 UNL     1     -22.343  17.497  11.249  1.00 20.00     0.317 HD
ENDROOT
BRANCH   2   8
HETATM    8  C6  UNL     1     -24.420  15.965  11.404  1.00 20.00     0.032 C 
HETATM    9  C5  UNL     1     -25.527  16.671  12.117  1.00 20.00     0.007 C 
ENDBRANCH   2   8
TORSDOF 1
ENDMDL
MODEL 3
REMARK VINA RESULT:      -3.8      1.616      1.879
REMARK  1 active torsions:
REMARK  status: ('A' for Active; 'I' for Inactive)
REMARK    1  A    between atoms: C2_2  and  C6_6 
ROOT
HETATM    1  C1  UNL     1     -22.673  18.044  10.363  1.00 20.00     0.111 C 
HETATM    2  C2  UNL     1     -24.079  18.252   9.807  1.00 20.00     0.231 C 
HETATM    3  C3  UNL     1     -24.649  18.112  12.108  1.00 20.00     0.278 C 
HETATM    4  C4  UNL     1     -25.646  16.969  12.254  1.00 20.00     0.054 C 
HETATM    5  N7  UNL     1     -24.893  18.869  10.872  1.00 20.00     0.102 N 
HETATM    6  S8  UNL     1     -22.949  17.468  12.052  1.00 20.00    -0.132 SA
HETATM    7  H21 UNL     1     -24.559  19.824  11.013  1.00 20.00     0.317 HD
ENDROOT
BRANCH   2   8
HETATM    8  C6  UNL     1     -24.066  19.141   8.569  1.00 20.00     0.032 C 
HETATM    9  C5  UNL     1     -25.307  18.977   7.755  1.00 20.00     0.007 C 
ENDBRANCH   2   8
TORSDOF 1
ENDMDL
MODEL 4
REMARK VINA RESULT:      -3.4     15.732     16.656
REMARK  1 active torsions:
REMARK  status: ('A' for Active; 'I' for Inactive)
REMARK    1  A    between atoms: C2_2  and  C6_6 
ROOT
HETATM    1  C1  UNL     1     -33.318   7.005   4.980  1.00 20.00     0.111 C 
HETATM    2  C2  UNL     1     -34.167   6.370   3.882  1.00 20.00     0.231 C 
HETATM    3  C3  UNL     1     -32.267   6.907   2.564  1.00 20.00     0.278 C 
HETATM    4  C4  UNL     1     -32.748   7.803   1.429  1.00 20.00     0.054 C 
HETATM    5  N7  UNL     1     -33.248   5.850   2.852  1.00 20.00     0.102 N 
HETATM    6  S8  UNL     1     -32.020   7.880   4.080  1.00 20.00    -0.132 SA
HETATM    7  H21 UNL     1     -32.747   5.052   3.247  1.00 20.00     0.317 HD
ENDROOT
BRANCH   2   8
HETATM    8  C6  UNL     1     -35.037   5.244   4.430  1.00 20.00     0.032 C 
HETATM    9  C5  UNL     1     -34.847   5.060   5.900  1.00 20.00     0.007 C 
ENDBRANCH   2   8
TORSDOF 1
ENDMDL
MODEL 5
REMARK VINA RESULT:      -3.4     18.454     18.996
REMARK  1 active torsions:
REMARK  status: ('A' for Active; 'I' for Inactive)
REMARK    1  A    between atoms: C2_2  and  C6_6 
ROOT
HETATM    1  C1  UNL     1     -35.064  14.789  -3.973  1.00 20.00     0.111 C 
HETATM    2  C2  UNL     1     -33.754  15.509  -4.281  1.00 20.00     0.231 C 
HETATM    3  C3  UNL     1     -34.789  15.779  -6.401  1.00 20.00     0.278 C 
HETATM    4  C4  UNL     1     -33.861  15.154  -7.436  1.00 20.00     0.054 C 
HETATM    5  N7  UNL     1     -34.022  16.479  -5.360  1.00 20.00     0.102 N 
HETATM    6  S8  UNL     1     -35.798  14.498  -5.597  1.00 20.00    -0.132 SA
HETATM    7  H21 UNL     1     -34.609  17.223  -4.979  1.00 20.00     0.317 HD
ENDROOT
BRANCH   2   8
HETATM    8  C6  UNL     1     -33.206  16.225  -3.052  1.00 20.00     0.032 C 
HETATM    9  C5  UNL     1     -34.280  16.517  -2.055  1.00 20.00     0.007 C 
ENDBRANCH   2   8
TORSDOF 1
ENDMDL
MODEL 6
REMARK VINA RESULT:      -3.4     16.098     16.561
REMARK  1 active torsions:
REMARK  status: ('A' for Active; 'I' for Inactive)
REMARK    1  A    between atoms: C2_2  and  C6_6 
ROOT
HETATM    1  C1  UNL     1     -34.299  17.005  -1.712  1.00 20.00     0.111 C 
HETATM    2  C2  UNL     1     -32.907  17.166  -2.315  1.00 20.00     0.231 C 
HETATM    3  C3  UNL     1     -33.905  15.960  -4.100  1.00 20.00     0.278 C 
HETATM    4  C4  UNL     1     -33.072  14.701  -4.312  1.00 20.00     0.054 C 
HETATM    5  N7  UNL     1     -33.047  17.112  -3.783  1.00 20.00     0.102 N 
HETATM    6  S8  UNL     1     -35.072  15.726  -2.726  1.00 20.00    -0.132 SA
HETATM    7  H21 UNL     1     -33.530  17.959  -4.087  1.00 20.00     0.317 HD
ENDROOT
BRANCH   2   8
HETATM    8  C6  UNL     1     -32.264  18.483  -1.895  1.00 20.00     0.032 C 
HETATM    9  C5  UNL     1     -31.449  18.331  -0.652  1.00 20.00     0.007 C 
ENDBRANCH   2   8
TORSDOF 1
ENDMDL
MODEL 7
REMARK VINA RESULT:      -3.4     24.760     25.315
REMARK  1 active torsions:
REMARK  status: ('A' for Active; 'I' for Inactive)
REMARK    1  A    between atoms: C2_2  and  C6_6 
ROOT
HETATM    1  C1  UNL     1     -43.417   4.750   0.110  1.00 20.00     0.111 C 
HETATM    2  C2  UNL     1     -42.962   4.768  -1.347  1.00 20.00     0.231 C 
HETATM    3  C3  UNL     1     -41.190   6.054  -0.429  1.00 20.00     0.278 C 
HETATM    4  C4  UNL     1     -41.185   7.394  -1.155  1.00 20.00     0.054 C 
HETATM    5  N7  UNL     1     -41.499   4.954  -1.355  1.00 20.00     0.102 N 
HETATM    6  S8  UNL     1     -42.440   6.052   0.891  1.00 20.00    -0.132 SA
HETATM    7  H21 UNL     1     -41.069   4.102  -0.990  1.00 20.00     0.317 HD
ENDROOT
BRANCH   2   8
HETATM    8  C6  UNL     1     -43.334   3.476  -2.065  1.00 20.00     0.032 C 
HETATM    9  C5  UNL     1     -42.302   3.084  -3.071  1.00 20.00     0.007 C 
ENDBRANCH   2   8
TORSDOF 1
ENDMDL
MODEL 8
REMARK VINA RESULT:      -3.3     18.648     18.998
REMARK  1 active torsions:
REMARK  status: ('A' for Active; 'I' for Inactive)
REMARK    1  A    between atoms: C2_2  and  C6_6 
ROOT
HETATM    1  C1  UNL     1     -34.251  15.514  -5.718  1.00 20.00     0.111 C 
HETATM    2  C2  UNL     1     -34.503  15.547  -4.213  1.00 20.00     0.231 C 
HETATM    3  C3  UNL     1     -36.137  13.924  -4.787  1.00 20.00     0.278 C 
HETATM    4  C4  UNL     1     -37.483  14.452  -4.302  1.00 20.00     0.054 C 
HETATM    5  N7  UNL     1     -35.071  14.242  -3.826  1.00 20.00     0.102 N 
HETATM    6  S8  UNL     1     -35.701  14.671  -6.386  1.00 20.00    -0.132 SA
HETATM    7  H21 UNL     1     -34.338  13.536  -3.922  1.00 20.00     0.317 HD
ENDROOT
BRANCH   2   8
HETATM    8  C6  UNL     1     -33.218  15.815  -3.437  1.00 20.00     0.032 C 
HETATM    9  C5  UNL     1     -33.423  16.825  -2.355  1.00 20.00     0.007 C 
ENDBRANCH   2   8
TORSDOF 1
ENDMDL
MODEL 9
REMARK VINA RESULT:      -3.3     23.238     23.709
REMARK  1 active torsions:
REMARK  status: ('A' for Active; 'I' for Inactive)
REMARK    1  A    between atoms: C2_2  and  C6_6 
ROOT
HETATM    1  C1  UNL     1     -41.429   7.217  -1.176  1.00 20.00     0.111 C 
HETATM    2  C2  UNL     1     -42.542   7.619  -0.211  1.00 20.00     0.231 C 
HETATM    3  C3  UNL     1     -42.067   5.478   0.700  1.00 20.00     0.278 C 
HETATM    4  C4  UNL     1     -43.364   4.678   0.663  1.00 20.00     0.054 C 
HETATM    5  N7  UNL     1     -42.326   6.883   1.049  1.00 20.00     0.102 N 
HETATM    6  S8  UNL     1     -41.249   5.438  -0.923  1.00 20.00    -0.132 SA
HETATM    7  H21 UNL     1     -41.487   7.258   1.496  1.00 20.00     0.317 HD
ENDROOT
BRANCH   2   8
HETATM    8  C6  UNL     1     -42.543   9.121   0.047  1.00 20.00     0.032 C 
HETATM    9  C5  UNL     1     -41.183   9.622   0.412  1.00 20.00     0.007 C 
ENDBRANCH   2   8
TORSDOF 1
ENDMDL
