MODEL 1
REMARK VINA RESULT:      -3.9      0.000      0.000
REMARK  3 active torsions:
REMARK  status: ('A' for Active; 'I' for Inactive)
REMARK    1  A    between atoms: C4_4  and  C7_7 
REMARK    2  A    between atoms: C7_7  and  O10_10 
REMARK    3  A    between atoms: C8_8  and  O10_10 
ROOT
HETATM    1  C1  UNL     1     -35.518  13.901  -4.259  1.00 20.00     0.071 C 
HETATM    2  C2  UNL     1     -34.929  15.654  -2.546  1.00 20.00     0.028 A 
HETATM    3  C3  UNL     1     -33.733  15.478  -3.435  1.00 20.00     0.028 A 
HETATM    4  C4  UNL     1     -35.121  15.259  -3.994  1.00 20.00     0.070 A 
HETATM    5  N9  UNL     1     -35.838  12.807  -4.473  1.00 20.00    -0.196 NA
ENDROOT
BRANCH   4   6
HETATM    6  C7  UNL     1     -35.673  16.287  -4.939  1.00 20.00     0.192 C 
BRANCH   6   7
HETATM    7  O10 UNL     1     -35.889  15.691  -6.214  1.00 20.00    -0.385 OA
BRANCH   7   8
HETATM    8  C8  UNL     1     -35.011  16.227  -7.193  1.00 20.00     0.113 C 
HETATM    9  C5  UNL     1     -34.477  17.567  -6.707  1.00 20.00     0.039 C 
HETATM   10  C6  UNL     1     -33.892  15.234  -7.460  1.00 20.00     0.039 C 
ENDBRANCH   7   8
ENDBRANCH   6   7
ENDBRANCH   4   6
TORSDOF 3
ENDMDL
MODEL 2
REMARK VINA RESULT:      -3.9      1.958      3.758
REMARK  3 active torsions:
REMARK  status: ('A' for Active; 'I' for Inactive)
REMARK    1  A    between atoms: C4_4  and  C7_7 
REMARK    2  A    between atoms: C7_7  and  O10_10 
REMARK    3  A    between atoms: C8_8  and  O10_10 
ROOT
HETATM    1  C1  UNL     1     -35.470  13.761  -4.206  1.00 20.00     0.071 C 
HETATM    2  C2  UNL     1     -33.126  14.685  -4.285  1.00 20.00     0.028 A 
HETATM    3  C3  UNL     1     -34.016  15.665  -4.992  1.00 20.00     0.028 A 
HETATM    4  C4  UNL     1     -34.570  14.830  -3.859  1.00 20.00     0.070 A 
HETATM    5  N9  UNL     1     -36.195  12.900  -4.486  1.00 20.00    -0.196 NA
ENDROOT
BRANCH   4   6
HETATM    6  C7  UNL     1     -34.856  15.512  -2.551  1.00 20.00     0.192 C 
BRANCH   6   7
HETATM    7  O10 UNL     1     -35.118  16.891  -2.784  1.00 20.00    -0.385 OA
BRANCH   7   8
HETATM    8  C8  UNL     1     -34.555  17.707  -1.767  1.00 20.00     0.113 C 
HETATM    9  C5  UNL     1     -35.106  17.274  -0.416  1.00 20.00     0.039 C 
HETATM   10  C6  UNL     1     -33.039  17.601  -1.822  1.00 20.00     0.039 C 
ENDBRANCH   7   8
ENDBRANCH   6   7
ENDBRANCH   4   6
TORSDOF 3
ENDMDL
MODEL 3
REMARK VINA RESULT:      -3.9      1.866      3.659
REMARK  3 active torsions:
REMARK  status: ('A' for Active; 'I' for Inactive)
REMARK    1  A    between atoms: C4_4  and  C7_7 
REMARK    2  A    between atoms: C7_7  and  O10_10 
REMARK    3  A    between atoms: C8_8  and  O10_10 
ROOT
HETATM    1  C1  UNL     1     -37.056  14.357  -4.638  1.00 20.00     0.071 C 
HETATM    2  C2  UNL     1     -35.436  14.698  -6.539  1.00 20.00     0.028 A 
HETATM    3  C3  UNL     1     -35.741  16.050  -5.964  1.00 20.00     0.028 A 
HETATM    4  C4  UNL     1     -35.767  14.831  -5.069  1.00 20.00     0.070 A 
HETATM    5  N9  UNL     1     -38.095  13.974  -4.291  1.00 20.00    -0.196 NA
ENDROOT
BRANCH   4   6
HETATM    6  C7  UNL     1     -34.653  14.660  -4.075  1.00 20.00     0.192 C 
BRANCH   6   7
HETATM    7  O10 UNL     1     -35.087  15.106  -2.795  1.00 20.00    -0.385 OA
BRANCH   7   8
HETATM    8  C8  UNL     1     -34.673  16.441  -2.543  1.00 20.00     0.113 C 
HETATM    9  C5  UNL     1     -35.030  16.813  -1.111  1.00 20.00     0.039 C 
HETATM   10  C6  UNL     1     -33.181  16.561  -2.804  1.00 20.00     0.039 C 
ENDBRANCH   7   8
ENDBRANCH   6   7
ENDBRANCH   4   6
TORSDOF 3
ENDMDL
MODEL 4
REMARK VINA RESULT:      -3.8      1.863      3.623
REMARK  3 active torsions:
REMARK  status: ('A' for Active; 'I' for Inactive)
REMARK    1  A    between atoms: C4_4  and  C7_7 
REMARK    2  A    between atoms: C7_7  and  O10_10 
REMARK    3  A    between atoms: C8_8  and  O10_10 
ROOT
HETATM    1  C1  UNL     1     -37.087  14.375  -4.619  1.00 20.00     0.071 C 
HETATM    2  C2  UNL     1     -35.419  14.741  -6.475  1.00 20.00     0.028 A 
HETATM    3  C3  UNL     1     -35.754  16.088  -5.902  1.00 20.00     0.028 A 
HETATM    4  C4  UNL     1     -35.792  14.864  -5.013  1.00 20.00     0.070 A 
HETATM    5  N9  UNL     1     -38.130  13.980  -4.302  1.00 20.00    -0.196 NA
ENDROOT
BRANCH   4   6
HETATM    6  C7  UNL     1     -34.704  14.700  -3.991  1.00 20.00     0.192 C 
BRANCH   6   7
HETATM    7  O10 UNL     1     -35.173  15.145  -2.723  1.00 20.00    -0.385 OA
BRANCH   7   8
HETATM    8  C8  UNL     1     -34.387  16.218  -2.225  1.00 20.00     0.113 C 
HETATM    9  C5  UNL     1     -33.125  16.347  -3.067  1.00 20.00     0.039 C 
HETATM   10  C6  UNL     1     -35.211  17.494  -2.241  1.00 20.00     0.039 C 
ENDBRANCH   7   8
ENDBRANCH   6   7
ENDBRANCH   4   6
TORSDOF 3
ENDMDL
MODEL 5
REMARK VINA RESULT:      -3.6      1.668      2.805
REMARK  3 active torsions:
REMARK  status: ('A' for Active; 'I' for Inactive)
REMARK    1  A    between atoms: C4_4  and  C7_7 
REMARK    2  A    between atoms: C7_7  and  O10_10 
REMARK    3  A    between atoms: C8_8  and  O10_10 
ROOT
HETATM    1  C1  UNL     1     -35.369  13.688  -4.168  1.00 20.00     0.071 C 
HETATM    2  C2  UNL     1     -34.961  15.608  -2.586  1.00 20.00     0.028 A 
HETATM    3  C3  UNL     1     -33.785  15.538  -3.516  1.00 20.00     0.028 A 
HETATM    4  C4  UNL     1     -35.151  15.101  -3.999  1.00 20.00     0.070 A 
HETATM    5  N9  UNL     1     -35.546  12.550  -4.304  1.00 20.00    -0.196 NA
ENDROOT
BRANCH   4   6
HETATM    6  C7  UNL     1     -35.872  15.985  -4.976  1.00 20.00     0.192 C 
BRANCH   6   7
HETATM    7  O10 UNL     1     -36.972  15.275  -5.535  1.00 20.00    -0.385 OA
BRANCH   7   8
HETATM    8  C8  UNL     1     -38.211  15.859  -5.160  1.00 20.00     0.113 C 
HETATM    9  C5  UNL     1     -38.916  14.944  -4.168  1.00 20.00     0.039 C 
HETATM   10  C6  UNL     1     -37.959  17.240  -4.576  1.00 20.00     0.039 C 
ENDBRANCH   7   8
ENDBRANCH   6   7
ENDBRANCH   4   6
TORSDOF 3
ENDMDL
MODEL 6
REMARK VINA RESULT:      -3.6      1.465      1.932
REMARK  3 active torsions:
REMARK  status: ('A' for Active; 'I' for Inactive)
REMARK    1  A    between atoms: C4_4  and  C7_7 
REMARK    2  A    between atoms: C7_7  and  O10_10 
REMARK    3  A    between atoms: C8_8  and  O10_10 
ROOT
HETATM    1  C1  UNL     1     -35.506  13.926  -4.255  1.00 20.00     0.071 C 
HETATM    2  C2  UNL     1     -34.994  15.674  -2.512  1.00 20.00     0.028 A 
HETATM    3  C3  UNL     1     -33.760  15.504  -3.350  1.00 20.00     0.028 A 
HETATM    4  C4  UNL     1     -35.123  15.284  -3.968  1.00 20.00     0.070 A 
HETATM    5  N9  UNL     1     -35.814  12.832  -4.486  1.00 20.00    -0.196 NA
ENDROOT
BRANCH   4   6
HETATM    6  C7  UNL     1     -35.638  16.315  -4.932  1.00 20.00     0.192 C 
BRANCH   6   7
HETATM    7  O10 UNL     1     -34.543  16.902  -5.626  1.00 20.00    -0.385 OA
BRANCH   7   8
HETATM    8  C8  UNL     1     -34.643  18.319  -5.651  1.00 20.00     0.113 C 
HETATM    9  C5  UNL     1     -35.997  18.735  -5.094  1.00 20.00     0.039 C 
HETATM   10  C6  UNL     1     -33.495  18.917  -4.854  1.00 20.00     0.039 C 
ENDBRANCH   7   8
ENDBRANCH   6   7
ENDBRANCH   4   6
TORSDOF 3
ENDMDL
MODEL 7
REMARK VINA RESULT:      -3.5      1.909      2.671
REMARK  3 active torsions:
REMARK  status: ('A' for Active; 'I' for Inactive)
REMARK    1  A    between atoms: C4_4  and  C7_7 
REMARK    2  A    between atoms: C7_7  and  O10_10 
REMARK    3  A    between atoms: C8_8  and  O10_10 
ROOT
HETATM    1  C1  UNL     1     -33.495  14.603  -4.126  1.00 20.00     0.071 C 
HETATM    2  C2  UNL     1     -34.421  16.055  -2.284  1.00 20.00     0.028 A 
HETATM    3  C3  UNL     1     -33.187  16.731  -2.808  1.00 20.00     0.028 A 
HETATM    4  C4  UNL     1     -34.029  15.882  -3.735  1.00 20.00     0.070 A 
HETATM    5  N9  UNL     1     -33.065  13.573  -4.440  1.00 20.00    -0.196 NA
ENDROOT
BRANCH   4   6
HETATM    6  C7  UNL     1     -34.854  16.580  -4.778  1.00 20.00     0.192 C 
BRANCH   6   7
HETATM    7  O10 UNL     1     -35.545  15.612  -5.561  1.00 20.00    -0.385 OA
BRANCH   7   8
HETATM    8  C8  UNL     1     -36.943  15.647  -5.316  1.00 20.00     0.113 C 
HETATM    9  C5  UNL     1     -37.315  14.507  -4.379  1.00 20.00     0.039 C 
HETATM   10  C6  UNL     1     -37.317  17.001  -4.735  1.00 20.00     0.039 C 
ENDBRANCH   7   8
ENDBRANCH   6   7
ENDBRANCH   4   6
TORSDOF 3
ENDMDL
MODEL 8
REMARK VINA RESULT:      -3.5      2.126      3.164
REMARK  3 active torsions:
REMARK  status: ('A' for Active; 'I' for Inactive)
REMARK    1  A    between atoms: C4_4  and  C7_7 
REMARK    2  A    between atoms: C7_7  and  O10_10 
REMARK    3  A    between atoms: C8_8  and  O10_10 
ROOT
HETATM    1  C1  UNL     1     -37.518  14.831  -4.153  1.00 20.00     0.071 C 
HETATM    2  C2  UNL     1     -36.968  17.221  -4.737  1.00 20.00     0.028 A 
HETATM    3  C3  UNL     1     -37.738  17.242  -3.449  1.00 20.00     0.028 A 
HETATM    4  C4  UNL     1     -36.860  16.055  -3.779  1.00 20.00     0.070 A 
HETATM    5  N9  UNL     1     -38.048  13.845  -4.456  1.00 20.00    -0.196 NA
ENDROOT
BRANCH   4   6
HETATM    6  C7  UNL     1     -35.579  15.888  -3.011  1.00 20.00     0.192 C 
BRANCH   6   7
HETATM    7  O10 UNL     1     -34.955  14.667  -3.390  1.00 20.00    -0.385 OA
BRANCH   7   8
HETATM    8  C8  UNL     1     -33.667  14.892  -3.946  1.00 20.00     0.113 C 
HETATM    9  C5  UNL     1     -33.775  14.917  -5.464  1.00 20.00     0.039 C 
HETATM   10  C6  UNL     1     -33.105  16.192  -3.397  1.00 20.00     0.039 C 
ENDBRANCH   7   8
ENDBRANCH   6   7
ENDBRANCH   4   6
TORSDOF 3
ENDMDL
MODEL 9
REMARK VINA RESULT:      -3.5      1.511      1.761
REMARK  3 active torsions:
REMARK  status: ('A' for Active; 'I' for Inactive)
REMARK    1  A    between atoms: C4_4  and  C7_7 
REMARK    2  A    between atoms: C7_7  and  O10_10 
REMARK    3  A    between atoms: C8_8  and  O10_10 
ROOT
HETATM    1  C1  UNL     1     -36.949  14.231  -4.531  1.00 20.00     0.071 C 
HETATM    2  C2  UNL     1     -34.905  15.525  -3.820  1.00 20.00     0.028 A 
HETATM    3  C3  UNL     1     -34.525  14.073  -3.856  1.00 20.00     0.028 A 
HETATM    4  C4  UNL     1     -35.583  14.596  -4.803  1.00 20.00     0.070 A 
HETATM    5  N9  UNL     1     -38.049  13.938  -4.312  1.00 20.00    -0.196 NA
ENDROOT
BRANCH   4   6
HETATM    6  C7  UNL     1     -35.229  14.726  -6.257  1.00 20.00     0.192 C 
BRANCH   6   7
HETATM    7  O10 UNL     1     -36.399  15.040  -7.003  1.00 20.00    -0.385 OA
BRANCH   7   8
HETATM    8  C8  UNL     1     -36.277  16.293  -7.659  1.00 20.00     0.113 C 
HETATM    9  C5  UNL     1     -37.005  17.356  -6.849  1.00 20.00     0.039 C 
HETATM   10  C6  UNL     1     -34.804  16.625  -7.835  1.00 20.00     0.039 C 
ENDBRANCH   7   8
ENDBRANCH   6   7
ENDBRANCH   4   6
TORSDOF 3
ENDMDL
