MODEL 1
REMARK VINA RESULT:      -3.6      0.000      0.000
REMARK  1 active torsions:
REMARK  status: ('A' for Active; 'I' for Inactive)
REMARK    1  A    between atoms: C3_3  and  C7_7 
ROOT
HETATM    1  C1  UNL     1     -33.209   6.794   4.958  1.00 20.00     0.284 C 
HETATM    2  C2  UNL     1     -32.999   5.393   2.518  1.00 20.00     0.109 C 
HETATM    3  C3  UNL     1     -33.131   6.917   2.489  1.00 20.00     0.229 C 
HETATM    4  C4  UNL     1     -34.497   5.980   4.796  1.00 20.00     0.071 C 
HETATM    5  C5  UNL     1     -34.924   5.362   6.125  1.00 20.00     0.023 C 
HETATM    6  N8  UNL     1     -32.806   7.548   3.772  1.00 20.00     0.089 N 
HETATM    7  S9  UNL     1     -34.268   4.631   3.579  1.00 20.00    -0.161 SA
HETATM    8  H24 UNL     1     -33.252   8.479   3.810  1.00 20.00     0.316 HD
ENDROOT
BRANCH   3   9
HETATM    9  C7  UNL     1     -32.201   7.510   1.430  1.00 20.00     0.032 C 
HETATM   10  C6  UNL     1     -32.859   8.622   0.684  1.00 20.00     0.007 C 
ENDBRANCH   3   9
TORSDOF 1
ENDMDL
MODEL 2
REMARK VINA RESULT:      -3.5     11.477     12.544
REMARK  1 active torsions:
REMARK  status: ('A' for Active; 'I' for Inactive)
REMARK    1  A    between atoms: C3_3  and  C7_7 
ROOT
HETATM    1  C1  UNL     1     -34.604  16.638  -5.459  1.00 20.00     0.284 C 
HETATM    2  C2  UNL     1     -34.644  15.591  -2.840  1.00 20.00     0.109 C 
HETATM    3  C3  UNL     1     -33.392  16.323  -3.327  1.00 20.00     0.229 C 
HETATM    4  C4  UNL     1     -34.611  15.112  -5.588  1.00 20.00     0.071 C 
HETATM    5  C5  UNL     1     -35.528  14.662  -6.724  1.00 20.00     0.023 C 
HETATM    6  N8  UNL     1     -33.639  17.169  -4.499  1.00 20.00     0.089 N 
HETATM    7  S9  UNL     1     -35.188  14.329  -4.036  1.00 20.00    -0.161 SA
HETATM    8  H24 UNL     1     -32.745  17.330  -4.991  1.00 20.00     0.316 HD
ENDROOT
BRANCH   3   9
HETATM    9  C7  UNL     1     -32.835  17.216  -2.218  1.00 20.00     0.032 C 
HETATM   10  C6  UNL     1     -33.895  17.604  -1.242  1.00 20.00     0.007 C 
ENDBRANCH   3   9
TORSDOF 1
ENDMDL
MODEL 3
REMARK VINA RESULT:      -3.5      9.896     10.305
REMARK  1 active torsions:
REMARK  status: ('A' for Active; 'I' for Inactive)
REMARK    1  A    between atoms: C3_3  and  C7_7 
ROOT
HETATM    1  C1  UNL     1     -40.824   5.759  -0.516  1.00 20.00     0.284 C 
HETATM    2  C2  UNL     1     -43.417   4.672  -0.289  1.00 20.00     0.109 C 
HETATM    3  C3  UNL     1     -42.711   4.626  -1.644  1.00 20.00     0.229 C 
HETATM    4  C4  UNL     1     -41.780   6.930  -0.269  1.00 20.00     0.071 C 
HETATM    5  C5  UNL     1     -41.168   7.942   0.697  1.00 20.00     0.023 C 
HETATM    6  N8  UNL     1     -41.260   4.816  -1.545  1.00 20.00     0.089 N 
HETATM    7  S9  UNL     1     -43.364   6.342   0.438  1.00 20.00    -0.161 SA
HETATM    8  H24 UNL     1     -40.901   5.141  -2.457  1.00 20.00     0.316 HD
ENDROOT
BRANCH   3   9
HETATM    9  C7  UNL     1     -42.958   3.280  -2.326  1.00 20.00     0.032 C 
HETATM   10  C6  UNL     1     -41.944   3.008  -3.387  1.00 20.00     0.007 C 
ENDBRANCH   3   9
TORSDOF 1
ENDMDL
MODEL 4
REMARK VINA RESULT:      -3.4     11.471     11.985
REMARK  1 active torsions:
REMARK  status: ('A' for Active; 'I' for Inactive)
REMARK    1  A    between atoms: C3_3  and  C7_7 
ROOT
HETATM    1  C1  UNL     1     -35.425  17.387  -1.058  1.00 20.00     0.284 C 
HETATM    2  C2  UNL     1     -33.503  17.156  -3.110  1.00 20.00     0.109 C 
HETATM    3  C3  UNL     1     -34.135  15.885  -2.540  1.00 20.00     0.229 C 
HETATM    4  C4  UNL     1     -34.082  17.822  -0.464  1.00 20.00     0.071 C 
HETATM    5  C5  UNL     1     -34.253  19.040   0.440  1.00 20.00     0.023 C 
HETATM    6  N8  UNL     1     -35.385  16.137  -1.817  1.00 20.00     0.089 N 
HETATM    7  S9  UNL     1     -32.891  18.250  -1.789  1.00 20.00    -0.161 SA
HETATM    8  H24 UNL     1     -35.559  15.355  -1.165  1.00 20.00     0.316 HD
ENDROOT
BRANCH   3   9
HETATM    9  C7  UNL     1     -34.439  14.894  -3.664  1.00 20.00     0.032 C 
HETATM   10  C6  UNL     1     -33.209  14.537  -4.429  1.00 20.00     0.007 C 
ENDBRANCH   3   9
TORSDOF 1
ENDMDL
MODEL 5
REMARK VINA RESULT:      -3.3     11.528     12.015
REMARK  1 active torsions:
REMARK  status: ('A' for Active; 'I' for Inactive)
REMARK    1  A    between atoms: C3_3  and  C7_7 
ROOT
HETATM    1  C1  UNL     1     -35.448  16.996  -2.677  1.00 20.00     0.284 C 
HETATM    2  C2  UNL     1     -34.686  15.124  -4.645  1.00 20.00     0.109 C 
HETATM    3  C3  UNL     1     -35.866  14.797  -3.729  1.00 20.00     0.229 C 
HETATM    4  C4  UNL     1     -34.077  16.449  -2.267  1.00 20.00     0.071 C 
HETATM    5  C5  UNL     1     -33.183  17.563  -1.727  1.00 20.00     0.023 C 
HETATM    6  N8  UNL     1     -36.424  15.979  -3.064  1.00 20.00     0.089 N 
HETATM    7  S9  UNL     1     -33.232  15.672  -3.694  1.00 20.00    -0.161 SA
HETATM    8  H24 UNL     1     -36.935  15.678  -2.218  1.00 20.00     0.316 HD
ENDROOT
BRANCH   3   9
HETATM    9  C7  UNL     1     -36.991  14.137  -4.528  1.00 20.00     0.032 C 
HETATM   10  C6  UNL     1     -38.305  14.796  -4.271  1.00 20.00     0.007 C 
ENDBRANCH   3   9
TORSDOF 1
ENDMDL
MODEL 6
REMARK VINA RESULT:      -3.3     11.469     11.920
REMARK  1 active torsions:
REMARK  status: ('A' for Active; 'I' for Inactive)
REMARK    1  A    between atoms: C3_3  and  C7_7 
ROOT
HETATM    1  C1  UNL     1     -35.846  16.761  -2.471  1.00 20.00     0.284 C 
HETATM    2  C2  UNL     1     -34.260  15.524  -4.450  1.00 20.00     0.109 C 
HETATM    3  C3  UNL     1     -35.406  14.733  -3.817  1.00 20.00     0.229 C 
HETATM    4  C4  UNL     1     -34.451  16.566  -1.869  1.00 20.00     0.071 C 
HETATM    5  C5  UNL     1     -34.034  17.785  -1.049  1.00 20.00     0.023 C 
HETATM    6  N8  UNL     1     -36.393  15.585  -3.146  1.00 20.00     0.089 N 
HETATM    7  S9  UNL     1     -33.204  16.301  -3.184  1.00 20.00    -0.161 SA
HETATM    8  H24 UNL     1     -36.907  15.020  -2.451  1.00 20.00     0.316 HD
ENDROOT
BRANCH   3   9
HETATM    9  C7  UNL     1     -36.142  13.920  -4.883  1.00 20.00     0.032 C 
HETATM   10  C6  UNL     1     -35.837  14.415  -6.257  1.00 20.00     0.007 C 
ENDBRANCH   3   9
TORSDOF 1
ENDMDL
MODEL 7
REMARK VINA RESULT:      -3.3     11.661     12.433
REMARK  1 active torsions:
REMARK  status: ('A' for Active; 'I' for Inactive)
REMARK    1  A    between atoms: C3_3  and  C7_7 
ROOT
HETATM    1  C1  UNL     1     -34.231  16.059  -2.345  1.00 20.00     0.284 C 
HETATM    2  C2  UNL     1     -34.931  16.965  -4.923  1.00 20.00     0.109 C 
HETATM    3  C3  UNL     1     -34.593  15.487  -4.723  1.00 20.00     0.229 C 
HETATM    4  C4  UNL     1     -33.098  16.973  -2.820  1.00 20.00     0.071 C 
HETATM    5  C5  UNL     1     -32.601  17.865  -1.685  1.00 20.00     0.023 C 
HETATM    6  N8  UNL     1     -34.668  15.063  -3.322  1.00 20.00     0.089 N 
HETATM    7  S9  UNL     1     -33.659  18.047  -4.194  1.00 20.00    -0.161 SA
HETATM    8  H24 UNL     1     -34.095  14.212  -3.198  1.00 20.00     0.316 HD
ENDROOT
BRANCH   3   9
HETATM    9  C7  UNL     1     -35.554  14.610  -5.527  1.00 20.00     0.032 C 
HETATM   10  C6  UNL     1     -36.304  13.669  -4.645  1.00 20.00     0.007 C 
ENDBRANCH   3   9
TORSDOF 1
ENDMDL
MODEL 8
REMARK VINA RESULT:      -3.3     11.365     12.057
REMARK  1 active torsions:
REMARK  status: ('A' for Active; 'I' for Inactive)
REMARK    1  A    between atoms: C3_3  and  C7_7 
ROOT
HETATM    1  C1  UNL     1     -33.902  14.988  -4.540  1.00 20.00     0.284 C 
HETATM    2  C2  UNL     1     -34.876  17.251  -3.165  1.00 20.00     0.109 C 
HETATM    3  C3  UNL     1     -33.591  16.582  -2.674  1.00 20.00     0.229 C 
HETATM    4  C4  UNL     1     -35.209  14.570  -3.859  1.00 20.00     0.071 C 
HETATM    5  C5  UNL     1     -36.042  13.678  -4.776  1.00 20.00     0.023 C 
HETATM    6  N8  UNL     1     -32.969  15.719  -3.683  1.00 20.00     0.089 N 
HETATM    7  S9  UNL     1     -36.211  16.037  -3.414  1.00 20.00    -0.161 SA
HETATM    8  H24 UNL     1     -32.359  15.034  -3.209  1.00 20.00     0.316 HD
ENDROOT
BRANCH   3   9
HETATM    9  C7  UNL     1     -32.563  17.639  -2.268  1.00 20.00     0.032 C 
HETATM   10  C6  UNL     1     -32.842  18.179  -0.906  1.00 20.00     0.007 C 
ENDBRANCH   3   9
TORSDOF 1
ENDMDL
MODEL 9
REMARK VINA RESULT:      -3.2     11.424     12.261
REMARK  1 active torsions:
REMARK  status: ('A' for Active; 'I' for Inactive)
REMARK    1  A    between atoms: C3_3  and  C7_7 
ROOT
HETATM    1  C1  UNL     1     -36.583  14.920  -4.173  1.00 20.00     0.284 C 
HETATM    2  C2  UNL     1     -34.085  15.508  -3.000  1.00 20.00     0.109 C 
HETATM    3  C3  UNL     1     -35.285  16.400  -2.676  1.00 20.00     0.229 C 
HETATM    4  C4  UNL     1     -35.656  15.382  -5.301  1.00 20.00     0.071 C 
HETATM    5  C5  UNL     1     -35.856  14.534  -6.555  1.00 20.00     0.023 C 
HETATM    6  N8  UNL     1     -36.572  15.768  -2.983  1.00 20.00     0.089 N 
HETATM    7  S9  UNL     1     -33.900  15.260  -4.795  1.00 20.00    -0.161 SA
HETATM    8  H24 UNL     1     -37.287  16.504  -3.101  1.00 20.00     0.316 HD
ENDROOT
BRANCH   3   9
HETATM    9  C7  UNL     1     -35.288  16.767  -1.192  1.00 20.00     0.032 C 
HETATM   10  C6  UNL     1     -34.186  17.716  -0.860  1.00 20.00     0.007 C 
ENDBRANCH   3   9
TORSDOF 1
ENDMDL
