MODEL 1
REMARK VINA RESULT:      -3.6      0.000      0.000
REMARK  1 active torsions:
REMARK  status: ('A' for Active; 'I' for Inactive)
REMARK    1  A    between atoms: C2_2  and  C6_6 
ROOT
HETATM    1  C1  UNL     1     -25.040  18.756   9.919  1.00 20.00     0.111 C 
HETATM    2  C2  UNL     1     -24.111  17.929  10.803  1.00 20.00     0.231 C 
HETATM    3  C3  UNL     1     -22.537  18.666   9.136  1.00 20.00     0.278 C 
HETATM    4  C4  UNL     1     -21.750  17.570   8.428  1.00 20.00     0.054 C 
HETATM    5  N7  UNL     1     -22.719  18.358  10.564  1.00 20.00     0.102 N 
HETATM    6  S8  UNL     1     -24.154  18.924   8.358  1.00 20.00    -0.132 SA
HETATM    7  H21 UNL     1     -22.493  19.184  11.139  1.00 20.00     0.317 HD
ENDROOT
BRANCH   2   8
HETATM    8  C6  UNL     1     -24.283  16.420  10.612  1.00 20.00     0.032 C 
HETATM    9  C5  UNL     1     -24.667  15.739  11.887  1.00 20.00     0.007 C 
ENDBRANCH   2   8
TORSDOF 1
ENDMDL
MODEL 2
REMARK VINA RESULT:      -3.5     23.242     23.809
REMARK  1 active torsions:
REMARK  status: ('A' for Active; 'I' for Inactive)
REMARK    1  A    between atoms: C2_2  and  C6_6 
ROOT
HETATM    1  C1  UNL     1     -42.982   5.673   0.869  1.00 20.00     0.111 C 
HETATM    2  C2  UNL     1     -41.550   5.575   0.350  1.00 20.00     0.231 C 
HETATM    3  C3  UNL     1     -41.671   7.944   0.762  1.00 20.00     0.278 C 
HETATM    4  C4  UNL     1     -41.331   8.847  -0.418  1.00 20.00     0.054 C 
HETATM    5  N7  UNL     1     -40.797   6.761   0.801  1.00 20.00     0.102 N 
HETATM    6  S8  UNL     1     -43.405   7.418   0.709  1.00 20.00    -0.132 SA
HETATM    7  H21 UNL     1     -40.436   6.616   1.756  1.00 20.00     0.317 HD
ENDROOT
BRANCH   2   8
HETATM    8  C6  UNL     1     -41.472   5.393  -1.168  1.00 20.00     0.032 C 
HETATM    9  C5  UNL     1     -42.643   4.628  -1.698  1.00 20.00     0.007 C 
ENDBRANCH   2   8
TORSDOF 1
ENDMDL
MODEL 3
REMARK VINA RESULT:      -3.5     18.095     18.771
REMARK  1 active torsions:
REMARK  status: ('A' for Active; 'I' for Inactive)
REMARK    1  A    between atoms: C2_2  and  C6_6 
ROOT
HETATM    1  C1  UNL     1     -33.901  14.953  -5.411  1.00 20.00     0.111 C 
HETATM    2  C2  UNL     1     -34.147  14.440  -3.994  1.00 20.00     0.231 C 
HETATM    3  C3  UNL     1     -36.272  13.907  -4.994  1.00 20.00     0.278 C 
HETATM    4  C4  UNL     1     -37.502  14.468  -4.291  1.00 20.00     0.054 C 
HETATM    5  N7  UNL     1     -35.255  13.466  -4.026  1.00 20.00     0.102 N 
HETATM    6  S8  UNL     1     -35.548  15.125  -6.125  1.00 20.00    -0.132 SA
HETATM    7  H21 UNL     1     -34.904  12.530  -4.279  1.00 20.00     0.317 HD
ENDROOT
BRANCH   2   8
HETATM    8  C6  UNL     1     -34.403  15.561  -2.984  1.00 20.00     0.032 C 
HETATM    9  C5  UNL     1     -33.241  16.499  -2.889  1.00 20.00     0.007 C 
ENDBRANCH   2   8
TORSDOF 1
ENDMDL
MODEL 4
REMARK VINA RESULT:      -3.4     23.465     24.144
REMARK  1 active torsions:
REMARK  status: ('A' for Active; 'I' for Inactive)
REMARK    1  A    between atoms: C2_2  and  C6_6 
ROOT
HETATM    1  C1  UNL     1     -41.875   5.207  -1.555  1.00 20.00     0.111 C 
HETATM    2  C2  UNL     1     -41.171   6.337  -0.808  1.00 20.00     0.231 C 
HETATM    3  C3  UNL     1     -42.506   5.435   0.982  1.00 20.00     0.278 C 
HETATM    4  C4  UNL     1     -43.417   6.422   1.701  1.00 20.00     0.054 C 
HETATM    5  N7  UNL     1     -41.214   6.050   0.639  1.00 20.00     0.102 N 
HETATM    6  S8  UNL     1     -43.289   4.787  -0.519  1.00 20.00    -0.132 SA
HETATM    7  H21 UNL     1     -40.438   5.424   0.904  1.00 20.00     0.317 HD
ENDROOT
BRANCH   2   8
HETATM    8  C6  UNL     1     -41.743   7.720  -1.132  1.00 20.00     0.032 C 
HETATM    9  C5  UNL     1     -41.279   8.755  -0.157  1.00 20.00     0.007 C 
ENDBRANCH   2   8
TORSDOF 1
ENDMDL
MODEL 5
REMARK VINA RESULT:      -3.4     23.379     23.963
REMARK  1 active torsions:
REMARK  status: ('A' for Active; 'I' for Inactive)
REMARK    1  A    between atoms: C2_2  and  C6_6 
ROOT
HETATM    1  C1  UNL     1     -43.417   6.717   1.381  1.00 20.00     0.111 C 
HETATM    2  C2  UNL     1     -42.843   7.620   0.293  1.00 20.00     0.231 C 
HETATM    3  C3  UNL     1     -42.545   5.476  -0.761  1.00 20.00     0.278 C 
HETATM    4  C4  UNL     1     -41.129   5.145  -1.218  1.00 20.00     0.054 C 
HETATM    5  N7  UNL     1     -42.865   6.894  -0.991  1.00 20.00     0.102 N 
HETATM    6  S8  UNL     1     -42.782   5.075   0.991  1.00 20.00    -0.132 SA
HETATM    7  H21 UNL     1     -43.790   6.983  -1.438  1.00 20.00     0.317 HD
ENDROOT
BRANCH   2   8
HETATM    8  C6  UNL     1     -41.444   8.148   0.625  1.00 20.00     0.032 C 
HETATM    9  C5  UNL     1     -41.309   9.603   0.308  1.00 20.00     0.007 C 
ENDBRANCH   2   8
TORSDOF 1
ENDMDL
MODEL 6
REMARK VINA RESULT:      -3.3      1.664      2.761
REMARK  1 active torsions:
REMARK  status: ('A' for Active; 'I' for Inactive)
REMARK    1  A    between atoms: C2_2  and  C6_6 
ROOT
HETATM    1  C1  UNL     1     -22.284  17.263   9.618  1.00 20.00     0.111 C 
HETATM    2  C2  UNL     1     -23.311  16.778  10.638  1.00 20.00     0.231 C 
HETATM    3  C3  UNL     1     -24.722  18.170   9.270  1.00 20.00     0.278 C 
HETATM    4  C4  UNL     1     -25.497  19.261  10.000  1.00 20.00     0.054 C 
HETATM    5  N7  UNL     1     -24.662  16.932  10.065  1.00 20.00     0.102 N 
HETATM    6  S8  UNL     1     -23.042  18.714   8.864  1.00 20.00    -0.132 SA
HETATM    7  H21 UNL     1     -24.897  16.118   9.476  1.00 20.00     0.317 HD
ENDROOT
BRANCH   2   8
HETATM    8  C6  UNL     1     -23.186  17.475  11.996  1.00 20.00     0.032 C 
HETATM    9  C5  UNL     1     -21.761  17.785  12.332  1.00 20.00     0.007 C 
ENDBRANCH   2   8
TORSDOF 1
ENDMDL
MODEL 7
REMARK VINA RESULT:      -3.3     17.679     18.255
REMARK  1 active torsions:
REMARK  status: ('A' for Active; 'I' for Inactive)
REMARK    1  A    between atoms: C2_2  and  C6_6 
ROOT
HETATM    1  C1  UNL     1     -33.782  17.317  -4.266  1.00 20.00     0.111 C 
HETATM    2  C2  UNL     1     -33.569  15.855  -3.886  1.00 20.00     0.231 C 
HETATM    3  C3  UNL     1     -34.332  15.578  -6.153  1.00 20.00     0.278 C 
HETATM    4  C4  UNL     1     -35.534  14.661  -6.347  1.00 20.00     0.054 C 
HETATM    5  N7  UNL     1     -33.423  15.058  -5.119  1.00 20.00     0.102 N 
HETATM    6  S8  UNL     1     -34.850  17.260  -5.717  1.00 20.00    -0.132 SA
HETATM    7  H21 UNL     1     -32.448  15.088  -5.453  1.00 20.00     0.317 HD
ENDROOT
BRANCH   2   8
HETATM    8  C6  UNL     1     -34.671  15.303  -2.978  1.00 20.00     0.032 C 
HETATM    9  C5  UNL     1     -35.020  16.259  -1.882  1.00 20.00     0.007 C 
ENDBRANCH   2   8
TORSDOF 1
ENDMDL
MODEL 8
REMARK VINA RESULT:      -3.2     18.596     19.279
REMARK  1 active torsions:
REMARK  status: ('A' for Active; 'I' for Inactive)
REMARK    1  A    between atoms: C2_2  and  C6_6 
ROOT
HETATM    1  C1  UNL     1     -35.657  14.393  -5.991  1.00 20.00     0.111 C 
HETATM    2  C2  UNL     1     -34.408  15.107  -6.500  1.00 20.00     0.231 C 
HETATM    3  C3  UNL     1     -33.733  14.676  -4.229  1.00 20.00     0.278 C 
HETATM    4  C4  UNL     1     -33.288  15.890  -3.421  1.00 20.00     0.054 C 
HETATM    5  N7  UNL     1     -33.272  14.763  -5.624  1.00 20.00     0.102 N 
HETATM    6  S8  UNL     1     -35.535  14.487  -4.195  1.00 20.00    -0.132 SA
HETATM    7  H21 UNL     1     -32.850  13.868  -5.917  1.00 20.00     0.317 HD
ENDROOT
BRANCH   2   8
HETATM    8  C6  UNL     1     -34.591  16.622  -6.627  1.00 20.00     0.032 C 
HETATM    9  C5  UNL     1     -34.043  17.142  -7.918  1.00 20.00     0.007 C 
ENDBRANCH   2   8
TORSDOF 1
ENDMDL
MODEL 9
REMARK VINA RESULT:      -3.1     17.391     17.985
REMARK  1 active torsions:
REMARK  status: ('A' for Active; 'I' for Inactive)
REMARK    1  A    between atoms: C2_2  and  C6_6 
ROOT
HETATM    1  C1  UNL     1     -36.754  15.397  -3.827  1.00 20.00     0.111 C 
HETATM    2  C2  UNL     1     -35.674  16.407  -3.450  1.00 20.00     0.231 C 
HETATM    3  C3  UNL     1     -34.430  15.038  -4.992  1.00 20.00     0.278 C 
HETATM    4  C4  UNL     1     -33.128  14.449  -4.464  1.00 20.00     0.054 C 
HETATM    5  N7  UNL     1     -34.637  16.410  -4.499  1.00 20.00     0.102 N 
HETATM    6  S8  UNL     1     -35.851  14.009  -4.538  1.00 20.00    -0.132 SA
HETATM    7  H21 UNL     1     -34.913  17.030  -5.276  1.00 20.00     0.317 HD
ENDROOT
BRANCH   2   8
HETATM    8  C6  UNL     1     -35.078  16.161  -2.061  1.00 20.00     0.032 C 
HETATM    9  C5  UNL     1     -33.885  17.026  -1.806  1.00 20.00     0.007 C 
ENDBRANCH   2   8
TORSDOF 1
ENDMDL
