MODEL 1
REMARK VINA RESULT:      -4.1      0.000      0.000
REMARK  1 active torsions:
REMARK  status: ('A' for Active; 'I' for Inactive)
REMARK    1  A    between atoms: C4_4  and  C7_7 
ROOT
HETATM    1  C1  UNL     1     -23.022  18.805   9.096  1.00 20.00     0.109 C 
HETATM    2  C2  UNL     1     -23.855  16.739  10.739  1.00 20.00     0.109 C 
HETATM    3  C3  UNL     1     -24.507  19.194   9.024  1.00 20.00     0.226 C 
HETATM    4  C4  UNL     1     -24.690  17.962  11.142  1.00 20.00     0.230 C 
HETATM    5  C5  UNL     1     -25.068  18.996   7.611  1.00 20.00     0.043 C 
HETATM    6  N8  UNL     1     -25.394  18.528   9.990  1.00 20.00     0.093 N 
HETATM    7  S9  UNL     1     -22.762  17.020   9.307  1.00 20.00    -0.165 SA
HETATM    8  H24 UNL     1     -26.094  19.201  10.319  1.00 20.00     0.316 HD
ENDROOT
BRANCH   4   9
HETATM    9  C7  UNL     1     -25.729  17.560  12.190  1.00 20.00     0.032 C 
HETATM   10  C6  UNL     1     -26.984  18.355  12.050  1.00 20.00     0.007 C 
ENDBRANCH   4   9
TORSDOF 1
ENDMDL
MODEL 2
REMARK VINA RESULT:      -3.9     15.966     16.663
REMARK  1 active torsions:
REMARK  status: ('A' for Active; 'I' for Inactive)
REMARK    1  A    between atoms: C4_4  and  C7_7 
ROOT
HETATM    1  C1  UNL     1     -35.196   5.363   4.253  1.00 20.00     0.109 C 
HETATM    2  C2  UNL     1     -33.010   5.053   2.584  1.00 20.00     0.109 C 
HETATM    3  C3  UNL     1     -34.467   6.607   4.788  1.00 20.00     0.226 C 
HETATM    4  C4  UNL     1     -33.298   6.560   2.627  1.00 20.00     0.230 C 
HETATM    5  C5  UNL     1     -34.040   6.417   6.248  1.00 20.00     0.043 C 
HETATM    6  N8  UNL     1     -33.308   7.059   4.003  1.00 20.00     0.093 N 
HETATM    7  S9  UNL     1     -34.064   4.060   3.691  1.00 20.00    -0.165 SA
HETATM    8  H24 UNL     1     -33.293   8.085   3.991  1.00 20.00     0.316 HD
ENDROOT
BRANCH   4   9
HETATM    9  C7  UNL     1     -32.220   7.317   1.849  1.00 20.00     0.032 C 
HETATM   10  C6  UNL     1     -32.812   8.382   0.988  1.00 20.00     0.007 C 
ENDBRANCH   4   9
TORSDOF 1
ENDMDL
MODEL 3
REMARK VINA RESULT:      -3.5     16.979     18.600
REMARK  1 active torsions:
REMARK  status: ('A' for Active; 'I' for Inactive)
REMARK    1  A    between atoms: C4_4  and  C7_7 
ROOT
HETATM    1  C1  UNL     1     -35.743  14.703  -6.587  1.00 20.00     0.109 C 
HETATM    2  C2  UNL     1     -35.732  16.243  -4.288  1.00 20.00     0.109 C 
HETATM    3  C3  UNL     1     -34.251  15.058  -6.696  1.00 20.00     0.226 C 
HETATM    4  C4  UNL     1     -34.413  15.458  -4.277  1.00 20.00     0.230 C 
HETATM    5  C5  UNL     1     -33.976  15.942  -7.918  1.00 20.00     0.043 C 
HETATM    6  N8  UNL     1     -33.651  15.681  -5.507  1.00 20.00     0.093 N 
HETATM    7  S9  UNL     1     -36.730  16.005  -5.794  1.00 20.00    -0.165 SA
HETATM    8  H24 UNL     1     -32.699  15.320  -5.385  1.00 20.00     0.316 HD
ENDROOT
BRANCH   4   9
HETATM    9  C7  UNL     1     -33.554  15.901  -3.092  1.00 20.00     0.032 C 
HETATM   10  C6  UNL     1     -34.377  16.552  -2.031  1.00 20.00     0.007 C 
ENDBRANCH   4   9
TORSDOF 1
ENDMDL
MODEL 4
REMARK VINA RESULT:      -3.5     15.419     17.043
REMARK  1 active torsions:
REMARK  status: ('A' for Active; 'I' for Inactive)
REMARK    1  A    between atoms: C4_4  and  C7_7 
ROOT
HETATM    1  C1  UNL     1     -34.963  14.065  -4.167  1.00 20.00     0.109 C 
HETATM    2  C2  UNL     1     -35.218  16.412  -2.722  1.00 20.00     0.109 C 
HETATM    3  C3  UNL     1     -33.744  14.734  -4.822  1.00 20.00     0.226 C 
HETATM    4  C4  UNL     1     -33.712  16.121  -2.794  1.00 20.00     0.230 C 
HETATM    5  C5  UNL     1     -33.991  15.008  -6.310  1.00 20.00     0.043 C 
HETATM    6  N8  UNL     1     -33.267  15.968  -4.180  1.00 20.00     0.093 N 
HETATM    7  S9  UNL     1     -36.249  15.249  -3.675  1.00 20.00    -0.165 SA
HETATM    8  H24 UNL     1     -32.241  15.984  -4.209  1.00 20.00     0.316 HD
ENDROOT
BRANCH   4   9
HETATM    9  C7  UNL     1     -32.930  17.273  -2.161  1.00 20.00     0.032 C 
HETATM   10  C6  UNL     1     -33.693  17.907  -1.046  1.00 20.00     0.007 C 
ENDBRANCH   4   9
TORSDOF 1
ENDMDL
MODEL 5
REMARK VINA RESULT:      -3.4     14.291     16.051
REMARK  1 active torsions:
REMARK  status: ('A' for Active; 'I' for Inactive)
REMARK    1  A    between atoms: C4_4  and  C7_7 
ROOT
HETATM    1  C1  UNL     1     -34.286  18.636  -1.946  1.00 20.00     0.109 C 
HETATM    2  C2  UNL     1     -35.017  15.974  -2.142  1.00 20.00     0.109 C 
HETATM    3  C3  UNL     1     -32.873  18.157  -2.317  1.00 20.00     0.226 C 
HETATM    4  C4  UNL     1     -34.040  16.229  -3.297  1.00 20.00     0.230 C 
HETATM    5  C5  UNL     1     -31.896  18.346  -1.150  1.00 20.00     0.043 C 
HETATM    6  N8  UNL     1     -32.772  16.775  -2.809  1.00 20.00     0.093 N 
HETATM    7  S9  UNL     1     -35.240  17.396  -1.024  1.00 20.00    -0.165 SA
HETATM    8  H24 UNL     1     -32.076  16.739  -3.562  1.00 20.00     0.316 HD
ENDROOT
BRANCH   4   9
HETATM    9  C7  UNL     1     -33.748  14.919  -4.031  1.00 20.00     0.032 C 
HETATM   10  C6  UNL     1     -34.908  13.983  -3.961  1.00 20.00     0.007 C 
ENDBRANCH   4   9
TORSDOF 1
ENDMDL
MODEL 6
REMARK VINA RESULT:      -3.3     16.773     18.387
REMARK  1 active torsions:
REMARK  status: ('A' for Active; 'I' for Inactive)
REMARK    1  A    between atoms: C4_4  and  C7_7 
ROOT
HETATM    1  C1  UNL     1     -35.652  14.545  -6.338  1.00 20.00     0.109 C 
HETATM    2  C2  UNL     1     -34.987  14.595  -3.651  1.00 20.00     0.109 C 
HETATM    3  C3  UNL     1     -35.366  16.056  -6.319  1.00 20.00     0.226 C 
HETATM    4  C4  UNL     1     -33.993  15.533  -4.350  1.00 20.00     0.230 C 
HETATM    5  C5  UNL     1     -36.645  16.868  -6.556  1.00 20.00     0.043 C 
HETATM    6  N8  UNL     1     -34.688  16.567  -5.118  1.00 20.00     0.093 N 
HETATM    7  S9  UNL     1     -36.273  13.918  -4.751  1.00 20.00    -0.165 SA
HETATM    8  H24 UNL     1     -34.016  17.290  -5.397  1.00 20.00     0.316 HD
ENDROOT
BRANCH   4   9
HETATM    9  C7  UNL     1     -33.108  16.221  -3.309  1.00 20.00     0.032 C 
HETATM   10  C6  UNL     1     -33.902  16.680  -2.132  1.00 20.00     0.007 C 
ENDBRANCH   4   9
TORSDOF 1
ENDMDL
MODEL 7
REMARK VINA RESULT:      -3.3     14.732     16.190
REMARK  1 active torsions:
REMARK  status: ('A' for Active; 'I' for Inactive)
REMARK    1  A    between atoms: C4_4  and  C7_7 
ROOT
HETATM    1  C1  UNL     1     -34.005  17.960  -0.631  1.00 20.00     0.109 C 
HETATM    2  C2  UNL     1     -33.795  17.233  -3.293  1.00 20.00     0.109 C 
HETATM    3  C3  UNL     1     -35.248  17.056  -0.600  1.00 20.00     0.226 C 
HETATM    4  C4  UNL     1     -34.209  15.962  -2.539  1.00 20.00     0.230 C 
HETATM    5  C5  UNL     1     -36.527  17.873  -0.381  1.00 20.00     0.043 C 
HETATM    6  N8  UNL     1     -35.432  16.178  -1.765  1.00 20.00     0.093 N 
HETATM    7  S9  UNL     1     -33.721  18.728  -2.251  1.00 20.00    -0.165 SA
HETATM    8  H24 UNL     1     -35.795  15.272  -1.446  1.00 20.00     0.316 HD
ENDROOT
BRANCH   4   9
HETATM    9  C7  UNL     1     -34.463  14.828  -3.533  1.00 20.00     0.032 C 
HETATM   10  C6  UNL     1     -33.275  14.586  -4.404  1.00 20.00     0.007 C 
ENDBRANCH   4   9
TORSDOF 1
ENDMDL
MODEL 8
REMARK VINA RESULT:      -3.3     15.460     16.989
REMARK  1 active torsions:
REMARK  status: ('A' for Active; 'I' for Inactive)
REMARK    1  A    between atoms: C4_4  and  C7_7 
ROOT
HETATM    1  C1  UNL     1     -33.630  17.273  -1.829  1.00 20.00     0.109 C 
HETATM    2  C2  UNL     1     -34.043  16.187  -4.341  1.00 20.00     0.109 C 
HETATM    3  C3  UNL     1     -34.981  16.640  -1.458  1.00 20.00     0.226 C 
HETATM    4  C4  UNL     1     -34.520  15.127  -3.338  1.00 20.00     0.230 C 
HETATM    5  C5  UNL     1     -36.040  17.711  -1.172  1.00 20.00     0.043 C 
HETATM    6  N8  UNL     1     -35.524  15.673  -2.425  1.00 20.00     0.093 N 
HETATM    7  S9  UNL     1     -33.526  17.758  -3.575  1.00 20.00    -0.165 SA
HETATM    8  H24 UNL     1     -35.970  14.904  -1.912  1.00 20.00     0.316 HD
ENDROOT
BRANCH   4   9
HETATM    9  C7  UNL     1     -35.142  13.947  -4.086  1.00 20.00     0.032 C 
HETATM   10  C6  UNL     1     -36.599  14.161  -4.334  1.00 20.00     0.007 C 
ENDBRANCH   4   9
TORSDOF 1
ENDMDL
MODEL 9
REMARK VINA RESULT:      -3.3     16.925     18.472
REMARK  1 active torsions:
REMARK  status: ('A' for Active; 'I' for Inactive)
REMARK    1  A    between atoms: C4_4  and  C7_7 
ROOT
HETATM    1  C1  UNL     1     -36.989  15.881  -5.779  1.00 20.00     0.109 C 
HETATM    2  C2  UNL     1     -34.639  14.978  -4.629  1.00 20.00     0.109 C 
HETATM    3  C3  UNL     1     -37.567  15.844  -4.355  1.00 20.00     0.226 C 
HETATM    4  C4  UNL     1     -35.219  16.011  -3.652  1.00 20.00     0.230 C 
HETATM    5  C5  UNL     1     -38.658  14.775  -4.223  1.00 20.00     0.043 C 
HETATM    6  N8  UNL     1     -36.590  15.670  -3.269  1.00 20.00     0.093 N 
HETATM    7  S9  UNL     1     -35.709  14.625  -6.062  1.00 20.00    -0.165 SA
HETATM    8  H24 UNL     1     -36.872  16.248  -2.470  1.00 20.00     0.316 HD
ENDROOT
BRANCH   4   9
HETATM    9  C7  UNL     1     -34.365  16.062  -2.384  1.00 20.00     0.032 C 
HETATM   10  C6  UNL     1     -35.117  16.657  -1.240  1.00 20.00     0.007 C 
ENDBRANCH   4   9
TORSDOF 1
ENDMDL
