MODEL 1
REMARK VINA RESULT:      -3.9      0.000      0.000
REMARK  0 active torsions:
REMARK  status: ('A' for Active; 'I' for Inactive)
ROOT
HETATM    1  C1  UNL     1     -35.617  13.862  -4.458  1.00 20.00     0.080 C 
HETATM    2  C2  UNL     1     -34.968  15.926  -2.192  1.00 20.00     0.013 C 
HETATM    3  C3  UNL     1     -34.080  15.458  -3.340  1.00 20.00     0.036 C 
HETATM    4  C4  UNL     1     -35.840  17.036  -2.750  1.00 20.00     0.076 C 
HETATM    5  C5  UNL     1     -34.993  15.193  -4.546  1.00 20.00     0.093 C 
HETATM    6  C6  UNL     1     -34.230  15.326  -5.864  1.00 20.00     0.043 C 
HETATM    7  N7  UNL     1     -36.109  12.814  -4.389  1.00 20.00    -0.196 NA
HETATM    8  S8  UNL     1     -36.273  16.501  -4.428  1.00 20.00    -0.144 SA
ENDROOT
TORSDOF 0
ENDMDL
MODEL 2
REMARK VINA RESULT:      -3.9     18.333     19.067
REMARK  0 active torsions:
REMARK  status: ('A' for Active; 'I' for Inactive)
ROOT
HETATM    1  C1  UNL     1     -22.898  17.530  11.868  1.00 20.00     0.080 C 
HETATM    2  C2  UNL     1     -24.405  18.765   9.414  1.00 20.00     0.013 C 
HETATM    3  C3  UNL     1     -24.170  17.296   9.749  1.00 20.00     0.036 C 
HETATM    4  C4  UNL     1     -25.635  19.191  10.195  1.00 20.00     0.076 C 
HETATM    5  C5  UNL     1     -24.199  17.165  11.278  1.00 20.00     0.093 C 
HETATM    6  C6  UNL     1     -24.591  15.753  11.711  1.00 20.00     0.043 C 
HETATM    7  N7  UNL     1     -21.875  17.817  12.332  1.00 20.00    -0.196 NA
HETATM    8  S8  UNL     1     -25.487  18.361  11.801  1.00 20.00    -0.144 SA
ENDROOT
TORSDOF 0
ENDMDL
MODEL 3
REMARK VINA RESULT:      -3.5     11.343     11.889
REMARK  0 active torsions:
REMARK  status: ('A' for Active; 'I' for Inactive)
ROOT
HETATM    1  C1  UNL     1     -42.603   5.559   0.856  1.00 20.00     0.080 C 
HETATM    2  C2  UNL     1     -42.504   8.653   0.375  1.00 20.00     0.013 C 
HETATM    3  C3  UNL     1     -41.380   7.632   0.246  1.00 20.00     0.036 C 
HETATM    4  C4  UNL     1     -43.263   8.623  -0.939  1.00 20.00     0.076 C 
HETATM    5  C5  UNL     1     -42.007   6.323  -0.255  1.00 20.00     0.093 C 
HETATM    6  C6  UNL     1     -40.984   5.459  -0.992  1.00 20.00     0.043 C 
HETATM    7  N7  UNL     1     -43.072   4.958   1.730  1.00 20.00    -0.196 NA
HETATM    8  S8  UNL     1     -43.315   6.874  -1.416  1.00 20.00    -0.144 SA
ENDROOT
TORSDOF 0
ENDMDL
MODEL 4
REMARK VINA RESULT:      -3.5      1.528      2.053
REMARK  0 active torsions:
REMARK  status: ('A' for Active; 'I' for Inactive)
ROOT
HETATM    1  C1  UNL     1     -36.616  14.544  -4.720  1.00 20.00     0.080 C 
HETATM    2  C2  UNL     1     -33.509  14.565  -4.326  1.00 20.00     0.013 C 
HETATM    3  C3  UNL     1     -34.317  14.977  -5.551  1.00 20.00     0.036 C 
HETATM    4  C4  UNL     1     -33.485  15.771  -3.404  1.00 20.00     0.076 C 
HETATM    5  C5  UNL     1     -35.632  15.590  -5.047  1.00 20.00     0.093 C 
HETATM    6  C6  UNL     1     -36.222  16.563  -6.067  1.00 20.00     0.043 C 
HETATM    7  N7  UNL     1     -37.392  13.720  -4.464  1.00 20.00    -0.196 NA
HETATM    8  S8  UNL     1     -35.144  16.494  -3.528  1.00 20.00    -0.144 SA
ENDROOT
TORSDOF 0
ENDMDL
MODEL 5
REMARK VINA RESULT:      -3.5      1.702      2.516
REMARK  0 active torsions:
REMARK  status: ('A' for Active; 'I' for Inactive)
ROOT
HETATM    1  C1  UNL     1     -35.724  13.895  -4.299  1.00 20.00     0.080 C 
HETATM    2  C2  UNL     1     -37.419  16.300  -5.374  1.00 20.00     0.013 C 
HETATM    3  C3  UNL     1     -36.971  16.012  -3.946  1.00 20.00     0.036 C 
HETATM    4  C4  UNL     1     -36.259  17.007  -6.052  1.00 20.00     0.076 C 
HETATM    5  C5  UNL     1     -35.594  15.337  -4.025  1.00 20.00     0.093 C 
HETATM    6  C6  UNL     1     -34.790  15.555  -2.744  1.00 20.00     0.043 C 
HETATM    7  N7  UNL     1     -35.826  12.760  -4.514  1.00 20.00    -0.196 NA
HETATM    8  S8  UNL     1     -34.771  16.175  -5.433  1.00 20.00    -0.144 SA
ENDROOT
TORSDOF 0
ENDMDL
MODEL 6
REMARK VINA RESULT:      -3.4     18.699     19.295
REMARK  0 active torsions:
REMARK  status: ('A' for Active; 'I' for Inactive)
ROOT
HETATM    1  C1  UNL     1     -22.949  16.958  10.039  1.00 20.00     0.080 C 
HETATM    2  C2  UNL     1     -25.236  15.808  11.846  1.00 20.00     0.013 C 
HETATM    3  C3  UNL     1     -23.761  16.000  12.181  1.00 20.00     0.036 C 
HETATM    4  C4  UNL     1     -25.910  17.144  12.099  1.00 20.00     0.076 C 
HETATM    5  C5  UNL     1     -23.284  17.259  11.442  1.00 20.00     0.093 C 
HETATM    6  C6  UNL     1     -22.084  17.896  12.141  1.00 20.00     0.043 C 
HETATM    7  N7  UNL     1     -22.686  16.722   8.935  1.00 20.00    -0.196 NA
HETATM    8  S8  UNL     1     -24.726  18.390  11.519  1.00 20.00    -0.144 SA
ENDROOT
TORSDOF 0
ENDMDL
MODEL 7
REMARK VINA RESULT:      -3.3      1.997      2.592
REMARK  0 active torsions:
REMARK  status: ('A' for Active; 'I' for Inactive)
ROOT
HETATM    1  C1  UNL     1     -34.012  15.077  -5.943  1.00 20.00     0.080 C 
HETATM    2  C2  UNL     1     -36.478  13.781  -4.509  1.00 20.00     0.013 C 
HETATM    3  C3  UNL     1     -35.036  13.881  -4.024  1.00 20.00     0.036 C 
HETATM    4  C4  UNL     1     -37.144  15.096  -4.145  1.00 20.00     0.076 C 
HETATM    5  C5  UNL     1     -34.467  15.207  -4.547  1.00 20.00     0.093 C 
HETATM    6  C6  UNL     1     -33.323  15.710  -3.669  1.00 20.00     0.043 C 
HETATM    7  N7  UNL     1     -33.653  14.975  -7.041  1.00 20.00    -0.196 NA
HETATM    8  S8  UNL     1     -35.886  16.366  -4.452  1.00 20.00    -0.144 SA
ENDROOT
TORSDOF 0
ENDMDL
MODEL 8
REMARK VINA RESULT:      -3.3      1.808      2.353
REMARK  0 active torsions:
REMARK  status: ('A' for Active; 'I' for Inactive)
ROOT
HETATM    1  C1  UNL     1     -33.521  14.622  -4.115  1.00 20.00     0.080 C 
HETATM    2  C2  UNL     1     -36.512  15.499  -3.799  1.00 20.00     0.013 C 
HETATM    3  C3  UNL     1     -35.359  15.670  -2.817  1.00 20.00     0.036 C 
HETATM    4  C4  UNL     1     -36.426  16.665  -4.768  1.00 20.00     0.076 C 
HETATM    5  C5  UNL     1     -34.085  15.899  -3.642  1.00 20.00     0.093 C 
HETATM    6  C6  UNL     1     -33.034  16.670  -2.845  1.00 20.00     0.043 C 
HETATM    7  N7  UNL     1     -33.077  13.617  -4.487  1.00 20.00    -0.196 NA
HETATM    8  S8  UNL     1     -34.654  16.904  -5.066  1.00 20.00    -0.144 SA
ENDROOT
TORSDOF 0
ENDMDL
MODEL 9
REMARK VINA RESULT:      -3.3     17.537     18.430
REMARK  0 active torsions:
REMARK  status: ('A' for Active; 'I' for Inactive)
ROOT
HETATM    1  C1  UNL     1     -22.087  17.210   7.706  1.00 20.00     0.080 C 
HETATM    2  C2  UNL     1     -21.678  18.023  10.703  1.00 20.00     0.013 C 
HETATM    3  C3  UNL     1     -22.195  18.871   9.548  1.00 20.00     0.036 C 
HETATM    4  C4  UNL     1     -22.869  17.245  11.231  1.00 20.00     0.076 C 
HETATM    5  C5  UNL     1     -22.986  17.941   8.616  1.00 20.00     0.093 C 
HETATM    6  C6  UNL     1     -24.030  18.713   7.810  1.00 20.00     0.043 C 
HETATM    7  N7  UNL     1     -21.379  16.635   6.989  1.00 20.00    -0.196 NA
HETATM    8  S8  UNL     1     -23.816  16.771   9.759  1.00 20.00    -0.144 SA
ENDROOT
TORSDOF 0
ENDMDL
