MODEL 1
REMARK VINA RESULT:      -3.9      0.000      0.000
REMARK  3 active torsions:
REMARK  status: ('A' for Active; 'I' for Inactive)
REMARK    1  A    between atoms: C3_3  and  C6_6 
REMARK    2  A    between atoms: C6_6  and  C8_8 
REMARK    3  A    between atoms: C7_7  and  C8_8 
ROOT
HETATM    1  C1  UNL     1     -23.564  16.541  10.001  1.00 20.00     0.111 C 
HETATM    2  C2  UNL     1     -23.535  18.068   9.966  1.00 20.00     0.227 C 
HETATM    3  C3  UNL     1     -24.273  17.803  12.206  1.00 20.00     0.282 C 
HETATM    4  C4  UNL     1     -22.421  18.584   9.062  1.00 20.00     0.043 C 
HETATM    5  N9  UNL     1     -23.337  18.543  11.348  1.00 20.00     0.102 N 
HETATM    6  S10 UNL     1     -24.530  16.157  11.478  1.00 20.00    -0.132 SA
HETATM    7  H27 UNL     1     -22.387  18.301  11.633  1.00 20.00     0.317 HD
ENDROOT
BRANCH   3   8
HETATM    8  C6  UNL     1     -25.600  18.542  12.332  1.00 20.00     0.046 C 
BRANCH   8   9
HETATM    9  C8  UNL     1     -26.779  17.572  12.330  1.00 20.00     0.002 C 
BRANCH   9  10
HETATM   10  C7  UNL     1     -28.085  18.290  11.995  1.00 20.00    -0.004 C 
HETATM   11  C5  UNL     1     -29.239  17.310  11.853  1.00 20.00     0.005 C 
ENDBRANCH   9  10
ENDBRANCH   8   9
ENDBRANCH   3   8
TORSDOF 3
ENDMDL
MODEL 2
REMARK VINA RESULT:      -3.8     18.390     19.288
REMARK  3 active torsions:
REMARK  status: ('A' for Active; 'I' for Inactive)
REMARK    1  A    between atoms: C3_3  and  C6_6 
REMARK    2  A    between atoms: C6_6  and  C8_8 
REMARK    3  A    between atoms: C7_7  and  C8_8 
ROOT
HETATM    1  C1  UNL     1     -36.287  16.345  -6.472  1.00 20.00     0.111 C 
HETATM    2  C2  UNL     1     -35.062  17.153  -6.049  1.00 20.00     0.227 C 
HETATM    3  C3  UNL     1     -34.059  15.002  -6.040  1.00 20.00     0.282 C 
HETATM    4  C4  UNL     1     -35.060  18.539  -6.686  1.00 20.00     0.043 C 
HETATM    5  N9  UNL     1     -33.865  16.397  -6.460  1.00 20.00     0.102 N 
HETATM    6  S10 UNL     1     -35.840  14.638  -6.086  1.00 20.00    -0.132 SA
HETATM    7  H27 UNL     1     -33.812  16.417  -7.480  1.00 20.00     0.317 HD
ENDROOT
BRANCH   3   8
HETATM    8  C6  UNL     1     -33.504  14.771  -4.639  1.00 20.00     0.046 C 
BRANCH   8   9
HETATM    9  C8  UNL     1     -34.626  14.573  -3.623  1.00 20.00     0.002 C 
BRANCH   9  10
HETATM   10  C7  UNL     1     -34.643  15.701  -2.592  1.00 20.00    -0.004 C 
HETATM   11  C5  UNL     1     -33.387  16.553  -2.677  1.00 20.00     0.005 C 
ENDBRANCH   9  10
ENDBRANCH   8   9
ENDBRANCH   3   8
TORSDOF 3
ENDMDL
MODEL 3
REMARK VINA RESULT:      -3.7     15.845     16.782
REMARK  3 active torsions:
REMARK  status: ('A' for Active; 'I' for Inactive)
REMARK    1  A    between atoms: C3_3  and  C6_6 
REMARK    2  A    between atoms: C6_6  and  C8_8 
REMARK    3  A    between atoms: C7_7  and  C8_8 
ROOT
HETATM    1  C1  UNL     1     -34.179   4.215   4.117  1.00 20.00     0.111 C 
HETATM    2  C2  UNL     1     -34.011   5.468   4.975  1.00 20.00     0.227 C 
HETATM    3  C3  UNL     1     -33.664   6.471   2.853  1.00 20.00     0.282 C 
HETATM    4  C4  UNL     1     -34.900   5.421   6.213  1.00 20.00     0.043 C 
HETATM    5  N9  UNL     1     -34.357   6.632   4.139  1.00 20.00     0.102 N 
HETATM    6  S10 UNL     1     -33.507   4.692   2.510  1.00 20.00    -0.132 SA
HETATM    7  H27 UNL     1     -35.362   6.607   3.962  1.00 20.00     0.317 HD
ENDROOT
BRANCH   3   8
HETATM    8  C6  UNL     1     -32.290   7.130   2.886  1.00 20.00     0.046 C 
BRANCH   8   9
HETATM    9  C8  UNL     1     -31.931   7.735   1.531  1.00 20.00     0.002 C 
BRANCH   9  10
HETATM   10  C7  UNL     1     -32.922   8.829   1.135  1.00 20.00    -0.004 C 
HETATM   11  C5  UNL     1     -33.383   8.670  -0.305  1.00 20.00     0.005 C 
ENDBRANCH   9  10
ENDBRANCH   8   9
ENDBRANCH   3   8
TORSDOF 3
ENDMDL
MODEL 4
REMARK VINA RESULT:      -3.7     14.426     15.340
REMARK  3 active torsions:
REMARK  status: ('A' for Active; 'I' for Inactive)
REMARK    1  A    between atoms: C3_3  and  C6_6 
REMARK    2  A    between atoms: C6_6  and  C8_8 
REMARK    3  A    between atoms: C7_7  and  C8_8 
ROOT
HETATM    1  C1  UNL     1     -33.177  18.664   0.790  1.00 20.00     0.111 C 
HETATM    2  C2  UNL     1     -31.854  18.297   0.122  1.00 20.00     0.227 C 
HETATM    3  C3  UNL     1     -33.198  18.386  -1.832  1.00 20.00     0.282 C 
HETATM    4  C4  UNL     1     -30.668  18.908   0.861  1.00 20.00     0.043 C 
HETATM    5  N9  UNL     1     -31.903  18.791  -1.266  1.00 20.00     0.102 N 
HETATM    6  S10 UNL     1     -34.416  18.335  -0.483  1.00 20.00    -0.132 SA
HETATM    7  H27 UNL     1     -31.874  19.811  -1.242  1.00 20.00     0.317 HD
ENDROOT
BRANCH   3   8
HETATM    8  C6  UNL     1     -33.096  17.024  -2.509  1.00 20.00     0.046 C 
BRANCH   8   9
HETATM    9  C8  UNL     1     -34.335  16.175  -2.236  1.00 20.00     0.002 C 
BRANCH   9  10
HETATM   10  C7  UNL     1     -34.547  15.136  -3.336  1.00 20.00    -0.004 C 
HETATM   11  C5  UNL     1     -33.277  14.912  -4.143  1.00 20.00     0.005 C 
ENDBRANCH   9  10
ENDBRANCH   8   9
ENDBRANCH   3   8
TORSDOF 3
ENDMDL
MODEL 5
REMARK VINA RESULT:      -3.6     18.375     19.592
REMARK  3 active torsions:
REMARK  status: ('A' for Active; 'I' for Inactive)
REMARK    1  A    between atoms: C3_3  and  C6_6 
REMARK    2  A    between atoms: C6_6  and  C8_8 
REMARK    3  A    between atoms: C7_7  and  C8_8 
ROOT
HETATM    1  C1  UNL     1     -37.605  14.503  -4.349  1.00 20.00     0.111 C 
HETATM    2  C2  UNL     1     -37.293  15.899  -4.884  1.00 20.00     0.227 C 
HETATM    3  C3  UNL     1     -35.453  14.755  -5.853  1.00 20.00     0.282 C 
HETATM    4  C4  UNL     1     -38.568  16.690  -5.159  1.00 20.00     0.043 C 
HETATM    5  N9  UNL     1     -36.511  15.738  -6.124  1.00 20.00     0.102 N 
HETATM    6  S10 UNL     1     -36.072  13.584  -4.608  1.00 20.00    -0.132 SA
HETATM    7  H27 UNL     1     -37.128  15.350  -6.839  1.00 20.00     0.317 HD
ENDROOT
BRANCH   3   8
HETATM    8  C6  UNL     1     -34.186  15.440  -5.355  1.00 20.00     0.046 C 
BRANCH   8   9
HETATM    9  C8  UNL     1     -33.777  14.921  -3.978  1.00 20.00     0.002 C 
BRANCH   9  10
HETATM   10  C7  UNL     1     -33.660  16.062  -2.969  1.00 20.00    -0.004 C 
HETATM   11  C5  UNL     1     -34.873  16.125  -2.055  1.00 20.00     0.005 C 
ENDBRANCH   9  10
ENDBRANCH   8   9
ENDBRANCH   3   8
TORSDOF 3
ENDMDL
MODEL 6
REMARK VINA RESULT:      -3.5     17.092     18.314
REMARK  3 active torsions:
REMARK  status: ('A' for Active; 'I' for Inactive)
REMARK    1  A    between atoms: C3_3  and  C6_6 
REMARK    2  A    between atoms: C6_6  and  C8_8 
REMARK    3  A    between atoms: C7_7  and  C8_8 
ROOT
HETATM    1  C1  UNL     1     -36.082  14.352  -5.427  1.00 20.00     0.111 C 
HETATM    2  C2  UNL     1     -36.772  14.800  -4.140  1.00 20.00     0.227 C 
HETATM    3  C3  UNL     1     -34.888  16.237  -4.022  1.00 20.00     0.282 C 
HETATM    4  C4  UNL     1     -38.290  14.725  -4.266  1.00 20.00     0.043 C 
HETATM    5  N9  UNL     1     -36.348  16.185  -3.864  1.00 20.00     0.102 N 
HETATM    6  S10 UNL     1     -34.407  15.013  -5.277  1.00 20.00    -0.132 SA
HETATM    7  H27 UNL     1     -36.764  16.791  -4.572  1.00 20.00     0.317 HD
ENDROOT
BRANCH   3   8
HETATM    8  C6  UNL     1     -34.185  15.949  -2.700  1.00 20.00     0.046 C 
BRANCH   8   9
HETATM    9  C8  UNL     1     -34.899  16.625  -1.532  1.00 20.00     0.002 C 
BRANCH   9  10
HETATM   10  C7  UNL     1     -34.055  17.758  -0.950  1.00 20.00    -0.004 C 
HETATM   11  C5  UNL     1     -32.665  17.791  -1.565  1.00 20.00     0.005 C 
ENDBRANCH   9  10
ENDBRANCH   8   9
ENDBRANCH   3   8
TORSDOF 3
ENDMDL
MODEL 7
REMARK VINA RESULT:      -3.5     16.432     17.517
REMARK  3 active torsions:
REMARK  status: ('A' for Active; 'I' for Inactive)
REMARK    1  A    between atoms: C3_3  and  C6_6 
REMARK    2  A    between atoms: C6_6  and  C8_8 
REMARK    3  A    between atoms: C7_7  and  C8_8 
ROOT
HETATM    1  C1  UNL     1     -35.101  15.630  -5.313  1.00 20.00     0.111 C 
HETATM    2  C2  UNL     1     -35.402  14.726  -4.119  1.00 20.00     0.227 C 
HETATM    3  C3  UNL     1     -35.192  16.774  -2.939  1.00 20.00     0.282 C 
HETATM    4  C4  UNL     1     -36.341  13.587  -4.503  1.00 20.00     0.043 C 
HETATM    5  N9  UNL     1     -36.012  15.562  -3.069  1.00 20.00     0.102 N 
HETATM    6  S10 UNL     1     -34.467  17.146  -4.565  1.00 20.00    -0.132 SA
HETATM    7  H27 UNL     1     -36.942  15.842  -3.386  1.00 20.00     0.317 HD
ENDROOT
BRANCH   3   8
HETATM    8  C6  UNL     1     -34.095  16.583  -1.898  1.00 20.00     0.046 C 
BRANCH   8   9
HETATM    9  C8  UNL     1     -32.991  17.626  -2.056  1.00 20.00     0.002 C 
BRANCH   9  10
HETATM   10  C7  UNL     1     -32.649  18.275  -0.716  1.00 20.00    -0.004 C 
HETATM   11  C5  UNL     1     -31.150  18.272  -0.462  1.00 20.00     0.005 C 
ENDBRANCH   9  10
ENDBRANCH   8   9
ENDBRANCH   3   8
TORSDOF 3
ENDMDL
MODEL 8
REMARK VINA RESULT:      -3.4     16.419     17.599
REMARK  3 active torsions:
REMARK  status: ('A' for Active; 'I' for Inactive)
REMARK    1  A    between atoms: C3_3  and  C6_6 
REMARK    2  A    between atoms: C6_6  and  C8_8 
REMARK    3  A    between atoms: C7_7  and  C8_8 
ROOT
HETATM    1  C1  UNL     1     -35.914  17.657  -2.472  1.00 20.00     0.111 C 
HETATM    2  C2  UNL     1     -35.101  16.805  -1.500  1.00 20.00     0.227 C 
HETATM    3  C3  UNL     1     -33.454  17.039  -3.192  1.00 20.00     0.282 C 
HETATM    4  C4  UNL     1     -35.466  17.108  -0.051  1.00 20.00     0.043 C 
HETATM    5  N9  UNL     1     -33.675  17.091  -1.740  1.00 20.00     0.102 N 
HETATM    6  S10 UNL     1     -34.987  17.560  -4.019  1.00 20.00    -0.132 SA
HETATM    7  H27 UNL     1     -33.485  18.044  -1.425  1.00 20.00     0.317 HD
ENDROOT
BRANCH   3   8
HETATM    8  C6  UNL     1     -33.061  15.634  -3.635  1.00 20.00     0.046 C 
BRANCH   8   9
HETATM    9  C8  UNL     1     -34.084  15.053  -4.608  1.00 20.00     0.002 C 
BRANCH   9  10
HETATM   10  C7  UNL     1     -34.855  13.896  -3.973  1.00 20.00    -0.004 C 
HETATM   11  C5  UNL     1     -36.311  13.890  -4.411  1.00 20.00     0.005 C 
ENDBRANCH   9  10
ENDBRANCH   8   9
ENDBRANCH   3   8
TORSDOF 3
ENDMDL
MODEL 9
REMARK VINA RESULT:      -3.4     15.756     16.589
REMARK  3 active torsions:
REMARK  status: ('A' for Active; 'I' for Inactive)
REMARK    1  A    between atoms: C3_3  and  C6_6 
REMARK    2  A    between atoms: C6_6  and  C8_8 
REMARK    3  A    between atoms: C7_7  and  C8_8 
ROOT
HETATM    1  C1  UNL     1     -35.065  16.190  -4.660  1.00 20.00     0.111 C 
HETATM    2  C2  UNL     1     -34.367  17.549  -4.671  1.00 20.00     0.227 C 
HETATM    3  C3  UNL     1     -33.186  16.585  -2.852  1.00 20.00     0.282 C 
HETATM    4  C4  UNL     1     -34.258  18.109  -6.085  1.00 20.00     0.043 C 
HETATM    5  N9  UNL     1     -33.026  17.367  -4.086  1.00 20.00     0.102 N 
HETATM    6  S10 UNL     1     -34.615  15.481  -3.060  1.00 20.00    -0.132 SA
HETATM    7  H27 UNL     1     -32.467  16.816  -4.740  1.00 20.00     0.317 HD
ENDROOT
BRANCH   3   8
HETATM    8  C6  UNL     1     -33.390  17.499  -1.649  1.00 20.00     0.046 C 
BRANCH   8   9
HETATM    9  C8  UNL     1     -32.088  18.187  -1.247  1.00 20.00     0.002 C 
BRANCH   9  10
HETATM   10  C7  UNL     1     -32.078  18.522   0.244  1.00 20.00    -0.004 C 
HETATM   11  C5  UNL     1     -30.701  18.312   0.853  1.00 20.00     0.005 C 
ENDBRANCH   9  10
ENDBRANCH   8   9
ENDBRANCH   3   8
TORSDOF 3
ENDMDL
