MODEL 1
REMARK VINA RESULT:      -4.2      0.000      0.000
REMARK  1 active torsions:
REMARK  status: ('A' for Active; 'I' for Inactive)
REMARK    1  A    between atoms: C3_3  and  C7_7 
ROOT
HETATM    1  C1  UNL     1     -23.663  16.623  10.050  1.00 20.00     0.111 C 
HETATM    2  C2  UNL     1     -23.166  18.042  10.320  1.00 20.00     0.227 C 
HETATM    3  C3  UNL     1     -24.832  17.971  11.989  1.00 20.00     0.285 C 
HETATM    4  C4  UNL     1     -22.678  18.717   9.044  1.00 20.00     0.043 C 
HETATM    5  N8  UNL     1     -24.288  18.798  10.903  1.00 20.00     0.102 N 
HETATM    6  S9  UNL     1     -24.656  16.225  11.506  1.00 20.00    -0.131 SA
HETATM    7  H24 UNL     1     -23.971  19.697  11.261  1.00 20.00     0.317 HD
ENDROOT
BRANCH   3   8
HETATM    8  C7  UNL     1     -26.289  18.311  12.264  1.00 20.00     0.021 C 
HETATM    9  C5  UNL     1     -26.836  19.263  11.198  1.00 20.00     0.012 C 
HETATM   10  C6  UNL     1     -27.141  17.043  12.331  1.00 20.00     0.012 C 
ENDBRANCH   3   8
TORSDOF 1
ENDMDL
MODEL 2
REMARK VINA RESULT:      -4.1     15.768     16.799
REMARK  1 active torsions:
REMARK  status: ('A' for Active; 'I' for Inactive)
REMARK    1  A    between atoms: C3_3  and  C7_7 
ROOT
HETATM    1  C1  UNL     1     -34.043   4.158   4.080  1.00 20.00     0.111 C 
HETATM    2  C2  UNL     1     -34.733   5.427   4.577  1.00 20.00     0.227 C 
HETATM    3  C3  UNL     1     -33.613   6.381   2.731  1.00 20.00     0.285 C 
HETATM    4  C4  UNL     1     -34.900   5.418   6.091  1.00 20.00     0.043 C 
HETATM    5  N8  UNL     1     -33.902   6.571   4.159  1.00 20.00     0.102 N 
HETATM    6  S9  UNL     1     -33.473   4.593   2.422  1.00 20.00    -0.131 SA
HETATM    7  H24 UNL     1     -34.395   7.449   4.312  1.00 20.00     0.317 HD
ENDROOT
BRANCH   3   8
HETATM    8  C7  UNL     1     -32.335   7.101   2.328  1.00 20.00     0.021 C 
HETATM    9  C5  UNL     1     -32.623   8.177   1.279  1.00 20.00     0.012 C 
HETATM   10  C6  UNL     1     -31.650   7.719   3.548  1.00 20.00     0.012 C 
ENDBRANCH   3   8
TORSDOF 1
ENDMDL
MODEL 3
REMARK VINA RESULT:      -4.0     18.541     18.955
REMARK  1 active torsions:
REMARK  status: ('A' for Active; 'I' for Inactive)
REMARK    1  A    between atoms: C3_3  and  C7_7 
ROOT
HETATM    1  C1  UNL     1     -35.778  14.810  -6.387  1.00 20.00     0.111 C 
HETATM    2  C2  UNL     1     -34.285  14.978  -6.665  1.00 20.00     0.227 C 
HETATM    3  C3  UNL     1     -34.140  14.716  -4.325  1.00 20.00     0.285 C 
HETATM    4  C4  UNL     1     -34.038  15.895  -7.857  1.00 20.00     0.043 C 
HETATM    5  N8  UNL     1     -33.671  15.538  -5.449  1.00 20.00     0.102 N 
HETATM    6  S9  UNL     1     -35.837  14.174  -4.697  1.00 20.00    -0.131 SA
HETATM    7  H24 UNL     1     -32.655  15.512  -5.513  1.00 20.00     0.317 HD
ENDROOT
BRANCH   3   8
HETATM    8  C7  UNL     1     -34.095  15.493  -3.018  1.00 20.00     0.021 C 
HETATM    9  C5  UNL     1     -33.097  16.649  -3.106  1.00 20.00     0.012 C 
HETATM   10  C6  UNL     1     -35.484  16.018  -2.649  1.00 20.00     0.012 C 
ENDBRANCH   3   8
TORSDOF 1
ENDMDL
MODEL 4
REMARK VINA RESULT:      -3.8     17.724     18.395
REMARK  1 active torsions:
REMARK  status: ('A' for Active; 'I' for Inactive)
REMARK    1  A    between atoms: C3_3  and  C7_7 
ROOT
HETATM    1  C1  UNL     1     -36.165  13.735  -4.469  1.00 20.00     0.111 C 
HETATM    2  C2  UNL     1     -37.014  15.004  -4.422  1.00 20.00     0.227 C 
HETATM    3  C3  UNL     1     -35.046  15.909  -3.486  1.00 20.00     0.285 C 
HETATM    4  C4  UNL     1     -38.489  14.683  -4.208  1.00 20.00     0.043 C 
HETATM    5  N8  UNL     1     -36.504  15.833  -3.316  1.00 20.00     0.102 N 
HETATM    6  S9  UNL     1     -34.482  14.327  -4.187  1.00 20.00    -0.131 SA
HETATM    7  H24 UNL     1     -36.917  16.764  -3.342  1.00 20.00     0.317 HD
ENDROOT
BRANCH   3   8
HETATM    8  C7  UNL     1     -34.351  16.192  -2.163  1.00 20.00     0.021 C 
HETATM    9  C5  UNL     1     -33.127  17.086  -2.370  1.00 20.00     0.012 C 
HETATM   10  C6  UNL     1     -35.318  16.837  -1.168  1.00 20.00     0.012 C 
ENDBRANCH   3   8
TORSDOF 1
ENDMDL
MODEL 5
REMARK VINA RESULT:      -3.7     18.192     18.633
REMARK  1 active torsions:
REMARK  status: ('A' for Active; 'I' for Inactive)
REMARK    1  A    between atoms: C3_3  and  C7_7 
ROOT
HETATM    1  C1  UNL     1     -35.557  14.553  -6.047  1.00 20.00     0.111 C 
HETATM    2  C2  UNL     1     -34.129  14.972  -6.393  1.00 20.00     0.227 C 
HETATM    3  C3  UNL     1     -34.041  15.442  -4.082  1.00 20.00     0.285 C 
HETATM    4  C4  UNL     1     -34.038  15.535  -7.806  1.00 20.00     0.043 C 
HETATM    5  N8  UNL     1     -33.717  15.987  -5.408  1.00 20.00     0.102 N 
HETATM    6  S9  UNL     1     -35.552  14.439  -4.244  1.00 20.00    -0.131 SA
HETATM    7  H24 UNL     1     -32.720  16.179  -5.483  1.00 20.00     0.317 HD
ENDROOT
BRANCH   3   8
HETATM    8  C7  UNL     1     -34.237  16.554  -3.063  1.00 20.00     0.021 C 
HETATM    9  C5  UNL     1     -35.118  16.082  -1.905  1.00 20.00     0.012 C 
HETATM   10  C6  UNL     1     -32.890  17.053  -2.537  1.00 20.00     0.012 C 
ENDBRANCH   3   8
TORSDOF 1
ENDMDL
MODEL 6
REMARK VINA RESULT:      -3.7     17.856     18.420
REMARK  1 active torsions:
REMARK  status: ('A' for Active; 'I' for Inactive)
REMARK    1  A    between atoms: C3_3  and  C7_7 
ROOT
HETATM    1  C1  UNL     1     -33.338  16.238  -3.470  1.00 20.00     0.111 C 
HETATM    2  C2  UNL     1     -34.296  16.010  -2.302  1.00 20.00     0.227 C 
HETATM    3  C3  UNL     1     -35.096  14.288  -3.703  1.00 20.00     0.285 C 
HETATM    4  C4  UNL     1     -34.622  17.313  -1.582  1.00 20.00     0.043 C 
HETATM    5  N8  UNL     1     -35.523  15.406  -2.851  1.00 20.00     0.102 N 
HETATM    6  S9  UNL     1     -33.510  14.744  -4.471  1.00 20.00    -0.131 SA
HETATM    7  H24 UNL     1     -36.129  15.075  -2.102  1.00 20.00     0.317 HD
ENDROOT
BRANCH   3   8
HETATM    8  C7  UNL     1     -36.140  13.975  -4.764  1.00 20.00     0.021 C 
HETATM    9  C5  UNL     1     -37.512  14.510  -4.353  1.00 20.00     0.012 C 
HETATM   10  C6  UNL     1     -35.729  14.553  -6.119  1.00 20.00     0.012 C 
ENDBRANCH   3   8
TORSDOF 1
ENDMDL
MODEL 7
REMARK VINA RESULT:      -3.6     18.268     19.065
REMARK  1 active torsions:
REMARK  status: ('A' for Active; 'I' for Inactive)
REMARK    1  A    between atoms: C3_3  and  C7_7 
ROOT
HETATM    1  C1  UNL     1     -38.252  14.664  -4.233  1.00 20.00     0.111 C 
HETATM    2  C2  UNL     1     -38.259  16.180  -4.047  1.00 20.00     0.227 C 
HETATM    3  C3  UNL     1     -35.942  15.840  -3.756  1.00 20.00     0.285 C 
HETATM    4  C4  UNL     1     -39.559  16.661  -3.414  1.00 20.00     0.043 C 
HETATM    5  N8  UNL     1     -37.112  16.524  -3.188  1.00 20.00     0.102 N 
HETATM    6  S9  UNL     1     -36.506  14.262  -4.467  1.00 20.00    -0.131 SA
HETATM    7  H24 UNL     1     -36.965  17.531  -3.168  1.00 20.00     0.317 HD
ENDROOT
BRANCH   3   8
HETATM    8  C7  UNL     1     -34.874  15.605  -2.698  1.00 20.00     0.021 C 
HETATM    9  C5  UNL     1     -33.475  15.815  -3.280  1.00 20.00     0.012 C 
HETATM   10  C6  UNL     1     -35.091  16.522  -1.493  1.00 20.00     0.012 C 
ENDBRANCH   3   8
TORSDOF 1
ENDMDL
MODEL 8
REMARK VINA RESULT:      -3.5     18.280     18.749
REMARK  1 active torsions:
REMARK  status: ('A' for Active; 'I' for Inactive)
REMARK    1  A    between atoms: C3_3  and  C7_7 
ROOT
HETATM    1  C1  UNL     1     -34.904  17.065  -6.348  1.00 20.00     0.111 C 
HETATM    2  C2  UNL     1     -34.753  15.550  -6.478  1.00 20.00     0.227 C 
HETATM    3  C3  UNL     1     -35.047  15.636  -4.138  1.00 20.00     0.285 C 
HETATM    4  C4  UNL     1     -33.823  15.177  -7.626  1.00 20.00     0.043 C 
HETATM    5  N8  UNL     1     -34.216  15.051  -5.200  1.00 20.00     0.102 N 
HETATM    6  S9  UNL     1     -35.561  17.295  -4.681  1.00 20.00    -0.131 SA
HETATM    7  H24 UNL     1     -34.254  14.033  -5.165  1.00 20.00     0.317 HD
ENDROOT
BRANCH   3   8
HETATM    8  C7  UNL     1     -34.286  15.710  -2.822  1.00 20.00     0.021 C 
HETATM    9  C5  UNL     1     -33.002  16.525  -2.980  1.00 20.00     0.012 C 
HETATM   10  C6  UNL     1     -35.163  16.307  -1.720  1.00 20.00     0.012 C 
ENDBRANCH   3   8
TORSDOF 1
ENDMDL
MODEL 9
REMARK VINA RESULT:      -3.5     18.482     19.239
REMARK  1 active torsions:
REMARK  status: ('A' for Active; 'I' for Inactive)
REMARK    1  A    between atoms: C3_3  and  C7_7 
ROOT
HETATM    1  C1  UNL     1     -37.249  16.197  -5.497  1.00 20.00     0.111 C 
HETATM    2  C2  UNL     1     -37.912  15.919  -4.148  1.00 20.00     0.227 C 
HETATM    3  C3  UNL     1     -35.707  16.215  -3.359  1.00 20.00     0.285 C 
HETATM    4  C4  UNL     1     -39.090  14.964  -4.289  1.00 20.00     0.043 C 
HETATM    5  N8  UNL     1     -36.884  15.341  -3.264  1.00 20.00     0.102 N 
HETATM    6  S9  UNL     1     -35.631  16.868  -5.056  1.00 20.00    -0.131 SA
HETATM    7  H24 UNL     1     -37.220  15.293  -2.303  1.00 20.00     0.317 HD
ENDROOT
BRANCH   3   8
HETATM    8  C7  UNL     1     -34.432  15.462  -3.012  1.00 20.00     0.021 C 
HETATM    9  C5  UNL     1     -34.179  14.330  -4.010  1.00 20.00     0.012 C 
HETATM   10  C6  UNL     1     -33.234  16.411  -2.970  1.00 20.00     0.012 C 
ENDBRANCH   3   8
TORSDOF 1
ENDMDL
