MODEL 1
REMARK VINA RESULT:      -4.8      0.000      0.000
REMARK  4 active torsions:
REMARK  status: ('A' for Active; 'I' for Inactive)
REMARK    1  A    between atoms: C1_1  and  C4_4 
REMARK    2  A    between atoms: C1_1  and  O11_11 
REMARK    3  A    between atoms: C5_5  and  C8_8 
REMARK    4  A    between atoms: C8_8  and  C9_9 
ROOT
HETATM    1  C2  UNL     1     -35.442  15.733  -3.006  1.00 20.00     0.019 C 
HETATM    2  C3  UNL     1     -33.800  14.785  -3.978  1.00 20.00     0.019 C 
HETATM    3  C4  UNL     1     -35.219  14.312  -3.577  1.00 20.00     0.086 C 
HETATM    4  C5  UNL     1     -33.904  15.831  -2.840  1.00 20.00    -0.013 C 
ENDROOT
BRANCH   3   5
HETATM    5  C1  UNL     1     -36.108  13.926  -4.703  1.00 20.00     0.262 C 
HETATM    6  O10 UNL     1     -37.288  13.627  -4.573  1.00 20.00    -0.265 OA
BRANCH   5   7
HETATM    7  O11 UNL     1     -35.406  13.960  -5.871  1.00 20.00    -0.326 OA
HETATM    8  C7  UNL     1     -35.886  14.888  -6.850  1.00 20.00     0.213 C 
ENDBRANCH   5   7
ENDBRANCH   3   5
BRANCH   4   9
HETATM    9  C8  UNL     1     -33.278  17.185  -3.104  1.00 20.00     0.004 C 
BRANCH   9  10
HETATM   10  C9  UNL     1     -32.611  17.754  -1.850  1.00 20.00    -0.004 C 
HETATM   11  C6  UNL     1     -33.610  17.945  -0.720  1.00 20.00     0.005 C 
ENDBRANCH   9  10
ENDBRANCH   4   9
TORSDOF 4
ENDMDL
MODEL 2
REMARK VINA RESULT:      -4.8      0.785      1.448
REMARK  4 active torsions:
REMARK  status: ('A' for Active; 'I' for Inactive)
REMARK    1  A    between atoms: C1_1  and  C4_4 
REMARK    2  A    between atoms: C1_1  and  O11_11 
REMARK    3  A    between atoms: C5_5  and  C8_8 
REMARK    4  A    between atoms: C8_8  and  C9_9 
ROOT
HETATM    1  C2  UNL     1     -35.271  15.485  -2.950  1.00 20.00     0.019 C 
HETATM    2  C3  UNL     1     -33.806  14.869  -4.369  1.00 20.00     0.019 C 
HETATM    3  C4  UNL     1     -35.077  14.200  -3.791  1.00 20.00     0.086 C 
HETATM    4  C5  UNL     1     -33.742  15.709  -3.069  1.00 20.00    -0.013 C 
ENDROOT
BRANCH   3   5
HETATM    5  C1  UNL     1     -36.152  13.908  -4.774  1.00 20.00     0.262 C 
HETATM    6  O10 UNL     1     -35.973  13.834  -5.982  1.00 20.00    -0.265 OA
BRANCH   5   7
HETATM    7  O11 UNL     1     -37.336  13.743  -4.119  1.00 20.00    -0.326 OA
HETATM    8  C7  UNL     1     -38.346  14.711  -4.421  1.00 20.00     0.213 C 
ENDBRANCH   5   7
ENDBRANCH   3   5
BRANCH   4   9
HETATM    9  C8  UNL     1     -33.274  17.142  -3.210  1.00 20.00     0.004 C 
BRANCH   9  10
HETATM   10  C9  UNL     1     -32.573  17.637  -1.944  1.00 20.00    -0.004 C 
HETATM   11  C6  UNL     1     -33.570  18.033  -0.867  1.00 20.00     0.005 C 
ENDBRANCH   9  10
ENDBRANCH   4   9
TORSDOF 4
ENDMDL
MODEL 3
REMARK VINA RESULT:      -4.4      1.071      1.285
REMARK  4 active torsions:
REMARK  status: ('A' for Active; 'I' for Inactive)
REMARK    1  A    between atoms: C1_1  and  C4_4 
REMARK    2  A    between atoms: C1_1  and  O11_11 
REMARK    3  A    between atoms: C5_5  and  C8_8 
REMARK    4  A    between atoms: C8_8  and  C9_9 
ROOT
HETATM    1  C2  UNL     1     -35.521  15.551  -3.107  1.00 20.00     0.019 C 
HETATM    2  C3  UNL     1     -33.452  15.530  -3.615  1.00 20.00     0.019 C 
HETATM    3  C4  UNL     1     -34.613  14.528  -3.831  1.00 20.00     0.086 C 
HETATM    4  C5  UNL     1     -34.246  16.080  -2.403  1.00 20.00    -0.013 C 
ENDROOT
BRANCH   3   5
HETATM    5  C1  UNL     1     -34.963  14.248  -5.247  1.00 20.00     0.262 C 
HETATM    6  O10 UNL     1     -36.041  13.796  -5.610  1.00 20.00    -0.265 OA
BRANCH   5   7
HETATM    7  O11 UNL     1     -33.909  14.571  -6.049  1.00 20.00    -0.326 OA
HETATM    8  C7  UNL     1     -34.244  15.272  -7.251  1.00 20.00     0.213 C 
ENDBRANCH   5   7
ENDBRANCH   3   5
BRANCH   4   9
HETATM    9  C8  UNL     1     -34.171  17.573  -2.164  1.00 20.00     0.004 C 
BRANCH   9  10
HETATM   10  C9  UNL     1     -33.432  17.903  -0.866  1.00 20.00    -0.004 C 
HETATM   11  C6  UNL     1     -31.964  18.210  -1.119  1.00 20.00     0.005 C 
ENDBRANCH   9  10
ENDBRANCH   4   9
TORSDOF 4
ENDMDL
MODEL 4
REMARK VINA RESULT:      -4.4      1.277      1.492
REMARK  4 active torsions:
REMARK  status: ('A' for Active; 'I' for Inactive)
REMARK    1  A    between atoms: C1_1  and  C4_4 
REMARK    2  A    between atoms: C1_1  and  O11_11 
REMARK    3  A    between atoms: C5_5  and  C8_8 
REMARK    4  A    between atoms: C8_8  and  C9_9 
ROOT
HETATM    1  C2  UNL     1     -35.629  15.429  -3.199  1.00 20.00     0.019 C 
HETATM    2  C3  UNL     1     -33.537  15.468  -3.603  1.00 20.00     0.019 C 
HETATM    3  C4  UNL     1     -34.668  14.461  -3.931  1.00 20.00     0.086 C 
HETATM    4  C5  UNL     1     -34.400  15.938  -2.405  1.00 20.00    -0.013 C 
ENDROOT
BRANCH   3   5
HETATM    5  C1  UNL     1     -34.943  14.254  -5.376  1.00 20.00     0.262 C 
HETATM    6  O10 UNL     1     -36.009  13.847  -5.818  1.00 20.00    -0.265 OA
BRANCH   5   7
HETATM    7  O11 UNL     1     -33.838  14.584  -6.102  1.00 20.00    -0.326 OA
HETATM    8  C7  UNL     1     -34.092  15.286  -7.323  1.00 20.00     0.213 C 
ENDBRANCH   5   7
ENDBRANCH   3   5
BRANCH   4   9
HETATM    9  C8  UNL     1     -34.364  17.417  -2.083  1.00 20.00     0.004 C 
BRANCH   9  10
HETATM   10  C9  UNL     1     -34.203  17.667  -0.582  1.00 20.00    -0.004 C 
HETATM   11  C6  UNL     1     -35.421  17.202   0.199  1.00 20.00     0.005 C 
ENDBRANCH   9  10
ENDBRANCH   4   9
TORSDOF 4
ENDMDL
MODEL 5
REMARK VINA RESULT:      -4.2      1.263      1.932
REMARK  4 active torsions:
REMARK  status: ('A' for Active; 'I' for Inactive)
REMARK    1  A    between atoms: C1_1  and  C4_4 
REMARK    2  A    between atoms: C1_1  and  O11_11 
REMARK    3  A    between atoms: C5_5  and  C8_8 
REMARK    4  A    between atoms: C8_8  and  C9_9 
ROOT
HETATM    1  C2  UNL     1     -35.333  15.614  -2.922  1.00 20.00     0.019 C 
HETATM    2  C3  UNL     1     -33.307  16.096  -3.373  1.00 20.00     0.019 C 
HETATM    3  C4  UNL     1     -34.231  14.912  -3.752  1.00 20.00     0.086 C 
HETATM    4  C5  UNL     1     -34.197  16.297  -2.120  1.00 20.00    -0.013 C 
ENDROOT
BRANCH   3   5
HETATM    5  C1  UNL     1     -34.517  14.761  -5.201  1.00 20.00     0.262 C 
HETATM    6  O10 UNL     1     -33.659  14.559  -6.051  1.00 20.00    -0.265 OA
BRANCH   5   7
HETATM    7  O11 UNL     1     -35.857  14.881  -5.417  1.00 20.00    -0.326 OA
HETATM    8  C7  UNL     1     -36.228  15.626  -6.581  1.00 20.00     0.213 C 
ENDBRANCH   5   7
ENDBRANCH   3   5
BRANCH   4   9
HETATM    9  C8  UNL     1     -34.438  17.727  -1.682  1.00 20.00     0.004 C 
BRANCH   9  10
HETATM   10  C9  UNL     1     -34.283  17.890  -0.169  1.00 20.00    -0.004 C 
HETATM   11  C6  UNL     1     -35.435  17.248   0.586  1.00 20.00     0.005 C 
ENDBRANCH   9  10
ENDBRANCH   4   9
TORSDOF 4
ENDMDL
MODEL 6
REMARK VINA RESULT:      -4.2      1.243      1.465
REMARK  4 active torsions:
REMARK  status: ('A' for Active; 'I' for Inactive)
REMARK    1  A    between atoms: C1_1  and  C4_4 
REMARK    2  A    between atoms: C1_1  and  O11_11 
REMARK    3  A    between atoms: C5_5  and  C8_8 
REMARK    4  A    between atoms: C8_8  and  C9_9 
ROOT
HETATM    1  C2  UNL     1     -35.149  16.011  -2.312  1.00 20.00     0.019 C 
HETATM    2  C3  UNL     1     -33.377  16.077  -3.494  1.00 20.00     0.019 C 
HETATM    3  C4  UNL     1     -34.430  14.977  -3.212  1.00 20.00     0.086 C 
HETATM    4  C5  UNL     1     -33.776  16.708  -2.136  1.00 20.00    -0.013 C 
ENDROOT
BRANCH   3   5
HETATM    5  C1  UNL     1     -35.200  14.508  -4.392  1.00 20.00     0.262 C 
HETATM    6  O10 UNL     1     -35.588  13.357  -4.543  1.00 20.00    -0.265 OA
BRANCH   5   7
HETATM    7  O11 UNL     1     -35.394  15.547  -5.252  1.00 20.00    -0.326 OA
HETATM    8  C7  UNL     1     -36.728  15.689  -5.753  1.00 20.00     0.213 C 
ENDBRANCH   5   7
ENDBRANCH   3   5
BRANCH   4   9
HETATM    9  C8  UNL     1     -33.785  18.221  -2.068  1.00 20.00     0.004 C 
BRANCH   9  10
HETATM   10  C9  UNL     1     -33.047  18.737  -0.832  1.00 20.00    -0.004 C 
HETATM   11  C6  UNL     1     -31.605  18.257  -0.798  1.00 20.00     0.005 C 
ENDBRANCH   9  10
ENDBRANCH   4   9
TORSDOF 4
ENDMDL
MODEL 7
REMARK VINA RESULT:      -4.1      3.817      6.160
REMARK  4 active torsions:
REMARK  status: ('A' for Active; 'I' for Inactive)
REMARK    1  A    between atoms: C1_1  and  C4_4 
REMARK    2  A    between atoms: C1_1  and  O11_11 
REMARK    3  A    between atoms: C5_5  and  C8_8 
REMARK    4  A    between atoms: C8_8  and  C9_9 
ROOT
HETATM    1  C2  UNL     1     -34.219  17.556  -1.093  1.00 20.00     0.019 C 
HETATM    2  C3  UNL     1     -32.721  17.166  -2.557  1.00 20.00     0.019 C 
HETATM    3  C4  UNL     1     -32.936  18.304  -1.528  1.00 20.00     0.086 C 
HETATM    4  C5  UNL     1     -34.252  16.931  -2.511  1.00 20.00    -0.013 C 
ENDROOT
BRANCH   3   5
HETATM    5  C1  UNL     1     -31.885  18.434  -0.487  1.00 20.00     0.262 C 
HETATM    6  O10 UNL     1     -30.685  18.333  -0.708  1.00 20.00    -0.265 OA
BRANCH   5   7
HETATM    7  O11 UNL     1     -32.467  18.677   0.721  1.00 20.00    -0.326 OA
HETATM    8  C7  UNL     1     -31.735  18.214   1.861  1.00 20.00     0.213 C 
ENDBRANCH   5   7
ENDBRANCH   3   5
BRANCH   4   9
HETATM    9  C8  UNL     1     -34.720  15.495  -2.610  1.00 20.00     0.004 C 
BRANCH   9  10
HETATM   10  C9  UNL     1     -35.891  15.346  -3.584  1.00 20.00    -0.004 C 
HETATM   11  C6  UNL     1     -35.861  14.003  -4.296  1.00 20.00     0.005 C 
ENDBRANCH   9  10
ENDBRANCH   4   9
TORSDOF 4
ENDMDL
MODEL 8
REMARK VINA RESULT:      -4.0      3.145      5.521
REMARK  4 active torsions:
REMARK  status: ('A' for Active; 'I' for Inactive)
REMARK    1  A    between atoms: C1_1  and  C4_4 
REMARK    2  A    between atoms: C1_1  and  O11_11 
REMARK    3  A    between atoms: C5_5  and  C8_8 
REMARK    4  A    between atoms: C8_8  and  C9_9 
ROOT
HETATM    1  C2  UNL     1     -33.420  16.365  -3.638  1.00 20.00     0.019 C 
HETATM    2  C3  UNL     1     -34.384  16.748  -1.777  1.00 20.00     0.019 C 
HETATM    3  C4  UNL     1     -32.955  17.014  -2.312  1.00 20.00     0.086 C 
HETATM    4  C5  UNL     1     -34.479  15.596  -2.810  1.00 20.00    -0.013 C 
ENDROOT
BRANCH   3   5
HETATM    5  C1  UNL     1     -32.560  18.443  -2.401  1.00 20.00     0.262 C 
HETATM    6  O10 UNL     1     -33.111  19.262  -3.124  1.00 20.00    -0.265 OA
BRANCH   5   7
HETATM    7  O11 UNL     1     -31.510  18.678  -1.564  1.00 20.00    -0.326 OA
HETATM    8  C7  UNL     1     -31.858  19.152  -0.259  1.00 20.00     0.213 C 
ENDBRANCH   5   7
ENDBRANCH   3   5
BRANCH   4   9
HETATM    9  C8  UNL     1     -35.829  15.382  -3.463  1.00 20.00     0.004 C 
BRANCH   9  10
HETATM   10  C9  UNL     1     -35.881  14.063  -4.237  1.00 20.00    -0.004 C 
HETATM   11  C6  UNL     1     -35.854  14.293  -5.740  1.00 20.00     0.005 C 
ENDBRANCH   9  10
ENDBRANCH   4   9
TORSDOF 4
ENDMDL
MODEL 9
REMARK VINA RESULT:      -3.9      1.493      1.944
REMARK  4 active torsions:
REMARK  status: ('A' for Active; 'I' for Inactive)
REMARK    1  A    between atoms: C1_1  and  C4_4 
REMARK    2  A    between atoms: C1_1  and  O11_11 
REMARK    3  A    between atoms: C5_5  and  C8_8 
REMARK    4  A    between atoms: C8_8  and  C9_9 
ROOT
HETATM    1  C2  UNL     1     -34.801  16.881  -1.690  1.00 20.00     0.019 C 
HETATM    2  C3  UNL     1     -33.539  16.189  -3.261  1.00 20.00     0.019 C 
HETATM    3  C4  UNL     1     -34.850  15.655  -2.634  1.00 20.00     0.086 C 
HETATM    4  C5  UNL     1     -33.268  16.903  -1.913  1.00 20.00    -0.013 C 
ENDROOT
BRANCH   3   5
HETATM    5  C1  UNL     1     -36.020  15.594  -3.547  1.00 20.00     0.262 C 
HETATM    6  O10 UNL     1     -36.682  16.569  -3.878  1.00 20.00    -0.265 OA
BRANCH   5   7
HETATM    7  O11 UNL     1     -36.223  14.305  -3.942  1.00 20.00    -0.326 OA
HETATM    8  C7  UNL     1     -36.080  14.063  -5.345  1.00 20.00     0.213 C 
ENDBRANCH   5   7
ENDBRANCH   3   5
BRANCH   4   9
HETATM    9  C8  UNL     1     -32.612  18.266  -1.987  1.00 20.00     0.004 C 
BRANCH   9  10
HETATM   10  C9  UNL     1     -31.548  18.443  -0.902  1.00 20.00    -0.004 C 
HETATM   11  C6  UNL     1     -32.166  18.496   0.486  1.00 20.00     0.005 C 
ENDBRANCH   9  10
ENDBRANCH   4   9
TORSDOF 4
ENDMDL
