MODEL 1
REMARK VINA RESULT:      -3.9      0.000      0.000
REMARK  2 active torsions:
REMARK  status: ('A' for Active; 'I' for Inactive)
REMARK    1  A    between atoms: C3_3  and  C6_6 
REMARK    2  A    between atoms: C6_6  and  C7_7 
ROOT
HETATM    1  C1  UNL     1     -24.680  17.594  10.927  1.00 20.00     0.285 C 
HETATM    2  C2  UNL     1     -23.246  17.109  11.138  1.00 20.00     0.073 C 
HETATM    3  C3  UNL     1     -23.669  18.870   9.203  1.00 20.00     0.282 C 
HETATM    4  C4  UNL     1     -22.562  17.766  12.332  1.00 20.00     0.023 C 
HETATM    5  N8  UNL     1     -24.627  18.922  10.311  1.00 20.00     0.098 N 
HETATM    6  S9  UNL     1     -22.417  17.607   9.600  1.00 20.00    -0.128 SA
HETATM    7  H24 UNL     1     -25.556  19.140   9.938  1.00 20.00     0.317 HD
ENDROOT
BRANCH   3   8
HETATM    8  C6  UNL     1     -24.346  18.540   7.875  1.00 20.00     0.046 C 
BRANCH   8   9
HETATM    9  C7  UNL     1     -25.685  19.260   7.739  1.00 20.00    -0.002 C 
HETATM   10  C5  UNL     1     -26.296  19.038   6.364  1.00 20.00     0.005 C 
ENDBRANCH   8   9
ENDBRANCH   3   8
TORSDOF 2
ENDMDL
MODEL 2
REMARK VINA RESULT:      -3.7     15.752     17.224
REMARK  2 active torsions:
REMARK  status: ('A' for Active; 'I' for Inactive)
REMARK    1  A    between atoms: C3_3  and  C6_6 
REMARK    2  A    between atoms: C6_6  and  C7_7 
ROOT
HETATM    1  C1  UNL     1     -33.528  14.388  -4.459  1.00 20.00     0.285 C 
HETATM    2  C2  UNL     1     -34.687  14.900  -5.314  1.00 20.00     0.073 C 
HETATM    3  C3  UNL     1     -33.466  16.646  -3.737  1.00 20.00     0.282 C 
HETATM    4  C4  UNL     1     -34.301  15.121  -6.773  1.00 20.00     0.023 C 
HETATM    5  N8  UNL     1     -32.639  15.516  -4.170  1.00 20.00     0.098 N 
HETATM    6  S9  UNL     1     -35.097  16.489  -4.535  1.00 20.00    -0.128 SA
HETATM    7  H24 UNL     1     -32.016  15.245  -3.404  1.00 20.00     0.317 HD
ENDROOT
BRANCH   3   8
HETATM    8  C6  UNL     1     -33.626  16.689  -2.220  1.00 20.00     0.046 C 
BRANCH   8   9
HETATM    9  C7  UNL     1     -35.064  16.388  -1.803  1.00 20.00    -0.002 C 
HETATM   10  C5  UNL     1     -35.417  17.076  -0.494  1.00 20.00     0.005 C 
ENDBRANCH   8   9
ENDBRANCH   3   8
TORSDOF 2
ENDMDL
MODEL 3
REMARK VINA RESULT:      -3.5     14.446     16.814
REMARK  2 active torsions:
REMARK  status: ('A' for Active; 'I' for Inactive)
REMARK    1  A    between atoms: C3_3  and  C6_6 
REMARK    2  A    between atoms: C6_6  and  C7_7 
ROOT
HETATM    1  C1  UNL     1     -33.526  14.685  -4.604  1.00 20.00     0.285 C 
HETATM    2  C2  UNL     1     -34.708  14.307  -3.712  1.00 20.00     0.073 C 
HETATM    3  C3  UNL     1     -34.196  16.887  -4.033  1.00 20.00     0.282 C 
HETATM    4  C4  UNL     1     -35.945  13.895  -4.501  1.00 20.00     0.023 C 
HETATM    5  N8  UNL     1     -33.769  16.027  -5.140  1.00 20.00     0.098 N 
HETATM    6  S9  UNL     1     -35.038  15.843  -2.800  1.00 20.00    -0.128 SA
HETATM    7  H24 UNL     1     -32.888  16.385  -5.521  1.00 20.00     0.317 HD
ENDROOT
BRANCH   3   8
HETATM    8  C6  UNL     1     -33.019  17.615  -3.388  1.00 20.00     0.046 C 
BRANCH   8   9
HETATM    9  C7  UNL     1     -33.031  17.456  -1.869  1.00 20.00    -0.002 C 
HETATM   10  C5  UNL     1     -31.956  18.310  -1.214  1.00 20.00     0.005 C 
ENDBRANCH   8   9
ENDBRANCH   3   8
TORSDOF 2
ENDMDL
MODEL 4
REMARK VINA RESULT:      -3.5     22.495     24.219
REMARK  2 active torsions:
REMARK  status: ('A' for Active; 'I' for Inactive)
REMARK    1  A    between atoms: C3_3  and  C6_6 
REMARK    2  A    between atoms: C6_6  and  C7_7 
ROOT
HETATM    1  C1  UNL     1     -41.005   6.798   0.336  1.00 20.00     0.285 C 
HETATM    2  C2  UNL     1     -41.425   7.977  -0.540  1.00 20.00     0.073 C 
HETATM    3  C3  UNL     1     -43.299   6.231   0.138  1.00 20.00     0.282 C 
HETATM    4  C4  UNL     1     -41.582   9.277   0.242  1.00 20.00     0.023 C 
HETATM    5  N8  UNL     1     -42.181   6.339   1.080  1.00 20.00     0.098 N 
HETATM    6  S9  UNL     1     -43.036   7.449  -1.192  1.00 20.00    -0.128 SA
HETATM    7  H24 UNL     1     -41.977   5.412   1.463  1.00 20.00     0.317 HD
ENDROOT
BRANCH   3   8
HETATM    8  C6  UNL     1     -43.417   4.828  -0.451  1.00 20.00     0.046 C 
BRANCH   8   9
HETATM    9  C7  UNL     1     -43.410   4.862  -1.977  1.00 20.00    -0.002 C 
HETATM   10  C5  UNL     1     -42.856   3.571  -2.558  1.00 20.00     0.005 C 
ENDBRANCH   8   9
ENDBRANCH   3   8
TORSDOF 2
ENDMDL
MODEL 5
REMARK VINA RESULT:      -3.5     16.466     18.680
REMARK  2 active torsions:
REMARK  status: ('A' for Active; 'I' for Inactive)
REMARK    1  A    between atoms: C3_3  and  C6_6 
REMARK    2  A    between atoms: C6_6  and  C7_7 
ROOT
HETATM    1  C1  UNL     1     -34.087  15.104  -6.636  1.00 20.00     0.285 C 
HETATM    2  C2  UNL     1     -35.550  14.735  -6.877  1.00 20.00     0.073 C 
HETATM    3  C3  UNL     1     -34.958  15.965  -4.605  1.00 20.00     0.282 C 
HETATM    4  C4  UNL     1     -36.254  15.682  -7.842  1.00 20.00     0.023 C 
HETATM    5  N8  UNL     1     -34.049  16.247  -5.719  1.00 20.00     0.098 N 
HETATM    6  S9  UNL     1     -36.285  14.878  -5.222  1.00 20.00    -0.128 SA
HETATM    7  H24 UNL     1     -33.095  16.336  -5.357  1.00 20.00     0.317 HD
ENDROOT
BRANCH   3   8
HETATM    8  C6  UNL     1     -34.239  15.302  -3.433  1.00 20.00     0.046 C 
BRANCH   8   9
HETATM    9  C7  UNL     1     -33.897  16.316  -2.344  1.00 20.00    -0.002 C 
HETATM   10  C5  UNL     1     -35.086  16.575  -1.433  1.00 20.00     0.005 C 
ENDBRANCH   8   9
ENDBRANCH   3   8
TORSDOF 2
ENDMDL
MODEL 6
REMARK VINA RESULT:      -3.5     14.675     17.238
REMARK  2 active torsions:
REMARK  status: ('A' for Active; 'I' for Inactive)
REMARK    1  A    between atoms: C3_3  and  C6_6 
REMARK    2  A    between atoms: C6_6  and  C7_7 
ROOT
HETATM    1  C1  UNL     1     -36.226  16.487  -4.379  1.00 20.00     0.285 C 
HETATM    2  C2  UNL     1     -35.273  15.636  -5.218  1.00 20.00     0.073 C 
HETATM    3  C3  UNL     1     -34.934  15.619  -2.590  1.00 20.00     0.282 C 
HETATM    4  C4  UNL     1     -35.899  14.330  -5.695  1.00 20.00     0.023 C 
HETATM    5  N8  UNL     1     -36.300  15.902  -3.038  1.00 20.00     0.098 N 
HETATM    6  S9  UNL     1     -33.915  15.285  -4.063  1.00 20.00    -0.128 SA
HETATM    7  H24 UNL     1     -36.722  16.593  -2.410  1.00 20.00     0.317 HD
ENDROOT
BRANCH   3   8
HETATM    8  C6  UNL     1     -34.341  16.780  -1.794  1.00 20.00     0.046 C 
BRANCH   8   9
HETATM    9  C7  UNL     1     -32.984  17.202  -2.352  1.00 20.00    -0.002 C 
HETATM   10  C5  UNL     1     -32.254  18.128  -1.392  1.00 20.00     0.005 C 
ENDBRANCH   8   9
ENDBRANCH   3   8
TORSDOF 2
ENDMDL
MODEL 7
REMARK VINA RESULT:      -3.4     14.161     16.264
REMARK  2 active torsions:
REMARK  status: ('A' for Active; 'I' for Inactive)
REMARK    1  A    between atoms: C3_3  and  C6_6 
REMARK    2  A    between atoms: C6_6  and  C7_7 
ROOT
HETATM    1  C1  UNL     1     -33.132  17.934  -3.636  1.00 20.00     0.285 C 
HETATM    2  C2  UNL     1     -33.302  18.522  -2.236  1.00 20.00     0.073 C 
HETATM    3  C3  UNL     1     -33.954  15.976  -2.579  1.00 20.00     0.282 C 
HETATM    4  C4  UNL     1     -31.986  18.650  -1.477  1.00 20.00     0.023 C 
HETATM    5  N8  UNL     1     -32.937  16.488  -3.503  1.00 20.00     0.098 N 
HETATM    6  S9  UNL     1     -34.376  17.311  -1.412  1.00 20.00    -0.128 SA
HETATM    7  H24 UNL     1     -33.077  16.059  -4.423  1.00 20.00     0.317 HD
ENDROOT
BRANCH   3   8
HETATM    8  C6  UNL     1     -35.207  15.503  -3.311  1.00 20.00     0.046 C 
BRANCH   8   9
HETATM    9  C7  UNL     1     -34.983  14.148  -3.978  1.00 20.00    -0.002 C 
HETATM   10  C5  UNL     1     -36.250  13.648  -4.655  1.00 20.00     0.005 C 
ENDBRANCH   8   9
ENDBRANCH   3   8
TORSDOF 2
ENDMDL
MODEL 8
REMARK VINA RESULT:      -3.4     22.167     23.936
REMARK  2 active torsions:
REMARK  status: ('A' for Active; 'I' for Inactive)
REMARK    1  A    between atoms: C3_3  and  C6_6 
REMARK    2  A    between atoms: C6_6  and  C7_7 
ROOT
HETATM    1  C1  UNL     1     -43.315   5.030   0.224  1.00 20.00     0.285 C 
HETATM    2  C2  UNL     1     -43.409   5.284  -1.280  1.00 20.00     0.073 C 
HETATM    3  C3  UNL     1     -41.240   6.151  -0.027  1.00 20.00     0.282 C 
HETATM    4  C4  UNL     1     -43.097   4.048  -2.116  1.00 20.00     0.023 C 
HETATM    5  N8  UNL     1     -41.897   4.998   0.594  1.00 20.00     0.098 N 
HETATM    6  S9  UNL     1     -42.141   6.555  -1.559  1.00 20.00    -0.128 SA
HETATM    7  H24 UNL     1     -41.830   5.084   1.613  1.00 20.00     0.317 HD
ENDROOT
BRANCH   3   8
HETATM    8  C6  UNL     1     -41.212   7.362   0.901  1.00 20.00     0.046 C 
BRANCH   8   9
HETATM    9  C7  UNL     1     -42.024   8.522   0.327  1.00 20.00    -0.002 C 
HETATM   10  C5  UNL     1     -41.241   9.824   0.377  1.00 20.00     0.005 C 
ENDBRANCH   8   9
ENDBRANCH   3   8
TORSDOF 2
ENDMDL
MODEL 9
REMARK VINA RESULT:      -3.3     16.329     18.196
REMARK  2 active torsions:
REMARK  status: ('A' for Active; 'I' for Inactive)
REMARK    1  A    between atoms: C3_3  and  C6_6 
REMARK    2  A    between atoms: C6_6  and  C7_7 
ROOT
HETATM    1  C1  UNL     1     -36.966  16.515  -3.951  1.00 20.00     0.285 C 
HETATM    2  C2  UNL     1     -37.573  15.394  -4.792  1.00 20.00     0.073 C 
HETATM    3  C3  UNL     1     -35.452  14.803  -3.318  1.00 20.00     0.282 C 
HETATM    4  C4  UNL     1     -38.842  14.808  -4.181  1.00 20.00     0.023 C 
HETATM    5  N8  UNL     1     -36.271  15.908  -2.812  1.00 20.00     0.098 N 
HETATM    6  S9  UNL     1     -36.260  14.140  -4.811  1.00 20.00    -0.128 SA
HETATM    7  H24 UNL     1     -35.658  16.615  -2.396  1.00 20.00     0.317 HD
ENDROOT
BRANCH   3   8
HETATM    8  C6  UNL     1     -34.029  15.249  -3.646  1.00 20.00     0.046 C 
BRANCH   8   9
HETATM    9  C7  UNL     1     -33.529  16.291  -2.648  1.00 20.00    -0.002 C 
HETATM   10  C5  UNL     1     -33.011  17.533  -3.357  1.00 20.00     0.005 C 
ENDBRANCH   8   9
ENDBRANCH   3   8
TORSDOF 2
ENDMDL
