MODEL 1
REMARK VINA RESULT:      -3.8      0.000      0.000
REMARK  3 active torsions:
REMARK  status: ('A' for Active; 'I' for Inactive)
REMARK    1  A    between atoms: C3_3  and  C6_6 
REMARK    2  A    between atoms: C6_6  and  C8_8 
REMARK    3  A    between atoms: C7_7  and  C8_8 
ROOT
HETATM    1  C1  UNL     1     -34.146  14.898  -5.951  1.00 20.00     0.285 C 
HETATM    2  C2  UNL     1     -35.631  15.031  -5.610  1.00 20.00     0.073 C 
HETATM    3  C3  UNL     1     -33.896  16.406  -4.159  1.00 20.00     0.282 C 
HETATM    4  C4  UNL     1     -36.184  13.824  -4.858  1.00 20.00     0.023 C 
HETATM    5  N9  UNL     1     -33.383  15.159  -4.729  1.00 20.00     0.098 N 
HETATM    6  S10 UNL     1     -35.676  16.500  -4.541  1.00 20.00    -0.128 SA
HETATM    7  H27 UNL     1     -33.543  14.396  -4.072  1.00 20.00     0.317 HD
ENDROOT
BRANCH   3   8
HETATM    8  C6  UNL     1     -33.660  16.436  -2.658  1.00 20.00     0.046 C 
BRANCH   8   9
HETATM    9  C8  UNL     1     -34.929  16.080  -1.886  1.00 20.00     0.002 C 
BRANCH   9  10
HETATM   10  C7  UNL     1     -35.214  17.104  -0.786  1.00 20.00    -0.004 C 
HETATM   11  C5  UNL     1     -33.987  17.949  -0.480  1.00 20.00     0.005 C 
ENDBRANCH   9  10
ENDBRANCH   8   9
ENDBRANCH   3   8
TORSDOF 3
ENDMDL
MODEL 2
REMARK VINA RESULT:      -3.8      2.107      3.226
REMARK  3 active torsions:
REMARK  status: ('A' for Active; 'I' for Inactive)
REMARK    1  A    between atoms: C3_3  and  C6_6 
REMARK    2  A    between atoms: C6_6  and  C8_8 
REMARK    3  A    between atoms: C7_7  and  C8_8 
ROOT
HETATM    1  C1  UNL     1     -38.080  15.372  -4.692  1.00 20.00     0.285 C 
HETATM    2  C2  UNL     1     -37.280  16.153  -5.736  1.00 20.00     0.073 C 
HETATM    3  C3  UNL     1     -36.120  14.069  -4.587  1.00 20.00     0.282 C 
HETATM    4  C4  UNL     1     -36.739  17.478  -5.207  1.00 20.00     0.023 C 
HETATM    5  N9  UNL     1     -37.125  14.752  -3.771  1.00 20.00     0.098 N 
HETATM    6  S10 UNL     1     -35.901  15.032  -6.120  1.00 20.00    -0.128 SA
HETATM    7  H27 UNL     1     -36.675  15.484  -3.223  1.00 20.00     0.317 HD
ENDROOT
BRANCH   3   8
HETATM    8  C6  UNL     1     -34.810  13.956  -3.825  1.00 20.00     0.046 C 
BRANCH   8   9
HETATM    9  C8  UNL     1     -33.715  14.806  -4.468  1.00 20.00     0.002 C 
BRANCH   9  10
HETATM   10  C7  UNL     1     -33.150  15.824  -3.477  1.00 20.00    -0.004 C 
HETATM   11  C5  UNL     1     -34.160  16.164  -2.392  1.00 20.00     0.005 C 
ENDBRANCH   9  10
ENDBRANCH   8   9
ENDBRANCH   3   8
TORSDOF 3
ENDMDL
MODEL 3
REMARK VINA RESULT:      -3.8      1.559      1.889
REMARK  3 active torsions:
REMARK  status: ('A' for Active; 'I' for Inactive)
REMARK    1  A    between atoms: C3_3  and  C6_6 
REMARK    2  A    between atoms: C6_6  and  C8_8 
REMARK    3  A    between atoms: C7_7  and  C8_8 
ROOT
HETATM    1  C1  UNL     1     -36.224  13.768  -4.929  1.00 20.00     0.285 C 
HETATM    2  C2  UNL     1     -35.904  14.672  -6.120  1.00 20.00     0.073 C 
HETATM    3  C3  UNL     1     -34.183  14.613  -4.109  1.00 20.00     0.282 C 
HETATM    4  C4  UNL     1     -36.728  15.956  -6.137  1.00 20.00     0.023 C 
HETATM    5  N9  UNL     1     -35.576  14.341  -3.747  1.00 20.00     0.098 N 
HETATM    6  S10 UNL     1     -34.147  15.069  -5.873  1.00 20.00    -0.128 SA
HETATM    7  H27 UNL     1     -36.041  15.216  -3.510  1.00 20.00     0.317 HD
ENDROOT
BRANCH   3   8
HETATM    8  C6  UNL     1     -33.624  15.733  -3.247  1.00 20.00     0.046 C 
BRANCH   8   9
HETATM    9  C8  UNL     1     -34.653  16.222  -2.229  1.00 20.00     0.002 C 
BRANCH   9  10
HETATM   10  C7  UNL     1     -34.067  17.308  -1.327  1.00 20.00    -0.004 C 
HETATM   11  C5  UNL     1     -32.700  17.760  -1.816  1.00 20.00     0.005 C 
ENDBRANCH   9  10
ENDBRANCH   8   9
ENDBRANCH   3   8
TORSDOF 3
ENDMDL
MODEL 4
REMARK VINA RESULT:      -3.7      1.585      2.234
REMARK  3 active torsions:
REMARK  status: ('A' for Active; 'I' for Inactive)
REMARK    1  A    between atoms: C3_3  and  C6_6 
REMARK    2  A    between atoms: C6_6  and  C8_8 
REMARK    3  A    between atoms: C7_7  and  C8_8 
ROOT
HETATM    1  C1  UNL     1     -36.387  16.318  -5.955  1.00 20.00     0.285 C 
HETATM    2  C2  UNL     1     -35.805  14.937  -6.265  1.00 20.00     0.073 C 
HETATM    3  C3  UNL     1     -36.130  15.606  -3.724  1.00 20.00     0.282 C 
HETATM    4  C4  UNL     1     -34.341  14.986  -6.691  1.00 20.00     0.023 C 
HETATM    5  N9  UNL     1     -35.892  16.725  -4.638  1.00 20.00     0.098 N 
HETATM    6  S10 UNL     1     -35.958  14.063  -4.678  1.00 20.00    -0.128 SA
HETATM    7  H27 UNL     1     -34.891  16.901  -4.704  1.00 20.00     0.317 HD
ENDROOT
BRANCH   3   8
HETATM    8  C6  UNL     1     -35.139  15.646  -2.573  1.00 20.00     0.046 C 
BRANCH   8   9
HETATM    9  C8  UNL     1     -33.712  15.863  -3.072  1.00 20.00     0.002 C 
BRANCH   9  10
HETATM   10  C7  UNL     1     -33.056  17.055  -2.375  1.00 20.00    -0.004 C 
HETATM   11  C5  UNL     1     -33.951  17.625  -1.285  1.00 20.00     0.005 C 
ENDBRANCH   9  10
ENDBRANCH   8   9
ENDBRANCH   3   8
TORSDOF 3
ENDMDL
MODEL 5
REMARK VINA RESULT:      -3.7      2.652      5.300
REMARK  3 active torsions:
REMARK  status: ('A' for Active; 'I' for Inactive)
REMARK    1  A    between atoms: C3_3  and  C6_6 
REMARK    2  A    between atoms: C6_6  and  C8_8 
REMARK    3  A    between atoms: C7_7  and  C8_8 
ROOT
HETATM    1  C1  UNL     1     -33.448  19.051   0.095  1.00 20.00     0.285 C 
HETATM    2  C2  UNL     1     -32.158  19.198  -0.714  1.00 20.00     0.073 C 
HETATM    3  C3  UNL     1     -34.120  17.760  -1.758  1.00 20.00     0.282 C 
HETATM    4  C4  UNL     1     -31.020  18.327  -0.190  1.00 20.00     0.023 C 
HETATM    5  N9  UNL     1     -34.077  17.787  -0.294  1.00 20.00     0.098 N 
HETATM    6  S10 UNL     1     -32.648  18.642  -2.373  1.00 20.00    -0.128 SA
HETATM    7  H27 UNL     1     -33.500  17.016   0.041  1.00 20.00     0.317 HD
ENDROOT
BRANCH   3   8
HETATM    8  C6  UNL     1     -34.142  16.325  -2.259  1.00 20.00     0.046 C 
BRANCH   8   9
HETATM    9  C8  UNL     1     -33.140  16.114  -3.392  1.00 20.00     0.002 C 
BRANCH   9  10
HETATM   10  C7  UNL     1     -33.383  14.783  -4.104  1.00 20.00    -0.004 C 
HETATM   11  C5  UNL     1     -34.797  14.275  -3.869  1.00 20.00     0.005 C 
ENDBRANCH   9  10
ENDBRANCH   8   9
ENDBRANCH   3   8
TORSDOF 3
ENDMDL
MODEL 6
REMARK VINA RESULT:      -3.7      1.760      2.354
REMARK  3 active torsions:
REMARK  status: ('A' for Active; 'I' for Inactive)
REMARK    1  A    between atoms: C3_3  and  C6_6 
REMARK    2  A    between atoms: C6_6  and  C8_8 
REMARK    3  A    between atoms: C7_7  and  C8_8 
ROOT
HETATM    1  C1  UNL     1     -36.630  14.271  -4.578  1.00 20.00     0.285 C 
HETATM    2  C2  UNL     1     -35.542  14.601  -5.602  1.00 20.00     0.073 C 
HETATM    3  C3  UNL     1     -35.016  15.042  -3.045  1.00 20.00     0.282 C 
HETATM    4  C4  UNL     1     -35.811  15.893  -6.366  1.00 20.00     0.023 C 
HETATM    5  N9  UNL     1     -36.429  15.141  -3.417  1.00 20.00     0.098 N 
HETATM    6  S10 UNL     1     -34.055  14.789  -4.573  1.00 20.00    -0.128 SA
HETATM    7  H27 UNL     1     -36.641  16.101  -3.686  1.00 20.00     0.317 HD
ENDROOT
BRANCH   3   8
HETATM    8  C6  UNL     1     -34.570  16.304  -2.326  1.00 20.00     0.046 C 
BRANCH   8   9
HETATM    9  C8  UNL     1     -33.140  16.687  -2.704  1.00 20.00     0.002 C 
BRANCH   9  10
HETATM   10  C7  UNL     1     -32.830  18.130  -2.305  1.00 20.00    -0.004 C 
HETATM   11  C5  UNL     1     -31.875  18.188  -1.122  1.00 20.00     0.005 C 
ENDBRANCH   9  10
ENDBRANCH   8   9
ENDBRANCH   3   8
TORSDOF 3
ENDMDL
MODEL 7
REMARK VINA RESULT:      -3.6      3.030      5.823
REMARK  3 active torsions:
REMARK  status: ('A' for Active; 'I' for Inactive)
REMARK    1  A    between atoms: C3_3  and  C6_6 
REMARK    2  A    between atoms: C6_6  and  C8_8 
REMARK    3  A    between atoms: C7_7  and  C8_8 
ROOT
HETATM    1  C1  UNL     1     -34.658  18.307   2.010  1.00 20.00     0.285 C 
HETATM    2  C2  UNL     1     -33.601  19.139   1.281  1.00 20.00     0.073 C 
HETATM    3  C3  UNL     1     -35.324  17.760  -0.183  1.00 20.00     0.282 C 
HETATM    4  C4  UNL     1     -32.217  18.498   1.299  1.00 20.00     0.023 C 
HETATM    5  N9  UNL     1     -35.030  17.193   1.135  1.00 20.00     0.098 N 
HETATM    6  S10 UNL     1     -34.232  19.200  -0.423  1.00 20.00    -0.128 SA
HETATM    7  H27 UNL     1     -34.239  16.555   1.060  1.00 20.00     0.317 HD
ENDROOT
BRANCH   3   8
HETATM    8  C6  UNL     1     -35.096  16.720  -1.267  1.00 20.00     0.046 C 
BRANCH   8   9
HETATM    9  C8  UNL     1     -33.739  16.905  -1.944  1.00 20.00     0.002 C 
BRANCH   9  10
HETATM   10  C7  UNL     1     -33.583  15.965  -3.138  1.00 20.00    -0.004 C 
HETATM   11  C5  UNL     1     -34.800  15.068  -3.305  1.00 20.00     0.005 C 
ENDBRANCH   9  10
ENDBRANCH   8   9
ENDBRANCH   3   8
TORSDOF 3
ENDMDL
MODEL 8
REMARK VINA RESULT:      -3.5      1.773      3.946
REMARK  3 active torsions:
REMARK  status: ('A' for Active; 'I' for Inactive)
REMARK    1  A    between atoms: C3_3  and  C6_6 
REMARK    2  A    between atoms: C6_6  and  C8_8 
REMARK    3  A    between atoms: C7_7  and  C8_8 
ROOT
HETATM    1  C1  UNL     1     -33.346  18.143  -3.381  1.00 20.00     0.285 C 
HETATM    2  C2  UNL     1     -34.690  17.923  -2.683  1.00 20.00     0.073 C 
HETATM    3  C3  UNL     1     -33.319  15.788  -3.440  1.00 20.00     0.282 C 
HETATM    4  C4  UNL     1     -35.886  18.191  -3.591  1.00 20.00     0.023 C 
HETATM    5  N9  UNL     1     -33.100  16.989  -4.248  1.00 20.00     0.098 N 
HETATM    6  S10 UNL     1     -34.636  16.162  -2.236  1.00 20.00    -0.128 SA
HETATM    7  H27 UNL     1     -33.769  17.007  -5.016  1.00 20.00     0.317 HD
ENDROOT
BRANCH   3   8
HETATM    8  C6  UNL     1     -33.712  14.619  -4.328  1.00 20.00     0.046 C 
BRANCH   8   9
HETATM    9  C8  UNL     1     -34.996  13.951  -3.838  1.00 20.00     0.002 C 
BRANCH   9  10
HETATM   10  C7  UNL     1     -36.072  13.957  -4.923  1.00 20.00    -0.004 C 
HETATM   11  C5  UNL     1     -35.597  14.677  -6.176  1.00 20.00     0.005 C 
ENDBRANCH   9  10
ENDBRANCH   8   9
ENDBRANCH   3   8
TORSDOF 3
ENDMDL
MODEL 9
REMARK VINA RESULT:      -3.5      1.527      1.948
REMARK  3 active torsions:
REMARK  status: ('A' for Active; 'I' for Inactive)
REMARK    1  A    between atoms: C3_3  and  C6_6 
REMARK    2  A    between atoms: C6_6  and  C8_8 
REMARK    3  A    between atoms: C7_7  and  C8_8 
ROOT
HETATM    1  C1  UNL     1     -35.864  15.036  -6.864  1.00 20.00     0.285 C 
HETATM    2  C2  UNL     1     -36.147  16.506  -6.548  1.00 20.00     0.073 C 
HETATM    3  C3  UNL     1     -34.060  15.366  -5.385  1.00 20.00     0.282 C 
HETATM    4  C4  UNL     1     -37.312  16.698  -5.581  1.00 20.00     0.023 C 
HETATM    5  N9  UNL     1     -35.163  14.460  -5.715  1.00 20.00     0.098 N 
HETATM    6  S10 UNL     1     -34.601  17.064  -5.771  1.00 20.00    -0.128 SA
HETATM    7  H27 UNL     1     -35.807  14.412  -4.927  1.00 20.00     0.317 HD
ENDROOT
BRANCH   3   8
HETATM    8  C6  UNL     1     -33.690  15.234  -3.917  1.00 20.00     0.046 C 
BRANCH   8   9
HETATM    9  C8  UNL     1     -34.928  15.265  -3.024  1.00 20.00     0.002 C 
BRANCH   9  10
HETATM   10  C7  UNL     1     -34.807  16.343  -1.947  1.00 20.00    -0.004 C 
HETATM   11  C5  UNL     1     -33.497  17.106  -2.066  1.00 20.00     0.005 C 
ENDBRANCH   9  10
ENDBRANCH   8   9
ENDBRANCH   3   8
TORSDOF 3
ENDMDL
