MODEL 1
REMARK VINA RESULT:      -4.1      0.000      0.000
REMARK  2 active torsions:
REMARK  status: ('A' for Active; 'I' for Inactive)
REMARK    1  A    between atoms: C3_3  and  C7_7 
REMARK    2  A    between atoms: C7_7  and  C8_8 
ROOT
HETATM    1  C1  UNL     1     -35.576  14.506  -6.153  1.00 20.00     0.111 C 
HETATM    2  C2  UNL     1     -34.324  15.348  -6.388  1.00 20.00     0.227 C 
HETATM    3  C3  UNL     1     -33.767  14.523  -4.235  1.00 20.00     0.282 C 
HETATM    4  C4  UNL     1     -33.937  15.373  -7.863  1.00 20.00     0.043 C 
HETATM    5  N9  UNL     1     -33.235  14.765  -5.582  1.00 20.00     0.102 N 
HETATM    6  S10 UNL     1     -35.543  14.158  -4.380  1.00 20.00    -0.132 SA
HETATM    7  H27 UNL     1     -32.985  13.864  -5.991  1.00 20.00     0.317 HD
ENDROOT
BRANCH   3   8
HETATM    8  C7  UNL     1     -33.545  15.732  -3.332  1.00 20.00     0.050 C 
BRANCH   8   9
HETATM    9  C8  UNL     1     -34.845  16.446  -2.931  1.00 20.00    -0.020 C 
HETATM   10  C5  UNL     1     -34.988  16.592  -1.416  1.00 20.00     0.009 C 
HETATM   11  C6  UNL     1     -34.902  17.826  -3.592  1.00 20.00     0.009 C 
ENDBRANCH   8   9
ENDBRANCH   3   8
TORSDOF 2
ENDMDL
MODEL 2
REMARK VINA RESULT:      -3.9     12.166     12.876
REMARK  2 active torsions:
REMARK  status: ('A' for Active; 'I' for Inactive)
REMARK    1  A    between atoms: C3_3  and  C7_7 
REMARK    2  A    between atoms: C7_7  and  C8_8 
ROOT
HETATM    1  C1  UNL     1     -43.417   4.426  -0.132  1.00 20.00     0.111 C 
HETATM    2  C2  UNL     1     -42.832   4.661  -1.522  1.00 20.00     0.227 C 
HETATM    3  C3  UNL     1     -41.234   5.896  -0.278  1.00 20.00     0.282 C 
HETATM    4  C4  UNL     1     -43.059   3.459  -2.434  1.00 20.00     0.043 C 
HETATM    5  N9  UNL     1     -41.388   4.917  -1.363  1.00 20.00     0.102 N 
HETATM    6  S10 UNL     1     -42.596   5.658   0.903  1.00 20.00    -0.132 SA
HETATM    7  H27 UNL     1     -40.942   4.047  -1.070  1.00 20.00     0.317 HD
ENDROOT
BRANCH   3   8
HETATM    8  C7  UNL     1     -41.244   7.321  -0.822  1.00 20.00     0.050 C 
BRANCH   8   9
HETATM    9  C8  UNL     1     -41.998   8.315   0.076  1.00 20.00    -0.020 C 
HETATM   10  C5  UNL     1     -41.179   9.571   0.372  1.00 20.00     0.009 C 
HETATM   11  C6  UNL     1     -43.324   8.704  -0.585  1.00 20.00     0.009 C 
ENDBRANCH   8   9
ENDBRANCH   3   8
TORSDOF 2
ENDMDL
MODEL 3
REMARK VINA RESULT:      -3.8      0.959      1.304
REMARK  2 active torsions:
REMARK  status: ('A' for Active; 'I' for Inactive)
REMARK    1  A    between atoms: C3_3  and  C7_7 
REMARK    2  A    between atoms: C7_7  and  C8_8 
ROOT
HETATM    1  C1  UNL     1     -35.621  14.431  -6.292  1.00 20.00     0.111 C 
HETATM    2  C2  UNL     1     -34.503  15.446  -6.519  1.00 20.00     0.227 C 
HETATM    3  C3  UNL     1     -34.215  15.153  -4.183  1.00 20.00     0.282 C 
HETATM    4  C4  UNL     1     -33.867  15.276  -7.895  1.00 20.00     0.043 C 
HETATM    5  N9  UNL     1     -33.496  15.246  -5.461  1.00 20.00     0.102 N 
HETATM    6  S10 UNL     1     -35.851  14.426  -4.500  1.00 20.00    -0.132 SA
HETATM    7  H27 UNL     1     -33.032  14.352  -5.628  1.00 20.00     0.317 HD
ENDROOT
BRANCH   3   8
HETATM    8  C7  UNL     1     -34.360  16.527  -3.536  1.00 20.00     0.050 C 
BRANCH   8   9
HETATM    9  C8  UNL     1     -33.911  16.564  -2.066  1.00 20.00    -0.020 C 
HETATM   10  C5  UNL     1     -32.892  17.670  -1.795  1.00 20.00     0.009 C 
HETATM   11  C6  UNL     1     -35.130  16.749  -1.158  1.00 20.00     0.009 C 
ENDBRANCH   8   9
ENDBRANCH   3   8
TORSDOF 2
ENDMDL
MODEL 4
REMARK VINA RESULT:      -3.6      1.496      1.729
REMARK  2 active torsions:
REMARK  status: ('A' for Active; 'I' for Inactive)
REMARK    1  A    between atoms: C3_3  and  C7_7 
REMARK    2  A    between atoms: C7_7  and  C8_8 
ROOT
HETATM    1  C1  UNL     1     -35.577  16.839  -6.359  1.00 20.00     0.111 C 
HETATM    2  C2  UNL     1     -34.522  15.740  -6.263  1.00 20.00     0.227 C 
HETATM    3  C3  UNL     1     -35.874  15.058  -4.437  1.00 20.00     0.282 C 
HETATM    4  C4  UNL     1     -33.985  15.360  -7.640  1.00 20.00     0.043 C 
HETATM    5  N9  UNL     1     -35.149  14.571  -5.619  1.00 20.00     0.102 N 
HETATM    6  S10 UNL     1     -36.444  16.751  -4.776  1.00 20.00    -0.132 SA
HETATM    7  H27 UNL     1     -35.832  14.179  -6.268  1.00 20.00     0.317 HD
ENDROOT
BRANCH   3   8
HETATM    8  C7  UNL     1     -34.981  15.036  -3.200  1.00 20.00     0.050 C 
BRANCH   8   9
HETATM    9  C8  UNL     1     -34.628  16.435  -2.672  1.00 20.00    -0.020 C 
HETATM   10  C5  UNL     1     -35.097  16.651  -1.233  1.00 20.00     0.009 C 
HETATM   11  C6  UNL     1     -33.116  16.655  -2.763  1.00 20.00     0.009 C 
ENDBRANCH   8   9
ENDBRANCH   3   8
TORSDOF 2
ENDMDL
MODEL 5
REMARK VINA RESULT:      -3.5      1.753      2.054
REMARK  2 active torsions:
REMARK  status: ('A' for Active; 'I' for Inactive)
REMARK    1  A    between atoms: C3_3  and  C7_7 
REMARK    2  A    between atoms: C7_7  and  C8_8 
ROOT
HETATM    1  C1  UNL     1     -34.067  15.140  -5.969  1.00 20.00     0.111 C 
HETATM    2  C2  UNL     1     -34.596  16.508  -5.545  1.00 20.00     0.227 C 
HETATM    3  C3  UNL     1     -33.219  16.086  -3.660  1.00 20.00     0.282 C 
HETATM    4  C4  UNL     1     -34.835  17.412  -6.749  1.00 20.00     0.043 C 
HETATM    5  N9  UNL     1     -33.599  17.112  -4.641  1.00 20.00     0.102 N 
HETATM    6  S10 UNL     1     -33.354  14.458  -4.456  1.00 20.00    -0.132 SA
HETATM    7  H27 UNL     1     -32.772  17.346  -5.191  1.00 20.00     0.317 HD
ENDROOT
BRANCH   3   8
HETATM    8  C7  UNL     1     -34.113  16.151  -2.426  1.00 20.00     0.050 C 
BRANCH   8   9
HETATM    9  C8  UNL     1     -34.048  17.499  -1.690  1.00 20.00    -0.020 C 
HETATM   10  C5  UNL     1     -34.850  17.493  -0.389  1.00 20.00     0.009 C 
HETATM   11  C6  UNL     1     -32.588  17.857  -1.397  1.00 20.00     0.009 C 
ENDBRANCH   8   9
ENDBRANCH   3   8
TORSDOF 2
ENDMDL
MODEL 6
REMARK VINA RESULT:      -3.4      2.521      4.613
REMARK  2 active torsions:
REMARK  status: ('A' for Active; 'I' for Inactive)
REMARK    1  A    between atoms: C3_3  and  C7_7 
REMARK    2  A    between atoms: C7_7  and  C8_8 
ROOT
HETATM    1  C1  UNL     1     -34.094  18.967  -1.814  1.00 20.00     0.111 C 
HETATM    2  C2  UNL     1     -33.153  17.851  -1.366  1.00 20.00     0.227 C 
HETATM    3  C3  UNL     1     -34.049  16.778  -3.282  1.00 20.00     0.282 C 
HETATM    4  C4  UNL     1     -31.894  18.411  -0.713  1.00 20.00     0.043 C 
HETATM    5  N9  UNL     1     -32.802  17.056  -2.558  1.00 20.00     0.102 N 
HETATM    6  S10 UNL     1     -35.194  18.162  -2.999  1.00 20.00    -0.132 SA
HETATM    7  H27 UNL     1     -32.209  17.630  -3.158  1.00 20.00     0.317 HD
ENDROOT
BRANCH   3   8
HETATM    8  C7  UNL     1     -34.674  15.467  -2.814  1.00 20.00     0.050 C 
BRANCH   8   9
HETATM    9  C8  UNL     1     -34.665  14.366  -3.886  1.00 20.00    -0.020 C 
HETATM   10  C5  UNL     1     -36.074  13.979  -4.337  1.00 20.00     0.009 C 
HETATM   11  C6  UNL     1     -33.843  14.827  -5.093  1.00 20.00     0.009 C 
ENDBRANCH   8   9
ENDBRANCH   3   8
TORSDOF 2
ENDMDL
MODEL 7
REMARK VINA RESULT:      -3.4      2.130      2.933
REMARK  2 active torsions:
REMARK  status: ('A' for Active; 'I' for Inactive)
REMARK    1  A    between atoms: C3_3  and  C7_7 
REMARK    2  A    between atoms: C7_7  and  C8_8 
ROOT
HETATM    1  C1  UNL     1     -36.128  14.321  -5.496  1.00 20.00     0.111 C 
HETATM    2  C2  UNL     1     -36.797  14.732  -4.186  1.00 20.00     0.227 C 
HETATM    3  C3  UNL     1     -34.898  16.147  -4.046  1.00 20.00     0.282 C 
HETATM    4  C4  UNL     1     -38.317  14.676  -4.294  1.00 20.00     0.043 C 
HETATM    5  N9  UNL     1     -36.356  16.104  -3.870  1.00 20.00     0.102 N 
HETATM    6  S10 UNL     1     -34.445  14.961  -5.347  1.00 20.00    -0.132 SA
HETATM    7  H27 UNL     1     -36.776  16.737  -4.551  1.00 20.00     0.317 HD
ENDROOT
BRANCH   3   8
HETATM    8  C7  UNL     1     -34.179  15.808  -2.744  1.00 20.00     0.050 C 
BRANCH   8   9
HETATM    9  C8  UNL     1     -33.346  16.971  -2.182  1.00 20.00    -0.020 C 
HETATM   10  C5  UNL     1     -32.952  17.980  -3.260  1.00 20.00     0.009 C 
HETATM   11  C6  UNL     1     -34.129  17.678  -1.072  1.00 20.00     0.009 C 
ENDBRANCH   8   9
ENDBRANCH   3   8
TORSDOF 2
ENDMDL
MODEL 8
REMARK VINA RESULT:      -3.4      2.059      2.580
REMARK  2 active torsions:
REMARK  status: ('A' for Active; 'I' for Inactive)
REMARK    1  A    between atoms: C3_3  and  C7_7 
REMARK    2  A    between atoms: C7_7  and  C8_8 
ROOT
HETATM    1  C1  UNL     1     -36.011  15.431  -7.123  1.00 20.00     0.111 C 
HETATM    2  C2  UNL     1     -36.822  15.927  -5.929  1.00 20.00     0.227 C 
HETATM    3  C3  UNL     1     -34.663  16.124  -4.966  1.00 20.00     0.282 C 
HETATM    4  C4  UNL     1     -38.072  16.679  -6.376  1.00 20.00     0.043 C 
HETATM    5  N9  UNL     1     -35.951  16.812  -5.132  1.00 20.00     0.102 N 
HETATM    6  S10 UNL     1     -34.379  15.084  -6.430  1.00 20.00    -0.132 SA
HETATM    7  H27 UNL     1     -35.788  17.664  -5.669  1.00 20.00     0.317 HD
ENDROOT
BRANCH   3   8
HETATM    8  C7  UNL     1     -34.655  15.274  -3.700  1.00 20.00     0.050 C 
BRANCH   8   9
HETATM    9  C8  UNL     1     -34.006  15.973  -2.495  1.00 20.00    -0.020 C 
HETATM   10  C5  UNL     1     -33.053  17.093  -2.914  1.00 20.00     0.009 C 
HETATM   11  C6  UNL     1     -35.094  16.536  -1.576  1.00 20.00     0.009 C 
ENDBRANCH   8   9
ENDBRANCH   3   8
TORSDOF 2
ENDMDL
MODEL 9
REMARK VINA RESULT:      -3.4      2.933      3.704
REMARK  2 active torsions:
REMARK  status: ('A' for Active; 'I' for Inactive)
REMARK    1  A    between atoms: C3_3  and  C7_7 
REMARK    2  A    between atoms: C7_7  and  C8_8 
ROOT
HETATM    1  C1  UNL     1     -34.808  16.617  -4.572  1.00 20.00     0.111 C 
HETATM    2  C2  UNL     1     -34.097  15.599  -3.684  1.00 20.00     0.227 C 
HETATM    3  C3  UNL     1     -34.033  17.441  -2.190  1.00 20.00     0.282 C 
HETATM    4  C4  UNL     1     -34.628  14.188  -3.917  1.00 20.00     0.043 C 
HETATM    5  N9  UNL     1     -34.312  16.001  -2.281  1.00 20.00     0.102 N 
HETATM    6  S10 UNL     1     -34.456  18.205  -3.785  1.00 20.00    -0.132 SA
HETATM    7  H27 UNL     1     -35.297  15.854  -2.056  1.00 20.00     0.317 HD
ENDROOT
BRANCH   3   8
HETATM    8  C7  UNL     1     -32.568  17.694  -1.851  1.00 20.00     0.050 C 
BRANCH   8   9
HETATM    9  C8  UNL     1     -32.370  18.602  -0.626  1.00 20.00    -0.020 C 
HETATM   10  C5  UNL     1     -33.461  18.407   0.426  1.00 20.00     0.009 C 
HETATM   11  C6  UNL     1     -30.997  18.336  -0.004  1.00 20.00     0.009 C 
ENDBRANCH   8   9
ENDBRANCH   3   8
TORSDOF 2
ENDMDL
