MODEL 1
REMARK VINA RESULT:      -3.9      0.000      0.000
REMARK  1 active torsions:
REMARK  status: ('A' for Active; 'I' for Inactive)
REMARK    1  A    between atoms: C4_4  and  C5_5 
ROOT
HETATM    1  C3  UNL     1     -36.447  13.838  -4.554  1.00 20.00     0.116 C 
HETATM    2  C5  UNL     1     -35.320  15.893  -3.355  1.00 20.00     0.286 C 
HETATM    3  C6  UNL     1     -37.288  15.122  -4.476  1.00 20.00     0.160 C 
HETATM    4  C7  UNL     1     -37.214  15.943  -5.777  1.00 20.00     0.049 C 
HETATM    5  C8  UNL     1     -38.757  14.769  -4.204  1.00 20.00     0.049 C 
HETATM    6  N9  UNL     1     -36.782  15.888  -3.325  1.00 20.00     0.107 N 
HETATM    7  S10 UNL     1     -34.767  14.333  -4.092  1.00 20.00    -0.131 SA
HETATM    8  H25 UNL     1     -37.087  15.415  -2.473  1.00 20.00     0.318 HD
ENDROOT
BRANCH   2   9
HETATM    9  C4  UNL     1     -34.776  16.043  -1.970  1.00 20.00     0.029 A 
HETATM   10  C1  UNL     1     -33.971  17.259  -1.599  1.00 20.00     0.008 A 
HETATM   11  C2  UNL     1     -35.353  17.072  -1.038  1.00 20.00     0.008 A 
ENDBRANCH   2   9
TORSDOF 1
ENDMDL
MODEL 2
REMARK VINA RESULT:      -3.7      1.190      1.324
REMARK  1 active torsions:
REMARK  status: ('A' for Active; 'I' for Inactive)
REMARK    1  A    between atoms: C4_4  and  C5_5 
ROOT
HETATM    1  C3  UNL     1     -37.998  14.476  -4.315  1.00 20.00     0.116 C 
HETATM    2  C5  UNL     1     -35.690  15.674  -3.898  1.00 20.00     0.286 C 
HETATM    3  C6  UNL     1     -38.036  16.010  -4.232  1.00 20.00     0.160 C 
HETATM    4  C7  UNL     1     -38.032  16.667  -5.625  1.00 20.00     0.049 C 
HETATM    5  C8  UNL     1     -39.296  16.463  -3.481  1.00 20.00     0.049 C 
HETATM    6  N9  UNL     1     -36.863  16.419  -3.440  1.00 20.00     0.107 N 
HETATM    7  S10 UNL     1     -36.245  14.044  -4.464  1.00 20.00    -0.131 SA
HETATM    8  H25 UNL     1     -37.041  16.177  -2.465  1.00 20.00     0.318 HD
ENDROOT
BRANCH   2   9
HETATM    9  C4  UNL     1     -34.700  15.536  -2.785  1.00 20.00     0.029 A 
HETATM   10  C1  UNL     1     -33.412  16.312  -2.816  1.00 20.00     0.008 A 
HETATM   11  C2  UNL     1     -34.481  16.670  -1.823  1.00 20.00     0.008 A 
ENDBRANCH   2   9
TORSDOF 1
ENDMDL
MODEL 3
REMARK VINA RESULT:      -3.6      3.003      4.087
REMARK  1 active torsions:
REMARK  status: ('A' for Active; 'I' for Inactive)
REMARK    1  A    between atoms: C4_4  and  C5_5 
ROOT
HETATM    1  C3  UNL     1     -34.149  17.313  -4.331  1.00 20.00     0.116 C 
HETATM    2  C5  UNL     1     -33.345  17.947  -1.905  1.00 20.00     0.286 C 
HETATM    3  C6  UNL     1     -33.854  16.137  -3.386  1.00 20.00     0.160 C 
HETATM    4  C7  UNL     1     -35.135  15.586  -2.730  1.00 20.00     0.049 C 
HETATM    5  C8  UNL     1     -33.173  15.000  -4.161  1.00 20.00     0.049 C 
HETATM    6  N9  UNL     1     -32.903  16.634  -2.378  1.00 20.00     0.107 N 
HETATM    7  S10 UNL     1     -34.186  18.783  -3.275  1.00 20.00    -0.131 SA
HETATM    8  H25 UNL     1     -31.993  16.742  -2.828  1.00 20.00     0.318 HD
ENDROOT
BRANCH   2   9
HETATM    9  C4  UNL     1     -32.172  18.748  -1.439  1.00 20.00     0.029 A 
HETATM   10  C1  UNL     1     -32.119  19.263  -0.026  1.00 20.00     0.008 A 
HETATM   11  C2  UNL     1     -31.194  18.160  -0.460  1.00 20.00     0.008 A 
ENDBRANCH   2   9
TORSDOF 1
ENDMDL
MODEL 4
REMARK VINA RESULT:      -3.6      2.538      4.300
REMARK  1 active torsions:
REMARK  status: ('A' for Active; 'I' for Inactive)
REMARK    1  A    between atoms: C4_4  and  C5_5 
ROOT
HETATM    1  C3  UNL     1     -34.751  18.666  -1.327  1.00 20.00     0.116 C 
HETATM    2  C5  UNL     1     -34.401  16.222  -2.240  1.00 20.00     0.286 C 
HETATM    3  C6  UNL     1     -35.758  17.612  -0.842  1.00 20.00     0.160 C 
HETATM    4  C7  UNL     1     -35.393  17.057   0.548  1.00 20.00     0.049 C 
HETATM    5  C8  UNL     1     -37.164  18.224  -0.771  1.00 20.00     0.049 C 
HETATM    6  N9  UNL     1     -35.776  16.547  -1.859  1.00 20.00     0.107 N 
HETATM    7  S10 UNL     1     -33.408  17.731  -2.102  1.00 20.00    -0.131 SA
HETATM    8  H25 UNL     1     -36.264  16.904  -2.682  1.00 20.00     0.318 HD
ENDROOT
BRANCH   2   9
HETATM    9  C4  UNL     1     -34.365  15.693  -3.639  1.00 20.00     0.029 A 
HETATM   10  C1  UNL     1     -33.306  14.706  -4.049  1.00 20.00     0.008 A 
HETATM   11  C2  UNL     1     -34.736  14.263  -3.917  1.00 20.00     0.008 A 
ENDBRANCH   2   9
TORSDOF 1
ENDMDL
MODEL 5
REMARK VINA RESULT:      -3.6      2.469      3.389
REMARK  1 active torsions:
REMARK  status: ('A' for Active; 'I' for Inactive)
REMARK    1  A    between atoms: C4_4  and  C5_5 
ROOT
HETATM    1  C3  UNL     1     -35.409  15.759  -3.791  1.00 20.00     0.116 C 
HETATM    2  C5  UNL     1     -33.372  16.853  -2.531  1.00 20.00     0.286 C 
HETATM    3  C6  UNL     1     -34.097  15.859  -4.585  1.00 20.00     0.160 C 
HETATM    4  C7  UNL     1     -33.301  14.541  -4.558  1.00 20.00     0.049 C 
HETATM    5  C8  UNL     1     -34.395  16.221  -6.047  1.00 20.00     0.049 C 
HETATM    6  N9  UNL     1     -33.328  16.966  -3.990  1.00 20.00     0.107 N 
HETATM    7  S10 UNL     1     -34.963  16.116  -2.073  1.00 20.00    -0.131 SA
HETATM    8  H25 UNL     1     -33.775  17.842  -4.261  1.00 20.00     0.318 HD
ENDROOT
BRANCH   2   9
HETATM    9  C4  UNL     1     -33.216  18.202  -1.905  1.00 20.00     0.029 A 
HETATM   10  C1  UNL     1     -31.980  18.532  -1.114  1.00 20.00     0.008 A 
HETATM   11  C2  UNL     1     -32.211  19.178  -2.451  1.00 20.00     0.008 A 
ENDBRANCH   2   9
TORSDOF 1
ENDMDL
MODEL 6
REMARK VINA RESULT:      -3.6      3.022      5.120
REMARK  1 active torsions:
REMARK  status: ('A' for Active; 'I' for Inactive)
REMARK    1  A    between atoms: C4_4  and  C5_5 
ROOT
HETATM    1  C3  UNL     1     -33.661  19.261  -2.278  1.00 20.00     0.116 C 
HETATM    2  C5  UNL     1     -33.072  16.905  -3.297  1.00 20.00     0.286 C 
HETATM    3  C6  UNL     1     -33.253  18.171  -1.274  1.00 20.00     0.160 C 
HETATM    4  C7  UNL     1     -31.770  18.278  -0.873  1.00 20.00     0.049 C 
HETATM    5  C8  UNL     1     -34.112  18.280  -0.006  1.00 20.00     0.049 C 
HETATM    6  N9  UNL     1     -33.547  16.877  -1.913  1.00 20.00     0.107 N 
HETATM    7  S10 UNL     1     -33.220  18.604  -3.907  1.00 20.00    -0.131 SA
HETATM    8  H25 UNL     1     -34.560  16.752  -1.921  1.00 20.00     0.318 HD
ENDROOT
BRANCH   2   9
HETATM    9  C4  UNL     1     -33.881  15.970  -4.138  1.00 20.00     0.029 A 
HETATM   10  C1  UNL     1     -33.376  14.584  -4.431  1.00 20.00     0.008 A 
HETATM   11  C2  UNL     1     -34.552  14.778  -3.515  1.00 20.00     0.008 A 
ENDBRANCH   2   9
TORSDOF 1
ENDMDL
MODEL 7
REMARK VINA RESULT:      -3.5      1.493      1.738
REMARK  1 active torsions:
REMARK  status: ('A' for Active; 'I' for Inactive)
REMARK    1  A    between atoms: C4_4  and  C5_5 
ROOT
HETATM    1  C3  UNL     1     -34.042  14.718  -4.303  1.00 20.00     0.116 C 
HETATM    2  C5  UNL     1     -34.968  16.569  -2.675  1.00 20.00     0.286 C 
HETATM    3  C6  UNL     1     -35.553  14.987  -4.373  1.00 20.00     0.160 C 
HETATM    4  C7  UNL     1     -35.920  15.936  -5.530  1.00 20.00     0.049 C 
HETATM    5  C8  UNL     1     -36.313  13.667  -4.565  1.00 20.00     0.049 C 
HETATM    6  N9  UNL     1     -35.942  15.552  -3.070  1.00 20.00     0.107 N 
HETATM    7  S10 UNL     1     -33.352  16.087  -3.339  1.00 20.00    -0.131 SA
HETATM    8  H25 UNL     1     -35.921  14.798  -2.381  1.00 20.00     0.318 HD
ENDROOT
BRANCH   2   9
HETATM    9  C4  UNL     1     -34.914  16.681  -1.185  1.00 20.00     0.029 A 
HETATM   10  C1  UNL     1     -34.559  17.991  -0.536  1.00 20.00     0.008 A 
HETATM   11  C2  UNL     1     -35.963  17.463  -0.446  1.00 20.00     0.008 A 
ENDBRANCH   2   9
TORSDOF 1
ENDMDL
MODEL 8
REMARK VINA RESULT:      -3.5     24.787     25.685
REMARK  1 active torsions:
REMARK  status: ('A' for Active; 'I' for Inactive)
REMARK    1  A    between atoms: C4_4  and  C5_5 
ROOT
HETATM    1  C3  UNL     1     -26.056  -2.099  11.524  1.00 20.00     0.116 C 
HETATM    2  C5  UNL     1     -24.707  -3.730   9.958  1.00 20.00     0.286 C 
HETATM    3  C6  UNL     1     -26.883  -2.894  10.501  1.00 20.00     0.160 C 
HETATM    4  C7  UNL     1     -27.522  -4.150  11.124  1.00 20.00     0.049 C 
HETATM    5  C8  UNL     1     -27.999  -2.009   9.929  1.00 20.00     0.049 C 
HETATM    6  N9  UNL     1     -25.969  -3.243   9.401  1.00 20.00     0.107 N 
HETATM    7  S10 UNL     1     -24.419  -2.874  11.529  1.00 20.00    -0.131 SA
HETATM    8  H25 UNL     1     -25.781  -2.395   8.866  1.00 20.00     0.318 HD
ENDROOT
BRANCH   2   9
HETATM    9  C4  UNL     1     -23.587  -3.470   9.003  1.00 20.00     0.029 A 
HETATM   10  C1  UNL     1     -22.831  -4.618   8.390  1.00 20.00     0.008 A 
HETATM   11  C2  UNL     1     -23.750  -3.784   7.542  1.00 20.00     0.008 A 
ENDBRANCH   2   9
TORSDOF 1
ENDMDL
MODEL 9
REMARK VINA RESULT:      -3.4      2.181      2.984
REMARK  1 active torsions:
REMARK  status: ('A' for Active; 'I' for Inactive)
REMARK    1  A    between atoms: C4_4  and  C5_5 
ROOT
HETATM    1  C3  UNL     1     -34.871  16.054  -4.984  1.00 20.00     0.116 C 
HETATM    2  C5  UNL     1     -35.577  16.353  -2.465  1.00 20.00     0.286 C 
HETATM    3  C6  UNL     1     -34.327  15.007  -3.999  1.00 20.00     0.160 C 
HETATM    4  C7  UNL     1     -35.171  13.719  -3.999  1.00 20.00     0.049 C 
HETATM    5  C8  UNL     1     -32.881  14.644  -4.366  1.00 20.00     0.049 C 
HETATM    6  N9  UNL     1     -34.314  15.644  -2.671  1.00 20.00     0.107 N 
HETATM    7  S10 UNL     1     -36.155  16.950  -4.074  1.00 20.00    -0.131 SA
HETATM    8  H25 UNL     1     -33.554  16.324  -2.655  1.00 20.00     0.318 HD
ENDROOT
BRANCH   2   9
HETATM    9  C4  UNL     1     -35.378  17.494  -1.519  1.00 20.00     0.029 A 
HETATM   10  C1  UNL     1     -35.452  17.269  -0.033  1.00 20.00     0.008 A 
HETATM   11  C2  UNL     1     -34.132  17.576  -0.683  1.00 20.00     0.008 A 
ENDBRANCH   2   9
TORSDOF 1
ENDMDL
