MODEL 1
REMARK VINA RESULT:      -4.0      0.000      0.000
REMARK  0 active torsions:
REMARK  status: ('A' for Active; 'I' for Inactive)
ROOT
HETATM    1  C1  UNL     1     -22.664  17.747  12.132  1.00 20.00     0.019 A 
HETATM    2  C2  UNL     1     -24.046  18.092  12.332  1.00 20.00     0.031 A 
HETATM    3  C3  UNL     1     -22.169  17.683  10.892  1.00 20.00     0.094 A 
HETATM    4  C4  UNL     1     -24.845  18.350  11.289  1.00 20.00     0.102 A 
HETATM    5  C5  UNL     1     -24.311  18.284   9.889  1.00 20.00     0.268 A 
HETATM    6  C6  UNL     1     -22.351  17.854   8.456  1.00 20.00     0.159 C 
HETATM    7  N7  UNL     1     -22.953  17.941   9.781  1.00 20.00    -0.328 N 
HETATM    8  O8  UNL     1     -25.049  18.523   8.935  1.00 20.00    -0.266 OA
HETATM    9 CL9  UNL     1     -26.500  18.765  11.504  1.00 20.00    -0.078 Cl
ENDROOT
TORSDOF 0
ENDMDL
MODEL 2
REMARK VINA RESULT:      -4.0      1.614      2.855
REMARK  0 active torsions:
REMARK  status: ('A' for Active; 'I' for Inactive)
ROOT
HETATM    1  C1  UNL     1     -21.915  17.735   8.920  1.00 20.00     0.019 A 
HETATM    2  C2  UNL     1     -23.031  18.130   8.103  1.00 20.00     0.031 A 
HETATM    3  C3  UNL     1     -22.050  17.683  10.249  1.00 20.00     0.094 A 
HETATM    4  C4  UNL     1     -24.207  18.446   8.658  1.00 20.00     0.102 A 
HETATM    5  C5  UNL     1     -24.383  18.394  10.147  1.00 20.00     0.268 A 
HETATM    6  C6  UNL     1     -23.328  17.921  12.325  1.00 20.00     0.159 C 
HETATM    7  N7  UNL     1     -23.246  18.000  10.871  1.00 20.00    -0.328 N 
HETATM    8  O8  UNL     1     -25.466  18.685  10.652  1.00 20.00    -0.266 OA
HETATM    9 CL9  UNL     1     -25.555  18.920   7.702  1.00 20.00    -0.078 Cl
ENDROOT
TORSDOF 0
ENDMDL
MODEL 3
REMARK VINA RESULT:      -3.9     16.691     17.181
REMARK  0 active torsions:
REMARK  status: ('A' for Active; 'I' for Inactive)
ROOT
HETATM    1  C1  UNL     1     -33.770   4.308   2.703  1.00 20.00     0.019 A 
HETATM    2  C2  UNL     1     -34.416   4.284   3.988  1.00 20.00     0.031 A 
HETATM    3  C3  UNL     1     -33.084   5.391   2.324  1.00 20.00     0.094 A 
HETATM    4  C4  UNL     1     -34.338   5.336   4.812  1.00 20.00     0.102 A 
HETATM    5  C5  UNL     1     -33.574   6.562   4.409  1.00 20.00     0.268 A 
HETATM    6  C6  UNL     1     -32.210   7.653   2.668  1.00 20.00     0.159 C 
HETATM    7  N7  UNL     1     -32.973   6.504   3.141  1.00 20.00    -0.328 N 
HETATM    8  O8  UNL     1     -33.505   7.525   5.171  1.00 20.00    -0.266 OA
HETATM    9 CL9  UNL     1     -35.101   5.330   6.353  1.00 20.00    -0.078 Cl
ENDROOT
TORSDOF 0
ENDMDL
MODEL 4
REMARK VINA RESULT:      -3.8      2.625      3.880
REMARK  0 active torsions:
REMARK  status: ('A' for Active; 'I' for Inactive)
ROOT
HETATM    1  C1  UNL     1     -25.086  19.263   8.549  1.00 20.00     0.019 A 
HETATM    2  C2  UNL     1     -23.857  18.589   8.227  1.00 20.00     0.031 A 
HETATM    3  C3  UNL     1     -25.573  19.199   9.792  1.00 20.00     0.094 A 
HETATM    4  C4  UNL     1     -23.192  17.897   9.160  1.00 20.00     0.102 A 
HETATM    5  C5  UNL     1     -23.719  17.811  10.562  1.00 20.00     0.268 A 
HETATM    6  C6  UNL     1     -25.507  18.467  12.128  1.00 20.00     0.159 C 
HETATM    7  N7  UNL     1     -24.923  18.497  10.793  1.00 20.00    -0.328 N 
HETATM    8  O8  UNL     1     -23.103  17.174  11.415  1.00 20.00    -0.266 OA
HETATM    9 CL9  UNL     1     -21.720  17.083   8.799  1.00 20.00    -0.078 Cl
ENDROOT
TORSDOF 0
ENDMDL
MODEL 5
REMARK VINA RESULT:      -3.8      1.689      2.547
REMARK  0 active torsions:
REMARK  status: ('A' for Active; 'I' for Inactive)
ROOT
HETATM    1  C1  UNL     1     -24.801  19.036   8.379  1.00 20.00     0.019 A 
HETATM    2  C2  UNL     1     -25.354  19.060   9.706  1.00 20.00     0.031 A 
HETATM    3  C3  UNL     1     -23.613  18.461   8.164  1.00 20.00     0.094 A 
HETATM    4  C4  UNL     1     -24.693  18.513  10.733  1.00 20.00     0.102 A 
HETATM    5  C5  UNL     1     -23.358  17.861  10.517  1.00 20.00     0.268 A 
HETATM    6  C6  UNL     1     -21.602  17.268   8.892  1.00 20.00     0.159 C 
HETATM    7  N7  UNL     1     -22.890  17.880   9.193  1.00 20.00    -0.328 N 
HETATM    8  O8  UNL     1     -22.756  17.358  11.464  1.00 20.00    -0.266 OA
HETATM    9 CL9  UNL     1     -25.334  18.529  12.329  1.00 20.00    -0.078 Cl
ENDROOT
TORSDOF 0
ENDMDL
MODEL 6
REMARK VINA RESULT:      -3.8     16.728     17.325
REMARK  0 active torsions:
REMARK  status: ('A' for Active; 'I' for Inactive)
ROOT
HETATM    1  C1  UNL     1     -33.926   4.283   2.838  1.00 20.00     0.019 A 
HETATM    2  C2  UNL     1     -33.139   5.388   2.361  1.00 20.00     0.031 A 
HETATM    3  C3  UNL     1     -34.477   4.335   4.054  1.00 20.00     0.094 A 
HETATM    4  C4  UNL     1     -32.950   6.472   3.123  1.00 20.00     0.102 A 
HETATM    5  C5  UNL     1     -33.559   6.554   4.492  1.00 20.00     0.268 A 
HETATM    6  C6  UNL     1     -34.940   5.429   6.196  1.00 20.00     0.159 C 
HETATM    7  N7  UNL     1     -34.312   5.435   4.881  1.00 20.00    -0.328 N 
HETATM    8  O8  UNL     1     -33.383   7.554   5.187  1.00 20.00    -0.266 OA
HETATM    9 CL9  UNL     1     -32.013   7.806   2.574  1.00 20.00    -0.078 Cl
ENDROOT
TORSDOF 0
ENDMDL
MODEL 7
REMARK VINA RESULT:      -3.7     18.922     19.807
REMARK  0 active torsions:
REMARK  status: ('A' for Active; 'I' for Inactive)
ROOT
HETATM    1  C1  UNL     1     -34.390  15.395  -3.263  1.00 20.00     0.019 A 
HETATM    2  C2  UNL     1     -33.681  15.331  -4.513  1.00 20.00     0.031 A 
HETATM    3  C3  UNL     1     -35.702  15.142  -3.230  1.00 20.00     0.094 A 
HETATM    4  C4  UNL     1     -34.321  15.022  -5.647  1.00 20.00     0.102 A 
HETATM    5  C5  UNL     1     -35.794  14.735  -5.635  1.00 20.00     0.268 A 
HETATM    6  C6  UNL     1     -37.839  14.552  -4.271  1.00 20.00     0.159 C 
HETATM    7  N7  UNL     1     -36.410  14.817  -4.376  1.00 20.00    -0.328 N 
HETATM    8  O8  UNL     1     -36.376  14.450  -6.680  1.00 20.00    -0.266 OA
HETATM    9 CL9  UNL     1     -33.495  14.940  -7.154  1.00 20.00    -0.078 Cl
ENDROOT
TORSDOF 0
ENDMDL
MODEL 8
REMARK VINA RESULT:      -3.7     18.879     19.673
REMARK  0 active torsions:
REMARK  status: ('A' for Active; 'I' for Inactive)
ROOT
HETATM    1  C1  UNL     1     -34.156  15.207  -3.474  1.00 20.00     0.019 A 
HETATM    2  C2  UNL     1     -35.568  14.978  -3.324  1.00 20.00     0.031 A 
HETATM    3  C3  UNL     1     -33.609  15.211  -4.694  1.00 20.00     0.094 A 
HETATM    4  C4  UNL     1     -36.343  14.767  -4.394  1.00 20.00     0.102 A 
HETATM    5  C5  UNL     1     -35.753  14.768  -5.773  1.00 20.00     0.268 A 
HETATM    6  C6  UNL     1     -33.711  15.017  -7.133  1.00 20.00     0.159 C 
HETATM    7  N7  UNL     1     -34.369  14.999  -5.832  1.00 20.00    -0.328 N 
HETATM    8  O8  UNL     1     -36.471  14.575  -6.753  1.00 20.00    -0.266 OA
HETATM    9 CL9  UNL     1     -38.034  14.492  -4.240  1.00 20.00    -0.078 Cl
ENDROOT
TORSDOF 0
ENDMDL
MODEL 9
REMARK VINA RESULT:      -3.6     17.785     18.682
REMARK  0 active torsions:
REMARK  status: ('A' for Active; 'I' for Inactive)
ROOT
HETATM    1  C1  UNL     1     -34.910  16.667  -2.407  1.00 20.00     0.019 A 
HETATM    2  C2  UNL     1     -33.734  16.010  -2.911  1.00 20.00     0.031 A 
HETATM    3  C3  UNL     1     -36.116  16.307  -2.855  1.00 20.00     0.094 A 
HETATM    4  C4  UNL     1     -33.833  15.040  -3.827  1.00 20.00     0.102 A 
HETATM    5  C5  UNL     1     -35.177  14.618  -4.346  1.00 20.00     0.268 A 
HETATM    6  C6  UNL     1     -37.616  14.963  -4.248  1.00 20.00     0.159 C 
HETATM    7  N7  UNL     1     -36.272  15.308  -3.802  1.00 20.00    -0.328 N 
HETATM    8  O8  UNL     1     -35.262  13.725  -5.187  1.00 20.00    -0.266 OA
HETATM    9 CL9  UNL     1     -32.442  14.239  -4.445  1.00 20.00    -0.078 Cl
ENDROOT
TORSDOF 0
ENDMDL
