MODEL 1
REMARK VINA RESULT:      -4.5      0.000      0.000
REMARK  1 active torsions:
REMARK  status: ('A' for Active; 'I' for Inactive)
REMARK    1  A    between atoms: C2_2  and  C8_8 
ROOT
HETATM    1  C1  UNL     1     -25.320  18.467  11.379  1.00 20.00     0.284 C 
HETATM    2  C2  UNL     1     -24.171  18.032   9.221  1.00 20.00     0.233 C 
HETATM    3  C3  UNL     1     -24.466  17.409  12.078  1.00 20.00     0.071 C 
HETATM    4  C4  UNL     1     -22.898  18.458   9.986  1.00 20.00     0.076 C 
HETATM    5  C5  UNL     1     -24.998  15.988  11.895  1.00 20.00     0.023 C 
HETATM    6  C6  UNL     1     -21.609  18.244   9.190  1.00 20.00     0.023 C 
HETATM    7  N9  UNL     1     -25.427  18.323   9.930  1.00 20.00     0.090 N 
HETATM    8  S10 UNL     1     -22.722  17.497  11.544  1.00 20.00    -0.156 SA
HETATM    9  H27 UNL     1     -26.107  17.571   9.728  1.00 20.00     0.316 HD
ENDROOT
BRANCH   2  10
HETATM   10  C8  UNL     1     -24.266  18.676   7.831  1.00 20.00     0.032 C 
HETATM   11  C7  UNL     1     -25.663  19.092   7.519  1.00 20.00     0.007 C 
ENDBRANCH   2  10
TORSDOF 1
ENDMDL
MODEL 2
REMARK VINA RESULT:      -4.1      1.271      3.555
REMARK  1 active torsions:
REMARK  status: ('A' for Active; 'I' for Inactive)
REMARK    1  A    between atoms: C2_2  and  C8_8 
ROOT
HETATM    1  C1  UNL     1     -24.615  18.795   8.768  1.00 20.00     0.284 C 
HETATM    2  C2  UNL     1     -24.766  18.283  11.193  1.00 20.00     0.233 C 
HETATM    3  C3  UNL     1     -23.279  18.060   8.668  1.00 20.00     0.071 C 
HETATM    4  C4  UNL     1     -24.735  16.809  10.730  1.00 20.00     0.076 C 
HETATM    5  C5  UNL     1     -22.086  18.917   9.089  1.00 20.00     0.023 C 
HETATM    6  C6  UNL     1     -24.622  15.810  11.884  1.00 20.00     0.023 C 
HETATM    7  N9  UNL     1     -24.975  19.252  10.107  1.00 20.00     0.090 N 
HETATM    8  S10 UNL     1     -23.298  16.504   9.624  1.00 20.00    -0.156 SA
HETATM    9  H27 UNL     1     -24.434  20.109  10.314  1.00 20.00     0.316 HD
ENDROOT
BRANCH   2  10
HETATM   10  C8  UNL     1     -25.840  18.543  12.259  1.00 20.00     0.032 C 
HETATM   11  C7  UNL     1     -27.126  18.973  11.640  1.00 20.00     0.007 C 
ENDBRANCH   2  10
TORSDOF 1
ENDMDL
MODEL 3
REMARK VINA RESULT:      -3.9      1.658      2.734
REMARK  1 active torsions:
REMARK  status: ('A' for Active; 'I' for Inactive)
REMARK    1  A    between atoms: C2_2  and  C8_8 
ROOT
HETATM    1  C1  UNL     1     -23.684  16.468  10.102  1.00 20.00     0.284 C 
HETATM    2  C2  UNL     1     -24.801  18.652   9.723  1.00 20.00     0.233 C 
HETATM    3  C3  UNL     1     -23.398  16.836  11.558  1.00 20.00     0.071 C 
HETATM    4  C4  UNL     1     -25.764  18.182  10.835  1.00 20.00     0.076 C 
HETATM    5  C5  UNL     1     -22.143  17.691  11.728  1.00 20.00     0.023 C 
HETATM    6  C6  UNL     1     -26.750  19.263  11.285  1.00 20.00     0.023 C 
HETATM    7  N9  UNL     1     -23.914  17.598   9.208  1.00 20.00     0.090 N 
HETATM    8  S10 UNL     1     -24.828  17.666  12.332  1.00 20.00    -0.156 SA
HETATM    9  H27 UNL     1     -22.998  18.017   8.972  1.00 20.00     0.316 HD
ENDROOT
BRANCH   2  10
HETATM   10  C8  UNL     1     -25.540  19.262   8.523  1.00 20.00     0.032 C 
HETATM   11  C7  UNL     1     -24.785  19.051   7.255  1.00 20.00     0.007 C 
ENDBRANCH   2  10
TORSDOF 1
ENDMDL
MODEL 4
REMARK VINA RESULT:      -3.7     16.782     18.363
REMARK  1 active torsions:
REMARK  status: ('A' for Active; 'I' for Inactive)
REMARK    1  A    between atoms: C2_2  and  C8_8 
ROOT
HETATM    1  C1  UNL     1     -36.582  14.141  -4.475  1.00 20.00     0.284 C 
HETATM    2  C2  UNL     1     -35.415  15.919  -3.194  1.00 20.00     0.233 C 
HETATM    3  C3  UNL     1     -35.950  14.628  -5.779  1.00 20.00     0.071 C 
HETATM    4  C4  UNL     1     -34.129  15.244  -3.720  1.00 20.00     0.076 C 
HETATM    5  C5  UNL     1     -36.698  15.801  -6.411  1.00 20.00     0.023 C 
HETATM    6  C6  UNL     1     -32.854  16.028  -3.400  1.00 20.00     0.023 C 
HETATM    7  N9  UNL     1     -36.639  15.131  -3.404  1.00 20.00     0.090 N 
HETATM    8  S10 UNL     1     -34.191  15.061  -5.549  1.00 20.00    -0.156 SA
HETATM    9  H27 UNL     1     -37.423  15.776  -3.599  1.00 20.00     0.316 HD
ENDROOT
BRANCH   2  10
HETATM   10  C8  UNL     1     -35.333  16.257  -1.698  1.00 20.00     0.032 C 
HETATM   11  C7  UNL     1     -35.685  17.683  -1.443  1.00 20.00     0.007 C 
ENDBRANCH   2  10
TORSDOF 1
ENDMDL
MODEL 5
REMARK VINA RESULT:      -3.7     15.887     17.456
REMARK  1 active torsions:
REMARK  status: ('A' for Active; 'I' for Inactive)
REMARK    1  A    between atoms: C2_2  and  C8_8 
ROOT
HETATM    1  C1  UNL     1     -36.161  17.230  -2.946  1.00 20.00     0.284 C 
HETATM    2  C2  UNL     1     -35.269  14.952  -3.372  1.00 20.00     0.233 C 
HETATM    3  C3  UNL     1     -35.021  17.523  -1.970  1.00 20.00     0.071 C 
HETATM    4  C4  UNL     1     -34.012  15.700  -3.866  1.00 20.00     0.076 C 
HETATM    5  C5  UNL     1     -35.276  16.983  -0.564  1.00 20.00     0.023 C 
HETATM    6  C6  UNL     1     -32.833  14.774  -4.176  1.00 20.00     0.023 C 
HETATM    7  N9  UNL     1     -36.443  15.815  -3.166  1.00 20.00     0.090 N 
HETATM    8  S10 UNL     1     -33.425  16.896  -2.599  1.00 20.00    -0.156 SA
HETATM    9  H27 UNL     1     -36.980  15.461  -2.356  1.00 20.00     0.316 HD
ENDROOT
BRANCH   2  10
HETATM   10  C8  UNL     1     -35.690  13.817  -4.317  1.00 20.00     0.032 C 
HETATM   11  C7  UNL     1     -36.157  14.349  -5.629  1.00 20.00     0.007 C 
ENDBRANCH   2  10
TORSDOF 1
ENDMDL
MODEL 6
REMARK VINA RESULT:      -3.6     16.607     18.535
REMARK  1 active torsions:
REMARK  status: ('A' for Active; 'I' for Inactive)
REMARK    1  A    between atoms: C2_2  and  C8_8 
ROOT
HETATM    1  C1  UNL     1     -32.901  15.042  -4.155  1.00 20.00     0.284 C 
HETATM    2  C2  UNL     1     -35.031  15.338  -5.396  1.00 20.00     0.233 C 
HETATM    3  C3  UNL     1     -33.370  16.006  -3.066  1.00 20.00     0.071 C 
HETATM    4  C4  UNL     1     -35.682  14.782  -4.110  1.00 20.00     0.076 C 
HETATM    5  C5  UNL     1     -33.146  17.475  -3.423  1.00 20.00     0.023 C 
HETATM    6  C6  UNL     1     -37.211  14.851  -4.121  1.00 20.00     0.023 C 
HETATM    7  N9  UNL     1     -33.569  15.187  -5.445  1.00 20.00     0.090 N 
HETATM    8  S10 UNL     1     -35.123  15.728  -2.635  1.00 20.00    -0.156 SA
HETATM    9  H27 UNL     1     -33.164  16.007  -5.929  1.00 20.00     0.316 HD
ENDROOT
BRANCH   2  10
HETATM   10  C8  UNL     1     -35.604  14.699  -6.669  1.00 20.00     0.032 C 
HETATM   11  C7  UNL     1     -35.010  15.304  -7.895  1.00 20.00     0.007 C 
ENDBRANCH   2  10
TORSDOF 1
ENDMDL
MODEL 7
REMARK VINA RESULT:      -3.6     14.219     16.463
REMARK  1 active torsions:
REMARK  status: ('A' for Active; 'I' for Inactive)
REMARK    1  A    between atoms: C2_2  and  C8_8 
ROOT
HETATM    1  C1  UNL     1     -33.859  17.057  -4.751  1.00 20.00     0.284 C 
HETATM    2  C2  UNL     1     -33.271  17.406  -2.363  1.00 20.00     0.233 C 
HETATM    3  C3  UNL     1     -34.327  15.632  -4.455  1.00 20.00     0.071 C 
HETATM    4  C4  UNL     1     -34.769  17.128  -2.110  1.00 20.00     0.076 C 
HETATM    5  C5  UNL     1     -33.184  14.618  -4.421  1.00 20.00     0.023 C 
HETATM    6  C6  UNL     1     -35.126  17.011  -0.626  1.00 20.00     0.023 C 
HETATM    7  N9  UNL     1     -32.929  17.621  -3.778  1.00 20.00     0.090 N 
HETATM    8  S10 UNL     1     -35.282  15.549  -2.902  1.00 20.00    -0.156 SA
HETATM    9  H27 UNL     1     -31.991  17.225  -3.959  1.00 20.00     0.316 HD
ENDROOT
BRANCH   2  10
HETATM   10  C8  UNL     1     -32.755  18.617  -1.573  1.00 20.00     0.032 C 
HETATM   11  C7  UNL     1     -31.542  18.270  -0.778  1.00 20.00     0.007 C 
ENDBRANCH   2  10
TORSDOF 1
ENDMDL
MODEL 8
REMARK VINA RESULT:      -3.5     16.650     18.641
REMARK  1 active torsions:
REMARK  status: ('A' for Active; 'I' for Inactive)
REMARK    1  A    between atoms: C2_2  and  C8_8 
ROOT
HETATM    1  C1  UNL     1     -37.480  15.485  -4.048  1.00 20.00     0.284 C 
HETATM    2  C2  UNL     1     -35.140  16.075  -3.462  1.00 20.00     0.233 C 
HETATM    3  C3  UNL     1     -37.152  15.553  -5.540  1.00 20.00     0.071 C 
HETATM    4  C4  UNL     1     -34.782  14.782  -4.226  1.00 20.00     0.076 C 
HETATM    5  C5  UNL     1     -37.197  16.972  -6.103  1.00 20.00     0.023 C 
HETATM    6  C6  UNL     1     -33.277  14.585  -4.421  1.00 20.00     0.023 C 
HETATM    7  N9  UNL     1     -36.575  16.230  -3.178  1.00 20.00     0.090 N 
HETATM    8  S10 UNL     1     -35.535  14.787  -5.904  1.00 20.00    -0.156 SA
HETATM    9  H27 UNL     1     -36.822  17.233  -3.236  1.00 20.00     0.316 HD
ENDROOT
BRANCH   2  10
HETATM   10  C8  UNL     1     -34.389  16.198  -2.128  1.00 20.00     0.032 C 
HETATM   11  C7  UNL     1     -35.248  16.812  -1.076  1.00 20.00     0.007 C 
ENDBRANCH   2  10
TORSDOF 1
ENDMDL
MODEL 9
REMARK VINA RESULT:      -3.5     16.836     18.952
REMARK  1 active torsions:
REMARK  status: ('A' for Active; 'I' for Inactive)
REMARK    1  A    between atoms: C2_2  and  C8_8 
ROOT
HETATM    1  C1  UNL     1     -34.994  17.811  -5.859  1.00 20.00     0.284 C 
HETATM    2  C2  UNL     1     -34.016  15.962  -4.521  1.00 20.00     0.233 C 
HETATM    3  C3  UNL     1     -35.257  16.862  -7.028  1.00 20.00     0.071 C 
HETATM    4  C4  UNL     1     -35.407  15.311  -4.681  1.00 20.00     0.076 C 
HETATM    5  C5  UNL     1     -34.034  16.648  -7.918  1.00 20.00     0.023 C 
HETATM    6  C6  UNL     1     -35.472  13.873  -4.160  1.00 20.00     0.023 C 
HETATM    7  N9  UNL     1     -33.961  17.375  -4.924  1.00 20.00     0.090 N 
HETATM    8  S10 UNL     1     -35.899  15.252  -6.453  1.00 20.00    -0.156 SA
HETATM    9  H27 UNL     1     -33.038  17.567  -5.350  1.00 20.00     0.316 HD
ENDROOT
BRANCH   2  10
HETATM   10  C8  UNL     1     -33.485  15.870  -3.083  1.00 20.00     0.032 C 
HETATM   11  C7  UNL     1     -34.319  16.672  -2.144  1.00 20.00     0.007 C 
ENDBRANCH   2  10
TORSDOF 1
ENDMDL
