MODEL 1
REMARK VINA RESULT:      -5.2      0.000      0.000
REMARK  2 active torsions:
REMARK  status: ('A' for Active; 'I' for Inactive)
REMARK    1  A    between atoms: C3_3  and  C7_7 
REMARK    2  A    between atoms: C7_7  and  C8_8 
ROOT
HETATM    1  C1  UNL     1     -33.996  15.182  -7.512  1.00 20.00     0.012 C 
HETATM    2  C2  UNL     1     -34.719  15.479  -6.600  1.00 20.00    -0.116 C 
HETATM    3  C8  UNL     1     -35.605  15.848  -5.491  1.00 20.00     0.113 C 
ENDROOT
BRANCH   3   4
HETATM    4  C7  UNL     1     -35.425  14.901  -4.304  1.00 20.00     0.058 C 
HETATM    5  C5  UNL     1     -35.490  15.621  -2.919  1.00 20.00     0.021 C 
HETATM    6  C4  UNL     1     -33.958  15.755  -2.957  1.00 20.00     0.003 C 
HETATM    7  C6  UNL     1     -33.931  14.597  -3.970  1.00 20.00     0.021 C 
BRANCH   4   8
HETATM    8  C3  UNL     1     -36.340  13.652  -4.444  1.00 20.00     0.182 C 
HETATM    9  O9  UNL     1     -35.738  12.542  -4.453  1.00 20.00    -0.647 OA
HETATM   10  O10 UNL     1     -37.574  13.906  -4.531  1.00 20.00    -0.647 OA
ENDBRANCH   4   8
ENDBRANCH   3   4
TORSDOF 2
ENDMDL
MODEL 2
REMARK VINA RESULT:      -5.2      0.727      3.204
REMARK  2 active torsions:
REMARK  status: ('A' for Active; 'I' for Inactive)
REMARK    1  A    between atoms: C3_3  and  C7_7 
REMARK    2  A    between atoms: C7_7  and  C8_8 
ROOT
HETATM    1  C1  UNL     1     -35.140  16.302  -1.693  1.00 20.00     0.012 C 
HETATM    2  C2  UNL     1     -34.765  15.676  -2.647  1.00 20.00    -0.116 C 
HETATM    3  C8  UNL     1     -34.298  14.912  -3.808  1.00 20.00     0.113 C 
ENDROOT
BRANCH   3   4
HETATM    4  C7  UNL     1     -35.398  14.787  -4.864  1.00 20.00     0.058 C 
HETATM    5  C5  UNL     1     -34.862  14.852  -6.330  1.00 20.00     0.021 C 
HETATM    6  C4  UNL     1     -35.132  16.366  -6.324  1.00 20.00     0.003 C 
HETATM    7  C6  UNL     1     -36.123  16.136  -5.170  1.00 20.00     0.021 C 
BRANCH   4   8
HETATM    8  C3  UNL     1     -36.335  13.587  -4.554  1.00 20.00     0.182 C 
HETATM    9  O9  UNL     1     -37.563  13.869  -4.474  1.00 20.00    -0.647 OA
HETATM   10  O10 UNL     1     -35.748  12.477  -4.421  1.00 20.00    -0.647 OA
ENDBRANCH   4   8
ENDBRANCH   3   4
TORSDOF 2
ENDMDL
MODEL 3
REMARK VINA RESULT:      -4.6      0.715      1.261
REMARK  2 active torsions:
REMARK  status: ('A' for Active; 'I' for Inactive)
REMARK    1  A    between atoms: C3_3  and  C7_7 
REMARK    2  A    between atoms: C7_7  and  C8_8 
ROOT
HETATM    1  C1  UNL     1     -34.060  15.313  -7.376  1.00 20.00     0.012 C 
HETATM    2  C2  UNL     1     -34.048  15.018  -6.212  1.00 20.00    -0.116 C 
HETATM    3  C8  UNL     1     -34.024  14.654  -4.792  1.00 20.00     0.113 C 
ENDROOT
BRANCH   3   4
HETATM    4  C7  UNL     1     -35.388  14.890  -4.140  1.00 20.00     0.058 C 
HETATM    5  C5  UNL     1     -36.009  16.282  -4.481  1.00 20.00     0.021 C 
HETATM    6  C4  UNL     1     -35.373  16.840  -3.197  1.00 20.00     0.003 C 
HETATM    7  C6  UNL     1     -35.295  15.398  -2.667  1.00 20.00     0.021 C 
BRANCH   4   8
HETATM    8  C3  UNL     1     -36.330  13.673  -4.363  1.00 20.00     0.182 C 
HETATM    9  O9  UNL     1     -35.755  12.550  -4.413  1.00 20.00    -0.647 OA
HETATM   10  O10 UNL     1     -37.555  13.963  -4.467  1.00 20.00    -0.647 OA
ENDBRANCH   4   8
ENDBRANCH   3   4
TORSDOF 2
ENDMDL
MODEL 4
REMARK VINA RESULT:      -4.6     17.110     18.862
REMARK  2 active torsions:
REMARK  status: ('A' for Active; 'I' for Inactive)
REMARK    1  A    between atoms: C3_3  and  C7_7 
REMARK    2  A    between atoms: C7_7  and  C8_8 
ROOT
HETATM    1  C1  UNL     1     -25.437  18.884   7.283  1.00 20.00     0.012 C 
HETATM    2  C2  UNL     1     -24.996  18.892   8.400  1.00 20.00    -0.116 C 
HETATM    3  C8  UNL     1     -24.462  18.909   9.765  1.00 20.00     0.113 C 
ENDROOT
BRANCH   3   4
HETATM    4  C7  UNL     1     -23.407  17.818   9.958  1.00 20.00     0.058 C 
HETATM    5  C5  UNL     1     -24.017  16.400  10.197  1.00 20.00     0.021 C 
HETATM    6  C4  UNL     1     -23.932  16.657  11.711  1.00 20.00     0.003 C 
HETATM    7  C6  UNL     1     -22.866  17.728  11.419  1.00 20.00     0.021 C 
BRANCH   4   8
HETATM    8  C3  UNL     1     -22.318  17.893   8.851  1.00 20.00     0.182 C 
HETATM    9  O9  UNL     1     -22.303  16.921   8.045  1.00 20.00    -0.647 OA
HETATM   10  O10 UNL     1     -21.585  18.920   8.898  1.00 20.00    -0.647 OA
ENDBRANCH   4   8
ENDBRANCH   3   4
TORSDOF 2
ENDMDL
MODEL 5
REMARK VINA RESULT:      -4.6      0.920      1.722
REMARK  2 active torsions:
REMARK  status: ('A' for Active; 'I' for Inactive)
REMARK    1  A    between atoms: C3_3  and  C7_7 
REMARK    2  A    between atoms: C7_7  and  C8_8 
ROOT
HETATM    1  C1  UNL     1     -37.272  17.763  -5.154  1.00 20.00     0.012 C 
HETATM    2  C2  UNL     1     -36.504  16.860  -5.344  1.00 20.00    -0.116 C 
HETATM    3  C8  UNL     1     -35.566  15.759  -5.584  1.00 20.00     0.113 C 
ENDROOT
BRANCH   3   4
HETATM    4  C7  UNL     1     -35.432  14.870  -4.347  1.00 20.00     0.058 C 
HETATM    5  C5  UNL     1     -35.512  15.659  -3.001  1.00 20.00     0.021 C 
HETATM    6  C4  UNL     1     -33.977  15.762  -3.011  1.00 20.00     0.003 C 
HETATM    7  C6  UNL     1     -33.951  14.554  -3.964  1.00 20.00     0.021 C 
BRANCH   4   8
HETATM    8  C3  UNL     1     -36.369  13.633  -4.445  1.00 20.00     0.182 C 
HETATM    9  O9  UNL     1     -35.782  12.516  -4.485  1.00 20.00    -0.647 OA
HETATM   10  O10 UNL     1     -37.602  13.904  -4.473  1.00 20.00    -0.647 OA
ENDBRANCH   4   8
ENDBRANCH   3   4
TORSDOF 2
ENDMDL
MODEL 6
REMARK VINA RESULT:      -4.4      1.616      2.900
REMARK  2 active torsions:
REMARK  status: ('A' for Active; 'I' for Inactive)
REMARK    1  A    between atoms: C3_3  and  C7_7 
REMARK    2  A    between atoms: C7_7  and  C8_8 
ROOT
HETATM    1  C1  UNL     1     -33.124  15.935  -3.447  1.00 20.00     0.012 C 
HETATM    2  C2  UNL     1     -34.254  15.570  -3.269  1.00 20.00    -0.116 C 
HETATM    3  C8  UNL     1     -35.631  15.121  -3.042  1.00 20.00     0.113 C 
ENDROOT
BRANCH   3   4
HETATM    4  C7  UNL     1     -36.408  15.043  -4.358  1.00 20.00     0.058 C 
HETATM    5  C5  UNL     1     -36.370  16.369  -5.182  1.00 20.00     0.021 C 
HETATM    6  C4  UNL     1     -37.687  16.786  -4.506  1.00 20.00     0.003 C 
HETATM    7  C6  UNL     1     -37.939  15.301  -4.193  1.00 20.00     0.021 C 
BRANCH   4   8
HETATM    8  C3  UNL     1     -36.034  13.760  -5.151  1.00 20.00     0.182 C 
HETATM    9  O9  UNL     1     -35.915  12.713  -4.455  1.00 20.00    -0.647 OA
HETATM   10  O10 UNL     1     -35.897  13.927  -6.395  1.00 20.00    -0.647 OA
ENDBRANCH   4   8
ENDBRANCH   3   4
TORSDOF 2
ENDMDL
MODEL 7
REMARK VINA RESULT:      -4.4      1.167      1.170
REMARK  2 active torsions:
REMARK  status: ('A' for Active; 'I' for Inactive)
REMARK    1  A    between atoms: C3_3  and  C7_7 
REMARK    2  A    between atoms: C7_7  and  C8_8 
ROOT
HETATM    1  C1  UNL     1     -34.559  17.024  -6.785  1.00 20.00     0.012 C 
HETATM    2  C2  UNL     1     -35.173  16.697  -5.806  1.00 20.00    -0.116 C 
HETATM    3  C8  UNL     1     -35.928  16.304  -4.612  1.00 20.00     0.113 C 
ENDROOT
BRANCH   3   4
HETATM    4  C7  UNL     1     -35.134  15.312  -3.760  1.00 20.00     0.058 C 
HETATM    5  C5  UNL     1     -35.086  15.693  -2.246  1.00 20.00     0.021 C 
HETATM    6  C4  UNL     1     -33.759  16.426  -2.509  1.00 20.00     0.003 C 
HETATM    7  C6  UNL     1     -33.594  15.570  -3.776  1.00 20.00     0.021 C 
BRANCH   4   8
HETATM    8  C3  UNL     1     -35.564  13.849  -4.061  1.00 20.00     0.182 C 
HETATM    9  O9  UNL     1     -34.635  12.996  -4.020  1.00 20.00    -0.647 OA
HETATM   10  O10 UNL     1     -36.794  13.699  -4.309  1.00 20.00    -0.647 OA
ENDBRANCH   4   8
ENDBRANCH   3   4
TORSDOF 2
ENDMDL
MODEL 8
REMARK VINA RESULT:      -4.1      1.530      2.435
REMARK  2 active torsions:
REMARK  status: ('A' for Active; 'I' for Inactive)
REMARK    1  A    between atoms: C3_3  and  C7_7 
REMARK    2  A    between atoms: C7_7  and  C8_8 
ROOT
HETATM    1  C1  UNL     1     -38.324  16.707  -3.810  1.00 20.00     0.012 C 
HETATM    2  C2  UNL     1     -37.274  16.543  -4.369  1.00 20.00    -0.116 C 
HETATM    3  C8  UNL     1     -35.995  16.350  -5.058  1.00 20.00     0.113 C 
ENDROOT
BRANCH   3   4
HETATM    4  C7  UNL     1     -35.277  15.099  -4.547  1.00 20.00     0.058 C 
HETATM    5  C5  UNL     1     -35.120  15.063  -2.994  1.00 20.00     0.021 C 
HETATM    6  C4  UNL     1     -33.734  15.712  -3.155  1.00 20.00     0.003 C 
HETATM    7  C6  UNL     1     -33.720  15.206  -4.608  1.00 20.00     0.021 C 
BRANCH   4   8
HETATM    8  C3  UNL     1     -35.878  13.813  -5.181  1.00 20.00     0.182 C 
HETATM    9  O9  UNL     1     -36.065  13.865  -6.429  1.00 20.00    -0.647 OA
HETATM   10  O10 UNL     1     -36.103  12.876  -4.366  1.00 20.00    -0.647 OA
ENDBRANCH   4   8
ENDBRANCH   3   4
TORSDOF 2
ENDMDL
MODEL 9
REMARK VINA RESULT:      -4.1      1.782      2.613
REMARK  2 active torsions:
REMARK  status: ('A' for Active; 'I' for Inactive)
REMARK    1  A    between atoms: C3_3  and  C7_7 
REMARK    2  A    between atoms: C7_7  and  C8_8 
ROOT
HETATM    1  C1  UNL     1     -37.626  16.511  -4.713  1.00 20.00     0.012 C 
HETATM    2  C2  UNL     1     -36.426  16.511  -4.752  1.00 20.00    -0.116 C 
HETATM    3  C8  UNL     1     -34.961  16.515  -4.808  1.00 20.00     0.113 C 
ENDROOT
BRANCH   3   4
HETATM    4  C7  UNL     1     -34.364  15.656  -3.691  1.00 20.00     0.058 C 
HETATM    5  C5  UNL     1     -35.096  15.822  -2.321  1.00 20.00     0.021 C 
HETATM    6  C4  UNL     1     -34.071  16.905  -1.944  1.00 20.00     0.003 C 
HETATM    7  C6  UNL     1     -33.124  16.307  -3.000  1.00 20.00     0.021 C 
BRANCH   4   8
HETATM    8  C3  UNL     1     -34.166  14.188  -4.162  1.00 20.00     0.182 C 
HETATM    9  O9  UNL     1     -35.188  13.453  -4.076  1.00 20.00    -0.647 OA
HETATM   10  O10 UNL     1     -33.003  13.917  -4.574  1.00 20.00    -0.647 OA
ENDBRANCH   4   8
ENDBRANCH   3   4
TORSDOF 2
ENDMDL
