MODEL 1
REMARK VINA RESULT:      -4.2      0.000      0.000
REMARK  0 active torsions:
REMARK  status: ('A' for Active; 'I' for Inactive)
ROOT
HETATM    1  C1  UNL     1     -35.383  13.789  -4.129  1.00 20.00     0.125 C 
HETATM    2  C2  UNL     1     -35.008  15.667  -2.449  1.00 20.00     0.074 A 
HETATM    3  C3  UNL     1     -33.011  16.224  -3.277  1.00 20.00     0.167 A 
HETATM    4  C4  UNL     1     -34.691  14.854  -3.513  1.00 20.00     0.156 A 
HETATM    5  C5  UNL     1     -33.917  16.556  -2.295  1.00 20.00     0.059 A 
HETATM    6  N6  UNL     1     -35.951  12.913  -4.635  1.00 20.00    -0.189 NA
HETATM    7  O7  UNL     1     -33.476  15.187  -4.023  1.00 20.00    -0.310 OA
HETATM    8 CL8  UNL     1     -33.784  17.775  -1.127  1.00 20.00    -0.082 Cl
ENDROOT
TORSDOF 0
ENDMDL
MODEL 2
REMARK VINA RESULT:      -4.2     11.385     11.770
REMARK  0 active torsions:
REMARK  status: ('A' for Active; 'I' for Inactive)
ROOT
HETATM    1  C1  UNL     1     -32.621   7.295   1.969  1.00 20.00     0.125 C 
HETATM    2  C2  UNL     1     -33.725   6.726   4.194  1.00 20.00     0.074 A 
HETATM    3  C3  UNL     1     -34.153   4.612   3.622  1.00 20.00     0.167 A 
HETATM    4  C4  UNL     1     -33.274   6.478   2.918  1.00 20.00     0.156 A 
HETATM    5  C5  UNL     1     -34.297   5.514   4.651  1.00 20.00     0.059 A 
HETATM    6  N6  UNL     1     -32.087   7.967   1.189  1.00 20.00    -0.189 NA
HETATM    7  O7  UNL     1     -33.530   5.191   2.562  1.00 20.00    -0.310 OA
HETATM    8 CL8  UNL     1     -35.006   5.259   6.167  1.00 20.00    -0.082 Cl
ENDROOT
TORSDOF 0
ENDMDL
MODEL 3
REMARK VINA RESULT:      -4.1     17.186     17.668
REMARK  0 active torsions:
REMARK  status: ('A' for Active; 'I' for Inactive)
ROOT
HETATM    1  C1  UNL     1     -22.386  17.215   8.500  1.00 20.00     0.125 C 
HETATM    2  C2  UNL     1     -24.353  17.862   9.985  1.00 20.00     0.074 A 
HETATM    3  C3  UNL     1     -23.139  17.882  11.857  1.00 20.00     0.167 A 
HETATM    4  C4  UNL     1     -23.046  17.538   9.706  1.00 20.00     0.156 A 
HETATM    5  C5  UNL     1     -24.414  18.085  11.381  1.00 20.00     0.059 A 
HETATM    6  N6  UNL     1     -21.845  16.949   7.508  1.00 20.00    -0.189 NA
HETATM    7  O7  UNL     1     -22.299  17.549  10.842  1.00 20.00    -0.310 OA
HETATM    8 CL8  UNL     1     -25.796  18.515  12.261  1.00 20.00    -0.082 Cl
ENDROOT
TORSDOF 0
ENDMDL
MODEL 4
REMARK VINA RESULT:      -4.0     16.324     16.992
REMARK  0 active torsions:
REMARK  status: ('A' for Active; 'I' for Inactive)
ROOT
HETATM    1  C1  UNL     1     -24.338  18.836   7.401  1.00 20.00     0.125 C 
HETATM    2  C2  UNL     1     -23.875  18.247   9.836  1.00 20.00     0.074 A 
HETATM    3  C3  UNL     1     -21.667  18.101   9.546  1.00 20.00     0.167 A 
HETATM    4  C4  UNL     1     -23.549  18.509   8.526  1.00 20.00     0.156 A 
HETATM    5  C5  UNL     1     -22.652  17.982  10.499  1.00 20.00     0.059 A 
HETATM    6  N6  UNL     1     -24.987  19.104   6.477  1.00 20.00    -0.189 NA
HETATM    7  O7  UNL     1     -22.205  18.423   8.340  1.00 20.00    -0.310 OA
HETATM    8 CL8  UNL     1     -22.473  17.598  12.138  1.00 20.00    -0.082 Cl
ENDROOT
TORSDOF 0
ENDMDL
MODEL 5
REMARK VINA RESULT:      -4.0     11.051     11.977
REMARK  0 active torsions:
REMARK  status: ('A' for Active; 'I' for Inactive)
ROOT
HETATM    1  C1  UNL     1     -41.479   9.160   0.212  1.00 20.00     0.125 C 
HETATM    2  C2  UNL     1     -41.199   7.031  -1.159  1.00 20.00     0.074 A 
HETATM    3  C3  UNL     1     -41.969   5.699   0.457  1.00 20.00     0.167 A 
HETATM    4  C4  UNL     1     -41.536   7.774  -0.052  1.00 20.00     0.156 A 
HETATM    5  C5  UNL     1     -41.479   5.683  -0.829  1.00 20.00     0.059 A 
HETATM    6  N6  UNL     1     -41.430  10.299   0.429  1.00 20.00    -0.189 NA
HETATM    7  O7  UNL     1     -42.007   6.970   0.938  1.00 20.00    -0.310 OA
HETATM    8 CL8  UNL     1     -41.248   4.343  -1.837  1.00 20.00    -0.082 Cl
ENDROOT
TORSDOF 0
ENDMDL
MODEL 6
REMARK VINA RESULT:      -4.0      1.238      1.533
REMARK  0 active torsions:
REMARK  status: ('A' for Active; 'I' for Inactive)
ROOT
HETATM    1  C1  UNL     1     -35.399  13.845  -4.081  1.00 20.00     0.125 C 
HETATM    2  C2  UNL     1     -33.625  15.532  -3.374  1.00 20.00     0.074 A 
HETATM    3  C3  UNL     1     -34.990  16.625  -1.988  1.00 20.00     0.167 A 
HETATM    4  C4  UNL     1     -34.873  14.953  -3.381  1.00 20.00     0.156 A 
HETATM    5  C5  UNL     1     -33.701  16.619  -2.469  1.00 20.00     0.059 A 
HETATM    6  N6  UNL     1     -35.831  12.935  -4.657  1.00 20.00    -0.189 NA
HETATM    7  O7  UNL     1     -35.711  15.613  -2.538  1.00 20.00    -0.310 OA
HETATM    8 CL8  UNL     1     -32.439  17.678  -2.079  1.00 20.00    -0.082 Cl
ENDROOT
TORSDOF 0
ENDMDL
MODEL 7
REMARK VINA RESULT:      -3.7      3.688      4.440
REMARK  0 active torsions:
REMARK  status: ('A' for Active; 'I' for Inactive)
ROOT
HETATM    1  C1  UNL     1     -32.244  18.165  -1.654  1.00 20.00     0.125 C 
HETATM    2  C2  UNL     1     -33.164  16.232  -3.036  1.00 20.00     0.074 A 
HETATM    3  C3  UNL     1     -35.091  16.138  -1.914  1.00 20.00     0.167 A 
HETATM    4  C4  UNL     1     -33.186  17.189  -2.049  1.00 20.00     0.156 A 
HETATM    5  C5  UNL     1     -34.401  15.549  -2.949  1.00 20.00     0.059 A 
HETATM    6  N6  UNL     1     -31.469  18.965  -1.330  1.00 20.00    -0.189 NA
HETATM    7  O7  UNL     1     -34.357  17.140  -1.361  1.00 20.00    -0.310 OA
HETATM    8 CL8  UNL     1     -34.901  14.267  -3.936  1.00 20.00    -0.082 Cl
ENDROOT
TORSDOF 0
ENDMDL
MODEL 8
REMARK VINA RESULT:      -3.7      3.287      3.842
REMARK  0 active torsions:
REMARK  status: ('A' for Active; 'I' for Inactive)
ROOT
HETATM    1  C1  UNL     1     -33.009  17.160  -2.196  1.00 20.00     0.125 C 
HETATM    2  C2  UNL     1     -34.809  15.525  -2.956  1.00 20.00     0.074 A 
HETATM    3  C3  UNL     1     -33.487  14.514  -4.443  1.00 20.00     0.167 A 
HETATM    4  C4  UNL     1     -33.559  16.099  -2.948  1.00 20.00     0.156 A 
HETATM    5  C5  UNL     1     -34.763  14.496  -3.928  1.00 20.00     0.059 A 
HETATM    6  N6  UNL     1     -32.558  18.033  -1.578  1.00 20.00    -0.189 NA
HETATM    7  O7  UNL     1     -32.747  15.488  -3.851  1.00 20.00    -0.310 OA
HETATM    8 CL8  UNL     1     -36.040  13.466  -4.347  1.00 20.00    -0.082 Cl
ENDROOT
TORSDOF 0
ENDMDL
MODEL 9
REMARK VINA RESULT:      -3.6      2.710      2.962
REMARK  0 active torsions:
REMARK  status: ('A' for Active; 'I' for Inactive)
ROOT
HETATM    1  C1  UNL     1     -37.274  14.265  -4.497  1.00 20.00     0.125 C 
HETATM    2  C2  UNL     1     -34.786  14.218  -3.947  1.00 20.00     0.074 A 
HETATM    3  C3  UNL     1     -34.168  15.010  -5.939  1.00 20.00     0.167 A 
HETATM    4  C4  UNL     1     -35.892  14.442  -4.732  1.00 20.00     0.156 A 
HETATM    5  C5  UNL     1     -33.666  14.585  -4.730  1.00 20.00     0.059 A 
HETATM    6  N6  UNL     1     -38.408  14.118  -4.303  1.00 20.00    -0.189 NA
HETATM    7  O7  UNL     1     -35.525  14.926  -5.948  1.00 20.00    -0.310 OA
HETATM    8 CL8  UNL     1     -32.045  14.508  -4.247  1.00 20.00    -0.082 Cl
ENDROOT
TORSDOF 0
ENDMDL
