MODEL 1
REMARK VINA RESULT:      -4.0      0.000      0.000
REMARK  2 active torsions:
REMARK  status: ('A' for Active; 'I' for Inactive)
REMARK    1  A    between atoms: C6_6  and  C8_8 
REMARK    2  A    between atoms: C8_8  and  O9_9 
ROOT
HETATM    1  C1  UNL     1     -33.945  17.584  -1.225  1.00 20.00    -0.004 C 
HETATM    2  C2  UNL     1     -35.093  16.718  -1.322  1.00 20.00    -0.003 C 
HETATM    3  C3  UNL     1     -32.906  17.458  -2.061  1.00 20.00    -0.025 C 
HETATM    4  C4  UNL     1     -35.269  15.910  -2.378  1.00 20.00    -0.003 C 
HETATM    5  C5  UNL     1     -32.875  16.415  -3.147  1.00 20.00     0.054 C 
HETATM    6  C6  UNL     1     -34.268  15.836  -3.506  1.00 20.00     0.060 C 
HETATM    7 BR10 UNL     1     -35.042  16.954  -4.955  1.00 20.00    -0.079 Br
ENDROOT
BRANCH   6   8
HETATM    8  C8  UNL     1     -34.138  14.417  -4.063  1.00 20.00     0.192 C 
BRANCH   8   9
HETATM    9  O9  UNL     1     -35.080  14.258  -5.107  1.00 20.00    -0.394 OA
HETATM   10  C7  UNL     1     -36.192  13.468  -4.698  1.00 20.00     0.201 C 
ENDBRANCH   8   9
ENDBRANCH   6   8
TORSDOF 2
ENDMDL
MODEL 2
REMARK VINA RESULT:      -3.9      2.546      4.512
REMARK  2 active torsions:
REMARK  status: ('A' for Active; 'I' for Inactive)
REMARK    1  A    between atoms: C6_6  and  C8_8 
REMARK    2  A    between atoms: C8_8  and  O9_9 
ROOT
HETATM    1  C1  UNL     1     -34.455  15.132  -3.459  1.00 20.00    -0.004 C 
HETATM    2  C2  UNL     1     -33.143  15.716  -3.578  1.00 20.00    -0.003 C 
HETATM    3  C3  UNL     1     -35.320  15.547  -2.524  1.00 20.00    -0.025 C 
HETATM    4  C4  UNL     1     -32.818  16.837  -2.917  1.00 20.00    -0.003 C 
HETATM    5  C5  UNL     1     -34.978  16.644  -1.550  1.00 20.00     0.054 C 
HETATM    6  C6  UNL     1     -33.786  17.533  -1.992  1.00 20.00     0.060 C 
HETATM    7 BR10 UNL     1     -34.511  19.049  -3.051  1.00 20.00    -0.079 Br
ENDROOT
BRANCH   6   8
HETATM    8  C8  UNL     1     -33.082  18.137  -0.776  1.00 20.00     0.192 C 
BRANCH   8   9
HETATM    9  O9  UNL     1     -31.687  18.111  -1.009  1.00 20.00    -0.394 OA
HETATM   10  C7  UNL     1     -30.949  18.448   0.162  1.00 20.00     0.201 C 
ENDBRANCH   8   9
ENDBRANCH   6   8
TORSDOF 2
ENDMDL
MODEL 3
REMARK VINA RESULT:      -3.9      1.568      2.149
REMARK  2 active torsions:
REMARK  status: ('A' for Active; 'I' for Inactive)
REMARK    1  A    between atoms: C6_6  and  C8_8 
REMARK    2  A    between atoms: C8_8  and  O9_9 
ROOT
HETATM    1  C1  UNL     1     -33.305  16.265  -2.722  1.00 20.00    -0.004 C 
HETATM    2  C2  UNL     1     -34.637  16.442  -2.200  1.00 20.00    -0.003 C 
HETATM    3  C3  UNL     1     -33.069  15.468  -3.773  1.00 20.00    -0.025 C 
HETATM    4  C4  UNL     1     -35.712  16.003  -2.871  1.00 20.00    -0.003 C 
HETATM    5  C5  UNL     1     -34.174  14.716  -4.469  1.00 20.00     0.054 C 
HETATM    6  C6  UNL     1     -35.593  15.275  -4.188  1.00 20.00     0.060 C 
HETATM    7 BR10 UNL     1     -35.999  16.643  -5.571  1.00 20.00    -0.079 Br
ENDROOT
BRANCH   6   8
HETATM    8  C8  UNL     1     -36.646  14.174  -4.330  1.00 20.00     0.192 C 
BRANCH   8   9
HETATM    9  O9  UNL     1     -37.754  14.703  -5.034  1.00 20.00    -0.394 OA
HETATM   10  C7  UNL     1     -38.921  14.755  -4.220  1.00 20.00     0.201 C 
ENDBRANCH   8   9
ENDBRANCH   6   8
TORSDOF 2
ENDMDL
MODEL 4
REMARK VINA RESULT:      -3.8     17.007     17.627
REMARK  2 active torsions:
REMARK  status: ('A' for Active; 'I' for Inactive)
REMARK    1  A    between atoms: C6_6  and  C8_8 
REMARK    2  A    between atoms: C8_8  and  O9_9 
ROOT
HETATM    1  C1  UNL     1     -25.078  16.726  12.117  1.00 20.00    -0.004 C 
HETATM    2  C2  UNL     1     -24.648  15.870  11.040  1.00 20.00    -0.003 C 
HETATM    3  C3  UNL     1     -24.511  17.923  12.324  1.00 20.00    -0.025 C 
HETATM    4  C4  UNL     1     -23.832  16.321  10.075  1.00 20.00    -0.003 C 
HETATM    5  C5  UNL     1     -23.402  18.444  11.448  1.00 20.00     0.054 C 
HETATM    6  C6  UNL     1     -23.293  17.731  10.074  1.00 20.00     0.060 C 
HETATM    7 BR10 UNL     1     -24.433  18.717   8.780  1.00 20.00    -0.079 Br
ENDROOT
BRANCH   6   8
HETATM    8  C8  UNL     1     -21.861  17.796   9.543  1.00 20.00     0.192 C 
BRANCH   8   9
HETATM    9  O9  UNL     1     -21.650  16.688   8.689  1.00 20.00    -0.394 OA
HETATM   10  C7  UNL     1     -21.314  17.096   7.366  1.00 20.00     0.201 C 
ENDBRANCH   8   9
ENDBRANCH   6   8
TORSDOF 2
ENDMDL
MODEL 5
REMARK VINA RESULT:      -3.8      2.727      4.627
REMARK  2 active torsions:
REMARK  status: ('A' for Active; 'I' for Inactive)
REMARK    1  A    between atoms: C6_6  and  C8_8 
REMARK    2  A    between atoms: C8_8  and  O9_9 
ROOT
HETATM    1  C1  UNL     1     -34.247  15.467  -3.268  1.00 20.00    -0.004 C 
HETATM    2  C2  UNL     1     -33.031  16.238  -3.193  1.00 20.00    -0.003 C 
HETATM    3  C3  UNL     1     -35.239  15.644  -2.385  1.00 20.00    -0.025 C 
HETATM    4  C4  UNL     1     -32.933  17.307  -2.388  1.00 20.00    -0.003 C 
HETATM    5  C5  UNL     1     -35.147  16.654  -1.272  1.00 20.00     0.054 C 
HETATM    6  C6  UNL     1     -34.069  17.746  -1.496  1.00 20.00     0.060 C 
HETATM    7 BR10 UNL     1     -34.921  19.262  -2.457  1.00 20.00    -0.079 Br
ENDROOT
BRANCH   6   8
HETATM    8  C8  UNL     1     -33.567  18.294  -0.159  1.00 20.00     0.192 C 
BRANCH   8   9
HETATM    9  O9  UNL     1     -34.399  17.794   0.870  1.00 20.00    -0.394 OA
HETATM   10  C7  UNL     1     -33.878  18.090   2.162  1.00 20.00     0.201 C 
ENDBRANCH   8   9
ENDBRANCH   6   8
TORSDOF 2
ENDMDL
MODEL 6
REMARK VINA RESULT:      -3.7      1.341      1.480
REMARK  2 active torsions:
REMARK  status: ('A' for Active; 'I' for Inactive)
REMARK    1  A    between atoms: C6_6  and  C8_8 
REMARK    2  A    between atoms: C8_8  and  O9_9 
ROOT
HETATM    1  C1  UNL     1     -33.975  17.005  -1.552  1.00 20.00    -0.004 C 
HETATM    2  C2  UNL     1     -35.221  16.301  -1.724  1.00 20.00    -0.003 C 
HETATM    3  C3  UNL     1     -33.046  17.021  -2.517  1.00 20.00    -0.025 C 
HETATM    4  C4  UNL     1     -35.595  15.829  -2.922  1.00 20.00    -0.003 C 
HETATM    5  C5  UNL     1     -33.247  16.312  -3.831  1.00 20.00     0.054 C 
HETATM    6  C6  UNL     1     -34.727  15.977  -4.149  1.00 20.00     0.060 C 
HETATM    7 BR10 UNL     1     -35.504  17.509  -5.147  1.00 20.00    -0.079 Br
ENDROOT
BRANCH   6   8
HETATM    8  C8  UNL     1     -34.821  14.756  -5.066  1.00 20.00     0.192 C 
BRANCH   8   9
HETATM    9  O9  UNL     1     -33.622  14.665  -5.812  1.00 20.00    -0.394 OA
HETATM   10  C7  UNL     1     -33.828  14.991  -7.183  1.00 20.00     0.201 C 
ENDBRANCH   8   9
ENDBRANCH   6   8
TORSDOF 2
ENDMDL
MODEL 7
REMARK VINA RESULT:      -3.7     11.780     12.878
REMARK  2 active torsions:
REMARK  status: ('A' for Active; 'I' for Inactive)
REMARK    1  A    between atoms: C6_6  and  C8_8 
REMARK    2  A    between atoms: C8_8  and  O9_9 
ROOT
HETATM    1  C1  UNL     1     -42.428   9.050   0.036  1.00 20.00    -0.004 C 
HETATM    2  C2  UNL     1     -41.279   8.266   0.418  1.00 20.00    -0.003 C 
HETATM    3  C3  UNL     1     -43.417   8.523  -0.697  1.00 20.00    -0.025 C 
HETATM    4  C4  UNL     1     -41.258   6.936   0.251  1.00 20.00    -0.003 C 
HETATM    5  C5  UNL     1     -43.392   7.090  -1.162  1.00 20.00     0.054 C 
HETATM    6  C6  UNL     1     -42.412   6.186  -0.369  1.00 20.00     0.060 C 
HETATM    7 BR10 UNL     1     -43.403   5.405   1.166  1.00 20.00    -0.079 Br
ENDROOT
BRANCH   6   8
HETATM    8  C8  UNL     1     -41.937   5.017  -1.232  1.00 20.00     0.192 C 
BRANCH   8   9
HETATM    9  O9  UNL     1     -43.043   4.518  -1.960  1.00 20.00    -0.394 OA
HETATM   10  C7  UNL     1     -42.682   3.411  -2.779  1.00 20.00     0.201 C 
ENDBRANCH   8   9
ENDBRANCH   6   8
TORSDOF 2
ENDMDL
MODEL 8
REMARK VINA RESULT:      -3.6      2.046      4.125
REMARK  2 active torsions:
REMARK  status: ('A' for Active; 'I' for Inactive)
REMARK    1  A    between atoms: C6_6  and  C8_8 
REMARK    2  A    between atoms: C8_8  and  O9_9 
ROOT
HETATM    1  C1  UNL     1     -34.899  14.205  -4.032  1.00 20.00    -0.004 C 
HETATM    2  C2  UNL     1     -33.492  14.465  -4.215  1.00 20.00    -0.003 C 
HETATM    3  C3  UNL     1     -35.654  14.986  -3.248  1.00 20.00    -0.025 C 
HETATM    4  C4  UNL     1     -32.935  15.612  -3.798  1.00 20.00    -0.003 C 
HETATM    5  C5  UNL     1     -35.084  16.176  -2.519  1.00 20.00     0.054 C 
HETATM    6  C6  UNL     1     -33.733  16.679  -3.089  1.00 20.00     0.060 C 
HETATM    7 BR10 UNL     1     -34.123  18.041  -4.482  1.00 20.00    -0.079 Br
ENDROOT
BRANCH   6   8
HETATM    8  C8  UNL     1     -32.914  17.378  -2.003  1.00 20.00     0.192 C 
BRANCH   8   9
HETATM    9  O9  UNL     1     -33.772  17.677  -0.918  1.00 20.00    -0.394 OA
HETATM   10  C7  UNL     1     -33.109  18.440   0.085  1.00 20.00     0.201 C 
ENDBRANCH   8   9
ENDBRANCH   6   8
TORSDOF 2
ENDMDL
MODEL 9
REMARK VINA RESULT:      -3.6      2.227      2.875
REMARK  2 active torsions:
REMARK  status: ('A' for Active; 'I' for Inactive)
REMARK    1  A    between atoms: C6_6  and  C8_8 
REMARK    2  A    between atoms: C8_8  and  O9_9 
ROOT
HETATM    1  C1  UNL     1     -33.909  16.223  -2.360  1.00 20.00    -0.004 C 
HETATM    2  C2  UNL     1     -33.389  15.999  -3.686  1.00 20.00    -0.003 C 
HETATM    3  C3  UNL     1     -35.220  16.398  -2.147  1.00 20.00    -0.025 C 
HETATM    4  C4  UNL     1     -34.204  15.735  -4.718  1.00 20.00    -0.003 C 
HETATM    5  C5  UNL     1     -36.223  16.369  -3.271  1.00 20.00     0.054 C 
HETATM    6  C6  UNL     1     -35.704  15.686  -4.563  1.00 20.00     0.060 C 
HETATM    7 BR10 UNL     1     -36.148  13.753  -4.457  1.00 20.00    -0.079 Br
ENDROOT
BRANCH   6   8
HETATM    8  C8  UNL     1     -36.424  16.241  -5.794  1.00 20.00     0.192 C 
BRANCH   8   9
HETATM    9  O9  UNL     1     -36.671  15.171  -6.687  1.00 20.00    -0.394 OA
HETATM   10  C7  UNL     1     -35.959  15.330  -7.910  1.00 20.00     0.201 C 
ENDBRANCH   8   9
ENDBRANCH   6   8
TORSDOF 2
ENDMDL
