MODEL 1
REMARK VINA RESULT:      -3.6      0.000      0.000
REMARK  3 active torsions:
REMARK  status: ('A' for Active; 'I' for Inactive)
REMARK    1  A    between atoms: C1_1  and  C6_6 
REMARK    2  A    between atoms: C1_1  and  O9_9 
REMARK    3  A    between atoms: C7_7  and  O9_9 
ROOT
HETATM    1  C1  UNL     1     -34.761  14.336  -4.216  1.00 20.00     0.274 C 
HETATM    2  O8  UNL     1     -33.591  14.107  -4.501  1.00 20.00    -0.264 OA
ENDROOT
BRANCH   1   3
HETATM    3  C6  UNL     1     -35.954  13.963  -5.080  1.00 20.00     0.154 C 
HETATM    4  C2  UNL     1     -37.254  14.363  -4.384  1.00 20.00     0.033 C 
HETATM    5  S10 UNL     1     -35.811  14.856  -6.666  1.00 20.00    -0.082 SA
ENDBRANCH   1   3
BRANCH   1   6
HETATM    6  O9  UNL     1     -35.192  14.969  -3.081  1.00 20.00    -0.310 OA
BRANCH   6   7
HETATM    7  C7  UNL     1     -34.645  16.268  -2.852  1.00 20.00     0.060 C 
HETATM    8  C3  UNL     1     -35.246  17.235  -3.872  1.00 20.00     0.045 C 
HETATM    9  C4  UNL     1     -35.022  16.683  -1.432  1.00 20.00     0.045 C 
HETATM   10  C5  UNL     1     -33.127  16.190  -3.004  1.00 20.00     0.045 C 
ENDBRANCH   6   7
ENDBRANCH   1   6
TORSDOF 3
ENDMDL
MODEL 2
REMARK VINA RESULT:      -3.6      2.168      3.716
REMARK  3 active torsions:
REMARK  status: ('A' for Active; 'I' for Inactive)
REMARK    1  A    between atoms: C1_1  and  C6_6 
REMARK    2  A    between atoms: C1_1  and  O9_9 
REMARK    3  A    between atoms: C7_7  and  O9_9 
ROOT
HETATM    1  C1  UNL     1     -34.357  14.554  -4.078  1.00 20.00     0.274 C 
HETATM    2  O8  UNL     1     -34.889  13.449  -4.097  1.00 20.00    -0.264 OA
ENDROOT
BRANCH   1   3
HETATM    3  C6  UNL     1     -34.346  15.491  -2.882  1.00 20.00     0.154 C 
HETATM    4  C2  UNL     1     -33.166  16.457  -2.981  1.00 20.00     0.033 C 
HETATM    5  S10 UNL     1     -35.908  16.435  -2.882  1.00 20.00    -0.082 SA
ENDBRANCH   1   3
BRANCH   1   6
HETATM    6  O9  UNL     1     -33.692  15.133  -5.126  1.00 20.00    -0.310 OA
BRANCH   6   7
HETATM    7  C7  UNL     1     -34.490  15.442  -6.268  1.00 20.00     0.060 C 
HETATM    8  C3  UNL     1     -34.752  16.948  -6.285  1.00 20.00     0.045 C 
HETATM    9  C4  UNL     1     -33.703  15.020  -7.507  1.00 20.00     0.045 C 
HETATM   10  C5  UNL     1     -35.801  14.662  -6.173  1.00 20.00     0.045 C 
ENDBRANCH   6   7
ENDBRANCH   1   6
TORSDOF 3
ENDMDL
MODEL 3
REMARK VINA RESULT:      -3.6      1.648      2.236
REMARK  3 active torsions:
REMARK  status: ('A' for Active; 'I' for Inactive)
REMARK    1  A    between atoms: C1_1  and  C6_6 
REMARK    2  A    between atoms: C1_1  and  O9_9 
REMARK    3  A    between atoms: C7_7  and  O9_9 
ROOT
HETATM    1  C1  UNL     1     -33.739  14.877  -4.597  1.00 20.00     0.274 C 
HETATM    2  O8  UNL     1     -33.757  13.706  -4.236  1.00 20.00    -0.264 OA
ENDROOT
BRANCH   1   3
HETATM    3  C6  UNL     1     -34.461  15.420  -5.819  1.00 20.00     0.154 C 
HETATM    4  C2  UNL     1     -33.707  15.035  -7.091  1.00 20.00     0.033 C 
HETATM    5  S10 UNL     1     -36.136  14.694  -5.860  1.00 20.00    -0.082 SA
ENDBRANCH   1   3
BRANCH   1   6
HETATM    6  O9  UNL     1     -33.064  15.890  -3.970  1.00 20.00    -0.310 OA
BRANCH   6   7
HETATM    7  C7  UNL     1     -33.841  16.694  -3.083  1.00 20.00     0.060 C 
HETATM    8  C3  UNL     1     -34.860  15.798  -2.381  1.00 20.00     0.045 C 
HETATM    9  C4  UNL     1     -32.885  17.317  -2.068  1.00 20.00     0.045 C 
HETATM   10  C5  UNL     1     -34.542  17.781  -3.898  1.00 20.00     0.045 C 
ENDBRANCH   6   7
ENDBRANCH   1   6
TORSDOF 3
ENDMDL
MODEL 4
REMARK VINA RESULT:      -3.5      1.407      1.627
REMARK  3 active torsions:
REMARK  status: ('A' for Active; 'I' for Inactive)
REMARK    1  A    between atoms: C1_1  and  C6_6 
REMARK    2  A    between atoms: C1_1  and  O9_9 
REMARK    3  A    between atoms: C7_7  and  O9_9 
ROOT
HETATM    1  C1  UNL     1     -33.963  15.130  -3.952  1.00 20.00     0.274 C 
HETATM    2  O8  UNL     1     -32.774  14.895  -4.132  1.00 20.00    -0.264 OA
ENDROOT
BRANCH   1   3
HETATM    3  C6  UNL     1     -35.015  15.176  -5.047  1.00 20.00     0.154 C 
HETATM    4  C2  UNL     1     -34.365  14.950  -6.412  1.00 20.00     0.033 C 
HETATM    5  S10 UNL     1     -36.232  13.854  -4.725  1.00 20.00    -0.082 SA
ENDBRANCH   1   3
BRANCH   1   6
HETATM    6  O9  UNL     1     -34.545  15.395  -2.740  1.00 20.00    -0.310 OA
BRANCH   6   7
HETATM    7  C7  UNL     1     -34.483  16.755  -2.310  1.00 20.00     0.060 C 
HETATM    8  C3  UNL     1     -35.206  17.624  -3.337  1.00 20.00     0.045 C 
HETATM    9  C4  UNL     1     -35.175  16.839  -0.951  1.00 20.00     0.045 C 
HETATM   10  C5  UNL     1     -33.014  17.161  -2.190  1.00 20.00     0.045 C 
ENDBRANCH   6   7
ENDBRANCH   1   6
TORSDOF 3
ENDMDL
MODEL 5
REMARK VINA RESULT:      -3.5      2.189      2.801
REMARK  3 active torsions:
REMARK  status: ('A' for Active; 'I' for Inactive)
REMARK    1  A    between atoms: C1_1  and  C6_6 
REMARK    2  A    between atoms: C1_1  and  O9_9 
REMARK    3  A    between atoms: C7_7  and  O9_9 
ROOT
HETATM    1  C1  UNL     1     -37.322  14.762  -4.153  1.00 20.00     0.274 C 
HETATM    2  O8  UNL     1     -37.354  13.592  -4.518  1.00 20.00    -0.264 OA
ENDROOT
BRANCH   1   3
HETATM    3  C6  UNL     1     -38.334  15.824  -4.549  1.00 20.00     0.154 C 
HETATM    4  C2  UNL     1     -39.751  15.256  -4.471  1.00 20.00     0.033 C 
HETATM    5  S10 UNL     1     -38.173  17.225  -3.390  1.00 20.00    -0.082 SA
ENDBRANCH   1   3
BRANCH   1   6
HETATM    6  O9  UNL     1     -36.370  15.312  -3.335  1.00 20.00    -0.310 OA
BRANCH   6   7
HETATM    7  C7  UNL     1     -35.033  15.278  -3.834  1.00 20.00     0.060 C 
HETATM    8  C3  UNL     1     -35.007  15.960  -5.202  1.00 20.00     0.045 C 
HETATM    9  C4  UNL     1     -34.152  16.033  -2.841  1.00 20.00     0.045 C 
HETATM   10  C5  UNL     1     -34.590  13.819  -3.944  1.00 20.00     0.045 C 
ENDBRANCH   6   7
ENDBRANCH   1   6
TORSDOF 3
ENDMDL
MODEL 6
REMARK VINA RESULT:      -3.5      2.152      2.858
REMARK  3 active torsions:
REMARK  status: ('A' for Active; 'I' for Inactive)
REMARK    1  A    between atoms: C1_1  and  C6_6 
REMARK    2  A    between atoms: C1_1  and  O9_9 
REMARK    3  A    between atoms: C7_7  and  O9_9 
ROOT
HETATM    1  C1  UNL     1     -36.702  14.684  -4.648  1.00 20.00     0.274 C 
HETATM    2  O8  UNL     1     -36.921  13.531  -4.297  1.00 20.00    -0.264 OA
ENDROOT
BRANCH   1   3
HETATM    3  C6  UNL     1     -37.703  15.823  -4.562  1.00 20.00     0.154 C 
HETATM    4  C2  UNL     1     -37.748  16.587  -5.885  1.00 20.00     0.033 C 
HETATM    5  S10 UNL     1     -39.348  15.111  -4.214  1.00 20.00    -0.082 SA
ENDBRANCH   1   3
BRANCH   1   6
HETATM    6  O9  UNL     1     -35.526  15.141  -5.181  1.00 20.00    -0.310 OA
BRANCH   6   7
HETATM    7  C7  UNL     1     -34.522  15.512  -4.235  1.00 20.00     0.060 C 
HETATM    8  C3  UNL     1     -33.336  14.561  -4.386  1.00 20.00     0.045 C 
HETATM    9  C4  UNL     1     -34.104  16.947  -4.548  1.00 20.00     0.045 C 
HETATM   10  C5  UNL     1     -35.119  15.421  -2.831  1.00 20.00     0.045 C 
ENDBRANCH   6   7
ENDBRANCH   1   6
TORSDOF 3
ENDMDL
MODEL 7
REMARK VINA RESULT:      -3.5      1.604      2.087
REMARK  3 active torsions:
REMARK  status: ('A' for Active; 'I' for Inactive)
REMARK    1  A    between atoms: C1_1  and  C6_6 
REMARK    2  A    between atoms: C1_1  and  O9_9 
REMARK    3  A    between atoms: C7_7  and  O9_9 
ROOT
HETATM    1  C1  UNL     1     -34.704  15.173  -5.685  1.00 20.00     0.274 C 
HETATM    2  O8  UNL     1     -33.769  14.715  -6.331  1.00 20.00    -0.264 OA
ENDROOT
BRANCH   1   3
HETATM    3  C6  UNL     1     -36.117  14.616  -5.688  1.00 20.00     0.154 C 
HETATM    4  C2  UNL     1     -36.262  13.541  -4.611  1.00 20.00     0.033 C 
HETATM    5  S10 UNL     1     -37.271  15.986  -5.341  1.00 20.00    -0.082 SA
ENDBRANCH   1   3
BRANCH   1   6
HETATM    6  O9  UNL     1     -34.638  16.264  -4.859  1.00 20.00    -0.310 OA
BRANCH   6   7
HETATM    7  C7  UNL     1     -33.804  16.119  -3.709  1.00 20.00     0.060 C 
HETATM    8  C3  UNL     1     -32.827  14.971  -3.959  1.00 20.00     0.045 C 
HETATM    9  C4  UNL     1     -33.051  17.434  -3.519  1.00 20.00     0.045 C 
HETATM   10  C5  UNL     1     -34.689  15.827  -2.498  1.00 20.00     0.045 C 
ENDBRANCH   6   7
ENDBRANCH   1   6
TORSDOF 3
ENDMDL
MODEL 8
REMARK VINA RESULT:      -3.5      1.901      2.579
REMARK  3 active torsions:
REMARK  status: ('A' for Active; 'I' for Inactive)
REMARK    1  A    between atoms: C1_1  and  C6_6 
REMARK    2  A    between atoms: C1_1  and  O9_9 
REMARK    3  A    between atoms: C7_7  and  O9_9 
ROOT
HETATM    1  C1  UNL     1     -36.017  15.019  -5.749  1.00 20.00     0.274 C 
HETATM    2  O8  UNL     1     -35.955  13.973  -6.384  1.00 20.00    -0.264 OA
ENDROOT
BRANCH   1   3
HETATM    3  C6  UNL     1     -37.275  15.851  -5.566  1.00 20.00     0.154 C 
HETATM    4  C2  UNL     1     -38.089  15.323  -4.385  1.00 20.00     0.033 C 
HETATM    5  S10 UNL     1     -36.776  17.576  -5.239  1.00 20.00    -0.082 SA
ENDBRANCH   1   3
BRANCH   1   6
HETATM    6  O9  UNL     1     -34.968  15.619  -5.103  1.00 20.00    -0.310 OA
BRANCH   6   7
HETATM    7  C7  UNL     1     -34.378  14.861  -4.048  1.00 20.00     0.060 C 
HETATM    8  C3  UNL     1     -32.899  14.650  -4.368  1.00 20.00     0.045 C 
HETATM    9  C4  UNL     1     -34.539  15.664  -2.759  1.00 20.00     0.045 C 
HETATM   10  C5  UNL     1     -35.108  13.523  -3.941  1.00 20.00     0.045 C 
ENDBRANCH   6   7
ENDBRANCH   1   6
TORSDOF 3
ENDMDL
MODEL 9
REMARK VINA RESULT:      -3.5      2.650      4.181
REMARK  3 active torsions:
REMARK  status: ('A' for Active; 'I' for Inactive)
REMARK    1  A    between atoms: C1_1  and  C6_6 
REMARK    2  A    between atoms: C1_1  and  O9_9 
REMARK    3  A    between atoms: C7_7  and  O9_9 
ROOT
HETATM    1  C1  UNL     1     -34.265  16.389  -2.904  1.00 20.00     0.274 C 
HETATM    2  O8  UNL     1     -34.839  15.871  -1.953  1.00 20.00    -0.264 OA
ENDROOT
BRANCH   1   3
HETATM    3  C6  UNL     1     -33.053  17.298  -2.796  1.00 20.00     0.154 C 
HETATM    4  C2  UNL     1     -33.103  18.374  -3.881  1.00 20.00     0.033 C 
HETATM    5  S10 UNL     1     -33.079  18.090  -1.151  1.00 20.00    -0.082 SA
ENDBRANCH   1   3
BRANCH   1   6
HETATM    6  O9  UNL     1     -34.619  16.244  -4.219  1.00 20.00    -0.310 OA
BRANCH   6   7
HETATM    7  C7  UNL     1     -34.398  14.949  -4.779  1.00 20.00     0.060 C 
HETATM    8  C3  UNL     1     -35.482  14.004  -4.263  1.00 20.00     0.045 C 
HETATM    9  C4  UNL     1     -34.481  15.085  -6.298  1.00 20.00     0.045 C 
HETATM   10  C5  UNL     1     -33.010  14.467  -4.358  1.00 20.00     0.045 C 
ENDBRANCH   6   7
ENDBRANCH   1   6
TORSDOF 3
ENDMDL
