MODEL 1
REMARK VINA RESULT:      -4.3      0.000      0.000
REMARK  1 active torsions:
REMARK  status: ('A' for Active; 'I' for Inactive)
REMARK    1  A    between atoms: C3_3  and  C7_7 
ROOT
HETATM    1  C1  UNL     1     -35.328  16.976  -4.147  1.00 20.00    -0.011 C 
HETATM    2  C2  UNL     1     -34.326  16.477  -3.406  1.00 20.00    -0.015 C 
HETATM    3  C4  UNL     1     -35.879  16.290  -5.363  1.00 20.00     0.040 C 
HETATM    4  C5  UNL     1     -33.628  15.188  -3.735  1.00 20.00     0.047 C 
HETATM    5  C6  UNL     1     -33.916  14.694  -5.159  1.00 20.00     0.017 C 
HETATM    6  C7  UNL     1     -35.385  14.852  -5.555  1.00 20.00     0.058 C 
HETATM    7 BR10 UNL     1     -33.693  17.356  -1.883  1.00 20.00    -0.056 Br
ENDROOT
BRANCH   6   8
HETATM    8  C3  UNL     1     -36.233  13.883  -4.781  1.00 20.00     0.127 C 
HETATM    9  C8  UNL     1     -37.560  14.391  -4.286  1.00 20.00     0.091 C 
HETATM   10  O9  UNL     1     -35.862  12.731  -4.564  1.00 20.00    -0.298 OA
ENDBRANCH   6   8
TORSDOF 1
ENDMDL
MODEL 2
REMARK VINA RESULT:      -4.3     17.571     18.832
REMARK  1 active torsions:
REMARK  status: ('A' for Active; 'I' for Inactive)
REMARK    1  A    between atoms: C3_3  and  C7_7 
ROOT
HETATM    1  C1  UNL     1     -24.776  17.252  11.121  1.00 20.00    -0.011 C 
HETATM    2  C2  UNL     1     -25.343  18.418  10.778  1.00 20.00    -0.015 C 
HETATM    3  C4  UNL     1     -23.745  16.553  10.283  1.00 20.00     0.040 C 
HETATM    4  C5  UNL     1     -25.026  19.136   9.496  1.00 20.00     0.047 C 
HETATM    5  C6  UNL     1     -24.287  18.256   8.480  1.00 20.00     0.017 C 
HETATM    6  C7  UNL     1     -23.200  17.394   9.123  1.00 20.00     0.058 C 
HETATM    7 BR10 UNL     1     -26.602  19.263  11.871  1.00 20.00    -0.056 Br
ENDROOT
BRANCH   6   8
HETATM    8  C3  UNL     1     -22.059  18.260   9.577  1.00 20.00     0.127 C 
HETATM    9  C8  UNL     1     -21.348  17.838  10.834  1.00 20.00     0.091 C 
HETATM   10  O9  UNL     1     -21.721  19.263   8.950  1.00 20.00    -0.298 OA
ENDBRANCH   6   8
TORSDOF 1
ENDMDL
MODEL 3
REMARK VINA RESULT:      -4.2      2.064      2.647
REMARK  1 active torsions:
REMARK  status: ('A' for Active; 'I' for Inactive)
REMARK    1  A    between atoms: C3_3  and  C7_7 
ROOT
HETATM    1  C1  UNL     1     -33.342  16.190  -2.896  1.00 20.00    -0.011 C 
HETATM    2  C2  UNL     1     -34.589  16.055  -2.422  1.00 20.00    -0.015 C 
HETATM    3  C4  UNL     1     -32.811  15.414  -4.066  1.00 20.00     0.040 C 
HETATM    4  C5  UNL     1     -35.583  15.085  -2.999  1.00 20.00     0.047 C 
HETATM    5  C6  UNL     1     -34.939  14.039  -3.918  1.00 20.00     0.017 C 
HETATM    6  C7  UNL     1     -33.878  14.636  -4.844  1.00 20.00     0.058 C 
HETATM    7 BR10 UNL     1     -35.213  17.065  -0.979  1.00 20.00    -0.056 Br
ENDROOT
BRANCH   6   8
HETATM    8  C3  UNL     1     -34.531  15.507  -5.880  1.00 20.00     0.127 C 
HETATM    9  C8  UNL     1     -35.570  14.856  -6.753  1.00 20.00     0.091 C 
HETATM   10  O9  UNL     1     -34.232  16.693  -6.006  1.00 20.00    -0.298 OA
ENDBRANCH   6   8
TORSDOF 1
ENDMDL
MODEL 4
REMARK VINA RESULT:      -4.1      1.723      2.533
REMARK  1 active torsions:
REMARK  status: ('A' for Active; 'I' for Inactive)
REMARK    1  A    between atoms: C3_3  and  C7_7 
ROOT
HETATM    1  C1  UNL     1     -34.323  16.058  -2.340  1.00 20.00    -0.011 C 
HETATM    2  C2  UNL     1     -33.634  17.132  -2.755  1.00 20.00    -0.015 C 
HETATM    3  C4  UNL     1     -35.253  15.280  -3.223  1.00 20.00     0.040 C 
HETATM    4  C5  UNL     1     -33.746  17.689  -4.147  1.00 20.00     0.047 C 
HETATM    5  C6  UNL     1     -34.958  17.149  -4.915  1.00 20.00     0.017 C 
HETATM    6  C7  UNL     1     -35.170  15.648  -4.709  1.00 20.00     0.058 C 
HETATM    7 BR10 UNL     1     -32.464  18.052  -1.624  1.00 20.00    -0.056 Br
ENDROOT
BRANCH   6   8
HETATM    8  C3  UNL     1     -34.079  14.876  -5.394  1.00 20.00     0.127 C 
HETATM    9  C8  UNL     1     -33.931  15.085  -6.877  1.00 20.00     0.091 C 
HETATM   10  O9  UNL     1     -33.341  14.113  -4.774  1.00 20.00    -0.298 OA
ENDBRANCH   6   8
TORSDOF 1
ENDMDL
MODEL 5
REMARK VINA RESULT:      -4.0      1.949      2.760
REMARK  1 active torsions:
REMARK  status: ('A' for Active; 'I' for Inactive)
REMARK    1  A    between atoms: C3_3  and  C7_7 
ROOT
HETATM    1  C1  UNL     1     -33.391  17.248  -3.740  1.00 20.00    -0.011 C 
HETATM    2  C2  UNL     1     -34.356  17.695  -4.558  1.00 20.00    -0.015 C 
HETATM    3  C4  UNL     1     -33.586  16.122  -2.766  1.00 20.00     0.040 C 
HETATM    4  C5  UNL     1     -35.749  17.132  -4.564  1.00 20.00     0.047 C 
HETATM    5  C6  UNL     1     -36.056  16.271  -3.332  1.00 20.00     0.017 C 
HETATM    6  C7  UNL     1     -34.897  15.349  -2.950  1.00 20.00     0.058 C 
HETATM    7 BR10 UNL     1     -34.055  19.082  -5.774  1.00 20.00    -0.056 Br
ENDROOT
BRANCH   6   8
HETATM    8  C3  UNL     1     -34.743  14.264  -3.978  1.00 20.00     0.127 C 
HETATM    9  C8  UNL     1     -36.006  13.609  -4.465  1.00 20.00     0.091 C 
HETATM   10  O9  UNL     1     -33.637  13.930  -4.401  1.00 20.00    -0.298 OA
ENDBRANCH   6   8
TORSDOF 1
ENDMDL
MODEL 6
REMARK VINA RESULT:      -3.8      2.715      3.474
REMARK  1 active torsions:
REMARK  status: ('A' for Active; 'I' for Inactive)
REMARK    1  A    between atoms: C3_3  and  C7_7 
ROOT
HETATM    1  C1  UNL     1     -36.555  14.999  -5.010  1.00 20.00    -0.011 C 
HETATM    2  C2  UNL     1     -35.987  15.764  -5.954  1.00 20.00    -0.015 C 
HETATM    3  C4  UNL     1     -35.773  14.200  -4.009  1.00 20.00     0.040 C 
HETATM    4  C5  UNL     1     -34.498  15.878  -6.128  1.00 20.00     0.047 C 
HETATM    5  C6  UNL     1     -33.720  14.787  -5.382  1.00 20.00     0.017 C 
HETATM    6  C7  UNL     1     -34.273  14.517  -3.982  1.00 20.00     0.058 C 
HETATM    7 BR10 UNL     1     -37.005  16.765  -7.160  1.00 20.00    -0.056 Br
ENDROOT
BRANCH   6   8
HETATM    8  C3  UNL     1     -33.986  15.685  -3.082  1.00 20.00     0.127 C 
HETATM    9  C8  UNL     1     -35.044  16.035  -2.070  1.00 20.00     0.091 C 
HETATM   10  O9  UNL     1     -32.938  16.323  -3.165  1.00 20.00    -0.298 OA
ENDBRANCH   6   8
TORSDOF 1
ENDMDL
MODEL 7
REMARK VINA RESULT:      -3.8     18.497     19.418
REMARK  1 active torsions:
REMARK  status: ('A' for Active; 'I' for Inactive)
REMARK    1  A    between atoms: C3_3  and  C7_7 
ROOT
HETATM    1  C1  UNL     1     -23.851  16.270   9.891  1.00 20.00    -0.011 C 
HETATM    2  C2  UNL     1     -22.992  17.290   9.745  1.00 20.00    -0.015 C 
HETATM    3  C4  UNL     1     -24.463  15.884  11.206  1.00 20.00     0.040 C 
HETATM    4  C5  UNL     1     -22.526  18.139  10.894  1.00 20.00     0.047 C 
HETATM    5  C6  UNL     1     -22.834  17.520  12.263  1.00 20.00     0.017 C 
HETATM    6  C7  UNL     1     -24.230  16.899  12.332  1.00 20.00     0.058 C 
HETATM    7 BR10 UNL     1     -22.279  17.749   8.079  1.00 20.00    -0.056 Br
ENDROOT
BRANCH   6   8
HETATM    8  C3  UNL     1     -25.275  17.978  12.308  1.00 20.00     0.127 C 
HETATM    9  C8  UNL     1     -26.710  17.529  12.257  1.00 20.00     0.091 C 
HETATM   10  O9  UNL     1     -24.972  19.170  12.331  1.00 20.00    -0.298 OA
ENDBRANCH   6   8
TORSDOF 1
ENDMDL
MODEL 8
REMARK VINA RESULT:      -3.8      1.281      1.351
REMARK  1 active torsions:
REMARK  status: ('A' for Active; 'I' for Inactive)
REMARK    1  A    between atoms: C3_3  and  C7_7 
ROOT
HETATM    1  C1  UNL     1     -34.427  16.703  -5.003  1.00 20.00    -0.011 C 
HETATM    2  C2  UNL     1     -34.309  16.523  -3.679  1.00 20.00    -0.015 C 
HETATM    3  C4  UNL     1     -34.945  15.650  -5.939  1.00 20.00     0.040 C 
HETATM    4  C5  UNL     1     -34.656  15.231  -2.994  1.00 20.00     0.047 C 
HETATM    5  C6  UNL     1     -34.808  14.056  -3.968  1.00 20.00     0.017 C 
HETATM    6  C7  UNL     1     -35.567  14.436  -5.240  1.00 20.00     0.058 C 
HETATM    7 BR10 UNL     1     -33.686  17.877  -2.550  1.00 20.00    -0.056 Br
ENDROOT
BRANCH   6   8
HETATM    8  C3  UNL     1     -37.015  14.682  -4.922  1.00 20.00     0.127 C 
HETATM    9  C8  UNL     1     -37.593  15.995  -5.375  1.00 20.00     0.091 C 
HETATM   10  O9  UNL     1     -37.694  13.850  -4.322  1.00 20.00    -0.298 OA
ENDBRANCH   6   8
TORSDOF 1
ENDMDL
MODEL 9
REMARK VINA RESULT:      -3.8      2.493      3.474
REMARK  1 active torsions:
REMARK  status: ('A' for Active; 'I' for Inactive)
REMARK    1  A    between atoms: C3_3  and  C7_7 
ROOT
HETATM    1  C1  UNL     1     -36.406  16.603  -4.774  1.00 20.00    -0.011 C 
HETATM    2  C2  UNL     1     -36.450  15.861  -5.891  1.00 20.00    -0.015 C 
HETATM    3  C4  UNL     1     -35.927  16.079  -3.451  1.00 20.00     0.040 C 
HETATM    4  C5  UNL     1     -36.051  14.413  -5.928  1.00 20.00     0.047 C 
HETATM    5  C6  UNL     1     -35.937  13.784  -4.534  1.00 20.00     0.017 C 
HETATM    6  C7  UNL     1     -35.253  14.705  -3.523  1.00 20.00     0.058 C 
HETATM    7 BR10 UNL     1     -37.028  16.567  -7.522  1.00 20.00    -0.056 Br
ENDROOT
BRANCH   6   8
HETATM    8  C3  UNL     1     -33.793  14.838  -3.854  1.00 20.00     0.127 C 
HETATM    9  C8  UNL     1     -33.104  16.089  -3.381  1.00 20.00     0.091 C 
HETATM   10  O9  UNL     1     -33.191  13.966  -4.479  1.00 20.00    -0.298 OA
ENDBRANCH   6   8
TORSDOF 1
ENDMDL
