MODEL 1
REMARK VINA RESULT:      -3.6      0.000      0.000
REMARK  4 active torsions:
REMARK  status: ('A' for Active; 'I' for Inactive)
REMARK    1  A    between atoms: C2_2  and  C6_6 
REMARK    2  A    between atoms: C6_6  and  S10_10 
REMARK    3  A    between atoms: C7_7  and  C8_8 
REMARK    4  A    between atoms: C7_7  and  S10_10 
ROOT
HETATM    1  C6  UNL     1     -34.314  14.962  -5.910  1.00 20.00     0.113 C 
ENDROOT
BRANCH   1   2
HETATM    2  C2  UNL     1     -35.783  14.795  -5.573  1.00 20.00     0.087 A 
HETATM    3  C1  UNL     1     -36.726  15.960  -5.754  1.00 20.00     0.207 A 
HETATM    4  O9  UNL     1     -36.651  14.892  -6.711  1.00 20.00    -0.375 OA
HETATM    5  C3  UNL     1     -36.146  13.694  -4.630  1.00 20.00     0.049 C 
ENDBRANCH   1   2
BRANCH   1   6
HETATM    6  S10 UNL     1     -33.288  14.650  -4.454  1.00 20.00    -0.166 SA
BRANCH   6   7
HETATM    7  C7  UNL     1     -33.317  16.328  -3.751  1.00 20.00     0.077 C 
BRANCH   7   8
HETATM    8  C8  UNL     1     -33.710  16.413  -2.267  1.00 20.00    -0.013 C 
HETATM    9  C4  UNL     1     -33.248  17.713  -1.604  1.00 20.00     0.010 C 
HETATM   10  C5  UNL     1     -35.207  16.196  -2.038  1.00 20.00     0.010 C 
ENDBRANCH   7   8
ENDBRANCH   6   7
ENDBRANCH   1   6
TORSDOF 4
ENDMDL
MODEL 2
REMARK VINA RESULT:      -3.5      1.718      2.624
REMARK  4 active torsions:
REMARK  status: ('A' for Active; 'I' for Inactive)
REMARK    1  A    between atoms: C2_2  and  C6_6 
REMARK    2  A    between atoms: C6_6  and  S10_10 
REMARK    3  A    between atoms: C7_7  and  C8_8 
REMARK    4  A    between atoms: C7_7  and  S10_10 
ROOT
HETATM    1  C6  UNL     1     -36.872  15.037  -4.014  1.00 20.00     0.113 C 
ENDROOT
BRANCH   1   2
HETATM    2  C2  UNL     1     -35.892  14.180  -4.792  1.00 20.00     0.087 A 
HETATM    3  C1  UNL     1     -34.866  13.359  -4.047  1.00 20.00     0.207 A 
HETATM    4  O9  UNL     1     -36.062  12.772  -4.582  1.00 20.00    -0.375 OA
HETATM    5  C3  UNL     1     -35.642  14.552  -6.217  1.00 20.00     0.049 C 
ENDBRANCH   1   2
BRANCH   1   6
HETATM    6  S10 UNL     1     -36.230  16.714  -3.812  1.00 20.00    -0.166 SA
BRANCH   6   7
HETATM    7  C7  UNL     1     -35.486  16.511  -2.164  1.00 20.00     0.077 C 
BRANCH   7   8
HETATM    8  C8  UNL     1     -33.951  16.598  -2.119  1.00 20.00    -0.013 C 
HETATM    9  C4  UNL     1     -33.318  16.618  -3.513  1.00 20.00     0.010 C 
HETATM   10  C5  UNL     1     -33.449  17.778  -1.285  1.00 20.00     0.010 C 
ENDBRANCH   7   8
ENDBRANCH   6   7
ENDBRANCH   1   6
TORSDOF 4
ENDMDL
MODEL 3
REMARK VINA RESULT:      -3.5      1.447      2.167
REMARK  4 active torsions:
REMARK  status: ('A' for Active; 'I' for Inactive)
REMARK    1  A    between atoms: C2_2  and  C6_6 
REMARK    2  A    between atoms: C6_6  and  S10_10 
REMARK    3  A    between atoms: C7_7  and  C8_8 
REMARK    4  A    between atoms: C7_7  and  S10_10 
ROOT
HETATM    1  C6  UNL     1     -36.081  16.166  -5.520  1.00 20.00     0.113 C 
ENDROOT
BRANCH   1   2
HETATM    2  C2  UNL     1     -35.412  14.824  -5.290  1.00 20.00     0.087 A 
HETATM    3  C1  UNL     1     -36.188  13.707  -4.635  1.00 20.00     0.207 A 
HETATM    4  O9  UNL     1     -35.984  13.754  -6.055  1.00 20.00    -0.375 OA
HETATM    5  C3  UNL     1     -33.918  14.805  -5.248  1.00 20.00     0.049 C 
ENDBRANCH   1   2
BRANCH   1   6
HETATM    6  S10 UNL     1     -35.301  17.447  -4.512  1.00 20.00    -0.166 SA
BRANCH   6   7
HETATM    7  C7  UNL     1     -36.013  16.982  -2.903  1.00 20.00     0.077 C 
BRANCH   7   8
HETATM    8  C8  UNL     1     -35.003  16.486  -1.855  1.00 20.00    -0.013 C 
HETATM    9  C4  UNL     1     -33.554  16.804  -2.232  1.00 20.00     0.010 C 
HETATM   10  C5  UNL     1     -35.316  16.992  -0.446  1.00 20.00     0.010 C 
ENDBRANCH   7   8
ENDBRANCH   6   7
ENDBRANCH   1   6
TORSDOF 4
ENDMDL
MODEL 4
REMARK VINA RESULT:      -3.5     15.469     17.904
REMARK  4 active torsions:
REMARK  status: ('A' for Active; 'I' for Inactive)
REMARK    1  A    between atoms: C2_2  and  C6_6 
REMARK    2  A    between atoms: C6_6  and  S10_10 
REMARK    3  A    between atoms: C7_7  and  C8_8 
REMARK    4  A    between atoms: C7_7  and  S10_10 
ROOT
HETATM    1  C6  UNL     1     -23.543  16.878   9.823  1.00 20.00     0.113 C 
ENDROOT
BRANCH   1   2
HETATM    2  C2  UNL     1     -23.841  16.915  11.309  1.00 20.00     0.087 A 
HETATM    3  C1  UNL     1     -25.228  16.576  11.800  1.00 20.00     0.207 A 
HETATM    4  O9  UNL     1     -24.150  15.631  11.869  1.00 20.00    -0.375 OA
HETATM    5  C3  UNL     1     -22.940  17.745  12.165  1.00 20.00     0.049 C 
ENDBRANCH   1   2
BRANCH   1   6
HETATM    6  S10 UNL     1     -23.472  18.553   9.147  1.00 20.00    -0.166 SA
BRANCH   6   7
HETATM    7  C7  UNL     1     -25.237  18.750   8.752  1.00 20.00     0.077 C 
BRANCH   7   8
HETATM    8  C8  UNL     1     -25.542  19.263   7.335  1.00 20.00    -0.013 C 
HETATM    9  C4  UNL     1     -24.330  19.182   6.403  1.00 20.00     0.010 C 
HETATM   10  C5  UNL     1     -26.752  18.573   6.703  1.00 20.00     0.010 C 
ENDBRANCH   7   8
ENDBRANCH   6   7
ENDBRANCH   1   6
TORSDOF 4
ENDMDL
MODEL 5
REMARK VINA RESULT:      -3.4      1.508      2.204
REMARK  4 active torsions:
REMARK  status: ('A' for Active; 'I' for Inactive)
REMARK    1  A    between atoms: C2_2  and  C6_6 
REMARK    2  A    between atoms: C6_6  and  S10_10 
REMARK    3  A    between atoms: C7_7  and  C8_8 
REMARK    4  A    between atoms: C7_7  and  S10_10 
ROOT
HETATM    1  C6  UNL     1     -35.782  16.201  -5.520  1.00 20.00     0.113 C 
ENDROOT
BRANCH   1   2
HETATM    2  C2  UNL     1     -35.304  14.797  -5.200  1.00 20.00     0.087 A 
HETATM    3  C1  UNL     1     -36.276  13.792  -4.629  1.00 20.00     0.207 A 
HETATM    4  O9  UNL     1     -35.904  13.782  -6.016  1.00 20.00    -0.375 OA
HETATM    5  C3  UNL     1     -33.838  14.609  -4.982  1.00 20.00     0.049 C 
ENDBRANCH   1   2
BRANCH   1   6
HETATM    6  S10 UNL     1     -34.499  17.413  -5.133  1.00 20.00    -0.166 SA
BRANCH   6   7
HETATM    7  C7  UNL     1     -35.158  17.990  -3.538  1.00 20.00     0.077 C 
BRANCH   7   8
HETATM    8  C8  UNL     1     -34.435  17.451  -2.293  1.00 20.00    -0.013 C 
HETATM    9  C4  UNL     1     -35.065  16.165  -1.753  1.00 20.00     0.010 C 
HETATM   10  C5  UNL     1     -32.934  17.262  -2.516  1.00 20.00     0.010 C 
ENDBRANCH   7   8
ENDBRANCH   6   7
ENDBRANCH   1   6
TORSDOF 4
ENDMDL
MODEL 6
REMARK VINA RESULT:      -3.3      1.593      2.145
REMARK  4 active torsions:
REMARK  status: ('A' for Active; 'I' for Inactive)
REMARK    1  A    between atoms: C2_2  and  C6_6 
REMARK    2  A    between atoms: C6_6  and  S10_10 
REMARK    3  A    between atoms: C7_7  and  C8_8 
REMARK    4  A    between atoms: C7_7  and  S10_10 
ROOT
HETATM    1  C6  UNL     1     -35.287  16.147  -4.430  1.00 20.00     0.113 C 
ENDROOT
BRANCH   1   2
HETATM    2  C2  UNL     1     -35.387  14.845  -5.202  1.00 20.00     0.087 A 
HETATM    3  C1  UNL     1     -35.266  14.860  -6.707  1.00 20.00     0.207 A 
HETATM    4  O9  UNL     1     -34.172  14.471  -5.863  1.00 20.00    -0.375 OA
HETATM    5  C3  UNL     1     -36.085  13.707  -4.531  1.00 20.00     0.049 C 
ENDBRANCH   1   2
BRANCH   1   6
HETATM    6  S10 UNL     1     -34.954  15.827  -2.683  1.00 20.00    -0.166 SA
BRANCH   6   7
HETATM    7  C7  UNL     1     -33.355  16.688  -2.560  1.00 20.00     0.077 C 
BRANCH   7   8
HETATM    8  C8  UNL     1     -33.333  17.904  -1.620  1.00 20.00    -0.013 C 
HETATM    9  C4  UNL     1     -34.313  17.768  -0.452  1.00 20.00     0.010 C 
HETATM   10  C5  UNL     1     -31.930  18.231  -1.108  1.00 20.00     0.010 C 
ENDBRANCH   7   8
ENDBRANCH   6   7
ENDBRANCH   1   6
TORSDOF 4
ENDMDL
MODEL 7
REMARK VINA RESULT:      -3.2      1.664      2.139
REMARK  4 active torsions:
REMARK  status: ('A' for Active; 'I' for Inactive)
REMARK    1  A    between atoms: C2_2  and  C6_6 
REMARK    2  A    between atoms: C6_6  and  S10_10 
REMARK    3  A    between atoms: C7_7  and  C8_8 
REMARK    4  A    between atoms: C7_7  and  S10_10 
ROOT
HETATM    1  C6  UNL     1     -36.569  15.987  -6.147  1.00 20.00     0.113 C 
ENDROOT
BRANCH   1   2
HETATM    2  C2  UNL     1     -37.100  15.089  -5.045  1.00 20.00     0.087 A 
HETATM    3  C1  UNL     1     -37.966  15.677  -3.957  1.00 20.00     0.207 A 
HETATM    4  O9  UNL     1     -38.526  14.942  -5.056  1.00 20.00    -0.375 OA
HETATM    5  C3  UNL     1     -36.363  13.814  -4.790  1.00 20.00     0.049 C 
ENDBRANCH   1   2
BRANCH   1   6
HETATM    6  S10 UNL     1     -34.762  15.992  -6.148  1.00 20.00    -0.166 SA
BRANCH   6   7
HETATM    7  C7  UNL     1     -34.503  17.017  -4.667  1.00 20.00     0.077 C 
BRANCH   7   8
HETATM    8  C8  UNL     1     -33.737  16.335  -3.521  1.00 20.00    -0.013 C 
HETATM    9  C4  UNL     1     -34.626  16.027  -2.314  1.00 20.00     0.010 C 
HETATM   10  C5  UNL     1     -32.991  15.079  -3.973  1.00 20.00     0.010 C 
ENDBRANCH   7   8
ENDBRANCH   6   7
ENDBRANCH   1   6
TORSDOF 4
ENDMDL
MODEL 8
REMARK VINA RESULT:      -3.2      3.219      5.592
REMARK  4 active torsions:
REMARK  status: ('A' for Active; 'I' for Inactive)
REMARK    1  A    between atoms: C2_2  and  C6_6 
REMARK    2  A    between atoms: C6_6  and  S10_10 
REMARK    3  A    between atoms: C7_7  and  C8_8 
REMARK    4  A    between atoms: C7_7  and  S10_10 
ROOT
HETATM    1  C6  UNL     1     -33.105  17.315  -2.174  1.00 20.00     0.113 C 
ENDROOT
BRANCH   1   2
HETATM    2  C2  UNL     1     -32.677  18.398  -1.202  1.00 20.00     0.087 A 
HETATM    3  C1  UNL     1     -31.331  18.301  -0.524  1.00 20.00     0.207 A 
HETATM    4  O9  UNL     1     -31.550  19.164  -1.650  1.00 20.00    -0.375 OA
HETATM    5  C3  UNL     1     -33.757  19.220  -0.578  1.00 20.00     0.049 C 
ENDBRANCH   1   2
BRANCH   1   6
HETATM    6  S10 UNL     1     -34.733  16.669  -1.730  1.00 20.00    -0.166 SA
BRANCH   6   7
HETATM    7  C7  UNL     1     -35.214  16.028  -3.364  1.00 20.00     0.077 C 
BRANCH   7   8
HETATM    8  C8  UNL     1     -34.791  14.578  -3.652  1.00 20.00    -0.013 C 
HETATM    9  C4  UNL     1     -35.871  13.782  -4.389  1.00 20.00     0.010 C 
HETATM   10  C5  UNL     1     -33.456  14.487  -4.393  1.00 20.00     0.010 C 
ENDBRANCH   7   8
ENDBRANCH   6   7
ENDBRANCH   1   6
TORSDOF 4
ENDMDL
MODEL 9
REMARK VINA RESULT:      -3.1      1.891      2.697
REMARK  4 active torsions:
REMARK  status: ('A' for Active; 'I' for Inactive)
REMARK    1  A    between atoms: C2_2  and  C6_6 
REMARK    2  A    between atoms: C6_6  and  S10_10 
REMARK    3  A    between atoms: C7_7  and  C8_8 
REMARK    4  A    between atoms: C7_7  and  S10_10 
ROOT
HETATM    1  C6  UNL     1     -36.400  15.911  -6.044  1.00 20.00     0.113 C 
ENDROOT
BRANCH   1   2
HETATM    2  C2  UNL     1     -35.029  16.207  -6.619  1.00 20.00     0.087 A 
HETATM    3  C1  UNL     1     -34.043  15.080  -6.814  1.00 20.00     0.207 A 
HETATM    4  O9  UNL     1     -34.802  15.617  -7.907  1.00 20.00    -0.375 OA
HETATM    5  C3  UNL     1     -34.527  17.610  -6.502  1.00 20.00     0.049 C 
ENDBRANCH   1   2
BRANCH   1   6
HETATM    6  S10 UNL     1     -36.542  16.570  -4.367  1.00 20.00    -0.166 SA
BRANCH   6   7
HETATM    7  C7  UNL     1     -35.684  15.228  -3.486  1.00 20.00     0.077 C 
BRANCH   7   8
HETATM    8  C8  UNL     1     -34.614  15.681  -2.479  1.00 20.00    -0.013 C 
HETATM    9  C4  UNL     1     -33.336  16.181  -3.156  1.00 20.00     0.010 C 
HETATM   10  C5  UNL     1     -35.138  16.721  -1.487  1.00 20.00     0.010 C 
ENDBRANCH   7   8
ENDBRANCH   6   7
ENDBRANCH   1   6
TORSDOF 4
ENDMDL
