MODEL 1
REMARK VINA RESULT:      -4.0      0.000      0.000
REMARK  2 active torsions:
REMARK  status: ('A' for Active; 'I' for Inactive)
REMARK    1  A    between atoms: C2_2  and  O10_10 
REMARK    2  A    between atoms: C9_9  and  O10_10 
ROOT
HETATM    1  C1  UNL     1     -33.027  15.629  -3.612  1.00 20.00     0.053 C 
HETATM    2  C2  UNL     1     -34.513  15.524  -4.026  1.00 20.00     0.132 C 
HETATM    3  C3  UNL     1     -33.294  17.102  -3.228  1.00 20.00     0.095 C 
HETATM    4  C4  UNL     1     -34.803  16.715  -3.048  1.00 20.00    -0.005 C 
HETATM    5  C5  UNL     1     -35.769  17.750  -3.620  1.00 20.00     0.019 C 
HETATM    6  C6  UNL     1     -35.226  16.297  -1.637  1.00 20.00     0.019 C 
HETATM    7 CL11 UNL     1     -32.359  17.814  -1.875  1.00 20.00    -0.124 Cl
ENDROOT
BRANCH   2   8
HETATM    8  O10 UNL     1     -35.161  14.273  -3.739  1.00 20.00    -0.381 OA
BRANCH   8   9
HETATM    9  C9  UNL     1     -36.116  13.959  -4.735  1.00 20.00     0.114 C 
HETATM   10  C7  UNL     1     -37.485  14.450  -4.289  1.00 20.00     0.039 C 
HETATM   11  C8  UNL     1     -35.691  14.589  -6.053  1.00 20.00     0.039 C 
ENDBRANCH   8   9
ENDBRANCH   2   8
TORSDOF 2
ENDMDL
MODEL 2
REMARK VINA RESULT:      -3.7      1.935      3.091
REMARK  2 active torsions:
REMARK  status: ('A' for Active; 'I' for Inactive)
REMARK    1  A    between atoms: C2_2  and  O10_10 
REMARK    2  A    between atoms: C9_9  and  O10_10 
ROOT
HETATM    1  C1  UNL     1     -35.774  17.367  -3.752  1.00 20.00     0.053 C 
HETATM    2  C2  UNL     1     -35.327  16.371  -4.847  1.00 20.00     0.132 C 
HETATM    3  C3  UNL     1     -35.635  16.219  -2.727  1.00 20.00     0.095 C 
HETATM    4  C4  UNL     1     -34.623  15.543  -3.716  1.00 20.00    -0.005 C 
HETATM    5  C5  UNL     1     -34.822  14.034  -3.853  1.00 20.00     0.019 C 
HETATM    6  C6  UNL     1     -33.145  15.880  -3.501  1.00 20.00     0.019 C 
HETATM    7 CL11 UNL     1     -35.149  16.626  -1.050  1.00 20.00    -0.124 Cl
ENDROOT
BRANCH   2   8
HETATM    8  O10 UNL     1     -34.485  16.906  -5.883  1.00 20.00    -0.381 OA
BRANCH   8   9
HETATM    9  C9  UNL     1     -34.771  16.300  -7.129  1.00 20.00     0.114 C 
HETATM   10  C7  UNL     1     -33.802  15.150  -7.360  1.00 20.00     0.039 C 
HETATM   11  C8  UNL     1     -36.217  15.832  -7.139  1.00 20.00     0.039 C 
ENDBRANCH   8   9
ENDBRANCH   2   8
TORSDOF 2
ENDMDL
MODEL 3
REMARK VINA RESULT:      -3.6      1.231      2.324
REMARK  2 active torsions:
REMARK  status: ('A' for Active; 'I' for Inactive)
REMARK    1  A    between atoms: C2_2  and  O10_10 
REMARK    2  A    between atoms: C9_9  and  O10_10 
ROOT
HETATM    1  C1  UNL     1     -35.527  16.498  -2.150  1.00 20.00     0.053 C 
HETATM    2  C2  UNL     1     -35.384  15.676  -3.451  1.00 20.00     0.132 C 
HETATM    3  C3  UNL     1     -33.986  16.478  -2.032  1.00 20.00     0.095 C 
HETATM    4  C4  UNL     1     -33.934  16.259  -3.584  1.00 20.00    -0.005 C 
HETATM    5  C5  UNL     1     -32.899  15.222  -4.017  1.00 20.00     0.019 C 
HETATM    6  C6  UNL     1     -33.827  17.524  -4.439  1.00 20.00     0.019 C 
HETATM    7 CL11 UNL     1     -33.171  17.883  -1.274  1.00 20.00    -0.124 Cl
ENDROOT
BRANCH   2   8
HETATM    8  O10 UNL     1     -36.312  15.993  -4.504  1.00 20.00    -0.381 OA
BRANCH   8   9
HETATM    9  C9  UNL     1     -36.560  14.861  -5.315  1.00 20.00     0.114 C 
HETATM   10  C7  UNL     1     -35.714  14.952  -6.576  1.00 20.00     0.039 C 
HETATM   11  C8  UNL     1     -36.258  13.599  -4.522  1.00 20.00     0.039 C 
ENDBRANCH   8   9
ENDBRANCH   2   8
TORSDOF 2
ENDMDL
MODEL 4
REMARK VINA RESULT:      -3.6      2.633      4.575
REMARK  2 active torsions:
REMARK  status: ('A' for Active; 'I' for Inactive)
REMARK    1  A    between atoms: C2_2  and  O10_10 
REMARK    2  A    between atoms: C9_9  and  O10_10 
ROOT
HETATM    1  C1  UNL     1     -35.165  15.697  -2.422  1.00 20.00     0.053 C 
HETATM    2  C2  UNL     1     -34.181  16.733  -3.014  1.00 20.00     0.132 C 
HETATM    3  C3  UNL     1     -35.563  15.330  -3.869  1.00 20.00     0.095 C 
HETATM    4  C4  UNL     1     -34.164  15.873  -4.325  1.00 20.00    -0.005 C 
HETATM    5  C5  UNL     1     -34.224  16.710  -5.602  1.00 20.00     0.019 C 
HETATM    6  C6  UNL     1     -33.034  14.842  -4.402  1.00 20.00     0.019 C 
HETATM    7 CL11 UNL     1     -36.051  13.640  -4.217  1.00 20.00    -0.124 Cl
ENDROOT
BRANCH   2   8
HETATM    8  O10 UNL     1     -32.931  16.885  -2.319  1.00 20.00    -0.381 OA
BRANCH   8   9
HETATM    9  C9  UNL     1     -32.764  18.216  -1.867  1.00 20.00     0.114 C 
HETATM   10  C7  UNL     1     -31.616  18.266  -0.869  1.00 20.00     0.039 C 
HETATM   11  C8  UNL     1     -32.515  19.123  -3.062  1.00 20.00     0.039 C 
ENDBRANCH   8   9
ENDBRANCH   2   8
TORSDOF 2
ENDMDL
MODEL 5
REMARK VINA RESULT:      -3.5      2.541      4.272
REMARK  2 active torsions:
REMARK  status: ('A' for Active; 'I' for Inactive)
REMARK    1  A    between atoms: C2_2  and  O10_10 
REMARK    2  A    between atoms: C9_9  and  O10_10 
ROOT
HETATM    1  C1  UNL     1     -35.409  16.906  -5.388  1.00 20.00     0.053 C 
HETATM    2  C2  UNL     1     -34.661  16.554  -4.082  1.00 20.00     0.132 C 
HETATM    3  C3  UNL     1     -34.664  15.735  -6.067  1.00 20.00     0.095 C 
HETATM    4  C4  UNL     1     -34.498  15.099  -4.643  1.00 20.00    -0.005 C 
HETATM    5  C5  UNL     1     -33.111  14.505  -4.400  1.00 20.00     0.019 C 
HETATM    6  C6  UNL     1     -35.593  14.119  -4.212  1.00 20.00     0.019 C 
HETATM    7 CL11 UNL     1     -35.494  14.843  -7.381  1.00 20.00    -0.124 Cl
ENDROOT
BRANCH   2   8
HETATM    8  O10 UNL     1     -35.412  16.702  -2.864  1.00 20.00    -0.381 OA
BRANCH   8   9
HETATM    9  C9  UNL     1     -34.570  16.573  -1.734  1.00 20.00     0.114 C 
HETATM   10  C7  UNL     1     -33.311  17.400  -1.950  1.00 20.00     0.039 C 
HETATM   11  C8  UNL     1     -35.329  17.011  -0.491  1.00 20.00     0.039 C 
ENDBRANCH   8   9
ENDBRANCH   2   8
TORSDOF 2
ENDMDL
MODEL 6
REMARK VINA RESULT:      -3.5      1.265      2.036
REMARK  2 active torsions:
REMARK  status: ('A' for Active; 'I' for Inactive)
REMARK    1  A    between atoms: C2_2  and  O10_10 
REMARK    2  A    between atoms: C9_9  and  O10_10 
ROOT
HETATM    1  C1  UNL     1     -34.508  18.036  -4.804  1.00 20.00     0.053 C 
HETATM    2  C2  UNL     1     -35.269  16.739  -4.447  1.00 20.00     0.132 C 
HETATM    3  C3  UNL     1     -34.081  18.128  -3.322  1.00 20.00     0.095 C 
HETATM    4  C4  UNL     1     -34.295  16.578  -3.229  1.00 20.00    -0.005 C 
HETATM    5  C5  UNL     1     -34.995  16.136  -1.945  1.00 20.00     0.019 C 
HETATM    6  C6  UNL     1     -33.063  15.711  -3.503  1.00 20.00     0.019 C 
HETATM    7 CL11 UNL     1     -32.492  18.862  -2.935  1.00 20.00    -0.124 Cl
ENDROOT
BRANCH   2   8
HETATM    8  O10 UNL     1     -35.246  15.699  -5.442  1.00 20.00    -0.381 OA
BRANCH   8   9
HETATM    9  C9  UNL     1     -36.427  14.922  -5.386  1.00 20.00     0.114 C 
HETATM   10  C7  UNL     1     -36.167  13.675  -4.554  1.00 20.00     0.039 C 
HETATM   11  C8  UNL     1     -37.554  15.763  -4.809  1.00 20.00     0.039 C 
ENDBRANCH   8   9
ENDBRANCH   2   8
TORSDOF 2
ENDMDL
MODEL 7
REMARK VINA RESULT:      -3.4      2.598      4.483
REMARK  2 active torsions:
REMARK  status: ('A' for Active; 'I' for Inactive)
REMARK    1  A    between atoms: C2_2  and  O10_10 
REMARK    2  A    between atoms: C9_9  and  O10_10 
ROOT
HETATM    1  C1  UNL     1     -34.324  17.754  -4.062  1.00 20.00     0.053 C 
HETATM    2  C2  UNL     1     -33.418  16.819  -3.228  1.00 20.00     0.132 C 
HETATM    3  C3  UNL     1     -34.382  16.646  -5.139  1.00 20.00     0.095 C 
HETATM    4  C4  UNL     1     -34.055  15.614  -4.004  1.00 20.00    -0.005 C 
HETATM    5  C5  UNL     1     -33.037  14.554  -4.421  1.00 20.00     0.019 C 
HETATM    6  C6  UNL     1     -35.260  14.970  -3.313  1.00 20.00     0.019 C 
HETATM    7 CL11 UNL     1     -35.872  16.490  -6.122  1.00 20.00    -0.124 Cl
ENDROOT
BRANCH   2   8
HETATM    8  O10 UNL     1     -33.618  16.853  -1.803  1.00 20.00    -0.381 OA
BRANCH   8   9
HETATM    9  C9  UNL     1     -33.319  18.135  -1.283  1.00 20.00     0.114 C 
HETATM   10  C7  UNL     1     -34.066  18.330   0.028  1.00 20.00     0.039 C 
HETATM   11  C8  UNL     1     -31.815  18.266  -1.103  1.00 20.00     0.039 C 
ENDBRANCH   8   9
ENDBRANCH   2   8
TORSDOF 2
ENDMDL
MODEL 8
REMARK VINA RESULT:      -3.3      2.415      4.066
REMARK  2 active torsions:
REMARK  status: ('A' for Active; 'I' for Inactive)
REMARK    1  A    between atoms: C2_2  and  O10_10 
REMARK    2  A    between atoms: C9_9  and  O10_10 
ROOT
HETATM    1  C1  UNL     1     -36.271  15.258  -3.758  1.00 20.00     0.053 C 
HETATM    2  C2  UNL     1     -35.559  16.358  -2.937  1.00 20.00     0.132 C 
HETATM    3  C3  UNL     1     -35.563  15.813  -5.014  1.00 20.00     0.095 C 
HETATM    4  C4  UNL     1     -34.465  16.397  -4.059  1.00 20.00    -0.005 C 
HETATM    5  C5  UNL     1     -34.026  17.812  -4.431  1.00 20.00     0.019 C 
HETATM    6  C6  UNL     1     -33.250  15.501  -3.802  1.00 20.00     0.019 C 
HETATM    7 CL11 UNL     1     -35.128  14.669  -6.324  1.00 20.00    -0.124 Cl
ENDROOT
BRANCH   2   8
HETATM    8  O10 UNL     1     -35.127  15.982  -1.618  1.00 20.00    -0.381 OA
BRANCH   8   9
HETATM    9  C9  UNL     1     -35.281  17.057  -0.711  1.00 20.00     0.114 C 
HETATM   10  C7  UNL     1     -33.988  17.857  -0.658  1.00 20.00     0.039 C 
HETATM   11  C8  UNL     1     -36.460  17.913  -1.145  1.00 20.00     0.039 C 
ENDBRANCH   8   9
ENDBRANCH   2   8
TORSDOF 2
ENDMDL
MODEL 9
REMARK VINA RESULT:      -3.3      2.431      3.220
REMARK  2 active torsions:
REMARK  status: ('A' for Active; 'I' for Inactive)
REMARK    1  A    between atoms: C2_2  and  O10_10 
REMARK    2  A    between atoms: C9_9  and  O10_10 
ROOT
HETATM    1  C1  UNL     1     -35.152  16.135  -1.919  1.00 20.00     0.053 C 
HETATM    2  C2  UNL     1     -33.712  16.573  -2.275  1.00 20.00     0.132 C 
HETATM    3  C3  UNL     1     -35.084  17.090  -0.706  1.00 20.00     0.095 C 
HETATM    4  C4  UNL     1     -33.989  17.899  -1.484  1.00 20.00    -0.005 C 
HETATM    5  C5  UNL     1     -32.818  18.338  -0.605  1.00 20.00     0.019 C 
HETATM    6  C6  UNL     1     -34.493  19.064  -2.340  1.00 20.00     0.019 C 
HETATM    7 CL11 UNL     1     -36.596  17.882  -0.158  1.00 20.00    -0.124 Cl
ENDROOT
BRANCH   2   8
HETATM    8  O10 UNL     1     -33.420  16.701  -3.677  1.00 20.00    -0.381 OA
BRANCH   8   9
HETATM    9  C9  UNL     1     -34.055  15.678  -4.420  1.00 20.00     0.114 C 
HETATM   10  C7  UNL     1     -34.446  16.221  -5.787  1.00 20.00     0.039 C 
HETATM   11  C8  UNL     1     -33.120  14.485  -4.532  1.00 20.00     0.039 C 
ENDBRANCH   8   9
ENDBRANCH   2   8
TORSDOF 2
ENDMDL
