MODEL 1
REMARK VINA RESULT:      -3.9      0.000      0.000
REMARK  2 active torsions:
REMARK  status: ('A' for Active; 'I' for Inactive)
REMARK    1  A    between atoms: C3_3  and  O11_11 
REMARK    2  A    between atoms: C9_9  and  O11_11 
ROOT
HETATM    1  C1  UNL     1     -34.670  16.108  -6.399  1.00 20.00     0.069 C 
HETATM    2  C2  UNL     1     -35.409  14.779  -6.669  1.00 20.00     0.173 C 
HETATM    3  C3  UNL     1     -34.945  15.894  -4.888  1.00 20.00     0.135 C 
HETATM    4  C4  UNL     1     -36.151  14.975  -5.299  1.00 20.00     0.008 C 
HETATM    5  C5  UNL     1     -36.276  13.672  -4.503  1.00 20.00     0.020 C 
HETATM    6  C6  UNL     1     -37.481  15.743  -5.266  1.00 20.00     0.020 C 
HETATM    7  O10 UNL     1     -36.231  14.820  -7.803  1.00 20.00    -0.234 OA
ENDROOT
BRANCH   3   8
HETATM    8  O11 UNL     1     -33.873  15.267  -4.153  1.00 20.00    -0.380 OA
BRANCH   8   9
HETATM    9  C9  UNL     1     -33.587  15.988  -2.971  1.00 20.00     0.114 C 
HETATM   10  C7  UNL     1     -33.069  17.369  -3.340  1.00 20.00     0.039 C 
HETATM   11  C8  UNL     1     -34.842  16.062  -2.115  1.00 20.00     0.039 C 
ENDBRANCH   8   9
ENDBRANCH   3   8
TORSDOF 2
ENDMDL
MODEL 2
REMARK VINA RESULT:      -3.9      1.653      2.235
REMARK  2 active torsions:
REMARK  status: ('A' for Active; 'I' for Inactive)
REMARK    1  A    between atoms: C3_3  and  O11_11 
REMARK    2  A    between atoms: C9_9  and  O11_11 
ROOT
HETATM    1  C1  UNL     1     -34.562  14.039  -3.864  1.00 20.00     0.069 C 
HETATM    2  C2  UNL     1     -36.050  14.020  -4.273  1.00 20.00     0.173 C 
HETATM    3  C3  UNL     1     -34.734  15.536  -3.498  1.00 20.00     0.135 C 
HETATM    4  C4  UNL     1     -35.958  15.574  -4.483  1.00 20.00     0.008 C 
HETATM    5  C5  UNL     1     -37.190  16.315  -3.960  1.00 20.00     0.020 C 
HETATM    6  C6  UNL     1     -35.555  16.125  -5.860  1.00 20.00     0.020 C 
HETATM    7  O10 UNL     1     -36.299  13.276  -5.435  1.00 20.00    -0.234 OA
ENDROOT
BRANCH   3   8
HETATM    8  O11 UNL     1     -35.014  15.797  -2.106  1.00 20.00    -0.380 OA
BRANCH   8   9
HETATM    9  C9  UNL     1     -34.223  16.867  -1.630  1.00 20.00     0.114 C 
HETATM   10  C7  UNL     1     -33.075  17.111  -2.597  1.00 20.00     0.039 C 
HETATM   11  C8  UNL     1     -35.098  18.100  -1.464  1.00 20.00     0.039 C 
ENDBRANCH   8   9
ENDBRANCH   3   8
TORSDOF 2
ENDMDL
MODEL 3
REMARK VINA RESULT:      -3.8      1.669      2.464
REMARK  2 active torsions:
REMARK  status: ('A' for Active; 'I' for Inactive)
REMARK    1  A    between atoms: C3_3  and  O11_11 
REMARK    2  A    between atoms: C9_9  and  O11_11 
ROOT
HETATM    1  C1  UNL     1     -34.395  14.381  -3.847  1.00 20.00     0.069 C 
HETATM    2  C2  UNL     1     -35.845  13.955  -4.162  1.00 20.00     0.173 C 
HETATM    3  C3  UNL     1     -34.742  15.786  -4.403  1.00 20.00     0.135 C 
HETATM    4  C4  UNL     1     -35.897  15.110  -5.225  1.00 20.00     0.008 C 
HETATM    5  C5  UNL     1     -37.230  15.864  -5.212  1.00 20.00     0.020 C 
HETATM    6  C6  UNL     1     -35.466  14.822  -6.671  1.00 20.00     0.020 C 
HETATM    7  O10 UNL     1     -35.943  12.658  -4.686  1.00 20.00    -0.234 OA
ENDROOT
BRANCH   3   8
HETATM    8  O11 UNL     1     -35.134  16.757  -3.410  1.00 20.00    -0.380 OA
BRANCH   8   9
HETATM    9  C9  UNL     1     -34.252  17.861  -3.414  1.00 20.00     0.114 C 
HETATM   10  C7  UNL     1     -33.002  17.507  -2.623  1.00 20.00     0.039 C 
HETATM   11  C8  UNL     1     -33.927  18.236  -4.851  1.00 20.00     0.039 C 
ENDBRANCH   8   9
ENDBRANCH   3   8
TORSDOF 2
ENDMDL
MODEL 4
REMARK VINA RESULT:      -3.8      2.105      3.295
REMARK  2 active torsions:
REMARK  status: ('A' for Active; 'I' for Inactive)
REMARK    1  A    between atoms: C3_3  and  O11_11 
REMARK    2  A    between atoms: C9_9  and  O11_11 
ROOT
HETATM    1  C1  UNL     1     -36.595  14.857  -3.907  1.00 20.00     0.069 C 
HETATM    2  C2  UNL     1     -36.078  13.890  -4.993  1.00 20.00     0.173 C 
HETATM    3  C3  UNL     1     -35.706  15.959  -4.537  1.00 20.00     0.135 C 
HETATM    4  C4  UNL     1     -34.816  14.813  -5.139  1.00 20.00     0.008 C 
HETATM    5  C5  UNL     1     -34.397  15.015  -6.598  1.00 20.00     0.020 C 
HETATM    6  C6  UNL     1     -33.580  14.542  -4.267  1.00 20.00     0.020 C 
HETATM    7  O10 UNL     1     -35.820  12.599  -4.513  1.00 20.00    -0.234 OA
ENDROOT
BRANCH   3   8
HETATM    8  O11 UNL     1     -36.376  16.823  -5.478  1.00 20.00    -0.380 OA
BRANCH   8   9
HETATM    9  C9  UNL     1     -36.018  18.173  -5.262  1.00 20.00     0.114 C 
HETATM   10  C7  UNL     1     -35.240  18.282  -3.960  1.00 20.00     0.039 C 
HETATM   11  C8  UNL     1     -35.210  18.672  -6.450  1.00 20.00     0.039 C 
ENDBRANCH   8   9
ENDBRANCH   3   8
TORSDOF 2
ENDMDL
MODEL 5
REMARK VINA RESULT:      -3.8      1.766      2.618
REMARK  2 active torsions:
REMARK  status: ('A' for Active; 'I' for Inactive)
REMARK    1  A    between atoms: C3_3  and  O11_11 
REMARK    2  A    between atoms: C9_9  and  O11_11 
ROOT
HETATM    1  C1  UNL     1     -33.241  15.814  -3.499  1.00 20.00     0.069 C 
HETATM    2  C2  UNL     1     -33.983  14.663  -4.211  1.00 20.00     0.173 C 
HETATM    3  C3  UNL     1     -34.621  16.344  -3.030  1.00 20.00     0.135 C 
HETATM    4  C4  UNL     1     -35.261  15.574  -4.241  1.00 20.00     0.008 C 
HETATM    5  C5  UNL     1     -36.544  14.804  -3.917  1.00 20.00     0.020 C 
HETATM    6  C6  UNL     1     -35.493  16.506  -5.441  1.00 20.00     0.020 C 
HETATM    7  O10 UNL     1     -33.446  14.347  -5.467  1.00 20.00    -0.234 OA
ENDROOT
BRANCH   3   8
HETATM    8  O11 UNL     1     -35.021  15.923  -1.709  1.00 20.00    -0.380 OA
BRANCH   8   9
HETATM    9  C9  UNL     1     -35.381  17.036  -0.917  1.00 20.00     0.114 C 
HETATM   10  C7  UNL     1     -34.138  17.861  -0.618  1.00 20.00     0.039 C 
HETATM   11  C8  UNL     1     -36.440  17.848  -1.646  1.00 20.00     0.039 C 
ENDBRANCH   8   9
ENDBRANCH   3   8
TORSDOF 2
ENDMDL
MODEL 6
REMARK VINA RESULT:      -3.7      1.310      2.107
REMARK  2 active torsions:
REMARK  status: ('A' for Active; 'I' for Inactive)
REMARK    1  A    between atoms: C3_3  and  O11_11 
REMARK    2  A    between atoms: C9_9  and  O11_11 
ROOT
HETATM    1  C1  UNL     1     -36.320  16.210  -5.259  1.00 20.00     0.069 C 
HETATM    2  C2  UNL     1     -35.347  15.330  -6.071  1.00 20.00     0.173 C 
HETATM    3  C3  UNL     1     -35.376  16.040  -4.041  1.00 20.00     0.135 C 
HETATM    4  C4  UNL     1     -34.845  14.723  -4.713  1.00 20.00     0.008 C 
HETATM    5  C5  UNL     1     -33.325  14.541  -4.672  1.00 20.00     0.020 C 
HETATM    6  C6  UNL     1     -35.542  13.478  -4.141  1.00 20.00     0.020 C 
HETATM    7  O10 UNL     1     -35.993  14.425  -6.925  1.00 20.00    -0.234 OA
ENDROOT
BRANCH   3   8
HETATM    8  O11 UNL     1     -34.420  17.105  -3.854  1.00 20.00    -0.380 OA
BRANCH   8   9
HETATM    9  C9  UNL     1     -34.317  17.450  -2.487  1.00 20.00     0.114 C 
HETATM   10  C7  UNL     1     -35.125  16.463  -1.659  1.00 20.00     0.039 C 
HETATM   11  C8  UNL     1     -32.850  17.462  -2.084  1.00 20.00     0.039 C 
ENDBRANCH   8   9
ENDBRANCH   3   8
TORSDOF 2
ENDMDL
MODEL 7
REMARK VINA RESULT:      -3.7      2.076      2.908
REMARK  2 active torsions:
REMARK  status: ('A' for Active; 'I' for Inactive)
REMARK    1  A    between atoms: C3_3  and  O11_11 
REMARK    2  A    between atoms: C9_9  and  O11_11 
ROOT
HETATM    1  C1  UNL     1     -34.111  14.962  -5.407  1.00 20.00     0.069 C 
HETATM    2  C2  UNL     1     -34.108  14.342  -3.994  1.00 20.00     0.173 C 
HETATM    3  C3  UNL     1     -34.716  16.248  -4.786  1.00 20.00     0.135 C 
HETATM    4  C4  UNL     1     -35.242  15.356  -3.604  1.00 20.00     0.008 C 
HETATM    5  C5  UNL     1     -35.047  15.950  -2.206  1.00 20.00     0.020 C 
HETATM    6  C6  UNL     1     -36.712  14.958  -3.809  1.00 20.00     0.020 C 
HETATM    7  O10 UNL     1     -34.485  12.992  -3.978  1.00 20.00    -0.234 OA
ENDROOT
BRANCH   3   8
HETATM    8  O11 UNL     1     -33.759  17.274  -4.449  1.00 20.00    -0.380 OA
BRANCH   8   9
HETATM    9  C9  UNL     1     -34.158  18.523  -4.975  1.00 20.00     0.114 C 
HETATM   10  C7  UNL     1     -34.062  18.481  -6.493  1.00 20.00     0.039 C 
HETATM   11  C8  UNL     1     -35.570  18.836  -4.504  1.00 20.00     0.039 C 
ENDBRANCH   8   9
ENDBRANCH   3   8
TORSDOF 2
ENDMDL
MODEL 8
REMARK VINA RESULT:      -3.6      1.061      2.249
REMARK  2 active torsions:
REMARK  status: ('A' for Active; 'I' for Inactive)
REMARK    1  A    between atoms: C3_3  and  O11_11 
REMARK    2  A    between atoms: C9_9  and  O11_11 
ROOT
HETATM    1  C1  UNL     1     -36.428  14.700  -5.253  1.00 20.00     0.069 C 
HETATM    2  C2  UNL     1     -36.443  15.773  -6.363  1.00 20.00     0.173 C 
HETATM    3  C3  UNL     1     -35.144  15.368  -4.697  1.00 20.00     0.135 C 
HETATM    4  C4  UNL     1     -34.900  15.957  -6.133  1.00 20.00     0.008 C 
HETATM    5  C5  UNL     1     -34.469  17.426  -6.167  1.00 20.00     0.020 C 
HETATM    6  C6  UNL     1     -33.911  15.097  -6.934  1.00 20.00     0.020 C 
HETATM    7  O10 UNL     1     -36.801  15.268  -7.621  1.00 20.00    -0.234 OA
ENDROOT
BRANCH   3   8
HETATM    8  O11 UNL     1     -35.360  16.318  -3.633  1.00 20.00    -0.380 OA
BRANCH   8   9
HETATM    9  C9  UNL     1     -34.542  16.019  -2.520  1.00 20.00     0.114 C 
HETATM   10  C7  UNL     1     -33.132  16.522  -2.785  1.00 20.00     0.039 C 
HETATM   11  C8  UNL     1     -35.144  16.647  -1.273  1.00 20.00     0.039 C 
ENDBRANCH   8   9
ENDBRANCH   3   8
TORSDOF 2
ENDMDL
MODEL 9
REMARK VINA RESULT:      -3.6      1.470      2.012
REMARK  2 active torsions:
REMARK  status: ('A' for Active; 'I' for Inactive)
REMARK    1  A    between atoms: C3_3  and  O11_11 
REMARK    2  A    between atoms: C9_9  and  O11_11 
ROOT
HETATM    1  C1  UNL     1     -35.339  16.693  -5.159  1.00 20.00     0.069 C 
HETATM    2  C2  UNL     1     -34.549  15.613  -5.927  1.00 20.00     0.173 C 
HETATM    3  C3  UNL     1     -34.549  16.293  -3.887  1.00 20.00     0.135 C 
HETATM    4  C4  UNL     1     -34.300  14.893  -4.554  1.00 20.00     0.008 C 
HETATM    5  C5  UNL     1     -32.874  14.353  -4.420  1.00 20.00     0.020 C 
HETATM    6  C6  UNL     1     -35.310  13.846  -4.059  1.00 20.00     0.020 C 
HETATM    7  O10 UNL     1     -35.332  14.895  -6.843  1.00 20.00    -0.234 OA
ENDROOT
BRANCH   3   8
HETATM    8  O11 UNL     1     -33.382  17.098  -3.613  1.00 20.00    -0.380 OA
BRANCH   8   9
HETATM    9  C9  UNL     1     -33.129  17.156  -2.224  1.00 20.00     0.114 C 
HETATM   10  C7  UNL     1     -32.349  18.423  -1.909  1.00 20.00     0.039 C 
HETATM   11  C8  UNL     1     -34.450  17.101  -1.472  1.00 20.00     0.039 C 
ENDBRANCH   8   9
ENDBRANCH   3   8
TORSDOF 2
ENDMDL
