MODEL 1
REMARK VINA RESULT:      -3.6      0.000      0.000
REMARK  1 active torsions:
REMARK  status: ('A' for Active; 'I' for Inactive)
REMARK    1  A    between atoms: C2_2  and  O8_8 
ROOT
HETATM    1  C1  UNL     1     -35.077  16.053  -2.194  1.00 20.00     0.053 C 
HETATM    2  C2  UNL     1     -33.608  16.257  -2.629  1.00 20.00     0.131 C 
HETATM    3  C3  UNL     1     -35.150  14.870  -3.184  1.00 20.00     0.095 C 
HETATM    4  C4  UNL     1     -33.975  15.543  -3.976  1.00 20.00    -0.005 C 
HETATM    5  C5  UNL     1     -34.382  16.486  -5.112  1.00 20.00     0.019 C 
HETATM    6  C6  UNL     1     -32.914  14.550  -4.448  1.00 20.00     0.019 C 
HETATM    7 CL9  UNL     1     -36.716  14.522  -3.984  1.00 20.00    -0.124 Cl
ENDROOT
BRANCH   2   8
HETATM    8  O8  UNL     1     -33.153  17.619  -2.724  1.00 20.00    -0.390 OA
HETATM    9  C7  UNL     1     -32.392  17.977  -1.587  1.00 20.00     0.202 C 
ENDBRANCH   2   8
TORSDOF 1
ENDMDL
MODEL 2
REMARK VINA RESULT:      -3.5      2.528      3.608
REMARK  1 active torsions:
REMARK  status: ('A' for Active; 'I' for Inactive)
REMARK    1  A    between atoms: C2_2  and  O8_8 
ROOT
HETATM    1  C1  UNL     1     -35.039  15.997  -2.041  1.00 20.00     0.053 C 
HETATM    2  C2  UNL     1     -35.465  15.534  -3.452  1.00 20.00     0.131 C 
HETATM    3  C3  UNL     1     -34.166  17.077  -2.718  1.00 20.00     0.095 C 
HETATM    4  C4  UNL     1     -34.134  16.162  -3.992  1.00 20.00    -0.005 C 
HETATM    5  C5  UNL     1     -32.958  15.187  -4.091  1.00 20.00     0.019 C 
HETATM    6  C6  UNL     1     -34.311  16.935  -5.299  1.00 20.00     0.019 C 
HETATM    7 CL9  UNL     1     -32.647  17.578  -1.909  1.00 20.00    -0.124 Cl
ENDROOT
BRANCH   2   8
HETATM    8  O8  UNL     1     -35.631  14.117  -3.637  1.00 20.00    -0.390 OA
HETATM    9  C7  UNL     1     -36.416  13.844  -4.782  1.00 20.00     0.202 C 
ENDBRANCH   2   8
TORSDOF 1
ENDMDL
MODEL 3
REMARK VINA RESULT:      -3.5      2.780      3.985
REMARK  1 active torsions:
REMARK  status: ('A' for Active; 'I' for Inactive)
REMARK    1  A    between atoms: C2_2  and  O8_8 
ROOT
HETATM    1  C1  UNL     1     -36.247  15.826  -5.579  1.00 20.00     0.053 C 
HETATM    2  C2  UNL     1     -35.921  14.426  -5.011  1.00 20.00     0.131 C 
HETATM    3  C3  UNL     1     -34.769  16.206  -5.345  1.00 20.00     0.095 C 
HETATM    4  C4  UNL     1     -34.720  15.085  -4.250  1.00 20.00    -0.005 C 
HETATM    5  C5  UNL     1     -35.034  15.529  -2.818  1.00 20.00     0.019 C 
HETATM    6  C6  UNL     1     -33.440  14.251  -4.291  1.00 20.00     0.019 C 
HETATM    7 CL9  UNL     1     -34.379  17.908  -4.936  1.00 20.00    -0.124 Cl
ENDROOT
BRANCH   2   8
HETATM    8  O8  UNL     1     -36.940  13.812  -4.202  1.00 20.00    -0.390 OA
HETATM    9  C7  UNL     1     -38.154  14.532  -4.285  1.00 20.00     0.202 C 
ENDBRANCH   2   8
TORSDOF 1
ENDMDL
MODEL 4
REMARK VINA RESULT:      -3.4      2.648      3.947
REMARK  1 active torsions:
REMARK  status: ('A' for Active; 'I' for Inactive)
REMARK    1  A    between atoms: C2_2  and  O8_8 
ROOT
HETATM    1  C1  UNL     1     -33.490  15.922  -3.325  1.00 20.00     0.053 C 
HETATM    2  C2  UNL     1     -34.813  15.519  -2.636  1.00 20.00     0.131 C 
HETATM    3  C3  UNL     1     -33.305  16.991  -2.226  1.00 20.00     0.095 C 
HETATM    4  C4  UNL     1     -34.860  16.963  -2.026  1.00 20.00    -0.005 C 
HETATM    5  C5  UNL     1     -35.663  17.979  -2.843  1.00 20.00     0.019 C 
HETATM    6  C6  UNL     1     -35.284  16.991  -0.558  1.00 20.00     0.019 C 
HETATM    7 CL9  UNL     1     -32.461  18.515  -2.651  1.00 20.00    -0.124 Cl
ENDROOT
BRANCH   2   8
HETATM    8  O8  UNL     1     -35.899  15.149  -3.503  1.00 20.00    -0.390 OA
HETATM    9  C7  UNL     1     -35.580  13.987  -4.244  1.00 20.00     0.202 C 
ENDBRANCH   2   8
TORSDOF 1
ENDMDL
MODEL 5
REMARK VINA RESULT:      -3.4      2.229      3.346
REMARK  1 active torsions:
REMARK  status: ('A' for Active; 'I' for Inactive)
REMARK    1  A    between atoms: C2_2  and  O8_8 
ROOT
HETATM    1  C1  UNL     1     -33.526  15.942  -3.544  1.00 20.00     0.053 C 
HETATM    2  C2  UNL     1     -34.262  15.350  -4.767  1.00 20.00     0.131 C 
HETATM    3  C3  UNL     1     -34.730  15.511  -2.679  1.00 20.00     0.095 C 
HETATM    4  C4  UNL     1     -35.602  15.559  -3.981  1.00 20.00    -0.005 C 
HETATM    5  C5  UNL     1     -36.315  16.884  -4.267  1.00 20.00     0.019 C 
HETATM    6  C6  UNL     1     -36.572  14.384  -4.106  1.00 20.00     0.019 C 
HETATM    7 CL9  UNL     1     -35.156  16.509  -1.252  1.00 20.00    -0.124 Cl
ENDROOT
BRANCH   2   8
HETATM    8  O8  UNL     1     -34.122  16.067  -6.007  1.00 20.00    -0.390 OA
HETATM    9  C7  UNL     1     -34.068  15.176  -7.104  1.00 20.00     0.202 C 
ENDBRANCH   2   8
TORSDOF 1
ENDMDL
MODEL 6
REMARK VINA RESULT:      -3.4      2.339      3.417
REMARK  1 active torsions:
REMARK  status: ('A' for Active; 'I' for Inactive)
REMARK    1  A    between atoms: C2_2  and  O8_8 
ROOT
HETATM    1  C1  UNL     1     -35.899  15.112  -3.617  1.00 20.00     0.053 C 
HETATM    2  C2  UNL     1     -35.128  15.570  -4.876  1.00 20.00     0.131 C 
HETATM    3  C3  UNL     1     -35.506  16.451  -2.955  1.00 20.00     0.095 C 
HETATM    4  C4  UNL     1     -34.289  16.509  -3.942  1.00 20.00    -0.005 C 
HETATM    5  C5  UNL     1     -32.978  15.903  -3.432  1.00 20.00     0.019 C 
HETATM    6  C6  UNL     1     -34.050  17.900  -4.531  1.00 20.00     0.019 C 
HETATM    7 CL9  UNL     1     -35.252  16.484  -1.181  1.00 20.00    -0.124 Cl
ENDROOT
BRANCH   2   8
HETATM    8  O8  UNL     1     -34.403  14.552  -5.588  1.00 20.00    -0.390 OA
HETATM    9  C7  UNL     1     -34.011  15.010  -6.867  1.00 20.00     0.202 C 
ENDBRANCH   2   8
TORSDOF 1
ENDMDL
MODEL 7
REMARK VINA RESULT:      -3.4      2.710      3.962
REMARK  1 active torsions:
REMARK  status: ('A' for Active; 'I' for Inactive)
REMARK    1  A    between atoms: C2_2  and  O8_8 
ROOT
HETATM    1  C1  UNL     1     -35.706  13.883  -4.600  1.00 20.00     0.053 C 
HETATM    2  C2  UNL     1     -36.586  14.854  -3.780  1.00 20.00     0.131 C 
HETATM    3  C3  UNL     1     -34.501  14.344  -3.751  1.00 20.00     0.095 C 
HETATM    4  C4  UNL     1     -35.285  15.673  -3.474  1.00 20.00    -0.005 C 
HETATM    5  C5  UNL     1     -35.012  16.829  -4.441  1.00 20.00     0.019 C 
HETATM    6  C6  UNL     1     -35.188  16.145  -2.024  1.00 20.00     0.019 C 
HETATM    7 CL9  UNL     1     -32.880  14.375  -4.515  1.00 20.00    -0.124 Cl
ENDROOT
BRANCH   2   8
HETATM    8  O8  UNL     1     -37.625  15.539  -4.502  1.00 20.00    -0.390 OA
HETATM    9  C7  UNL     1     -38.892  14.981  -4.213  1.00 20.00     0.202 C 
ENDBRANCH   2   8
TORSDOF 1
ENDMDL
MODEL 8
REMARK VINA RESULT:      -3.4      2.525      3.648
REMARK  1 active torsions:
REMARK  status: ('A' for Active; 'I' for Inactive)
REMARK    1  A    between atoms: C2_2  and  O8_8 
ROOT
HETATM    1  C1  UNL     1     -34.100  18.056  -4.167  1.00 20.00     0.053 C 
HETATM    2  C2  UNL     1     -34.500  16.790  -4.958  1.00 20.00     0.131 C 
HETATM    3  C3  UNL     1     -33.040  17.201  -3.439  1.00 20.00     0.095 C 
HETATM    4  C4  UNL     1     -33.915  15.944  -3.775  1.00 20.00    -0.005 C 
HETATM    5  C5  UNL     1     -34.939  15.532  -2.713  1.00 20.00     0.019 C 
HETATM    6  C6  UNL     1     -33.096  14.738  -4.235  1.00 20.00     0.019 C 
HETATM    7 CL9  UNL     1     -32.633  17.609  -1.742  1.00 20.00    -0.124 Cl
ENDROOT
BRANCH   2   8
HETATM    8  O8  UNL     1     -35.902  16.627  -5.238  1.00 20.00    -0.390 OA
HETATM    9  C7  UNL     1     -36.103  15.718  -6.303  1.00 20.00     0.202 C 
ENDBRANCH   2   8
TORSDOF 1
ENDMDL
MODEL 9
REMARK VINA RESULT:      -3.4      2.354      3.682
REMARK  1 active torsions:
REMARK  status: ('A' for Active; 'I' for Inactive)
REMARK    1  A    between atoms: C2_2  and  O8_8 
ROOT
HETATM    1  C1  UNL     1     -36.250  15.520  -6.036  1.00 20.00     0.053 C 
HETATM    2  C2  UNL     1     -34.808  15.507  -5.482  1.00 20.00     0.131 C 
HETATM    3  C3  UNL     1     -36.754  15.506  -4.577  1.00 20.00     0.095 C 
HETATM    4  C4  UNL     1     -35.383  14.857  -4.177  1.00 20.00    -0.005 C 
HETATM    5  C5  UNL     1     -35.345  13.326  -4.152  1.00 20.00     0.019 C 
HETATM    6  C6  UNL     1     -34.788  15.436  -2.894  1.00 20.00     0.019 C 
HETATM    7 CL9  UNL     1     -38.302  14.678  -4.216  1.00 20.00    -0.124 Cl
ENDROOT
BRANCH   2   8
HETATM    8  O8  UNL     1     -33.847  14.731  -6.220  1.00 20.00    -0.390 OA
HETATM    9  C7  UNL     1     -33.795  15.144  -7.572  1.00 20.00     0.202 C 
ENDBRANCH   2   8
TORSDOF 1
ENDMDL
