MODEL 1
REMARK VINA RESULT:      -5.7      0.000      0.000
REMARK  3 active torsions:
REMARK  status: ('A' for Active; 'I' for Inactive)
REMARK    1  A    between atoms: C4_4  and  O11_11 
REMARK    2  A    between atoms: C8_8  and  C10_10 
REMARK    3  A    between atoms: C10_10  and  O11_11 
ROOT
HETATM    1  C1  UNL     1     -34.867   5.273   5.654  1.00 20.00    -0.030 C 
HETATM    2  C2  UNL     1     -34.367   6.477   5.960  1.00 20.00    -0.030 C 
HETATM    3  C5  UNL     1     -34.566   4.567   4.366  1.00 20.00     0.031 C 
HETATM    4  C6  UNL     1     -33.433   7.227   5.062  1.00 20.00     0.034 C 
HETATM    5  C7  UNL     1     -33.927   5.477   3.296  1.00 20.00    -0.009 C 
HETATM    6  C8  UNL     1     -32.829   6.363   3.934  1.00 20.00     0.017 C 
HETATM    7  C9  UNL     1     -33.414   4.618   2.139  1.00 20.00     0.011 C 
ENDROOT
BRANCH   6   8
HETATM    8  C10 UNL     1     -32.119   7.265   2.924  1.00 20.00     0.179 C 
BRANCH   8   9
HETATM    9  O11 UNL     1     -33.085   7.777   2.027  1.00 20.00    -0.363 OA
BRANCH   9  10
HETATM   10  C4  UNL     1     -32.596   8.358   0.936  1.00 20.00     0.124 C 
HETATM   11  C3  UNL     1     -33.323   8.742  -0.117  1.00 20.00     0.037 C 
ENDBRANCH   9  10
ENDBRANCH   8   9
ENDBRANCH   6   8
TORSDOF 3
ENDMDL
MODEL 2
REMARK VINA RESULT:      -5.1      0.712      2.220
REMARK  3 active torsions:
REMARK  status: ('A' for Active; 'I' for Inactive)
REMARK    1  A    between atoms: C4_4  and  O11_11 
REMARK    2  A    between atoms: C8_8  and  C10_10 
REMARK    3  A    between atoms: C10_10  and  O11_11 
ROOT
HETATM    1  C1  UNL     1     -34.839   4.372   4.515  1.00 20.00    -0.030 C 
HETATM    2  C2  UNL     1     -34.212   4.212   3.342  1.00 20.00    -0.030 C 
HETATM    3  C5  UNL     1     -34.657   5.581   5.381  1.00 20.00     0.031 C 
HETATM    4  C6  UNL     1     -33.289   5.240   2.762  1.00 20.00     0.034 C 
HETATM    5  C7  UNL     1     -33.444   6.449   4.984  1.00 20.00    -0.009 C 
HETATM    6  C8  UNL     1     -33.389   6.620   3.447  1.00 20.00     0.017 C 
HETATM    7  C9  UNL     1     -33.503   7.780   5.738  1.00 20.00     0.011 C 
ENDROOT
BRANCH   6   8
HETATM    8  C10 UNL     1     -32.234   7.506   2.978  1.00 20.00     0.179 C 
BRANCH   8   9
HETATM    9  O11 UNL     1     -32.223   7.514   1.564  1.00 20.00    -0.363 OA
BRANCH   9  10
HETATM   10  C4  UNL     1     -32.649   8.639   0.998  1.00 20.00     0.124 C 
HETATM   11  C3  UNL     1     -33.327   8.707  -0.150  1.00 20.00     0.037 C 
ENDBRANCH   9  10
ENDBRANCH   8   9
ENDBRANCH   6   8
TORSDOF 3
ENDMDL
MODEL 3
REMARK VINA RESULT:      -4.5     11.359     12.420
REMARK  3 active torsions:
REMARK  status: ('A' for Active; 'I' for Inactive)
REMARK    1  A    between atoms: C4_4  and  O11_11 
REMARK    2  A    between atoms: C8_8  and  C10_10 
REMARK    3  A    between atoms: C10_10  and  O11_11 
ROOT
HETATM    1  C1  UNL     1     -34.532  15.495  -2.982  1.00 20.00    -0.030 C 
HETATM    2  C2  UNL     1     -33.337  15.903  -3.428  1.00 20.00    -0.030 C 
HETATM    3  C5  UNL     1     -35.267  16.181  -1.870  1.00 20.00     0.031 C 
HETATM    4  C6  UNL     1     -32.627  17.103  -2.883  1.00 20.00     0.034 C 
HETATM    5  C7  UNL     1     -34.391  17.164  -1.064  1.00 20.00    -0.009 C 
HETATM    6  C8  UNL     1     -33.525  18.017  -2.023  1.00 20.00     0.017 C 
HETATM    7  C9  UNL     1     -35.282  18.003  -0.146  1.00 20.00     0.011 C 
ENDROOT
BRANCH   6   8
HETATM    8  C10 UNL     1     -32.658  19.048  -1.297  1.00 20.00     0.179 C 
BRANCH   8   9
HETATM    9  O11 UNL     1     -31.357  18.513  -1.152  1.00 20.00    -0.363 OA
BRANCH   9  10
HETATM   10  C4  UNL     1     -30.901  18.458   0.095  1.00 20.00     0.124 C 
HETATM   11  C3  UNL     1     -31.666  18.400   1.188  1.00 20.00     0.037 C 
ENDBRANCH   9  10
ENDBRANCH   8   9
ENDBRANCH   6   8
TORSDOF 3
ENDMDL
MODEL 4
REMARK VINA RESULT:      -4.4     11.117     11.976
REMARK  3 active torsions:
REMARK  status: ('A' for Active; 'I' for Inactive)
REMARK    1  A    between atoms: C4_4  and  O11_11 
REMARK    2  A    between atoms: C8_8  and  C10_10 
REMARK    3  A    between atoms: C10_10  and  O11_11 
ROOT
HETATM    1  C1  UNL     1     -33.660  14.811  -4.113  1.00 20.00    -0.030 C 
HETATM    2  C2  UNL     1     -34.969  14.668  -3.868  1.00 20.00    -0.030 C 
HETATM    3  C5  UNL     1     -32.805  15.829  -3.422  1.00 20.00     0.031 C 
HETATM    4  C6  UNL     1     -35.705  15.491  -2.855  1.00 20.00     0.034 C 
HETATM    5  C7  UNL     1     -33.614  16.911  -2.675  1.00 20.00    -0.009 C 
HETATM    6  C8  UNL     1     -34.779  16.260  -1.890  1.00 20.00     0.017 C 
HETATM    7  C9  UNL     1     -32.671  17.729  -1.789  1.00 20.00     0.011 C 
ENDROOT
BRANCH   6   8
HETATM    8  C10 UNL     1     -35.603  17.268  -1.087  1.00 20.00     0.179 C 
BRANCH   8   9
HETATM    9  O11 UNL     1     -35.513  16.928   0.283  1.00 20.00    -0.363 OA
BRANCH   9  10
HETATM   10  C4  UNL     1     -35.169  17.922   1.095  1.00 20.00     0.124 C 
HETATM   11  C3  UNL     1     -33.995  18.024   1.724  1.00 20.00     0.037 C 
ENDBRANCH   9  10
ENDBRANCH   8   9
ENDBRANCH   6   8
TORSDOF 3
ENDMDL
MODEL 5
REMARK VINA RESULT:      -4.2     11.398     12.070
REMARK  3 active torsions:
REMARK  status: ('A' for Active; 'I' for Inactive)
REMARK    1  A    between atoms: C4_4  and  O11_11 
REMARK    2  A    between atoms: C8_8  and  C10_10 
REMARK    3  A    between atoms: C10_10  and  O11_11 
ROOT
HETATM    1  C1  UNL     1     -34.390  17.072  -1.492  1.00 20.00    -0.030 C 
HETATM    2  C2  UNL     1     -33.204  17.158  -2.110  1.00 20.00    -0.030 C 
HETATM    3  C5  UNL     1     -35.513  16.217  -1.996  1.00 20.00     0.031 C 
HETATM    4  C6  UNL     1     -32.871  16.386  -3.350  1.00 20.00     0.034 C 
HETATM    5  C7  UNL     1     -35.316  15.727  -3.446  1.00 20.00    -0.009 C 
HETATM    6  C8  UNL     1     -33.861  15.241  -3.653  1.00 20.00     0.017 C 
HETATM    7  C9  UNL     1     -36.362  14.658  -3.768  1.00 20.00     0.011 C 
ENDROOT
BRANCH   6   8
HETATM    8  C10 UNL     1     -33.600  14.700  -5.059  1.00 20.00     0.179 C 
BRANCH   8   9
HETATM    9  O11 UNL     1     -33.983  15.687  -5.996  1.00 20.00    -0.363 OA
BRANCH   9  10
HETATM   10  C4  UNL     1     -34.446  15.225  -7.153  1.00 20.00     0.124 C 
HETATM   11  C3  UNL     1     -35.738  15.104  -7.466  1.00 20.00     0.037 C 
ENDBRANCH   9  10
ENDBRANCH   8   9
ENDBRANCH   6   8
TORSDOF 3
ENDMDL
MODEL 6
REMARK VINA RESULT:      -4.2     11.015     12.541
REMARK  3 active torsions:
REMARK  status: ('A' for Active; 'I' for Inactive)
REMARK    1  A    between atoms: C4_4  and  O11_11 
REMARK    2  A    between atoms: C8_8  and  C10_10 
REMARK    3  A    between atoms: C10_10  and  O11_11 
ROOT
HETATM    1  C1  UNL     1     -33.852  17.250  -3.855  1.00 20.00    -0.030 C 
HETATM    2  C2  UNL     1     -34.031  16.362  -2.869  1.00 20.00    -0.030 C 
HETATM    3  C5  UNL     1     -34.376  17.044  -5.245  1.00 20.00     0.031 C 
HETATM    4  C6  UNL     1     -34.799  15.088  -3.045  1.00 20.00     0.034 C 
HETATM    5  C7  UNL     1     -34.826  15.595  -5.528  1.00 20.00    -0.009 C 
HETATM    6  C8  UNL     1     -35.646  15.048  -4.334  1.00 20.00     0.017 C 
HETATM    7  C9  UNL     1     -35.586  15.550  -6.855  1.00 20.00     0.011 C 
ENDROOT
BRANCH   6   8
HETATM    8  C10 UNL     1     -36.165  13.627  -4.560  1.00 20.00     0.179 C 
BRANCH   8   9
HETATM    9  O11 UNL     1     -37.577  13.649  -4.476  1.00 20.00    -0.363 OA
BRANCH   9  10
HETATM   10  C4  UNL     1     -38.114  14.840  -4.236  1.00 20.00     0.124 C 
HETATM   11  C3  UNL     1     -39.421  15.111  -4.275  1.00 20.00     0.037 C 
ENDBRANCH   9  10
ENDBRANCH   8   9
ENDBRANCH   6   8
TORSDOF 3
ENDMDL
MODEL 7
REMARK VINA RESULT:      -4.1     11.181     12.025
REMARK  3 active torsions:
REMARK  status: ('A' for Active; 'I' for Inactive)
REMARK    1  A    between atoms: C4_4  and  O11_11 
REMARK    2  A    between atoms: C8_8  and  C10_10 
REMARK    3  A    between atoms: C10_10  and  O11_11 
ROOT
HETATM    1  C1  UNL     1     -34.266  17.129  -2.312  1.00 20.00    -0.030 C 
HETATM    2  C2  UNL     1     -35.587  16.905  -2.290  1.00 20.00    -0.030 C 
HETATM    3  C5  UNL     1     -33.304  16.268  -3.074  1.00 20.00     0.031 C 
HETATM    4  C6  UNL     1     -36.240  15.792  -3.050  1.00 20.00     0.034 C 
HETATM    5  C7  UNL     1     -33.908  14.925  -3.537  1.00 20.00    -0.009 C 
HETATM    6  C8  UNL     1     -35.327  15.149  -4.115  1.00 20.00     0.017 C 
HETATM    7  C9  UNL     1     -32.953  14.251  -4.523  1.00 20.00     0.011 C 
ENDROOT
BRANCH   6   8
HETATM    8  C10 UNL     1     -35.975  13.865  -4.635  1.00 20.00     0.179 C 
BRANCH   8   9
HETATM    9  O11 UNL     1     -35.903  13.869  -6.048  1.00 20.00    -0.363 OA
BRANCH   9  10
HETATM   10  C4  UNL     1     -35.894  15.071  -6.614  1.00 20.00     0.124 C 
HETATM   11  C3  UNL     1     -35.323  15.361  -7.785  1.00 20.00     0.037 C 
ENDBRANCH   9  10
ENDBRANCH   8   9
ENDBRANCH   6   8
TORSDOF 3
ENDMDL
MODEL 8
REMARK VINA RESULT:      -4.1      9.329     10.217
REMARK  3 active torsions:
REMARK  status: ('A' for Active; 'I' for Inactive)
REMARK    1  A    between atoms: C4_4  and  O11_11 
REMARK    2  A    between atoms: C8_8  and  C10_10 
REMARK    3  A    between atoms: C10_10  and  O11_11 
ROOT
HETATM    1  C1  UNL     1     -42.314   8.528   0.416  1.00 20.00    -0.030 C 
HETATM    2  C2  UNL     1     -41.509   8.469  -0.653  1.00 20.00    -0.030 C 
HETATM    3  C5  UNL     1     -42.942   7.316   1.034  1.00 20.00     0.031 C 
HETATM    4  C6  UNL     1     -41.130   7.183  -1.320  1.00 20.00     0.034 C 
HETATM    5  C7  UNL     1     -42.867   6.058   0.144  1.00 20.00    -0.009 C 
HETATM    6  C8  UNL     1     -41.456   5.929  -0.480  1.00 20.00     0.017 C 
HETATM    7  C9  UNL     1     -43.280   4.832   0.960  1.00 20.00     0.011 C 
ENDROOT
BRANCH   6   8
HETATM    8  C10 UNL     1     -41.290   4.678  -1.345  1.00 20.00     0.179 C 
BRANCH   8   9
HETATM    9  O11 UNL     1     -42.420   4.566  -2.189  1.00 20.00    -0.363 OA
BRANCH   9  10
HETATM   10  C4  UNL     1     -42.636   3.356  -2.692  1.00 20.00     0.124 C 
HETATM   11  C3  UNL     1     -41.872   2.761  -3.611  1.00 20.00     0.037 C 
ENDBRANCH   9  10
ENDBRANCH   8   9
ENDBRANCH   6   8
TORSDOF 3
ENDMDL
MODEL 9
REMARK VINA RESULT:      -4.1     10.975     12.128
REMARK  3 active torsions:
REMARK  status: ('A' for Active; 'I' for Inactive)
REMARK    1  A    between atoms: C4_4  and  O11_11 
REMARK    2  A    between atoms: C8_8  and  C10_10 
REMARK    3  A    between atoms: C10_10  and  O11_11 
ROOT
HETATM    1  C1  UNL     1     -34.897  14.147  -3.946  1.00 20.00    -0.030 C 
HETATM    2  C2  UNL     1     -33.603  14.373  -4.209  1.00 20.00    -0.030 C 
HETATM    3  C5  UNL     1     -35.767  15.130  -3.223  1.00 20.00     0.031 C 
HETATM    4  C6  UNL     1     -32.902  15.642  -3.835  1.00 20.00     0.034 C 
HETATM    5  C7  UNL     1     -34.977  16.250  -2.513  1.00 20.00    -0.009 C 
HETATM    6  C8  UNL     1     -33.860  16.787  -3.441  1.00 20.00     0.017 C 
HETATM    7  C9  UNL     1     -35.946  17.337  -2.044  1.00 20.00     0.011 C 
ENDROOT
BRANCH   6   8
HETATM    8  C10 UNL     1     -33.058  17.932  -2.821  1.00 20.00     0.179 C 
BRANCH   8   9
HETATM    9  O11 UNL     1     -32.550  17.498  -1.574  1.00 20.00    -0.363 OA
BRANCH   9  10
HETATM   10  C4  UNL     1     -32.072  18.458  -0.789  1.00 20.00     0.124 C 
HETATM   11  C3  UNL     1     -30.946  18.374  -0.078  1.00 20.00     0.037 C 
ENDBRANCH   9  10
ENDBRANCH   8   9
ENDBRANCH   6   8
TORSDOF 3
ENDMDL
