MODEL 1
REMARK VINA RESULT:      -4.1      0.000      0.000
REMARK  1 active torsions:
REMARK  status: ('A' for Active; 'I' for Inactive)
REMARK    1  A    between atoms: C2_2  and  O8_8 
ROOT
HETATM    1  C1  UNL     1     -24.222  17.964   9.046  1.00 20.00     0.049 C 
HETATM    2  C2  UNL     1     -24.510  18.435  10.486  1.00 20.00     0.131 C 
HETATM    3  C3  UNL     1     -23.050  17.110   9.588  1.00 20.00     0.070 C 
HETATM    4  C4  UNL     1     -23.720  17.188  11.005  1.00 20.00    -0.008 C 
HETATM    5  C5  UNL     1     -22.850  17.498  12.222  1.00 20.00     0.018 C 
HETATM    6  C6  UNL     1     -24.587  15.949  11.284  1.00 20.00     0.018 C 
HETATM    7 BR9  UNL     1     -21.294  17.916   9.348  1.00 20.00    -0.090 Br
ENDROOT
BRANCH   2   8
HETATM    8  O8  UNL     1     -25.898  18.524  10.855  1.00 20.00    -0.390 OA
HETATM    9  C7  UNL     1     -26.051  19.261  12.052  1.00 20.00     0.202 C 
ENDBRANCH   2   8
TORSDOF 1
ENDMDL
MODEL 2
REMARK VINA RESULT:      -3.8      2.504      3.409
REMARK  1 active torsions:
REMARK  status: ('A' for Active; 'I' for Inactive)
REMARK    1  A    between atoms: C2_2  and  O8_8 
ROOT
HETATM    1  C1  UNL     1     -24.205  18.539   9.872  1.00 20.00     0.049 C 
HETATM    2  C2  UNL     1     -24.005  17.009   9.844  1.00 20.00     0.131 C 
HETATM    3  C3  UNL     1     -24.678  18.423  11.341  1.00 20.00     0.070 C 
HETATM    4  C4  UNL     1     -23.956  17.031  11.408  1.00 20.00    -0.008 C 
HETATM    5  C5  UNL     1     -24.682  15.847  12.044  1.00 20.00     0.018 C 
HETATM    6  C6  UNL     1     -22.544  17.160  12.004  1.00 20.00     0.018 C 
HETATM    7 BR9  UNL     1     -26.612  18.475  11.567  1.00 20.00    -0.090 Br
ENDROOT
BRANCH   2   8
HETATM    8  O8  UNL     1     -22.828  16.539   9.163  1.00 20.00    -0.390 OA
HETATM    9  C7  UNL     1     -22.355  17.512   8.252  1.00 20.00     0.202 C 
ENDBRANCH   2   8
TORSDOF 1
ENDMDL
MODEL 3
REMARK VINA RESULT:      -3.8     17.945     19.139
REMARK  1 active torsions:
REMARK  status: ('A' for Active; 'I' for Inactive)
REMARK    1  A    between atoms: C2_2  and  O8_8 
ROOT
HETATM    1  C1  UNL     1     -33.321  14.875  -4.099  1.00 20.00     0.049 C 
HETATM    2  C2  UNL     1     -34.210  15.362  -5.262  1.00 20.00     0.131 C 
HETATM    3  C3  UNL     1     -34.485  15.167  -3.122  1.00 20.00     0.070 C 
HETATM    4  C4  UNL     1     -35.459  15.117  -4.352  1.00 20.00    -0.008 C 
HETATM    5  C5  UNL     1     -36.526  16.200  -4.500  1.00 20.00     0.018 C 
HETATM    6  C6  UNL     1     -36.101  13.728  -4.502  1.00 20.00     0.018 C 
HETATM    7 BR9  UNL     1     -34.310  16.844  -2.147  1.00 20.00    -0.090 Br
ENDROOT
BRANCH   2   8
HETATM    8  O8  UNL     1     -34.133  14.597  -6.479  1.00 20.00    -0.390 OA
HETATM    9  C7  UNL     1     -34.031  15.451  -7.601  1.00 20.00     0.202 C 
ENDBRANCH   2   8
TORSDOF 1
ENDMDL
MODEL 4
REMARK VINA RESULT:      -3.6     17.045     18.204
REMARK  1 active torsions:
REMARK  status: ('A' for Active; 'I' for Inactive)
REMARK    1  A    between atoms: C2_2  and  O8_8 
ROOT
HETATM    1  C1  UNL     1     -34.806  15.612  -2.736  1.00 20.00     0.049 C 
HETATM    2  C2  UNL     1     -34.154  16.405  -3.887  1.00 20.00     0.131 C 
HETATM    3  C3  UNL     1     -35.056  14.443  -3.719  1.00 20.00     0.070 C 
HETATM    4  C4  UNL     1     -33.942  15.051  -4.641  1.00 20.00    -0.008 C 
HETATM    5  C5  UNL     1     -34.198  15.159  -6.143  1.00 20.00     0.018 C 
HETATM    6  C6  UNL     1     -32.580  14.382  -4.390  1.00 20.00     0.018 C 
HETATM    7 BR9  UNL     1     -36.877  14.349  -4.405  1.00 20.00    -0.090 Br
ENDROOT
BRANCH   2   8
HETATM    8  O8  UNL     1     -32.971  17.152  -3.548  1.00 20.00    -0.390 OA
HETATM    9  C7  UNL     1     -32.932  17.424  -2.161  1.00 20.00     0.202 C 
ENDBRANCH   2   8
TORSDOF 1
ENDMDL
MODEL 5
REMARK VINA RESULT:      -3.5     18.733     19.591
REMARK  1 active torsions:
REMARK  status: ('A' for Active; 'I' for Inactive)
REMARK    1  A    between atoms: C2_2  and  O8_8 
ROOT
HETATM    1  C1  UNL     1     -36.890  16.205  -3.861  1.00 20.00     0.049 C 
HETATM    2  C2  UNL     1     -36.936  14.664  -3.810  1.00 20.00     0.131 C 
HETATM    3  C3  UNL     1     -35.363  16.124  -4.099  1.00 20.00     0.070 C 
HETATM    4  C4  UNL     1     -35.568  14.642  -4.569  1.00 20.00    -0.008 C 
HETATM    5  C5  UNL     1     -34.619  13.561  -4.054  1.00 20.00     0.018 C 
HETATM    6  C6  UNL     1     -35.684  14.549  -6.099  1.00 20.00     0.018 C 
HETATM    7 BR9  UNL     1     -34.287  16.452  -2.509  1.00 20.00    -0.090 Br
ENDROOT
BRANCH   2   8
HETATM    8  O8  UNL     1     -38.055  14.043  -4.469  1.00 20.00    -0.390 OA
HETATM    9  C7  UNL     1     -39.217  14.838  -4.336  1.00 20.00     0.202 C 
ENDBRANCH   2   8
TORSDOF 1
ENDMDL
MODEL 6
REMARK VINA RESULT:      -3.4     17.344     18.520
REMARK  1 active torsions:
REMARK  status: ('A' for Active; 'I' for Inactive)
REMARK    1  A    between atoms: C2_2  and  O8_8 
ROOT
HETATM    1  C1  UNL     1     -33.743  17.315  -4.020  1.00 20.00     0.049 C 
HETATM    2  C2  UNL     1     -34.581  16.358  -4.893  1.00 20.00     0.131 C 
HETATM    3  C3  UNL     1     -33.774  16.262  -2.885  1.00 20.00     0.070 C 
HETATM    4  C4  UNL     1     -34.120  15.182  -3.970  1.00 20.00    -0.008 C 
HETATM    5  C5  UNL     1     -35.235  14.176  -3.687  1.00 20.00     0.018 C 
HETATM    6  C6  UNL     1     -32.859  14.444  -4.449  1.00 20.00     0.018 C 
HETATM    7 BR9  UNL     1     -35.083  16.627  -1.489  1.00 20.00    -0.090 Br
ENDROOT
BRANCH   2   8
HETATM    8  O8  UNL     1     -34.206  16.279  -6.280  1.00 20.00    -0.390 OA
HETATM    9  C7  UNL     1     -35.265  15.755  -7.056  1.00 20.00     0.202 C 
ENDBRANCH   2   8
TORSDOF 1
ENDMDL
MODEL 7
REMARK VINA RESULT:      -3.4     18.149     18.958
REMARK  1 active torsions:
REMARK  status: ('A' for Active; 'I' for Inactive)
REMARK    1  A    between atoms: C2_2  and  O8_8 
ROOT
HETATM    1  C1  UNL     1     -36.077  16.127  -3.592  1.00 20.00     0.049 C 
HETATM    2  C2  UNL     1     -35.752  14.624  -3.708  1.00 20.00     0.131 C 
HETATM    3  C3  UNL     1     -34.631  16.447  -4.043  1.00 20.00     0.070 C 
HETATM    4  C4  UNL     1     -34.556  15.000  -4.644  1.00 20.00    -0.008 C 
HETATM    5  C5  UNL     1     -33.310  14.153  -4.389  1.00 20.00     0.018 C 
HETATM    6  C6  UNL     1     -34.890  14.997  -6.145  1.00 20.00     0.018 C 
HETATM    7 BR9  UNL     1     -33.421  16.911  -2.589  1.00 20.00    -0.090 Br
ENDROOT
BRANCH   2   8
HETATM    8  O8  UNL     1     -36.785  13.797  -4.273  1.00 20.00    -0.390 OA
HETATM    9  C7  UNL     1     -38.017  14.489  -4.305  1.00 20.00     0.202 C 
ENDBRANCH   2   8
TORSDOF 1
ENDMDL
MODEL 8
REMARK VINA RESULT:      -3.3     16.268     17.426
REMARK  1 active torsions:
REMARK  status: ('A' for Active; 'I' for Inactive)
REMARK    1  A    between atoms: C2_2  and  O8_8 
ROOT
HETATM    1  C1  UNL     1     -32.903  18.330  -3.511  1.00 20.00     0.049 C 
HETATM    2  C2  UNL     1     -34.234  17.676  -3.936  1.00 20.00     0.131 C 
HETATM    3  C3  UNL     1     -32.857  17.377  -2.291  1.00 20.00     0.070 C 
HETATM    4  C4  UNL     1     -33.859  16.440  -3.053  1.00 20.00    -0.008 C 
HETATM    5  C5  UNL     1     -35.055  15.863  -2.298  1.00 20.00     0.018 C 
HETATM    6  C6  UNL     1     -33.121  15.317  -3.799  1.00 20.00     0.018 C 
HETATM    7 BR9  UNL     1     -33.435  18.189  -0.618  1.00 20.00    -0.090 Br
ENDROOT
BRANCH   2   8
HETATM    8  O8  UNL     1     -34.399  17.440  -5.346  1.00 20.00    -0.390 OA
HETATM    9  C7  UNL     1     -35.768  17.311  -5.675  1.00 20.00     0.202 C 
ENDBRANCH   2   8
TORSDOF 1
ENDMDL
MODEL 9
REMARK VINA RESULT:      -3.3     18.213     19.222
REMARK  1 active torsions:
REMARK  status: ('A' for Active; 'I' for Inactive)
REMARK    1  A    between atoms: C2_2  and  O8_8 
ROOT
HETATM    1  C1  UNL     1     -36.270  15.968  -5.518  1.00 20.00     0.049 C 
HETATM    2  C2  UNL     1     -36.715  15.580  -4.093  1.00 20.00     0.131 C 
HETATM    3  C3  UNL     1     -34.855  16.268  -4.965  1.00 20.00     0.070 C 
HETATM    4  C4  UNL     1     -35.208  15.372  -3.726  1.00 20.00    -0.008 C 
HETATM    5  C5  UNL     1     -34.862  15.873  -2.325  1.00 20.00     0.018 C 
HETATM    6  C6  UNL     1     -34.695  13.935  -3.909  1.00 20.00     0.018 C 
HETATM    7 BR9  UNL     1     -34.495  18.159  -4.670  1.00 20.00    -0.090 Br
ENDROOT
BRANCH   2   8
HETATM    8  O8  UNL     1     -37.573  14.429  -3.992  1.00 20.00    -0.390 OA
HETATM    9  C7  UNL     1     -38.922  14.790  -4.215  1.00 20.00     0.202 C 
ENDBRANCH   2   8
TORSDOF 1
ENDMDL
