MODEL 1
REMARK VINA RESULT:      -5.4      0.000      0.000
REMARK  3 active torsions:
REMARK  status: ('A' for Active; 'I' for Inactive)
REMARK    1  A    between atoms: C2_2  and  O10_10 
REMARK    2  A    between atoms: C7_7  and  C8_8 
REMARK    3  A    between atoms: C8_8  and  O10_10 
ROOT
HETATM    1  C3  UNL     1     -34.446   6.483   6.147  1.00 20.00     0.005 C 
HETATM    2  C4  UNL     1     -34.819   5.065   5.732  1.00 20.00     0.026 C 
HETATM    3  C5  UNL     1     -33.259   6.986   5.329  1.00 20.00     0.034 C 
HETATM    4  C6  UNL     1     -34.986   4.972   4.222  1.00 20.00     0.168 C 
HETATM    5  C7  UNL     1     -33.517   6.796   3.832  1.00 20.00     0.145 C 
HETATM    6  O9  UNL     1     -33.809   5.422   3.552  1.00 20.00    -0.384 OA
ENDROOT
BRANCH   5   7
HETATM    7  C8  UNL     1     -32.295   7.187   3.012  1.00 20.00     0.206 C 
BRANCH   7   8
HETATM    8  O10 UNL     1     -32.657   7.207   1.642  1.00 20.00    -0.361 OA
BRANCH   8   9
HETATM    9  C2  UNL     1     -32.615   8.402   1.063  1.00 20.00     0.124 C 
HETATM   10  C1  UNL     1     -33.279   8.739  -0.045  1.00 20.00     0.037 C 
ENDBRANCH   8   9
ENDBRANCH   7   8
ENDBRANCH   5   7
TORSDOF 3
ENDMDL
MODEL 2
REMARK VINA RESULT:      -4.8      1.214      1.836
REMARK  3 active torsions:
REMARK  status: ('A' for Active; 'I' for Inactive)
REMARK    1  A    between atoms: C2_2  and  O10_10 
REMARK    2  A    between atoms: C7_7  and  C8_8 
REMARK    3  A    between atoms: C8_8  and  O10_10 
ROOT
HETATM    1  C3  UNL     1     -34.176   4.257   3.904  1.00 20.00     0.005 C 
HETATM    2  C4  UNL     1     -34.975   5.227   4.766  1.00 20.00     0.026 C 
HETATM    3  C5  UNL     1     -33.622   4.966   2.671  1.00 20.00     0.034 C 
HETATM    4  C6  UNL     1     -34.169   6.487   5.049  1.00 20.00     0.168 C 
HETATM    5  C7  UNL     1     -32.877   6.241   3.071  1.00 20.00     0.145 C 
HETATM    6  O9  UNL     1     -33.737   7.097   3.833  1.00 20.00    -0.384 OA
ENDROOT
BRANCH   5   7
HETATM    7  C8  UNL     1     -32.420   7.017   1.843  1.00 20.00     0.206 C 
BRANCH   7   8
HETATM    8  O10 UNL     1     -32.834   8.366   1.979  1.00 20.00    -0.361 OA
BRANCH   8   9
HETATM    9  C2  UNL     1     -32.902   9.053   0.845  1.00 20.00     0.124 C 
HETATM   10  C1  UNL     1     -33.349   8.570  -0.318  1.00 20.00     0.037 C 
ENDBRANCH   8   9
ENDBRANCH   7   8
ENDBRANCH   5   7
TORSDOF 3
ENDMDL
MODEL 3
REMARK VINA RESULT:      -4.2     11.104     11.840
REMARK  3 active torsions:
REMARK  status: ('A' for Active; 'I' for Inactive)
REMARK    1  A    between atoms: C2_2  and  O10_10 
REMARK    2  A    between atoms: C7_7  and  C8_8 
REMARK    3  A    between atoms: C8_8  and  O10_10 
ROOT
HETATM    1  C3  UNL     1     -34.247  15.906  -2.532  1.00 20.00     0.005 C 
HETATM    2  C4  UNL     1     -33.087  15.926  -3.521  1.00 20.00     0.026 C 
HETATM    3  C5  UNL     1     -35.546  15.526  -3.237  1.00 20.00     0.034 C 
HETATM    4  C6  UNL     1     -33.037  14.630  -4.319  1.00 20.00     0.168 C 
HETATM    5  C7  UNL     1     -35.364  14.240  -4.047  1.00 20.00     0.145 C 
HETATM    6  O9  UNL     1     -34.282  14.389  -4.974  1.00 20.00    -0.384 OA
ENDROOT
BRANCH   5   7
HETATM    7  C8  UNL     1     -36.618  13.913  -4.845  1.00 20.00     0.206 C 
BRANCH   7   8
HETATM    8  O10 UNL     1     -37.739  13.992  -3.981  1.00 20.00    -0.361 OA
BRANCH   8   9
HETATM    9  C2  UNL     1     -38.783  14.652  -4.468  1.00 20.00     0.124 C 
HETATM   10  C1  UNL     1     -39.588  15.445  -3.754  1.00 20.00     0.037 C 
ENDBRANCH   8   9
ENDBRANCH   7   8
ENDBRANCH   5   7
TORSDOF 3
ENDMDL
MODEL 4
REMARK VINA RESULT:      -4.0     14.988     15.768
REMARK  3 active torsions:
REMARK  status: ('A' for Active; 'I' for Inactive)
REMARK    1  A    between atoms: C2_2  and  O10_10 
REMARK    2  A    between atoms: C7_7  and  C8_8 
REMARK    3  A    between atoms: C8_8  and  O10_10 
ROOT
HETATM    1  C3  UNL     1     -24.319  15.941  11.358  1.00 20.00     0.005 C 
HETATM    2  C4  UNL     1     -25.532  16.649  11.951  1.00 20.00     0.026 C 
HETATM    3  C5  UNL     1     -23.870  16.631  10.073  1.00 20.00     0.034 C 
HETATM    4  C6  UNL     1     -25.276  18.145  12.072  1.00 20.00     0.168 C 
HETATM    5  C7  UNL     1     -23.695  18.134  10.300  1.00 20.00     0.145 C 
HETATM    6  O9  UNL     1     -24.907  18.701  10.811  1.00 20.00    -0.384 OA
ENDROOT
BRANCH   5   7
HETATM    7  C8  UNL     1     -23.359  18.849   8.999  1.00 20.00     0.206 C 
BRANCH   7   8
HETATM    8  O10 UNL     1     -24.077  18.232   7.944  1.00 20.00    -0.361 OA
BRANCH   8   9
HETATM    9  C2  UNL     1     -24.789  19.056   7.185  1.00 20.00     0.124 C 
HETATM   10  C1  UNL     1     -26.044  18.838   6.787  1.00 20.00     0.037 C 
ENDBRANCH   8   9
ENDBRANCH   7   8
ENDBRANCH   5   7
TORSDOF 3
ENDMDL
MODEL 5
REMARK VINA RESULT:      -3.9     11.581     12.405
REMARK  3 active torsions:
REMARK  status: ('A' for Active; 'I' for Inactive)
REMARK    1  A    between atoms: C2_2  and  O10_10 
REMARK    2  A    between atoms: C7_7  and  C8_8 
REMARK    3  A    between atoms: C8_8  and  O10_10 
ROOT
HETATM    1  C3  UNL     1     -33.985  15.905  -2.710  1.00 20.00     0.005 C 
HETATM    2  C4  UNL     1     -35.332  16.376  -2.172  1.00 20.00     0.026 C 
HETATM    3  C5  UNL     1     -32.973  17.047  -2.696  1.00 20.00     0.034 C 
HETATM    4  C6  UNL     1     -35.161  17.075  -0.831  1.00 20.00     0.168 C 
HETATM    5  C7  UNL     1     -32.924  17.708  -1.317  1.00 20.00     0.145 C 
HETATM    6  O9  UNL     1     -34.231  18.153  -0.935  1.00 20.00    -0.384 OA
ENDROOT
BRANCH   5   7
HETATM    7  C8  UNL     1     -32.003  18.920  -1.323  1.00 20.00     0.206 C 
BRANCH   7   8
HETATM    8  O10 UNL     1     -30.749  18.540  -0.784  1.00 20.00    -0.361 OA
BRANCH   8   9
HETATM    9  C2  UNL     1     -30.749  18.274   0.517  1.00 20.00     0.124 C 
HETATM   10  C1  UNL     1     -30.492  19.164   1.480  1.00 20.00     0.037 C 
ENDBRANCH   8   9
ENDBRANCH   7   8
ENDBRANCH   5   7
TORSDOF 3
ENDMDL
MODEL 6
REMARK VINA RESULT:      -3.9     11.067     11.994
REMARK  3 active torsions:
REMARK  status: ('A' for Active; 'I' for Inactive)
REMARK    1  A    between atoms: C2_2  and  O10_10 
REMARK    2  A    between atoms: C7_7  and  C8_8 
REMARK    3  A    between atoms: C8_8  and  O10_10 
ROOT
HETATM    1  C3  UNL     1     -34.216  15.937  -2.497  1.00 20.00     0.005 C 
HETATM    2  C4  UNL     1     -33.000  16.036  -3.411  1.00 20.00     0.026 C 
HETATM    3  C5  UNL     1     -35.432  15.443  -3.275  1.00 20.00     0.034 C 
HETATM    4  C6  UNL     1     -32.796  14.737  -4.179  1.00 20.00     0.168 C 
HETATM    5  C7  UNL     1     -35.097  14.165  -4.047  1.00 20.00     0.145 C 
HETATM    6  O9  UNL     1     -33.973  14.388  -4.906  1.00 20.00    -0.384 OA
ENDROOT
BRANCH   5   7
HETATM    7  C8  UNL     1     -36.268  13.728  -4.917  1.00 20.00     0.206 C 
BRANCH   7   8
HETATM    8  O10 UNL     1     -35.943  13.978  -6.274  1.00 20.00    -0.361 OA
BRANCH   8   9
HETATM    9  C2  UNL     1     -36.400  15.125  -6.763  1.00 20.00     0.124 C 
HETATM   10  C1  UNL     1     -35.687  15.983  -7.496  1.00 20.00     0.037 C 
ENDBRANCH   8   9
ENDBRANCH   7   8
ENDBRANCH   5   7
TORSDOF 3
ENDMDL
MODEL 7
REMARK VINA RESULT:      -3.9     10.998     11.859
REMARK  3 active torsions:
REMARK  status: ('A' for Active; 'I' for Inactive)
REMARK    1  A    between atoms: C2_2  and  O10_10 
REMARK    2  A    between atoms: C7_7  and  C8_8 
REMARK    3  A    between atoms: C8_8  and  O10_10 
ROOT
HETATM    1  C3  UNL     1     -33.055  17.506  -2.448  1.00 20.00     0.005 C 
HETATM    2  C4  UNL     1     -33.952  17.445  -1.216  1.00 20.00     0.026 C 
HETATM    3  C5  UNL     1     -33.041  16.160  -3.167  1.00 20.00     0.034 C 
HETATM    4  C6  UNL     1     -35.322  16.887  -1.575  1.00 20.00     0.168 C 
HETATM    5  C7  UNL     1     -34.468  15.673  -3.429  1.00 20.00     0.145 C 
HETATM    6  O9  UNL     1     -35.201  15.610  -2.201  1.00 20.00    -0.384 OA
ENDROOT
BRANCH   5   7
HETATM    7  C8  UNL     1     -34.468  14.280  -4.043  1.00 20.00     0.206 C 
BRANCH   7   8
HETATM    8  O10 UNL     1     -33.801  14.335  -5.293  1.00 20.00    -0.361 OA
BRANCH   8   9
HETATM    9  C2  UNL     1     -34.451  14.984  -6.252  1.00 20.00     0.124 C 
HETATM   10  C1  UNL     1     -33.944  15.285  -7.450  1.00 20.00     0.037 C 
ENDBRANCH   8   9
ENDBRANCH   7   8
ENDBRANCH   5   7
TORSDOF 3
ENDMDL
MODEL 8
REMARK VINA RESULT:      -3.8     14.899     15.817
REMARK  3 active torsions:
REMARK  status: ('A' for Active; 'I' for Inactive)
REMARK    1  A    between atoms: C2_2  and  O10_10 
REMARK    2  A    between atoms: C7_7  and  C8_8 
REMARK    3  A    between atoms: C8_8  and  O10_10 
ROOT
HETATM    1  C3  UNL     1     -22.138  18.127   9.047  1.00 20.00     0.005 C 
HETATM    2  C4  UNL     1     -22.653  17.474  10.325  1.00 20.00     0.026 C 
HETATM    3  C5  UNL     1     -23.272  18.304   8.041  1.00 20.00     0.034 C 
HETATM    4  C6  UNL     1     -23.877  18.211  10.850  1.00 20.00     0.168 C 
HETATM    5  C7  UNL     1     -24.465  19.007   8.692  1.00 20.00     0.145 C 
HETATM    6  O9  UNL     1     -24.893  18.283   9.851  1.00 20.00    -0.384 OA
ENDROOT
BRANCH   5   7
HETATM    7  C8  UNL     1     -25.644  19.087   7.732  1.00 20.00     0.206 C 
BRANCH   7   8
HETATM    8  O10 UNL     1     -25.190  18.762   6.429  1.00 20.00    -0.361 OA
BRANCH   8   9
HETATM    9  C2  UNL     1     -25.916  19.263   5.436  1.00 20.00     0.124 C 
HETATM   10  C1  UNL     1     -26.370  18.564   4.392  1.00 20.00     0.037 C 
ENDBRANCH   8   9
ENDBRANCH   7   8
ENDBRANCH   5   7
TORSDOF 3
ENDMDL
MODEL 9
REMARK VINA RESULT:      -3.8     10.961     11.908
REMARK  3 active torsions:
REMARK  status: ('A' for Active; 'I' for Inactive)
REMARK    1  A    between atoms: C2_2  and  O10_10 
REMARK    2  A    between atoms: C7_7  and  C8_8 
REMARK    3  A    between atoms: C8_8  and  O10_10 
ROOT
HETATM    1  C3  UNL     1     -35.550  15.206  -3.142  1.00 20.00     0.005 C 
HETATM    2  C4  UNL     1     -34.686  14.164  -3.842  1.00 20.00     0.026 C 
HETATM    3  C5  UNL     1     -34.687  16.137  -2.295  1.00 20.00     0.034 C 
HETATM    4  C6  UNL     1     -33.531  14.829  -4.580  1.00 20.00     0.168 C 
HETATM    5  C7  UNL     1     -33.532  16.704  -3.123  1.00 20.00     0.145 C 
HETATM    6  O9  UNL     1     -32.762  15.639  -3.692  1.00 20.00    -0.384 OA
ENDROOT
BRANCH   5   7
HETATM    7  C8  UNL     1     -32.599  17.542  -2.260  1.00 20.00     0.206 C 
BRANCH   7   8
HETATM    8  O10 UNL     1     -33.206  17.738  -0.994  1.00 20.00    -0.361 OA
BRANCH   8   9
HETATM    9  C2  UNL     1     -32.498  18.458  -0.132  1.00 20.00     0.124 C 
HETATM   10  C1  UNL     1     -31.166  18.454  -0.043  1.00 20.00     0.037 C 
ENDBRANCH   8   9
ENDBRANCH   7   8
ENDBRANCH   5   7
TORSDOF 3
ENDMDL
