MODEL 1
REMARK VINA RESULT:      -4.2      0.000      0.000
REMARK  1 active torsions:
REMARK  status: ('A' for Active; 'I' for Inactive)
REMARK    1  A    between atoms: C6_6  and  O10_10 
ROOT
HETATM    1  C1  UNL     1     -22.960  16.770  12.085  1.00 20.00     0.001 C 
HETATM    2  C2  UNL     1     -24.316  16.177  11.743  1.00 20.00     0.001 C 
HETATM    3  C3  UNL     1     -23.001  18.161  11.459  1.00 20.00     0.013 C 
HETATM    4  C4  UNL     1     -24.499  16.592  10.289  1.00 20.00     0.013 C 
HETATM    5  C5  UNL     1     -24.810  19.120   8.609  1.00 20.00     0.053 C 
HETATM    6  C6  UNL     1     -23.397  18.551   8.875  1.00 20.00     0.132 C 
HETATM    7  C7  UNL     1     -24.989  19.201  10.140  1.00 20.00     0.095 C 
HETATM    8  C8  UNL     1     -23.946  18.025  10.252  1.00 20.00     0.003 C 
HETATM    9 CL11 UNL     1     -26.639  19.051  10.821  1.00 20.00    -0.124 Cl
ENDROOT
BRANCH   6  10
HETATM   10  O10 UNL     1     -22.900  17.582   7.936  1.00 20.00    -0.390 OA
HETATM   11  C9  UNL     1     -21.521  17.338   8.144  1.00 20.00     0.202 C 
ENDBRANCH   6  10
TORSDOF 1
ENDMDL
MODEL 2
REMARK VINA RESULT:      -3.9     16.366     17.853
REMARK  1 active torsions:
REMARK  status: ('A' for Active; 'I' for Inactive)
REMARK    1  A    between atoms: C6_6  and  O10_10 
ROOT
HETATM    1  C1  UNL     1     -34.216  17.047  -1.541  1.00 20.00     0.001 C 
HETATM    2  C2  UNL     1     -32.918  17.287  -2.293  1.00 20.00     0.001 C 
HETATM    3  C3  UNL     1     -34.865  15.888  -2.293  1.00 20.00     0.013 C 
HETATM    4  C4  UNL     1     -33.357  17.186  -3.748  1.00 20.00     0.013 C 
HETATM    5  C5  UNL     1     -34.497  15.138  -5.701  1.00 20.00     0.053 C 
HETATM    6  C6  UNL     1     -35.461  16.012  -4.865  1.00 20.00     0.132 C 
HETATM    7  C7  UNL     1     -33.889  14.655  -4.367  1.00 20.00     0.095 C 
HETATM    8  C8  UNL     1     -34.361  16.022  -3.741  1.00 20.00     0.003 C 
HETATM    9 CL11 UNL     1     -32.167  14.161  -4.336  1.00 20.00    -0.124 Cl
ENDROOT
BRANCH   6  10
HETATM   10  O10 UNL     1     -35.852  17.274  -5.434  1.00 20.00    -0.390 OA
HETATM   11  C9  UNL     1     -36.983  17.800  -4.766  1.00 20.00     0.202 C 
ENDBRANCH   6  10
TORSDOF 1
ENDMDL
MODEL 3
REMARK VINA RESULT:      -3.9     17.504     18.946
REMARK  1 active torsions:
REMARK  status: ('A' for Active; 'I' for Inactive)
REMARK    1  A    between atoms: C6_6  and  O10_10 
ROOT
HETATM    1  C1  UNL     1     -33.202  16.382  -2.976  1.00 20.00     0.001 C 
HETATM    2  C2  UNL     1     -33.910  17.479  -3.755  1.00 20.00     0.001 C 
HETATM    3  C3  UNL     1     -33.334  15.154  -3.872  1.00 20.00     0.013 C 
HETATM    4  C4  UNL     1     -35.156  16.767  -4.265  1.00 20.00     0.013 C 
HETATM    5  C5  UNL     1     -35.935  14.481  -6.130  1.00 20.00     0.053 C 
HETATM    6  C6  UNL     1     -35.674  14.189  -4.634  1.00 20.00     0.132 C 
HETATM    7  C7  UNL     1     -34.504  15.057  -6.195  1.00 20.00     0.095 C 
HETATM    8  C8  UNL     1     -34.639  15.374  -4.657  1.00 20.00     0.003 C 
HETATM    9 CL11 UNL     1     -34.151  16.350  -7.384  1.00 20.00    -0.124 Cl
ENDROOT
BRANCH   6  10
HETATM   10  O10 UNL     1     -36.800  14.297  -3.746  1.00 20.00    -0.390 OA
HETATM   11  C9  UNL     1     -37.985  14.579  -4.465  1.00 20.00     0.202 C 
ENDBRANCH   6  10
TORSDOF 1
ENDMDL
MODEL 4
REMARK VINA RESULT:      -3.9     14.730     16.249
REMARK  1 active torsions:
REMARK  status: ('A' for Active; 'I' for Inactive)
REMARK    1  A    between atoms: C6_6  and  O10_10 
ROOT
HETATM    1  C1  UNL     1     -35.059  16.191  -1.737  1.00 20.00     0.001 C 
HETATM    2  C2  UNL     1     -34.341  15.505  -2.887  1.00 20.00     0.001 C 
HETATM    3  C3  UNL     1     -34.989  17.674  -2.096  1.00 20.00     0.013 C 
HETATM    4  C4  UNL     1     -33.132  16.404  -3.104  1.00 20.00     0.013 C 
HETATM    5  C5  UNL     1     -32.474  19.258  -3.961  1.00 20.00     0.053 C 
HETATM    6  C6  UNL     1     -32.701  18.946  -2.464  1.00 20.00     0.132 C 
HETATM    7  C7  UNL     1     -33.889  18.696  -4.221  1.00 20.00     0.095 C 
HETATM    8  C8  UNL     1     -33.700  17.821  -2.924  1.00 20.00     0.003 C 
HETATM    9 CL11 UNL     1     -34.236  17.944  -5.809  1.00 20.00    -0.124 Cl
ENDROOT
BRANCH   6  10
HETATM   10  O10 UNL     1     -31.548  18.549  -1.701  1.00 20.00    -0.390 OA
HETATM   11  C9  UNL     1     -31.827  18.574  -0.314  1.00 20.00     0.202 C 
ENDBRANCH   6  10
TORSDOF 1
ENDMDL
MODEL 5
REMARK VINA RESULT:      -3.8     16.943     18.504
REMARK  1 active torsions:
REMARK  status: ('A' for Active; 'I' for Inactive)
REMARK    1  A    between atoms: C6_6  and  O10_10 
ROOT
HETATM    1  C1  UNL     1     -34.122  15.658  -7.298  1.00 20.00     0.001 C 
HETATM    2  C2  UNL     1     -35.423  16.355  -6.938  1.00 20.00     0.001 C 
HETATM    3  C3  UNL     1     -33.812  14.807  -6.070  1.00 20.00     0.013 C 
HETATM    4  C4  UNL     1     -35.184  16.772  -5.493  1.00 20.00     0.013 C 
HETATM    5  C5  UNL     1     -34.713  15.514  -2.753  1.00 20.00     0.053 C 
HETATM    6  C6  UNL     1     -33.503  15.843  -3.658  1.00 20.00     0.132 C 
HETATM    7  C7  UNL     1     -35.248  14.638  -3.906  1.00 20.00     0.095 C 
HETATM    8  C8  UNL     1     -34.441  15.568  -4.890  1.00 20.00     0.003 C 
HETATM    9 CL11 UNL     1     -37.019  14.422  -4.071  1.00 20.00    -0.124 Cl
ENDROOT
BRANCH   6  10
HETATM   10  O10 UNL     1     -32.934  17.158  -3.527  1.00 20.00    -0.390 OA
HETATM   11  C9  UNL     1     -32.869  17.547  -2.168  1.00 20.00     0.202 C 
ENDBRANCH   6  10
TORSDOF 1
ENDMDL
MODEL 6
REMARK VINA RESULT:      -3.8     17.814     19.231
REMARK  1 active torsions:
REMARK  status: ('A' for Active; 'I' for Inactive)
REMARK    1  A    between atoms: C6_6  and  O10_10 
ROOT
HETATM    1  C1  UNL     1     -33.260  14.716  -4.203  1.00 20.00     0.001 C 
HETATM    2  C2  UNL     1     -33.736  15.714  -3.162  1.00 20.00     0.001 C 
HETATM    3  C3  UNL     1     -34.073  15.070  -5.446  1.00 20.00     0.013 C 
HETATM    4  C4  UNL     1     -35.244  15.719  -3.377  1.00 20.00     0.013 C 
HETATM    5  C5  UNL     1     -37.290  16.470  -5.513  1.00 20.00     0.053 C 
HETATM    6  C6  UNL     1     -36.715  15.034  -5.479  1.00 20.00     0.132 C 
HETATM    7  C7  UNL     1     -35.836  16.973  -5.647  1.00 20.00     0.095 C 
HETATM    8  C8  UNL     1     -35.389  15.656  -4.906  1.00 20.00     0.003 C 
HETATM    9 CL11 UNL     1     -35.424  18.591  -4.999  1.00 20.00    -0.124 Cl
ENDROOT
BRANCH   6  10
HETATM   10  O10 UNL     1     -37.414  14.075  -4.666  1.00 20.00    -0.390 OA
HETATM   11  C9  UNL     1     -38.663  14.587  -4.243  1.00 20.00     0.202 C 
ENDBRANCH   6  10
TORSDOF 1
ENDMDL
MODEL 7
REMARK VINA RESULT:      -3.8     17.220     18.672
REMARK  1 active torsions:
REMARK  status: ('A' for Active; 'I' for Inactive)
REMARK    1  A    between atoms: C6_6  and  O10_10 
ROOT
HETATM    1  C1  UNL     1     -37.880  15.018  -4.540  1.00 20.00     0.001 C 
HETATM    2  C2  UNL     1     -37.807  16.426  -3.973  1.00 20.00     0.001 C 
HETATM    3  C3  UNL     1     -36.565  14.379  -4.100  1.00 20.00     0.013 C 
HETATM    4  C4  UNL     1     -36.371  16.829  -4.279  1.00 20.00     0.013 C 
HETATM    5  C5  UNL     1     -33.519  16.030  -3.544  1.00 20.00     0.053 C 
HETATM    6  C6  UNL     1     -34.206  15.369  -4.762  1.00 20.00     0.132 C 
HETATM    7  C7  UNL     1     -34.695  15.512  -2.689  1.00 20.00     0.095 C 
HETATM    8  C8  UNL     1     -35.570  15.548  -3.999  1.00 20.00     0.003 C 
HETATM    9 CL11 UNL     1     -35.168  16.436  -1.228  1.00 20.00    -0.124 Cl
ENDROOT
BRANCH   6  10
HETATM   10  O10 UNL     1     -34.054  16.030  -6.030  1.00 20.00    -0.390 OA
HETATM   11  C9  UNL     1     -34.311  15.138  -7.098  1.00 20.00     0.202 C 
ENDBRANCH   6  10
TORSDOF 1
ENDMDL
MODEL 8
REMARK VINA RESULT:      -3.7     17.037     18.488
REMARK  1 active torsions:
REMARK  status: ('A' for Active; 'I' for Inactive)
REMARK    1  A    between atoms: C6_6  and  O10_10 
ROOT
HETATM    1  C1  UNL     1     -33.670  16.470  -2.299  1.00 20.00     0.001 C 
HETATM    2  C2  UNL     1     -33.269  15.808  -3.607  1.00 20.00     0.001 C 
HETATM    3  C3  UNL     1     -35.164  16.178  -2.186  1.00 20.00     0.013 C 
HETATM    4  C4  UNL     1     -34.415  16.192  -4.534  1.00 20.00     0.013 C 
HETATM    5  C5  UNL     1     -37.417  15.736  -4.839  1.00 20.00     0.053 C 
HETATM    6  C6  UNL     1     -36.909  16.943  -4.017  1.00 20.00     0.132 C 
HETATM    7  C7  UNL     1     -36.607  14.834  -3.883  1.00 20.00     0.095 C 
HETATM    8  C8  UNL     1     -35.658  16.068  -3.638  1.00 20.00     0.003 C 
HETATM    9 CL11 UNL     1     -35.971  13.278  -4.502  1.00 20.00    -0.124 Cl
ENDROOT
BRANCH   6  10
HETATM   10  O10 UNL     1     -36.680  18.168  -4.736  1.00 20.00    -0.390 OA
HETATM   11  C9  UNL     1     -36.526  19.255  -3.844  1.00 20.00     0.202 C 
ENDBRANCH   6  10
TORSDOF 1
ENDMDL
MODEL 9
REMARK VINA RESULT:      -3.7     15.854     17.378
REMARK  1 active torsions:
REMARK  status: ('A' for Active; 'I' for Inactive)
REMARK    1  A    between atoms: C6_6  and  O10_10 
ROOT
HETATM    1  C1  UNL     1     -34.733  14.080  -3.891  1.00 20.00     0.001 C 
HETATM    2  C2  UNL     1     -33.446  14.863  -4.085  1.00 20.00     0.001 C 
HETATM    3  C3  UNL     1     -35.802  15.161  -3.755  1.00 20.00     0.013 C 
HETATM    4  C4  UNL     1     -33.584  15.981  -3.060  1.00 20.00     0.013 C 
HETATM    5  C5  UNL     1     -35.354  18.395  -2.468  1.00 20.00     0.053 C 
HETATM    6  C6  UNL     1     -35.723  17.016  -1.874  1.00 20.00     0.132 C 
HETATM    7  C7  UNL     1     -35.417  17.733  -3.862  1.00 20.00     0.095 C 
HETATM    8  C8  UNL     1     -35.068  16.371  -3.150  1.00 20.00     0.003 C 
HETATM    9 CL11 UNL     1     -34.388  18.389  -5.172  1.00 20.00    -0.124 Cl
ENDROOT
BRANCH   6  10
HETATM   10  O10 UNL     1     -35.159  16.690  -0.591  1.00 20.00    -0.390 OA
HETATM   11  C9  UNL     1     -35.776  17.440   0.437  1.00 20.00     0.202 C 
ENDBRANCH   6  10
TORSDOF 1
ENDMDL
