MODEL 1
REMARK VINA RESULT:      -5.3      0.000      0.000
REMARK  3 active torsions:
REMARK  status: ('A' for Active; 'I' for Inactive)
REMARK    1  A    between atoms: C2_2  and  O6_6 
REMARK    2  A    between atoms: C4_4  and  C5_5 
REMARK    3  A    between atoms: C4_4  and  O6_6 
ROOT
HETATM    1  C3  UNL     1     -33.478   6.942   5.570  1.00 20.00     0.049 C 
HETATM    2  C4  UNL     1     -34.166   6.442   4.337  1.00 20.00     0.231 C 
ENDROOT
BRANCH   2   3
HETATM    3  C5  UNL     1     -35.018   5.222   4.613  1.00 20.00     0.413 C 
HETATM    4  F7  UNL     1     -36.237   5.347   4.040  1.00 20.00    -0.168 F 
HETATM    5  F8  UNL     1     -34.449   4.105   4.110  1.00 20.00    -0.168 F 
HETATM    6  F9  UNL     1     -35.206   5.031   5.937  1.00 20.00    -0.168 F 
ENDBRANCH   2   3
BRANCH   2   7
HETATM    7  O6  UNL     1     -33.191   6.088   3.358  1.00 20.00    -0.350 OA
BRANCH   7   8
HETATM    8  C2  UNL     1     -32.433   7.090   2.938  1.00 20.00     0.125 C 
HETATM    9  C1  UNL     1     -32.473   7.620   1.713  1.00 20.00     0.037 C 
ENDBRANCH   7   8
ENDBRANCH   2   7
TORSDOF 3
ENDMDL
MODEL 2
REMARK VINA RESULT:      -4.6      1.208      1.964
REMARK  3 active torsions:
REMARK  status: ('A' for Active; 'I' for Inactive)
REMARK    1  A    between atoms: C2_2  and  O6_6 
REMARK    2  A    between atoms: C4_4  and  C5_5 
REMARK    3  A    between atoms: C4_4  and  O6_6 
ROOT
HETATM    1  C3  UNL     1     -33.687   4.703   2.604  1.00 20.00     0.049 C 
HETATM    2  C4  UNL     1     -33.510   5.635   3.764  1.00 20.00     0.231 C 
ENDROOT
BRANCH   2   3
HETATM    3  C5  UNL     1     -34.644   5.527   4.762  1.00 20.00     0.413 C 
HETATM    4  F7  UNL     1     -34.593   4.346   5.420  1.00 20.00    -0.168 F 
HETATM    5  F8  UNL     1     -34.573   6.508   5.688  1.00 20.00    -0.168 F 
HETATM    6  F9  UNL     1     -35.850   5.610   4.161  1.00 20.00    -0.168 F 
ENDBRANCH   2   3
BRANCH   2   7
HETATM    7  O6  UNL     1     -33.463   6.979   3.292  1.00 20.00    -0.350 OA
BRANCH   7   8
HETATM    8  C2  UNL     1     -32.470   7.243   2.455  1.00 20.00     0.125 C 
HETATM    9  C1  UNL     1     -32.571   8.002   1.362  1.00 20.00     0.037 C 
ENDBRANCH   7   8
ENDBRANCH   2   7
TORSDOF 3
ENDMDL
MODEL 3
REMARK VINA RESULT:      -4.5      1.755      3.041
REMARK  3 active torsions:
REMARK  status: ('A' for Active; 'I' for Inactive)
REMARK    1  A    between atoms: C2_2  and  O6_6 
REMARK    2  A    between atoms: C4_4  and  C5_5 
REMARK    3  A    between atoms: C4_4  and  O6_6 
ROOT
HETATM    1  C3  UNL     1     -32.502   7.270   2.329  1.00 20.00     0.049 C 
HETATM    2  C4  UNL     1     -32.982   6.257   3.323  1.00 20.00     0.231 C 
ENDROOT
BRANCH   2   3
HETATM    3  C5  UNL     1     -33.470   4.989   2.654  1.00 20.00     0.413 C 
HETATM    4  F7  UNL     1     -34.224   5.277   1.569  1.00 20.00    -0.168 F 
HETATM    5  F8  UNL     1     -32.435   4.229   2.236  1.00 20.00    -0.168 F 
HETATM    6  F9  UNL     1     -34.224   4.241   3.489  1.00 20.00    -0.168 F 
ENDBRANCH   2   3
BRANCH   2   7
HETATM    7  O6  UNL     1     -34.061   6.803   4.077  1.00 20.00    -0.350 OA
BRANCH   7   8
HETATM    8  C2  UNL     1     -33.926   6.714   5.392  1.00 20.00     0.125 C 
HETATM    9  C1  UNL     1     -34.565   5.838   6.169  1.00 20.00     0.037 C 
ENDBRANCH   7   8
ENDBRANCH   2   7
TORSDOF 3
ENDMDL
MODEL 4
REMARK VINA RESULT:      -4.4      2.939      4.123
REMARK  3 active torsions:
REMARK  status: ('A' for Active; 'I' for Inactive)
REMARK    1  A    between atoms: C2_2  and  O6_6 
REMARK    2  A    between atoms: C4_4  and  C5_5 
REMARK    3  A    between atoms: C4_4  and  O6_6 
ROOT
HETATM    1  C3  UNL     1     -33.115   4.879   2.524  1.00 20.00     0.049 C 
HETATM    2  C4  UNL     1     -33.569   6.287   2.762  1.00 20.00     0.231 C 
ENDROOT
BRANCH   2   3
HETATM    3  C5  UNL     1     -32.521   7.302   2.355  1.00 20.00     0.413 C 
HETATM    4  F7  UNL     1     -31.792   6.847   1.311  1.00 20.00    -0.168 F 
HETATM    5  F8  UNL     1     -33.091   8.465   1.973  1.00 20.00    -0.168 F 
HETATM    6  F9  UNL     1     -31.666   7.572   3.365  1.00 20.00    -0.168 F 
ENDBRANCH   2   3
BRANCH   2   7
HETATM    7  O6  UNL     1     -33.846   6.470   4.149  1.00 20.00    -0.350 OA
BRANCH   7   8
HETATM    8  C2  UNL     1     -34.743   5.635   4.654  1.00 20.00     0.125 C 
HETATM    9  C1  UNL     1     -34.779   5.228   5.924  1.00 20.00     0.037 C 
ENDBRANCH   7   8
ENDBRANCH   2   7
TORSDOF 3
ENDMDL
MODEL 5
REMARK VINA RESULT:      -4.3      1.555      2.360
REMARK  3 active torsions:
REMARK  status: ('A' for Active; 'I' for Inactive)
REMARK    1  A    between atoms: C2_2  and  O6_6 
REMARK    2  A    between atoms: C4_4  and  C5_5 
REMARK    3  A    between atoms: C4_4  and  O6_6 
ROOT
HETATM    1  C3  UNL     1     -35.135   5.043   4.121  1.00 20.00     0.049 C 
HETATM    2  C4  UNL     1     -33.936   5.834   4.548  1.00 20.00     0.231 C 
ENDROOT
BRANCH   2   3
HETATM    3  C5  UNL     1     -34.105   6.424   5.932  1.00 20.00     0.413 C 
HETATM    4  F7  UNL     1     -32.992   6.231   6.676  1.00 20.00    -0.168 F 
HETATM    5  F8  UNL     1     -34.322   7.756   5.871  1.00 20.00    -0.168 F 
HETATM    6  F9  UNL     1     -35.141   5.865   6.592  1.00 20.00    -0.168 F 
ENDBRANCH   2   3
BRANCH   2   7
HETATM    7  O6  UNL     1     -33.721   6.906   3.633  1.00 20.00    -0.350 OA
BRANCH   7   8
HETATM    8  C2  UNL     1     -32.774   6.690   2.732  1.00 20.00     0.125 C 
HETATM    9  C1  UNL     1     -32.404   7.558   1.788  1.00 20.00     0.037 C 
ENDBRANCH   7   8
ENDBRANCH   2   7
TORSDOF 3
ENDMDL
MODEL 6
REMARK VINA RESULT:      -4.3      1.553      2.210
REMARK  3 active torsions:
REMARK  status: ('A' for Active; 'I' for Inactive)
REMARK    1  A    between atoms: C2_2  and  O6_6 
REMARK    2  A    between atoms: C4_4  and  C5_5 
REMARK    3  A    between atoms: C4_4  and  O6_6 
ROOT
HETATM    1  C3  UNL     1     -35.124   5.044   4.143  1.00 20.00     0.049 C 
HETATM    2  C4  UNL     1     -33.923   5.842   4.552  1.00 20.00     0.231 C 
ENDROOT
BRANCH   2   3
HETATM    3  C5  UNL     1     -34.080   6.442   5.933  1.00 20.00     0.413 C 
HETATM    4  F7  UNL     1     -35.124   5.881   6.585  1.00 20.00    -0.168 F 
HETATM    5  F8  UNL     1     -32.976   6.232   6.683  1.00 20.00    -0.168 F 
HETATM    6  F9  UNL     1     -34.298   7.773   5.879  1.00 20.00    -0.168 F 
ENDBRANCH   2   3
BRANCH   2   7
HETATM    7  O6  UNL     1     -33.722   6.907   3.626  1.00 20.00    -0.350 OA
BRANCH   7   8
HETATM    8  C2  UNL     1     -32.770   6.695   2.729  1.00 20.00     0.125 C 
HETATM    9  C1  UNL     1     -32.403   7.563   1.784  1.00 20.00     0.037 C 
ENDBRANCH   7   8
ENDBRANCH   2   7
TORSDOF 3
ENDMDL
MODEL 7
REMARK VINA RESULT:      -3.9      1.526      2.095
REMARK  3 active torsions:
REMARK  status: ('A' for Active; 'I' for Inactive)
REMARK    1  A    between atoms: C2_2  and  O6_6 
REMARK    2  A    between atoms: C4_4  and  C5_5 
REMARK    3  A    between atoms: C4_4  and  O6_6 
ROOT
HETATM    1  C3  UNL     1     -33.874   6.587   4.922  1.00 20.00     0.049 C 
HETATM    2  C4  UNL     1     -33.649   6.496   3.444  1.00 20.00     0.231 C 
ENDROOT
BRANCH   2   3
HETATM    3  C5  UNL     1     -33.654   5.063   2.953  1.00 20.00     0.413 C 
HETATM    4  F7  UNL     1     -34.320   4.262   3.815  1.00 20.00    -0.168 F 
HETATM    5  F8  UNL     1     -34.265   4.961   1.753  1.00 20.00    -0.168 F 
HETATM    6  F9  UNL     1     -32.402   4.575   2.823  1.00 20.00    -0.168 F 
ENDBRANCH   2   3
BRANCH   2   7
HETATM    7  O6  UNL     1     -32.386   7.071   3.117  1.00 20.00    -0.350 OA
BRANCH   7   8
HETATM    8  C2  UNL     1     -32.251   7.440   1.852  1.00 20.00     0.125 C 
HETATM    9  C1  UNL     1     -32.905   8.450   1.275  1.00 20.00     0.037 C 
ENDBRANCH   7   8
ENDBRANCH   2   7
TORSDOF 3
ENDMDL
MODEL 8
REMARK VINA RESULT:      -3.8      8.724      9.663
REMARK  3 active torsions:
REMARK  status: ('A' for Active; 'I' for Inactive)
REMARK    1  A    between atoms: C2_2  and  O6_6 
REMARK    2  A    between atoms: C4_4  and  C5_5 
REMARK    3  A    between atoms: C4_4  and  O6_6 
ROOT
HETATM    1  C3  UNL     1     -41.115   5.680  -0.873  1.00 20.00     0.049 C 
HETATM    2  C4  UNL     1     -42.059   6.842  -0.804  1.00 20.00     0.231 C 
ENDROOT
BRANCH   2   3
HETATM    3  C5  UNL     1     -41.547   7.941   0.103  1.00 20.00     0.413 C 
HETATM    4  F7  UNL     1     -40.769   7.430   1.084  1.00 20.00    -0.168 F 
HETATM    5  F8  UNL     1     -40.797   8.830  -0.584  1.00 20.00    -0.168 F 
HETATM    6  F9  UNL     1     -42.557   8.616   0.691  1.00 20.00    -0.168 F 
ENDBRANCH   2   3
BRANCH   2   7
HETATM    7  O6  UNL     1     -43.318   6.403  -0.301  1.00 20.00    -0.350 OA
BRANCH   7   8
HETATM    8  C2  UNL     1     -43.262   5.354   0.507  1.00 20.00     0.125 C 
HETATM    9  C1  UNL     1     -43.417   5.400   1.832  1.00 20.00     0.037 C 
ENDBRANCH   7   8
ENDBRANCH   2   7
TORSDOF 3
ENDMDL
MODEL 9
REMARK VINA RESULT:      -3.8     16.455     17.237
REMARK  3 active torsions:
REMARK  status: ('A' for Active; 'I' for Inactive)
REMARK    1  A    between atoms: C2_2  and  O6_6 
REMARK    2  A    between atoms: C4_4  and  C5_5 
REMARK    3  A    between atoms: C4_4  and  O6_6 
ROOT
HETATM    1  C3  UNL     1     -24.635  15.881  11.586  1.00 20.00     0.049 C 
HETATM    2  C4  UNL     1     -24.538  17.296  11.102  1.00 20.00     0.231 C 
ENDROOT
BRANCH   2   3
HETATM    3  C5  UNL     1     -23.180  17.602  10.505  1.00 20.00     0.413 C 
HETATM    4  F7  UNL     1     -23.207  18.772   9.826  1.00 20.00    -0.168 F 
HETATM    5  F8  UNL     1     -22.240  17.716  11.468  1.00 20.00    -0.168 F 
HETATM    6  F9  UNL     1     -22.781  16.639   9.647  1.00 20.00    -0.168 F 
ENDBRANCH   2   3
BRANCH   2   7
HETATM    7  O6  UNL     1     -24.754  18.189  12.192  1.00 20.00    -0.350 OA
BRANCH   7   8
HETATM    8  C2  UNL     1     -25.845  18.934  12.095  1.00 20.00     0.125 C 
HETATM    9  C1  UNL     1     -26.448  19.263  10.950  1.00 20.00     0.037 C 
ENDBRANCH   7   8
ENDBRANCH   2   7
TORSDOF 3
ENDMDL
