MODEL 1
REMARK VINA RESULT:      -4.3      0.000      0.000
REMARK  2 active torsions:
REMARK  status: ('A' for Active; 'I' for Inactive)
REMARK    1  A    between atoms: C2_2  and  C3_3 
REMARK    2  A    between atoms: C2_2  and  N4_4 
ROOT
HETATM    1  C1  UNL     1     -33.758   4.575   3.199  1.00 20.00     0.332 C 
HETATM    2  N4  UNL     1     -34.497   4.274   4.059  1.00 20.00    -0.242 NA
HETATM    3  O5  UNL     1     -33.014   4.872   2.337  1.00 20.00    -0.260 OA
ENDROOT
BRANCH   2   4
HETATM    4  C2  UNL     1     -35.290   5.386   4.590  1.00 20.00     0.224 C 
BRANCH   4   5
HETATM    5  C3  UNL     1     -34.845   5.678   6.006  1.00 20.00     0.372 C 
HETATM    6  F6  UNL     1     -34.071   6.790   6.030  1.00 20.00    -0.213 F 
HETATM    7  F7  UNL     1     -34.091   4.656   6.477  1.00 20.00    -0.213 F 
ENDBRANCH   4   5
ENDBRANCH   2   4
TORSDOF 2
ENDMDL
MODEL 2
REMARK VINA RESULT:      -4.1      1.981      2.130
REMARK  2 active torsions:
REMARK  status: ('A' for Active; 'I' for Inactive)
REMARK    1  A    between atoms: C2_2  and  C3_3 
REMARK    2  A    between atoms: C2_2  and  N4_4 
ROOT
HETATM    1  C1  UNL     1     -32.806   6.702   2.488  1.00 20.00     0.332 C 
HETATM    2  N4  UNL     1     -33.283   5.836   3.120  1.00 20.00    -0.242 NA
HETATM    3  O5  UNL     1     -32.324   7.566   1.852  1.00 20.00    -0.260 OA
ENDROOT
BRANCH   2   4
HETATM    4  C2  UNL     1     -34.136   6.291   4.221  1.00 20.00     0.224 C 
BRANCH   4   5
HETATM    5  C3  UNL     1     -34.931   5.118   4.748  1.00 20.00     0.372 C 
HETATM    6  F6  UNL     1     -34.874   5.088   6.102  1.00 20.00    -0.213 F 
HETATM    7  F7  UNL     1     -34.398   3.956   4.300  1.00 20.00    -0.213 F 
ENDBRANCH   4   5
ENDBRANCH   2   4
TORSDOF 2
ENDMDL
MODEL 3
REMARK VINA RESULT:      -4.1      1.838      2.138
REMARK  2 active torsions:
REMARK  status: ('A' for Active; 'I' for Inactive)
REMARK    1  A    between atoms: C2_2  and  C3_3 
REMARK    2  A    between atoms: C2_2  and  N4_4 
ROOT
HETATM    1  C1  UNL     1     -32.974   6.045   2.818  1.00 20.00     0.332 C 
HETATM    2  N4  UNL     1     -33.583   5.062   2.620  1.00 20.00    -0.242 NA
HETATM    3  O5  UNL     1     -32.362   7.031   3.012  1.00 20.00    -0.260 OA
ENDROOT
BRANCH   2   4
HETATM    4  C2  UNL     1     -34.098   4.416   3.829  1.00 20.00     0.224 C 
BRANCH   4   5
HETATM    5  C3  UNL     1     -34.901   5.422   4.624  1.00 20.00     0.372 C 
HETATM    6  F6  UNL     1     -35.078   4.978   5.892  1.00 20.00    -0.213 F 
HETATM    7  F7  UNL     1     -36.132   5.571   4.077  1.00 20.00    -0.213 F 
ENDBRANCH   4   5
ENDBRANCH   2   4
TORSDOF 2
ENDMDL
MODEL 4
REMARK VINA RESULT:      -4.1      1.120      1.569
REMARK  2 active torsions:
REMARK  status: ('A' for Active; 'I' for Inactive)
REMARK    1  A    between atoms: C2_2  and  C3_3 
REMARK    2  A    between atoms: C2_2  and  N4_4 
ROOT
HETATM    1  C1  UNL     1     -33.328   5.856   2.964  1.00 20.00     0.332 C 
HETATM    2  N4  UNL     1     -34.040   5.005   3.345  1.00 20.00    -0.242 NA
HETATM    3  O5  UNL     1     -32.612   6.707   2.580  1.00 20.00    -0.260 OA
ENDROOT
BRANCH   2   4
HETATM    4  C2  UNL     1     -35.067   5.453   4.289  1.00 20.00     0.224 C 
BRANCH   4   5
HETATM    5  C3  UNL     1     -34.451   5.584   5.664  1.00 20.00     0.372 C 
HETATM    6  F6  UNL     1     -35.275   5.046   6.596  1.00 20.00    -0.213 F 
HETATM    7  F7  UNL     1     -34.290   6.892   5.980  1.00 20.00    -0.213 F 
ENDBRANCH   4   5
ENDBRANCH   2   4
TORSDOF 2
ENDMDL
MODEL 5
REMARK VINA RESULT:      -3.8      2.844      3.491
REMARK  2 active torsions:
REMARK  status: ('A' for Active; 'I' for Inactive)
REMARK    1  A    between atoms: C2_2  and  C3_3 
REMARK    2  A    between atoms: C2_2  and  N4_4 
ROOT
HETATM    1  C1  UNL     1     -34.788   5.645   5.423  1.00 20.00     0.332 C 
HETATM    2  N4  UNL     1     -35.164   4.934   4.569  1.00 20.00    -0.242 NA
HETATM    3  O5  UNL     1     -34.414   6.360   6.279  1.00 20.00    -0.260 OA
ENDROOT
BRANCH   2   4
HETATM    4  C2  UNL     1     -34.101   4.189   3.890  1.00 20.00     0.224 C 
BRANCH   4   5
HETATM    5  C3  UNL     1     -33.657   4.963   2.670  1.00 20.00     0.372 C 
HETATM    6  F6  UNL     1     -32.954   4.157   1.837  1.00 20.00    -0.213 F 
HETATM    7  F7  UNL     1     -32.832   5.975   3.035  1.00 20.00    -0.213 F 
ENDBRANCH   4   5
ENDBRANCH   2   4
TORSDOF 2
ENDMDL
MODEL 6
REMARK VINA RESULT:      -3.8      2.549      2.739
REMARK  2 active torsions:
REMARK  status: ('A' for Active; 'I' for Inactive)
REMARK    1  A    between atoms: C2_2  and  C3_3 
REMARK    2  A    between atoms: C2_2  and  N4_4 
ROOT
HETATM    1  C1  UNL     1     -32.717   7.015   2.389  1.00 20.00     0.332 C 
HETATM    2  N4  UNL     1     -32.844   6.196   3.219  1.00 20.00    -0.242 NA
HETATM    3  O5  UNL     1     -32.586   7.834   1.555  1.00 20.00    -0.260 OA
ENDROOT
BRANCH   2   4
HETATM    4  C2  UNL     1     -33.888   6.490   4.204  1.00 20.00     0.224 C 
BRANCH   4   5
HETATM    5  C3  UNL     1     -34.711   5.244   4.440  1.00 20.00     0.372 C 
HETATM    6  F6  UNL     1     -34.276   4.240   3.641  1.00 20.00    -0.213 F 
HETATM    7  F7  UNL     1     -36.007   5.476   4.120  1.00 20.00    -0.213 F 
ENDBRANCH   4   5
ENDBRANCH   2   4
TORSDOF 2
ENDMDL
MODEL 7
REMARK VINA RESULT:      -3.7      3.078      3.623
REMARK  2 active torsions:
REMARK  status: ('A' for Active; 'I' for Inactive)
REMARK    1  A    between atoms: C2_2  and  C3_3 
REMARK    2  A    between atoms: C2_2  and  N4_4 
ROOT
HETATM    1  C1  UNL     1     -34.802   5.289   5.241  1.00 20.00     0.332 C 
HETATM    2  N4  UNL     1     -34.565   5.526   4.117  1.00 20.00    -0.242 NA
HETATM    3  O5  UNL     1     -35.044   5.048   6.367  1.00 20.00    -0.260 OA
ENDROOT
BRANCH   2   4
HETATM    4  C2  UNL     1     -33.683   6.677   3.915  1.00 20.00     0.224 C 
BRANCH   4   5
HETATM    5  C3  UNL     1     -32.908   6.488   2.631  1.00 20.00     0.372 C 
HETATM    6  F6  UNL     1     -32.618   5.176   2.451  1.00 20.00    -0.213 F 
HETATM    7  F7  UNL     1     -31.728   7.152   2.697  1.00 20.00    -0.213 F 
ENDBRANCH   4   5
ENDBRANCH   2   4
TORSDOF 2
ENDMDL
MODEL 8
REMARK VINA RESULT:      -3.7      2.526      2.837
REMARK  2 active torsions:
REMARK  status: ('A' for Active; 'I' for Inactive)
REMARK    1  A    between atoms: C2_2  and  C3_3 
REMARK    2  A    between atoms: C2_2  and  N4_4 
ROOT
HETATM    1  C1  UNL     1     -33.490   6.991   5.480  1.00 20.00     0.332 C 
HETATM    2  N4  UNL     1     -34.286   6.544   6.218  1.00 20.00    -0.242 NA
HETATM    3  O5  UNL     1     -32.693   7.443   4.743  1.00 20.00    -0.260 OA
ENDROOT
BRANCH   2   4
HETATM    4  C2  UNL     1     -34.759   5.206   5.857  1.00 20.00     0.224 C 
BRANCH   4   5
HETATM    5  C3  UNL     1     -34.864   5.107   4.352  1.00 20.00     0.372 C 
HETATM    6  F6  UNL     1     -36.136   5.357   3.956  1.00 20.00    -0.213 F 
HETATM    7  F7  UNL     1     -34.559   3.851   3.946  1.00 20.00    -0.213 F 
ENDBRANCH   4   5
ENDBRANCH   2   4
TORSDOF 2
ENDMDL
MODEL 9
REMARK VINA RESULT:      -3.7     12.611     12.894
REMARK  2 active torsions:
REMARK  status: ('A' for Active; 'I' for Inactive)
REMARK    1  A    between atoms: C2_2  and  C3_3 
REMARK    2  A    between atoms: C2_2  and  N4_4 
ROOT
HETATM    1  C1  UNL     1     -36.478  13.867  -4.730  1.00 20.00     0.332 C 
HETATM    2  N4  UNL     1     -35.358  14.073  -5.014  1.00 20.00    -0.242 NA
HETATM    3  O5  UNL     1     -37.602  13.662  -4.449  1.00 20.00    -0.260 OA
ENDROOT
BRANCH   2   4
HETATM    4  C2  UNL     1     -34.434  14.061  -3.878  1.00 20.00     0.224 C 
BRANCH   4   5
HETATM    5  C3  UNL     1     -34.382  15.444  -3.269  1.00 20.00     0.372 C 
HETATM    6  F6  UNL     1     -33.099  15.781  -2.990  1.00 20.00    -0.213 F 
HETATM    7  F7  UNL     1     -35.062  15.462  -2.097  1.00 20.00    -0.213 F 
ENDBRANCH   4   5
ENDBRANCH   2   4
TORSDOF 2
ENDMDL
