MODEL 1
REMARK VINA RESULT:      -4.3      0.000      0.000
REMARK  1 active torsions:
REMARK  status: ('A' for Active; 'I' for Inactive)
REMARK    1  A    between atoms: C4_4  and  C9_9 
ROOT
HETATM    1  C1  UNL     1     -36.439  15.341  -3.699  1.00 20.00     0.032 C 
HETATM    2  C2  UNL     1     -34.436  16.338  -4.851  1.00 20.00     0.043 C 
HETATM    3  C3  UNL     1     -35.932  13.982  -4.156  1.00 20.00     0.169 C 
HETATM    4  C4  UNL     1     -35.309  16.367  -3.586  1.00 20.00     0.008 C 
HETATM    5  C5  UNL     1     -34.096  14.935  -5.399  1.00 20.00     0.054 C 
HETATM    6  C6  UNL     1     -32.929  14.264  -4.661  1.00 20.00     0.045 C 
HETATM    7  C7  UNL     1     -33.684  15.076  -6.876  1.00 20.00     0.045 C 
HETATM    8  O10 UNL     1     -35.250  14.085  -5.401  1.00 20.00    -0.381 OA
ENDROOT
BRANCH   4   9
HETATM    9  C9  UNL     1     -34.511  16.203  -2.293  1.00 20.00     0.082 C 
HETATM   10  C8  UNL     1     -35.273  16.747  -1.097  1.00 20.00     0.027 C 
HETATM   11 CL11 UNL     1     -32.948  17.051  -2.450  1.00 20.00    -0.125 Cl
ENDBRANCH   4   9
TORSDOF 1
ENDMDL
MODEL 2
REMARK VINA RESULT:      -4.1     17.596     18.380
REMARK  1 active torsions:
REMARK  status: ('A' for Active; 'I' for Inactive)
REMARK    1  A    between atoms: C4_4  and  C9_9 
ROOT
HETATM    1  C1  UNL     1     -23.651  17.085  12.049  1.00 20.00     0.032 C 
HETATM    2  C2  UNL     1     -24.059  17.134   9.566  1.00 20.00     0.043 C 
HETATM    3  C3  UNL     1     -22.359  17.838  11.777  1.00 20.00     0.169 C 
HETATM    4  C4  UNL     1     -24.694  17.319  10.953  1.00 20.00     0.008 C 
HETATM    5  C5  UNL     1     -22.656  17.754   9.383  1.00 20.00     0.054 C 
HETATM    6  C6  UNL     1     -22.694  19.261   9.091  1.00 20.00     0.045 C 
HETATM    7  C7  UNL     1     -21.974  17.071   8.184  1.00 20.00     0.045 C 
HETATM    8  O10 UNL     1     -21.816  17.479  10.511  1.00 20.00    -0.381 OA
ENDROOT
BRANCH   4   9
HETATM    9  C9  UNL     1     -25.412  18.657  11.120  1.00 20.00     0.082 C 
HETATM   10  C8  UNL     1     -26.569  18.549  12.098  1.00 20.00     0.027 C 
HETATM   11 CL11 UNL     1     -26.014  19.209   9.532  1.00 20.00    -0.125 Cl
ENDBRANCH   4   9
TORSDOF 1
ENDMDL
MODEL 3
REMARK VINA RESULT:      -4.0      1.680      3.018
REMARK  1 active torsions:
REMARK  status: ('A' for Active; 'I' for Inactive)
REMARK    1  A    between atoms: C4_4  and  C9_9 
ROOT
HETATM    1  C1  UNL     1     -33.349  16.073  -3.987  1.00 20.00     0.032 C 
HETATM    2  C2  UNL     1     -35.382  15.147  -2.828  1.00 20.00     0.043 C 
HETATM    3  C3  UNL     1     -34.290  16.590  -5.063  1.00 20.00     0.169 C 
HETATM    4  C4  UNL     1     -34.056  15.902  -2.641  1.00 20.00     0.008 C 
HETATM    5  C5  UNL     1     -36.229  15.572  -4.048  1.00 20.00     0.054 C 
HETATM    6  C6  UNL     1     -37.062  16.836  -3.795  1.00 20.00     0.045 C 
HETATM    7  C7  UNL     1     -37.210  14.434  -4.380  1.00 20.00     0.045 C 
HETATM    8  O10 UNL     1     -35.413  15.728  -5.216  1.00 20.00    -0.381 OA
ENDROOT
BRANCH   4   9
HETATM    9  C9  UNL     1     -34.212  17.229  -1.900  1.00 20.00     0.082 C 
HETATM   10  C8  UNL     1     -32.865  17.796  -1.486  1.00 20.00     0.027 C 
HETATM   11 CL11 UNL     1     -35.234  16.986  -0.457  1.00 20.00    -0.125 Cl
ENDBRANCH   4   9
TORSDOF 1
ENDMDL
MODEL 4
REMARK VINA RESULT:      -4.0      1.851      2.396
REMARK  1 active torsions:
REMARK  status: ('A' for Active; 'I' for Inactive)
REMARK    1  A    between atoms: C4_4  and  C9_9 
ROOT
HETATM    1  C1  UNL     1     -34.484  14.204  -3.795  1.00 20.00     0.032 C 
HETATM    2  C2  UNL     1     -36.240  15.153  -5.327  1.00 20.00     0.043 C 
HETATM    3  C3  UNL     1     -33.455  14.644  -4.824  1.00 20.00     0.169 C 
HETATM    4  C4  UNL     1     -35.764  15.040  -3.870  1.00 20.00     0.008 C 
HETATM    5  C5  UNL     1     -35.136  15.413  -6.375  1.00 20.00     0.054 C 
HETATM    6  C6  UNL     1     -34.725  16.890  -6.466  1.00 20.00     0.045 C 
HETATM    7  C7  UNL     1     -35.670  15.000  -7.758  1.00 20.00     0.045 C 
HETATM    8  O10 UNL     1     -33.993  14.582  -6.141  1.00 20.00    -0.381 OA
ENDROOT
BRANCH   4   9
HETATM    9  C9  UNL     1     -35.610  16.391  -3.174  1.00 20.00     0.082 C 
HETATM   10  C8  UNL     1     -35.035  16.234  -1.777  1.00 20.00     0.027 C 
HETATM   11 CL11 UNL     1     -37.201  17.196  -3.084  1.00 20.00    -0.125 Cl
ENDBRANCH   4   9
TORSDOF 1
ENDMDL
MODEL 5
REMARK VINA RESULT:      -3.9      1.298      1.476
REMARK  1 active torsions:
REMARK  status: ('A' for Active; 'I' for Inactive)
REMARK    1  A    between atoms: C4_4  and  C9_9 
ROOT
HETATM    1  C1  UNL     1     -36.634  14.718  -3.823  1.00 20.00     0.032 C 
HETATM    2  C2  UNL     1     -35.871  16.303  -5.622  1.00 20.00     0.043 C 
HETATM    3  C3  UNL     1     -36.002  13.603  -4.641  1.00 20.00     0.169 C 
HETATM    4  C4  UNL     1     -35.987  16.075  -4.107  1.00 20.00     0.008 C 
HETATM    5  C5  UNL     1     -35.405  15.086  -6.450  1.00 20.00     0.054 C 
HETATM    6  C6  UNL     1     -33.882  14.890  -6.431  1.00 20.00     0.045 C 
HETATM    7  C7  UNL     1     -35.821  15.304  -7.915  1.00 20.00     0.045 C 
HETATM    8  O10 UNL     1     -36.075  13.889  -6.034  1.00 20.00    -0.381 OA
ENDROOT
BRANCH   4   9
HETATM    9  C9  UNL     1     -34.663  16.247  -3.363  1.00 20.00     0.082 C 
HETATM   10  C8  UNL     1     -34.877  16.343  -1.862  1.00 20.00     0.027 C 
HETATM   11 CL11 UNL     1     -33.841  17.719  -3.950  1.00 20.00    -0.125 Cl
ENDBRANCH   4   9
TORSDOF 1
ENDMDL
MODEL 6
REMARK VINA RESULT:      -3.9      2.619      3.808
REMARK  1 active torsions:
REMARK  status: ('A' for Active; 'I' for Inactive)
REMARK    1  A    between atoms: C4_4  and  C9_9 
ROOT
HETATM    1  C1  UNL     1     -35.159  15.970  -2.051  1.00 20.00     0.032 C 
HETATM    2  C2  UNL     1     -33.099  16.628  -3.339  1.00 20.00     0.043 C 
HETATM    3  C3  UNL     1     -35.657  17.390  -2.268  1.00 20.00     0.169 C 
HETATM    4  C4  UNL     1     -34.164  15.540  -3.132  1.00 20.00     0.008 C 
HETATM    5  C5  UNL     1     -33.621  18.081  -3.365  1.00 20.00     0.054 C 
HETATM    6  C6  UNL     1     -34.205  18.489  -4.725  1.00 20.00     0.045 C 
HETATM    7  C7  UNL     1     -32.444  19.027  -3.069  1.00 20.00     0.045 C 
HETATM    8  O10 UNL     1     -34.571  18.309  -2.317  1.00 20.00    -0.381 OA
ENDROOT
BRANCH   4   9
HETATM    9  C9  UNL     1     -34.865  15.122  -4.424  1.00 20.00     0.082 C 
HETATM   10  C8  UNL     1     -35.715  13.880  -4.219  1.00 20.00     0.027 C 
HETATM   11 CL11 UNL     1     -33.642  14.813  -5.688  1.00 20.00    -0.125 Cl
ENDBRANCH   4   9
TORSDOF 1
ENDMDL
MODEL 7
REMARK VINA RESULT:      -3.9      1.611      3.125
REMARK  1 active torsions:
REMARK  status: ('A' for Active; 'I' for Inactive)
REMARK    1  A    between atoms: C4_4  and  C9_9 
ROOT
HETATM    1  C1  UNL     1     -35.394  13.746  -4.181  1.00 20.00     0.032 C 
HETATM    2  C2  UNL     1     -36.153  15.959  -3.254  1.00 20.00     0.043 C 
HETATM    3  C3  UNL     1     -36.114  14.122  -5.466  1.00 20.00     0.169 C 
HETATM    4  C4  UNL     1     -34.976  14.979  -3.376  1.00 20.00     0.008 C 
HETATM    5  C5  UNL     1     -36.983  16.174  -4.538  1.00 20.00     0.054 C 
HETATM    6  C6  UNL     1     -36.342  17.171  -5.513  1.00 20.00     0.045 C 
HETATM    7  C7  UNL     1     -38.358  16.740  -4.141  1.00 20.00     0.045 C 
HETATM    8  O10 UNL     1     -37.255  14.929  -5.194  1.00 20.00    -0.381 OA
ENDROOT
BRANCH   4   9
HETATM    9  C9  UNL     1     -33.704  15.622  -3.929  1.00 20.00     0.082 C 
HETATM   10  C8  UNL     1     -32.682  14.573  -4.332  1.00 20.00     0.027 C 
HETATM   11 CL11 UNL     1     -33.003  16.705  -2.695  1.00 20.00    -0.125 Cl
ENDBRANCH   4   9
TORSDOF 1
ENDMDL
MODEL 8
REMARK VINA RESULT:      -3.8      2.296      3.207
REMARK  1 active torsions:
REMARK  status: ('A' for Active; 'I' for Inactive)
REMARK    1  A    between atoms: C4_4  and  C9_9 
ROOT
HETATM    1  C1  UNL     1     -34.070  17.238  -1.358  1.00 20.00     0.032 C 
HETATM    2  C2  UNL     1     -34.887  15.406  -2.877  1.00 20.00     0.043 C 
HETATM    3  C3  UNL     1     -33.125  17.643  -2.478  1.00 20.00     0.169 C 
HETATM    4  C4  UNL     1     -35.304  16.504  -1.887  1.00 20.00     0.008 C 
HETATM    5  C5  UNL     1     -33.783  15.795  -3.884  1.00 20.00     0.054 C 
HETATM    6  C6  UNL     1     -34.315  16.585  -5.089  1.00 20.00     0.045 C 
HETATM    7  C7  UNL     1     -33.143  14.506  -4.429  1.00 20.00     0.045 C 
HETATM    8  O10 UNL     1     -32.722  16.510  -3.240  1.00 20.00    -0.381 OA
ENDROOT
BRANCH   4   9
HETATM    9  C9  UNL     1     -36.348  17.467  -2.451  1.00 20.00     0.082 C 
HETATM   10  C8  UNL     1     -37.120  18.162  -1.343  1.00 20.00     0.027 C 
HETATM   11 CL11 UNL     1     -37.478  16.568  -3.501  1.00 20.00    -0.125 Cl
ENDBRANCH   4   9
TORSDOF 1
ENDMDL
MODEL 9
REMARK VINA RESULT:      -3.8      2.000      3.683
REMARK  1 active torsions:
REMARK  status: ('A' for Active; 'I' for Inactive)
REMARK    1  A    between atoms: C4_4  and  C9_9 
ROOT
HETATM    1  C1  UNL     1     -35.519  14.665  -6.197  1.00 20.00     0.032 C 
HETATM    2  C2  UNL     1     -36.836  14.458  -4.063  1.00 20.00     0.043 C 
HETATM    3  C3  UNL     1     -36.449  15.807  -6.573  1.00 20.00     0.169 C 
HETATM    4  C4  UNL     1     -35.429  14.473  -4.682  1.00 20.00     0.008 C 
HETATM    5  C5  UNL     1     -37.819  15.517  -4.607  1.00 20.00     0.054 C 
HETATM    6  C6  UNL     1     -37.629  16.901  -3.973  1.00 20.00     0.045 C 
HETATM    7  C7  UNL     1     -39.254  15.059  -4.288  1.00 20.00     0.045 C 
HETATM    8  O10 UNL     1     -37.752  15.601  -6.036  1.00 20.00    -0.381 OA
ENDROOT
BRANCH   4   9
HETATM    9  C9  UNL     1     -34.489  15.486  -4.029  1.00 20.00     0.082 C 
HETATM   10  C8  UNL     1     -33.038  15.050  -4.142  1.00 20.00     0.027 C 
HETATM   11 CL11 UNL     1     -34.928  15.679  -2.309  1.00 20.00    -0.125 Cl
ENDBRANCH   4   9
TORSDOF 1
ENDMDL
