MODEL 1
REMARK VINA RESULT:      -4.4      0.000      0.000
REMARK  2 active torsions:
REMARK  status: ('A' for Active; 'I' for Inactive)
REMARK    1  A    between atoms: C5_5  and  S10_10 
REMARK    2  A    between atoms: C8_8  and  S10_10 
ROOT
HETATM    1  C1  UNL     1     -35.727  13.913  -4.316  1.00 20.00     0.080 C 
HETATM    2  C2  UNL     1     -33.533  15.723  -3.366  1.00 20.00     0.009 C 
HETATM    3  C3  UNL     1     -34.382  16.049  -4.612  1.00 20.00     0.037 C 
HETATM    4  C4  UNL     1     -34.854  15.555  -2.567  1.00 20.00     0.014 C 
HETATM    5  C5  UNL     1     -35.563  15.302  -3.941  1.00 20.00     0.100 C 
HETATM    6  C6  UNL     1     -35.186  16.761  -1.692  1.00 20.00     0.012 C 
HETATM    7  N9  UNL     1     -35.860  12.801  -4.617  1.00 20.00    -0.196 NA
ENDROOT
BRANCH   5   8
HETATM    8  S10 UNL     1     -37.146  16.186  -4.157  1.00 20.00    -0.144 SA
BRANCH   8   9
HETATM    9  C8  UNL     1     -38.227  14.741  -4.187  1.00 20.00     0.071 C 
HETATM   10  C7  UNL     1     -39.671  15.159  -4.393  1.00 20.00     0.016 C 
ENDBRANCH   8   9
ENDBRANCH   5   8
TORSDOF 2
ENDMDL
MODEL 2
REMARK VINA RESULT:      -4.4      1.619      2.009
REMARK  2 active torsions:
REMARK  status: ('A' for Active; 'I' for Inactive)
REMARK    1  A    between atoms: C5_5  and  S10_10 
REMARK    2  A    between atoms: C8_8  and  S10_10 
ROOT
HETATM    1  C1  UNL     1     -36.521  14.496  -4.448  1.00 20.00     0.080 C 
HETATM    2  C2  UNL     1     -33.530  14.408  -4.249  1.00 20.00     0.009 C 
HETATM    3  C3  UNL     1     -34.255  15.122  -5.410  1.00 20.00     0.037 C 
HETATM    4  C4  UNL     1     -34.389  15.245  -3.262  1.00 20.00     0.014 C 
HETATM    5  C5  UNL     1     -35.416  15.429  -4.431  1.00 20.00     0.100 C 
HETATM    6  C6  UNL     1     -33.630  16.422  -2.653  1.00 20.00     0.012 C 
HETATM    7  N9  UNL     1     -37.408  13.748  -4.462  1.00 20.00    -0.196 NA
ENDROOT
BRANCH   5   8
HETATM    8  S10 UNL     1     -36.048  17.131  -4.628  1.00 20.00    -0.144 SA
BRANCH   8   9
HETATM    9  C8  UNL     1     -37.400  17.026  -3.438  1.00 20.00     0.071 C 
HETATM   10  C7  UNL     1     -37.090  17.852  -2.204  1.00 20.00     0.016 C 
ENDBRANCH   8   9
ENDBRANCH   5   8
TORSDOF 2
ENDMDL
MODEL 3
REMARK VINA RESULT:      -4.3      1.822      2.672
REMARK  2 active torsions:
REMARK  status: ('A' for Active; 'I' for Inactive)
REMARK    1  A    between atoms: C5_5  and  S10_10 
REMARK    2  A    between atoms: C8_8  and  S10_10 
ROOT
HETATM    1  C1  UNL     1     -35.639  13.952  -4.406  1.00 20.00     0.080 C 
HETATM    2  C2  UNL     1     -34.400  15.838  -2.431  1.00 20.00     0.009 C 
HETATM    3  C3  UNL     1     -33.903  15.734  -3.889  1.00 20.00     0.037 C 
HETATM    4  C4  UNL     1     -35.833  16.064  -2.985  1.00 20.00     0.014 C 
HETATM    5  C5  UNL     1     -35.351  15.367  -4.303  1.00 20.00     0.100 C 
HETATM    6  C6  UNL     1     -36.267  17.528  -2.953  1.00 20.00     0.012 C 
HETATM    7  N9  UNL     1     -35.871  12.819  -4.490  1.00 20.00    -0.196 NA
ENDROOT
BRANCH   5   8
HETATM    8  S10 UNL     1     -35.859  16.209  -5.842  1.00 20.00    -0.144 SA
BRANCH   8   9
HETATM    9  C8  UNL     1     -35.304  14.945  -7.004  1.00 20.00     0.071 C 
HETATM   10  C7  UNL     1     -33.957  15.316  -7.593  1.00 20.00     0.016 C 
ENDBRANCH   8   9
ENDBRANCH   5   8
TORSDOF 2
ENDMDL
MODEL 4
REMARK VINA RESULT:      -4.2      1.215      1.251
REMARK  2 active torsions:
REMARK  status: ('A' for Active; 'I' for Inactive)
REMARK    1  A    between atoms: C5_5  and  S10_10 
REMARK    2  A    between atoms: C8_8  and  S10_10 
ROOT
HETATM    1  C1  UNL     1     -35.837  14.028  -4.223  1.00 20.00     0.080 C 
HETATM    2  C2  UNL     1     -33.354  15.607  -3.643  1.00 20.00     0.009 C 
HETATM    3  C3  UNL     1     -34.354  16.025  -4.742  1.00 20.00     0.037 C 
HETATM    4  C4  UNL     1     -34.543  15.561  -2.645  1.00 20.00     0.014 C 
HETATM    5  C5  UNL     1     -35.481  15.390  -3.888  1.00 20.00     0.100 C 
HETATM    6  C6  UNL     1     -34.613  16.786  -1.736  1.00 20.00     0.012 C 
HETATM    7  N9  UNL     1     -36.123  12.937  -4.492  1.00 20.00    -0.196 NA
ENDROOT
BRANCH   5   8
HETATM    8  S10 UNL     1     -36.985  16.426  -3.857  1.00 20.00    -0.144 SA
BRANCH   8   9
HETATM    9  C8  UNL     1     -37.670  15.905  -5.442  1.00 20.00     0.071 C 
HETATM   10  C7  UNL     1     -37.727  17.073  -6.409  1.00 20.00     0.016 C 
ENDBRANCH   8   9
ENDBRANCH   5   8
TORSDOF 2
ENDMDL
MODEL 5
REMARK VINA RESULT:      -4.1     16.935     18.564
REMARK  2 active torsions:
REMARK  status: ('A' for Active; 'I' for Inactive)
REMARK    1  A    between atoms: C5_5  and  S10_10 
REMARK    2  A    between atoms: C8_8  and  S10_10 
ROOT
HETATM    1  C1  UNL     1     -23.033  17.055   9.128  1.00 20.00     0.080 C 
HETATM    2  C2  UNL     1     -23.134  16.713  12.106  1.00 20.00     0.009 C 
HETATM    3  C3  UNL     1     -22.981  18.099  11.444  1.00 20.00     0.037 C 
HETATM    4  C4  UNL     1     -24.385  16.479  11.215  1.00 20.00     0.014 C 
HETATM    5  C5  UNL     1     -23.802  17.562  10.245  1.00 20.00     0.100 C 
HETATM    6  C6  UNL     1     -25.701  16.681  11.962  1.00 20.00     0.012 C 
HETATM    7  N9  UNL     1     -22.417  16.650   8.233  1.00 20.00    -0.196 NA
ENDROOT
BRANCH   5   8
HETATM    8  S10 UNL     1     -25.020  18.784   9.645  1.00 20.00    -0.144 SA
BRANCH   8   9
HETATM    9  C8  UNL     1     -24.158  19.263   8.134  1.00 20.00     0.071 C 
HETATM   10  C7  UNL     1     -25.101  19.224   6.946  1.00 20.00     0.016 C 
ENDBRANCH   8   9
ENDBRANCH   5   8
TORSDOF 2
ENDMDL
MODEL 6
REMARK VINA RESULT:      -4.1      2.245      3.948
REMARK  2 active torsions:
REMARK  status: ('A' for Active; 'I' for Inactive)
REMARK    1  A    between atoms: C5_5  and  S10_10 
REMARK    2  A    between atoms: C8_8  and  S10_10 
ROOT
HETATM    1  C1  UNL     1     -36.572  14.389  -4.867  1.00 20.00     0.080 C 
HETATM    2  C2  UNL     1     -36.161  16.296  -7.145  1.00 20.00     0.009 C 
HETATM    3  C3  UNL     1     -35.840  16.681  -5.685  1.00 20.00     0.037 C 
HETATM    4  C4  UNL     1     -35.265  15.041  -6.961  1.00 20.00     0.014 C 
HETATM    5  C5  UNL     1     -35.502  15.193  -5.419  1.00 20.00     0.100 C 
HETATM    6  C6  UNL     1     -33.882  15.192  -7.588  1.00 20.00     0.012 C 
HETATM    7  N9  UNL     1     -37.429  13.746  -4.423  1.00 20.00    -0.196 NA
ENDROOT
BRANCH   5   8
HETATM    8  S10 UNL     1     -34.002  15.002  -4.394  1.00 20.00    -0.144 SA
BRANCH   8   9
HETATM    9  C8  UNL     1     -34.737  15.443  -2.806  1.00 20.00     0.071 C 
HETATM   10  C7  UNL     1     -33.994  16.607  -2.179  1.00 20.00     0.016 C 
ENDBRANCH   8   9
ENDBRANCH   5   8
TORSDOF 2
ENDMDL
MODEL 7
REMARK VINA RESULT:      -4.1      2.162      2.699
REMARK  2 active torsions:
REMARK  status: ('A' for Active; 'I' for Inactive)
REMARK    1  A    between atoms: C5_5  and  S10_10 
REMARK    2  A    between atoms: C8_8  and  S10_10 
ROOT
HETATM    1  C1  UNL     1     -36.333  14.306  -4.642  1.00 20.00     0.080 C 
HETATM    2  C2  UNL     1     -34.329  15.652  -2.862  1.00 20.00     0.009 C 
HETATM    3  C3  UNL     1     -33.921  14.573  -3.887  1.00 20.00     0.037 C 
HETATM    4  C4  UNL     1     -35.037  16.414  -4.016  1.00 20.00     0.014 C 
HETATM    5  C5  UNL     1     -35.097  15.047  -4.779  1.00 20.00     0.100 C 
HETATM    6  C6  UNL     1     -34.230  17.600  -4.537  1.00 20.00     0.012 C 
HETATM    7  N9  UNL     1     -37.323  13.712  -4.533  1.00 20.00    -0.196 NA
ENDROOT
BRANCH   5   8
HETATM    8  S10 UNL     1     -34.629  15.136  -6.542  1.00 20.00    -0.144 SA
BRANCH   8   9
HETATM    9  C8  UNL     1     -36.246  15.598  -7.198  1.00 20.00     0.071 C 
HETATM   10  C7  UNL     1     -36.283  17.077  -7.532  1.00 20.00     0.016 C 
ENDBRANCH   8   9
ENDBRANCH   5   8
TORSDOF 2
ENDMDL
MODEL 8
REMARK VINA RESULT:      -4.0      1.419      1.714
REMARK  2 active torsions:
REMARK  status: ('A' for Active; 'I' for Inactive)
REMARK    1  A    between atoms: C5_5  and  S10_10 
REMARK    2  A    between atoms: C8_8  and  S10_10 
ROOT
HETATM    1  C1  UNL     1     -33.721  14.831  -4.205  1.00 20.00     0.080 C 
HETATM    2  C2  UNL     1     -33.068  17.045  -2.291  1.00 20.00     0.009 C 
HETATM    3  C3  UNL     1     -33.448  17.318  -3.762  1.00 20.00     0.037 C 
HETATM    4  C4  UNL     1     -34.372  16.211  -2.159  1.00 20.00     0.014 C 
HETATM    5  C5  UNL     1     -34.334  16.047  -3.717  1.00 20.00     0.100 C 
HETATM    6  C6  UNL     1     -35.496  16.960  -1.448  1.00 20.00     0.012 C 
HETATM    7  N9  UNL     1     -33.230  13.856  -4.597  1.00 20.00    -0.196 NA
ENDROOT
BRANCH   5   8
HETATM    8  S10 UNL     1     -35.940  16.301  -4.549  1.00 20.00    -0.144 SA
BRANCH   8   9
HETATM    9  C8  UNL     1     -36.597  14.636  -4.317  1.00 20.00     0.071 C 
HETATM   10  C7  UNL     1     -38.112  14.666  -4.248  1.00 20.00     0.016 C 
ENDBRANCH   8   9
ENDBRANCH   5   8
TORSDOF 2
ENDMDL
MODEL 9
REMARK VINA RESULT:      -3.9      1.639      3.583
REMARK  2 active torsions:
REMARK  status: ('A' for Active; 'I' for Inactive)
REMARK    1  A    between atoms: C5_5  and  S10_10 
REMARK    2  A    between atoms: C8_8  and  S10_10 
ROOT
HETATM    1  C1  UNL     1     -36.028  14.022  -4.749  1.00 20.00     0.080 C 
HETATM    2  C2  UNL     1     -36.332  15.865  -7.095  1.00 20.00     0.009 C 
HETATM    3  C3  UNL     1     -37.284  15.919  -5.881  1.00 20.00     0.037 C 
HETATM    4  C4  UNL     1     -35.140  15.992  -6.107  1.00 20.00     0.014 C 
HETATM    5  C5  UNL     1     -36.102  15.446  -4.997  1.00 20.00     0.100 C 
HETATM    6  C6  UNL     1     -34.553  17.400  -6.052  1.00 20.00     0.012 C 
HETATM    7  N9  UNL     1     -35.969  12.881  -4.549  1.00 20.00    -0.196 NA
ENDROOT
BRANCH   5   8
HETATM    8  S10 UNL     1     -36.026  16.348  -3.411  1.00 20.00    -0.144 SA
BRANCH   8   9
HETATM    9  C8  UNL     1     -34.557  15.541  -2.743  1.00 20.00     0.071 C 
HETATM   10  C7  UNL     1     -33.427  16.540  -2.580  1.00 20.00     0.016 C 
ENDBRANCH   8   9
ENDBRANCH   5   8
TORSDOF 2
ENDMDL
