MODEL 1
REMARK VINA RESULT:      -4.7      0.000      0.000
REMARK  1 active torsions:
REMARK  status: ('A' for Active; 'I' for Inactive)
REMARK    1  A    between atoms: C6_6  and  C11_11 
ROOT
HETATM    1  C1  UNL     1     -32.886  15.219  -4.018  1.00 20.00     0.001 C 
HETATM    2  C2  UNL     1     -32.955  16.605  -3.391  1.00 20.00     0.006 C 
HETATM    3  C3  UNL     1     -35.250  16.392  -2.250  1.00 20.00     0.007 C 
HETATM    4  C4  UNL     1     -34.017  14.879  -4.984  1.00 20.00     0.008 C 
HETATM    5  C5  UNL     1     -35.648  15.097  -2.965  1.00 20.00     0.009 C 
HETATM    6  C6  UNL     1     -33.747  16.629  -2.079  1.00 20.00     0.003 C 
HETATM    7  C7  UNL     1     -35.482  15.060  -4.505  1.00 20.00    -0.048 C 
HETATM    8  C8  UNL     1     -36.092  16.315  -5.166  1.00 20.00     0.015 C 
HETATM    9  C9  UNL     1     -36.295  13.847  -5.027  1.00 20.00     0.015 C 
ENDROOT
BRANCH   6  10
HETATM   10  C11 UNL     1     -33.522  17.967  -1.365  1.00 20.00     0.082 C 
HETATM   11  C10 UNL     1     -32.044  18.249  -1.183  1.00 20.00     0.027 C 
HETATM   12 CL12 UNL     1     -34.337  17.928   0.219  1.00 20.00    -0.125 Cl
ENDBRANCH   6  10
TORSDOF 1
ENDMDL
MODEL 2
REMARK VINA RESULT:      -4.5      2.203      4.885
REMARK  1 active torsions:
REMARK  status: ('A' for Active; 'I' for Inactive)
REMARK    1  A    between atoms: C6_6  and  C11_11 
ROOT
HETATM    1  C1  UNL     1     -35.206  16.625  -1.173  1.00 20.00     0.001 C 
HETATM    2  C2  UNL     1     -35.750  16.368  -2.572  1.00 20.00     0.006 C 
HETATM    3  C3  UNL     1     -33.510  16.104  -3.808  1.00 20.00     0.007 C 
HETATM    4  C4  UNL     1     -34.289  17.838  -1.039  1.00 20.00     0.008 C 
HETATM    5  C5  UNL     1     -32.647  16.626  -2.657  1.00 20.00     0.009 C 
HETATM    6  C6  UNL     1     -34.842  15.461  -3.409  1.00 20.00     0.003 C 
HETATM    7  C7  UNL     1     -33.077  17.961  -2.000  1.00 20.00    -0.048 C 
HETATM    8  C8  UNL     1     -33.367  19.043  -3.063  1.00 20.00     0.015 C 
HETATM    9  C9  UNL     1     -31.874  18.474  -1.166  1.00 20.00     0.015 C 
ENDROOT
BRANCH   6  10
HETATM   10  C11 UNL     1     -35.586  15.010  -4.672  1.00 20.00     0.082 C 
HETATM   11  C10 UNL     1     -36.152  13.614  -4.504  1.00 20.00     0.027 C 
HETATM   12 CL12 UNL     1     -34.465  15.053  -6.056  1.00 20.00    -0.125 Cl
ENDBRANCH   6  10
TORSDOF 1
ENDMDL
MODEL 3
REMARK VINA RESULT:      -4.4      2.908      4.811
REMARK  1 active torsions:
REMARK  status: ('A' for Active; 'I' for Inactive)
REMARK    1  A    between atoms: C6_6  and  C11_11 
ROOT
HETATM    1  C1  UNL     1     -36.194  13.724  -4.652  1.00 20.00     0.001 C 
HETATM    2  C2  UNL     1     -37.484  14.429  -4.255  1.00 20.00     0.006 C 
HETATM    3  C3  UNL     1     -36.678  16.860  -4.496  1.00 20.00     0.007 C 
HETATM    4  C4  UNL     1     -34.976  14.050  -3.792  1.00 20.00     0.008 C 
HETATM    5  C5  UNL     1     -35.193  16.508  -4.627  1.00 20.00     0.009 C 
HETATM    6  C6  UNL     1     -37.665  15.782  -4.953  1.00 20.00     0.003 C 
HETATM    7  C7  UNL     1     -34.600  15.540  -3.573  1.00 20.00    -0.048 C 
HETATM    8  C8  UNL     1     -34.985  15.965  -2.140  1.00 20.00     0.015 C 
HETATM    9  C9  UNL     1     -33.056  15.647  -3.665  1.00 20.00     0.015 C 
ENDROOT
BRANCH   6  10
HETATM   10  C11 UNL     1     -39.098  16.284  -4.740  1.00 20.00     0.082 C 
HETATM   11  C10 UNL     1     -39.206  17.104  -3.469  1.00 20.00     0.027 C 
HETATM   12 CL12 UNL     1     -40.201  14.887  -4.662  1.00 20.00    -0.125 Cl
ENDBRANCH   6  10
TORSDOF 1
ENDMDL
MODEL 4
REMARK VINA RESULT:      -4.3      1.140      2.274
REMARK  1 active torsions:
REMARK  status: ('A' for Active; 'I' for Inactive)
REMARK    1  A    between atoms: C6_6  and  C11_11 
ROOT
HETATM    1  C1  UNL     1     -35.701  15.939  -2.543  1.00 20.00     0.001 C 
HETATM    2  C2  UNL     1     -34.645  16.554  -1.634  1.00 20.00     0.006 C 
HETATM    3  C3  UNL     1     -33.255  17.764  -3.429  1.00 20.00     0.007 C 
HETATM    4  C4  UNL     1     -35.169  15.010  -3.631  1.00 20.00     0.008 C 
HETATM    5  C5  UNL     1     -33.926  17.075  -4.620  1.00 20.00     0.009 C 
HETATM    6  C6  UNL     1     -34.106  17.889  -2.161  1.00 20.00     0.003 C 
HETATM    7  C7  UNL     1     -34.047  15.531  -4.568  1.00 20.00    -0.048 C 
HETATM    8  C8  UNL     1     -32.704  14.875  -4.181  1.00 20.00     0.015 C 
HETATM    9  C9  UNL     1     -34.378  15.045  -6.003  1.00 20.00     0.015 C 
ENDROOT
BRANCH   6  10
HETATM   10  C11 UNL     1     -33.285  18.581  -1.066  1.00 20.00     0.082 C 
HETATM   11  C10 UNL     1     -31.822  18.193  -1.152  1.00 20.00     0.027 C 
HETATM   12 CL12 UNL     1     -33.943  18.134   0.528  1.00 20.00    -0.125 Cl
ENDBRANCH   6  10
TORSDOF 1
ENDMDL
MODEL 5
REMARK VINA RESULT:      -4.3      1.873      2.845
REMARK  1 active torsions:
REMARK  status: ('A' for Active; 'I' for Inactive)
REMARK    1  A    between atoms: C6_6  and  C11_11 
ROOT
HETATM    1  C1  UNL     1     -36.329  13.992  -4.442  1.00 20.00     0.001 C 
HETATM    2  C2  UNL     1     -35.217  14.421  -3.494  1.00 20.00     0.006 C 
HETATM    3  C3  UNL     1     -34.823  16.789  -4.419  1.00 20.00     0.007 C 
HETATM    4  C4  UNL     1     -35.972  14.015  -5.926  1.00 20.00     0.008 C 
HETATM    5  C5  UNL     1     -35.657  16.590  -5.688  1.00 20.00     0.009 C 
HETATM    6  C6  UNL     1     -35.218  15.928  -3.215  1.00 20.00     0.003 C 
HETATM    7  C7  UNL     1     -35.377  15.317  -6.525  1.00 20.00    -0.048 C 
HETATM    8  C8  UNL     1     -33.864  15.128  -6.773  1.00 20.00     0.015 C 
HETATM    9  C9  UNL     1     -36.028  15.527  -7.917  1.00 20.00     0.015 C 
ENDROOT
BRANCH   6  10
HETATM   10  C11 UNL     1     -34.279  16.236  -2.042  1.00 20.00     0.082 C 
HETATM   11  C10 UNL     1     -34.982  17.062  -0.982  1.00 20.00     0.027 C 
HETATM   12 CL12 UNL     1     -32.851  17.110  -2.651  1.00 20.00    -0.125 Cl
ENDBRANCH   6  10
TORSDOF 1
ENDMDL
MODEL 6
REMARK VINA RESULT:      -4.3      2.180      4.724
REMARK  1 active torsions:
REMARK  status: ('A' for Active; 'I' for Inactive)
REMARK    1  A    between atoms: C6_6  and  C11_11 
ROOT
HETATM    1  C1  UNL     1     -35.576  18.532  -3.617  1.00 20.00     0.001 C 
HETATM    2  C2  UNL     1     -35.030  17.330  -4.376  1.00 20.00     0.006 C 
HETATM    3  C3  UNL     1     -34.800  15.704  -2.397  1.00 20.00     0.007 C 
HETATM    4  C4  UNL     1     -34.686  19.060  -2.495  1.00 20.00     0.008 C 
HETATM    5  C5  UNL     1     -35.018  16.762  -1.313  1.00 20.00     0.009 C 
HETATM    6  C6  UNL     1     -35.446  15.992  -3.756  1.00 20.00     0.003 C 
HETATM    7  C7  UNL     1     -34.183  18.063  -1.417  1.00 20.00    -0.048 C 
HETATM    8  C8  UNL     1     -32.689  17.754  -1.653  1.00 20.00     0.015 C 
HETATM    9  C9  UNL     1     -34.273  18.780  -0.044  1.00 20.00     0.015 C 
ENDROOT
BRANCH   6  10
HETATM   10  C11 UNL     1     -35.119  14.850  -4.725  1.00 20.00     0.082 C 
HETATM   11  C10 UNL     1     -36.038  13.664  -4.503  1.00 20.00     0.027 C 
HETATM   12 CL12 UNL     1     -33.422  14.359  -4.497  1.00 20.00    -0.125 Cl
ENDBRANCH   6  10
TORSDOF 1
ENDMDL
MODEL 7
REMARK VINA RESULT:      -4.2      2.347      4.604
REMARK  1 active torsions:
REMARK  status: ('A' for Active; 'I' for Inactive)
REMARK    1  A    between atoms: C6_6  and  C11_11 
ROOT
HETATM    1  C1  UNL     1     -33.179  16.176  -3.434  1.00 20.00     0.001 C 
HETATM    2  C2  UNL     1     -34.310  15.182  -3.665  1.00 20.00     0.006 C 
HETATM    3  C3  UNL     1     -36.288  16.822  -3.550  1.00 20.00     0.007 C 
HETATM    4  C4  UNL     1     -33.248  16.956  -2.125  1.00 20.00     0.008 C 
HETATM    5  C5  UNL     1     -35.471  17.995  -2.999  1.00 20.00     0.009 C 
HETATM    6  C6  UNL     1     -35.512  15.800  -4.387  1.00 20.00     0.003 C 
HETATM    7  C7  UNL     1     -34.560  17.711  -1.779  1.00 20.00    -0.048 C 
HETATM    8  C8  UNL     1     -35.321  16.946  -0.674  1.00 20.00     0.015 C 
HETATM    9  C9  UNL     1     -34.161  19.080  -1.171  1.00 20.00     0.015 C 
ENDROOT
BRANCH   6  10
HETATM   10  C11 UNL     1     -36.467  14.691  -4.843  1.00 20.00     0.082 C 
HETATM   11  C10 UNL     1     -37.848  14.879  -4.248  1.00 20.00     0.027 C 
HETATM   12 CL12 UNL     1     -35.801  13.111  -4.356  1.00 20.00    -0.125 Cl
ENDBRANCH   6  10
TORSDOF 1
ENDMDL
MODEL 8
REMARK VINA RESULT:      -4.2      2.672      4.751
REMARK  1 active torsions:
REMARK  status: ('A' for Active; 'I' for Inactive)
REMARK    1  A    between atoms: C6_6  and  C11_11 
ROOT
HETATM    1  C1  UNL     1     -36.021  18.071  -3.910  1.00 20.00     0.001 C 
HETATM    2  C2  UNL     1     -35.422  17.162  -4.975  1.00 20.00     0.006 C 
HETATM    3  C3  UNL     1     -34.816  15.165  -3.471  1.00 20.00     0.007 C 
HETATM    4  C4  UNL     1     -35.087  18.437  -2.759  1.00 20.00     0.008 C 
HETATM    5  C5  UNL     1     -35.042  15.905  -2.150  1.00 20.00     0.009 C 
HETATM    6  C6  UNL     1     -35.622  15.673  -4.670  1.00 20.00     0.003 C 
HETATM    7  C7  UNL     1     -34.371  17.293  -1.993  1.00 20.00    -0.048 C 
HETATM    8  C8  UNL     1     -32.883  17.248  -2.402  1.00 20.00     0.015 C 
HETATM    9  C9  UNL     1     -34.404  17.653  -0.485  1.00 20.00     0.015 C 
ENDROOT
BRANCH   6  10
HETATM   10  C11 UNL     1     -35.268  14.841  -5.909  1.00 20.00     0.082 C 
HETATM   11  C10 UNL     1     -33.786  14.928  -6.219  1.00 20.00     0.027 C 
HETATM   12 CL12 UNL     1     -36.218  15.427  -7.297  1.00 20.00    -0.125 Cl
ENDBRANCH   6  10
TORSDOF 1
ENDMDL
MODEL 9
REMARK VINA RESULT:      -4.1      1.041      1.119
REMARK  1 active torsions:
REMARK  status: ('A' for Active; 'I' for Inactive)
REMARK    1  A    between atoms: C6_6  and  C11_11 
ROOT
HETATM    1  C1  UNL     1     -33.018  16.067  -3.853  1.00 20.00     0.001 C 
HETATM    2  C2  UNL     1     -32.905  17.403  -3.131  1.00 20.00     0.006 C 
HETATM    3  C3  UNL     1     -34.789  17.068  -1.413  1.00 20.00     0.007 C 
HETATM    4  C4  UNL     1     -34.375  15.776  -4.486  1.00 20.00     0.008 C 
HETATM    5  C5  UNL     1     -35.374  15.820  -2.081  1.00 20.00     0.009 C 
HETATM    6  C6  UNL     1     -33.297  17.319  -1.652  1.00 20.00     0.003 C 
HETATM    7  C7  UNL     1     -35.646  15.895  -3.604  1.00 20.00    -0.048 C 
HETATM    8  C8  UNL     1     -36.414  17.183  -3.975  1.00 20.00     0.015 C 
HETATM    9  C9  UNL     1     -36.576  14.708  -3.966  1.00 20.00     0.015 C 
ENDROOT
BRANCH   6  10
HETATM   10  C11 UNL     1     -32.879  18.607  -0.933  1.00 20.00     0.082 C 
HETATM   11  C10 UNL     1     -31.418  18.559  -0.532  1.00 20.00     0.027 C 
HETATM   12 CL12 UNL     1     -33.902  18.830   0.508  1.00 20.00    -0.125 Cl
ENDBRANCH   6  10
TORSDOF 1
ENDMDL
