MODEL 1
REMARK VINA RESULT:      -4.5      0.000      0.000
REMARK  2 active torsions:
REMARK  status: ('A' for Active; 'I' for Inactive)
REMARK    1  A    between atoms: C8_8  and  C9_9 
REMARK    2  A    between atoms: C9_9  and  N11_11 
ROOT
HETATM    1  C1  UNL     1     -36.144  13.887  -4.293  1.00 20.00     0.060 C 
HETATM    2  C8  UNL     1     -34.732  14.105  -3.943  1.00 20.00     0.154 C 
HETATM    3  N10 UNL     1     -37.257  13.712  -4.569  1.00 20.00    -0.197 NA
ENDROOT
BRANCH   2   4
HETATM    4  C9  UNL     1     -34.319  15.561  -4.119  1.00 20.00     0.286 C 
BRANCH   4   5
HETATM    5  N11 UNL     1     -33.850  16.123  -2.861  1.00 20.00     0.090 N 
HETATM    6  C2  UNL     1     -33.014  17.313  -3.050  1.00 20.00     0.277 C 
HETATM    7  C4  UNL     1     -33.147  18.104  -1.739  1.00 20.00     0.015 C 
HETATM    8  C5  UNL     1     -34.190  17.323  -0.922  1.00 20.00     0.015 C 
HETATM    9  C6  UNL     1     -31.824  18.244  -0.998  1.00 20.00     0.012 C 
HETATM   10  C3  UNL     1     -34.946  16.537  -1.986  1.00 20.00     0.277 C 
HETATM   11  C7  UNL     1     -35.098  18.214  -0.088  1.00 20.00     0.012 C 
ENDBRANCH   4   5
ENDBRANCH   2   4
TORSDOF 2
ENDMDL
MODEL 2
REMARK VINA RESULT:      -4.4      0.737      2.013
REMARK  2 active torsions:
REMARK  status: ('A' for Active; 'I' for Inactive)
REMARK    1  A    between atoms: C8_8  and  C9_9 
REMARK    2  A    between atoms: C9_9  and  N11_11 
ROOT
HETATM    1  C1  UNL     1     -36.550  14.125  -4.690  1.00 20.00     0.060 C 
HETATM    2  C8  UNL     1     -35.201  14.554  -5.093  1.00 20.00     0.154 C 
HETATM    3  N10 UNL     1     -37.614  13.789  -4.375  1.00 20.00    -0.197 NA
ENDROOT
BRANCH   2   4
HETATM    4  C9  UNL     1     -34.248  14.628  -3.905  1.00 20.00     0.286 C 
BRANCH   4   5
HETATM    5  N11 UNL     1     -34.280  15.949  -3.296  1.00 20.00     0.090 N 
HETATM    6  C2  UNL     1     -35.025  15.971  -2.033  1.00 20.00     0.277 C 
HETATM    7  C4  UNL     1     -34.447  17.162  -1.252  1.00 20.00     0.015 C 
HETATM    8  C5  UNL     1     -33.286  17.668  -2.124  1.00 20.00     0.015 C 
HETATM    9  C6  UNL     1     -35.480  18.248  -0.983  1.00 20.00     0.012 C 
HETATM   10  C3  UNL     1     -32.945  16.457  -2.984  1.00 20.00     0.277 C 
HETATM   11  C7  UNL     1     -32.099  18.175  -1.320  1.00 20.00     0.012 C 
ENDBRANCH   4   5
ENDBRANCH   2   4
TORSDOF 2
ENDMDL
MODEL 3
REMARK VINA RESULT:      -4.3      1.321      2.009
REMARK  2 active torsions:
REMARK  status: ('A' for Active; 'I' for Inactive)
REMARK    1  A    between atoms: C8_8  and  C9_9 
REMARK    2  A    between atoms: C9_9  and  N11_11 
ROOT
HETATM    1  C1  UNL     1     -36.818  14.061  -4.293  1.00 20.00     0.060 C 
HETATM    2  C8  UNL     1     -35.363  14.079  -4.079  1.00 20.00     0.154 C 
HETATM    3  N10 UNL     1     -37.966  14.044  -4.460  1.00 20.00    -0.197 NA
ENDROOT
BRANCH   2   4
HETATM    4  C9  UNL     1     -34.633  14.829  -5.187  1.00 20.00     0.286 C 
BRANCH   4   5
HETATM    5  N11 UNL     1     -33.808  15.894  -4.637  1.00 20.00     0.090 N 
HETATM    6  C2  UNL     1     -34.301  17.230  -4.990  1.00 20.00     0.277 C 
HETATM    7  C4  UNL     1     -33.770  18.153  -3.882  1.00 20.00     0.015 C 
HETATM    8  C5  UNL     1     -33.091  17.204  -2.881  1.00 20.00     0.015 C 
HETATM    9  C6  UNL     1     -32.814  19.216  -4.407  1.00 20.00     0.012 C 
HETATM   10  C3  UNL     1     -33.747  15.861  -3.177  1.00 20.00     0.277 C 
HETATM   11  C7  UNL     1     -33.252  17.635  -1.431  1.00 20.00     0.012 C 
ENDBRANCH   4   5
ENDBRANCH   2   4
TORSDOF 2
ENDMDL
MODEL 4
REMARK VINA RESULT:      -4.3      0.735      2.021
REMARK  2 active torsions:
REMARK  status: ('A' for Active; 'I' for Inactive)
REMARK    1  A    between atoms: C8_8  and  C9_9 
REMARK    2  A    between atoms: C9_9  and  N11_11 
ROOT
HETATM    1  C1  UNL     1     -35.169  13.677  -4.189  1.00 20.00     0.060 C 
HETATM    2  C8  UNL     1     -34.222  14.722  -3.772  1.00 20.00     0.154 C 
HETATM    3  N10 UNL     1     -35.915  12.851  -4.518  1.00 20.00    -0.197 NA
ENDROOT
BRANCH   2   4
HETATM    4  C9  UNL     1     -34.673  16.110  -4.214  1.00 20.00     0.286 C 
BRANCH   4   5
HETATM    5  N11 UNL     1     -34.462  17.085  -3.155  1.00 20.00     0.090 N 
HETATM    6  C2  UNL     1     -34.974  16.631  -1.858  1.00 20.00     0.277 C 
HETATM    7  C4  UNL     1     -34.150  17.402  -0.814  1.00 20.00     0.015 C 
HETATM    8  C5  UNL     1     -33.109  18.176  -1.639  1.00 20.00     0.015 C 
HETATM    9  C6  UNL     1     -35.003  18.325   0.047  1.00 20.00     0.012 C 
HETATM   10  C3  UNL     1     -33.048  17.391  -2.944  1.00 20.00     0.277 C 
HETATM   11  C7  UNL     1     -31.756  18.292  -0.955  1.00 20.00     0.012 C 
ENDBRANCH   4   5
ENDBRANCH   2   4
TORSDOF 2
ENDMDL
MODEL 5
REMARK VINA RESULT:      -4.2      1.697      5.269
REMARK  2 active torsions:
REMARK  status: ('A' for Active; 'I' for Inactive)
REMARK    1  A    between atoms: C8_8  and  C9_9 
REMARK    2  A    between atoms: C9_9  and  N11_11 
ROOT
HETATM    1  C1  UNL     1     -31.588  18.268  -1.070  1.00 20.00     0.060 C 
HETATM    2  C8  UNL     1     -32.685  18.038  -2.021  1.00 20.00     0.154 C 
HETATM    3  N10 UNL     1     -30.720  18.449  -0.321  1.00 20.00    -0.197 NA
ENDROOT
BRANCH   2   4
HETATM    4  C9  UNL     1     -33.857  17.309  -1.375  1.00 20.00     0.286 C 
BRANCH   4   5
HETATM    5  N11 UNL     1     -34.299  16.198  -2.204  1.00 20.00     0.090 N 
HETATM    6  C2  UNL     1     -35.612  16.435  -2.814  1.00 20.00     0.277 C 
HETATM    7  C4  UNL     1     -35.629  15.554  -4.073  1.00 20.00     0.015 C 
HETATM    8  C5  UNL     1     -34.215  14.954  -4.144  1.00 20.00     0.015 C 
HETATM    9  C6  UNL     1     -36.707  14.479  -4.027  1.00 20.00     0.012 C 
HETATM   10  C3  UNL     1     -33.385  15.925  -3.312  1.00 20.00     0.277 C 
HETATM   11  C7  UNL     1     -33.693  14.797  -5.563  1.00 20.00     0.012 C 
ENDBRANCH   4   5
ENDBRANCH   2   4
TORSDOF 2
ENDMDL
MODEL 6
REMARK VINA RESULT:      -4.1      2.020      5.125
REMARK  2 active torsions:
REMARK  status: ('A' for Active; 'I' for Inactive)
REMARK    1  A    between atoms: C8_8  and  C9_9 
REMARK    2  A    between atoms: C9_9  and  N11_11 
ROOT
HETATM    1  C1  UNL     1     -31.509  18.211  -0.829  1.00 20.00     0.060 C 
HETATM    2  C8  UNL     1     -32.805  17.902  -1.452  1.00 20.00     0.154 C 
HETATM    3  N10 UNL     1     -30.487  18.455  -0.335  1.00 20.00    -0.197 NA
ENDROOT
BRANCH   2   4
HETATM    4  C9  UNL     1     -32.799  18.184  -2.950  1.00 20.00     0.286 C 
BRANCH   4   5
HETATM    5  N11 UNL     1     -33.392  17.079  -3.688  1.00 20.00     0.090 N 
HETATM    6  C2  UNL     1     -33.914  16.028  -2.809  1.00 20.00     0.277 C 
HETATM    7  C4  UNL     1     -35.004  15.326  -3.634  1.00 20.00     0.015 C 
HETATM    8  C5  UNL     1     -35.099  16.150  -4.928  1.00 20.00     0.015 C 
HETATM    9  C6  UNL     1     -34.686  13.862  -3.907  1.00 20.00     0.012 C 
HETATM   10  C3  UNL     1     -34.516  17.499  -4.524  1.00 20.00     0.277 C 
HETATM   11  C7  UNL     1     -36.513  16.259  -5.476  1.00 20.00     0.012 C 
ENDBRANCH   4   5
ENDBRANCH   2   4
TORSDOF 2
ENDMDL
MODEL 7
REMARK VINA RESULT:      -4.1      1.756      5.101
REMARK  2 active torsions:
REMARK  status: ('A' for Active; 'I' for Inactive)
REMARK    1  A    between atoms: C8_8  and  C9_9 
REMARK    2  A    between atoms: C9_9  and  N11_11 
ROOT
HETATM    1  C1  UNL     1     -31.642  18.299  -1.143  1.00 20.00     0.060 C 
HETATM    2  C8  UNL     1     -32.755  18.291  -2.105  1.00 20.00     0.154 C 
HETATM    3  N10 UNL     1     -30.763  18.306  -0.386  1.00 20.00    -0.197 NA
ENDROOT
BRANCH   2   4
HETATM    4  C9  UNL     1     -33.719  17.138  -1.853  1.00 20.00     0.286 C 
BRANCH   4   5
HETATM    5  N11 UNL     1     -34.207  16.585  -3.107  1.00 20.00     0.090 N 
HETATM    6  C2  UNL     1     -33.209  15.749  -3.782  1.00 20.00     0.277 C 
HETATM    7  C4  UNL     1     -34.026  14.787  -4.659  1.00 20.00     0.015 C 
HETATM    8  C5  UNL     1     -35.491  15.089  -4.304  1.00 20.00     0.015 C 
HETATM    9  C6  UNL     1     -33.747  14.964  -6.147  1.00 20.00     0.012 C 
HETATM   10  C3  UNL     1     -35.386  15.739  -2.929  1.00 20.00     0.277 C 
HETATM   11  C7  UNL     1     -36.383  13.858  -4.309  1.00 20.00     0.012 C 
ENDBRANCH   4   5
ENDBRANCH   2   4
TORSDOF 2
ENDMDL
MODEL 8
REMARK VINA RESULT:      -3.9      2.053      3.056
REMARK  2 active torsions:
REMARK  status: ('A' for Active; 'I' for Inactive)
REMARK    1  A    between atoms: C8_8  and  C9_9 
REMARK    2  A    between atoms: C9_9  and  N11_11 
ROOT
HETATM    1  C1  UNL     1     -38.502  15.134  -4.149  1.00 20.00     0.060 C 
HETATM    2  C8  UNL     1     -38.498  16.567  -3.819  1.00 20.00     0.154 C 
HETATM    3  N10 UNL     1     -38.507  14.003  -4.408  1.00 20.00    -0.197 NA
ENDROOT
BRANCH   2   4
HETATM    4  C9  UNL     1     -37.219  17.256  -4.283  1.00 20.00     0.286 C 
BRANCH   4   5
HETATM    5  N11 UNL     1     -36.044  16.566  -3.775  1.00 20.00     0.090 N 
HETATM    6  C2  UNL     1     -35.071  16.256  -4.828  1.00 20.00     0.277 C 
HETATM    7  C4  UNL     1     -33.721  16.148  -4.102  1.00 20.00     0.015 C 
HETATM    8  C5  UNL     1     -34.032  16.543  -2.649  1.00 20.00     0.015 C 
HETATM    9  C6  UNL     1     -33.106  14.758  -4.201  1.00 20.00     0.012 C 
HETATM   10  C3  UNL     1     -35.318  17.350  -2.776  1.00 20.00     0.277 C 
HETATM   11  C7  UNL     1     -32.911  17.320  -1.977  1.00 20.00     0.012 C 
ENDBRANCH   4   5
ENDBRANCH   2   4
TORSDOF 2
ENDMDL
MODEL 9
REMARK VINA RESULT:      -3.9      2.001      3.251
REMARK  2 active torsions:
REMARK  status: ('A' for Active; 'I' for Inactive)
REMARK    1  A    between atoms: C8_8  and  C9_9 
REMARK    2  A    between atoms: C9_9  and  N11_11 
ROOT
HETATM    1  C1  UNL     1     -38.301  15.113  -4.153  1.00 20.00     0.060 C 
HETATM    2  C8  UNL     1     -37.921  16.490  -3.801  1.00 20.00     0.154 C 
HETATM    3  N10 UNL     1     -38.601  14.027  -4.429  1.00 20.00    -0.197 NA
ENDROOT
BRANCH   2   4
HETATM    4  C9  UNL     1     -37.028  17.124  -4.861  1.00 20.00     0.286 C 
BRANCH   4   5
HETATM    5  N11 UNL     1     -35.626  17.028  -4.484  1.00 20.00     0.090 N 
HETATM    6  C2  UNL     1     -35.435  16.959  -3.031  1.00 20.00     0.277 C 
HETATM    7  C4  UNL     1     -34.087  16.248  -2.842  1.00 20.00     0.015 C 
HETATM    8  C5  UNL     1     -33.660  15.845  -4.263  1.00 20.00     0.015 C 
HETATM    9  C6  UNL     1     -33.047  17.125  -2.157  1.00 20.00     0.012 C 
HETATM   10  C3  UNL     1     -34.976  15.838  -5.031  1.00 20.00     0.277 C 
HETATM   11  C7  UNL     1     -32.934  14.510  -4.323  1.00 20.00     0.012 C 
ENDBRANCH   4   5
ENDBRANCH   2   4
TORSDOF 2
ENDMDL
