MODEL 1
REMARK VINA RESULT:      -4.3      0.000      0.000
REMARK  2 active torsions:
REMARK  status: ('A' for Active; 'I' for Inactive)
REMARK    1  A    between atoms: C4_4  and  C9_9 
REMARK    2  A    between atoms: C5_5  and  C8_8 
ROOT
HETATM    1  C1  UNL     1     -36.613  14.965  -3.956  1.00 20.00     0.032 C 
HETATM    2  C2  UNL     1     -34.854  16.232  -5.225  1.00 20.00     0.038 C 
HETATM    3  C3  UNL     1     -36.085  13.701  -4.624  1.00 20.00     0.168 C 
HETATM    4  C4  UNL     1     -35.541  16.060  -3.863  1.00 20.00     0.008 C 
HETATM    5  C5  UNL     1     -34.414  14.891  -5.820  1.00 20.00     0.121 C 
HETATM    6  O10 UNL     1     -35.528  13.997  -5.904  1.00 20.00    -0.386 OA
ENDROOT
BRANCH   4   7
HETATM    7  C9  UNL     1     -34.531  15.768  -2.751  1.00 20.00     0.082 C 
HETATM    8  C7  UNL     1     -33.177  16.379  -3.062  1.00 20.00     0.027 C 
HETATM    9 CL11 UNL     1     -35.148  16.417  -1.208  1.00 20.00    -0.125 Cl
ENDBRANCH   4   7
BRANCH   5  10
HETATM   10  C8  UNL     1     -33.862  15.075  -7.229  1.00 20.00     0.027 C 
HETATM   11  C6  UNL     1     -34.168  16.434  -7.772  1.00 20.00     0.007 C 
ENDBRANCH   5  10
TORSDOF 2
ENDMDL
MODEL 2
REMARK VINA RESULT:      -4.1      2.141      3.425
REMARK  2 active torsions:
REMARK  status: ('A' for Active; 'I' for Inactive)
REMARK    1  A    between atoms: C4_4  and  C9_9 
REMARK    2  A    between atoms: C5_5  and  C8_8 
ROOT
HETATM    1  C1  UNL     1     -33.184  16.979  -3.499  1.00 20.00     0.032 C 
HETATM    2  C2  UNL     1     -34.990  15.462  -2.636  1.00 20.00     0.038 C 
HETATM    3  C3  UNL     1     -34.184  17.461  -4.543  1.00 20.00     0.168 C 
HETATM    4  C4  UNL     1     -33.877  16.442  -2.240  1.00 20.00     0.008 C 
HETATM    5  C5  UNL     1     -35.899  16.035  -3.728  1.00 20.00     0.121 C 
HETATM    6  O10 UNL     1     -35.122  16.433  -4.860  1.00 20.00    -0.386 OA
ENDROOT
BRANCH   4   7
HETATM    7  C9  UNL     1     -34.408  17.577  -1.361  1.00 20.00     0.082 C 
HETATM    8  C7  UNL     1     -35.363  17.055  -0.303  1.00 20.00     0.027 C 
HETATM    9 CL11 UNL     1     -33.037  18.409  -0.580  1.00 20.00    -0.125 Cl
ENDBRANCH   4   7
BRANCH   5  10
HETATM   10  C8  UNL     1     -36.906  14.994  -4.200  1.00 20.00     0.027 C 
HETATM   11  C6  UNL     1     -36.242  13.707  -4.572  1.00 20.00     0.007 C 
ENDBRANCH   5  10
TORSDOF 2
ENDMDL
MODEL 3
REMARK VINA RESULT:      -4.1     18.215     19.290
REMARK  2 active torsions:
REMARK  status: ('A' for Active; 'I' for Inactive)
REMARK    1  A    between atoms: C4_4  and  C9_9 
REMARK    2  A    between atoms: C5_5  and  C8_8 
ROOT
HETATM    1  C1  UNL     1     -23.431  16.654  11.913  1.00 20.00     0.032 C 
HETATM    2  C2  UNL     1     -24.997  18.616  11.843  1.00 20.00     0.038 C 
HETATM    3  C3  UNL     1     -24.656  15.760  11.762  1.00 20.00     0.168 C 
HETATM    4  C4  UNL     1     -23.663  18.055  11.331  1.00 20.00     0.008 C 
HETATM    5  C5  UNL     1     -26.142  17.610  11.687  1.00 20.00     0.121 C 
HETATM    6  O10 UNL     1     -25.809  16.378  12.332  1.00 20.00    -0.386 OA
ENDROOT
BRANCH   4   7
HETATM    7  C9  UNL     1     -23.600  18.049   9.802  1.00 20.00     0.082 C 
HETATM    8  C7  UNL     1     -24.405  19.193   9.212  1.00 20.00     0.027 C 
HETATM    9 CL11 UNL     1     -21.899  18.174   9.281  1.00 20.00    -0.125 Cl
ENDBRANCH   4   7
BRANCH   5  10
HETATM   10  C8  UNL     1     -27.421  18.137  12.328  1.00 20.00     0.027 C 
HETATM   11  C6  UNL     1     -28.508  17.110  12.324  1.00 20.00     0.007 C 
ENDBRANCH   5  10
TORSDOF 2
ENDMDL
MODEL 4
REMARK VINA RESULT:      -4.0      2.849      4.182
REMARK  2 active torsions:
REMARK  status: ('A' for Active; 'I' for Inactive)
REMARK    1  A    between atoms: C4_4  and  C9_9 
REMARK    2  A    between atoms: C5_5  and  C8_8 
ROOT
HETATM    1  C1  UNL     1     -35.720  16.348  -2.461  1.00 20.00     0.032 C 
HETATM    2  C2  UNL     1     -33.239  16.721  -2.566  1.00 20.00     0.038 C 
HETATM    3  C3  UNL     1     -35.880  17.667  -3.208  1.00 20.00     0.168 C 
HETATM    4  C4  UNL     1     -34.362  15.689  -2.737  1.00 20.00     0.008 C 
HETATM    5  C5  UNL     1     -33.534  18.022  -3.318  1.00 20.00     0.121 C 
HETATM    6  O10 UNL     1     -34.800  18.551  -2.912  1.00 20.00    -0.386 OA
ENDROOT
BRANCH   4   7
HETATM    7  C9  UNL     1     -34.323  15.032  -4.119  1.00 20.00     0.082 C 
HETATM    8  C7  UNL     1     -32.945  14.475  -4.426  1.00 20.00     0.027 C 
HETATM    9 CL11 UNL     1     -35.533  13.723  -4.185  1.00 20.00    -0.125 Cl
ENDBRANCH   4   7
BRANCH   5  10
HETATM   10  C8  UNL     1     -32.475  19.076  -3.019  1.00 20.00     0.027 C 
HETATM   11  C6  UNL     1     -32.139  19.131  -1.563  1.00 20.00     0.007 C 
ENDBRANCH   5  10
TORSDOF 2
ENDMDL
MODEL 5
REMARK VINA RESULT:      -4.0      2.406      4.120
REMARK  2 active torsions:
REMARK  status: ('A' for Active; 'I' for Inactive)
REMARK    1  A    between atoms: C4_4  and  C9_9 
REMARK    2  A    between atoms: C5_5  and  C8_8 
ROOT
HETATM    1  C1  UNL     1     -34.984  14.044  -3.804  1.00 20.00     0.032 C 
HETATM    2  C2  UNL     1     -32.949  15.509  -3.940  1.00 20.00     0.038 C 
HETATM    3  C3  UNL     1     -35.648  15.160  -3.005  1.00 20.00     0.168 C 
HETATM    4  C4  UNL     1     -33.878  14.574  -4.726  1.00 20.00     0.008 C 
HETATM    5  C5  UNL     1     -33.730  16.553  -3.137  1.00 20.00     0.121 C 
HETATM    6  O10 UNL     1     -34.676  15.911  -2.278  1.00 20.00    -0.386 OA
ENDROOT
BRANCH   4   7
HETATM    7  C9  UNL     1     -34.457  15.260  -5.966  1.00 20.00     0.082 C 
HETATM    8  C7  UNL     1     -33.538  15.103  -7.163  1.00 20.00     0.027 C 
HETATM    9 CL11 UNL     1     -36.056  14.560  -6.335  1.00 20.00    -0.125 Cl
ENDBRANCH   4   7
BRANCH   5  10
HETATM   10  C8  UNL     1     -32.794  17.377  -2.260  1.00 20.00     0.027 C 
HETATM   11  C6  UNL     1     -33.488  17.896  -1.041  1.00 20.00     0.007 C 
ENDBRANCH   5  10
TORSDOF 2
ENDMDL
MODEL 6
REMARK VINA RESULT:      -3.9      1.750      3.148
REMARK  2 active torsions:
REMARK  status: ('A' for Active; 'I' for Inactive)
REMARK    1  A    between atoms: C4_4  and  C9_9 
REMARK    2  A    between atoms: C5_5  and  C8_8 
ROOT
HETATM    1  C1  UNL     1     -33.043  15.131  -4.018  1.00 20.00     0.032 C 
HETATM    2  C2  UNL     1     -35.352  15.147  -3.029  1.00 20.00     0.038 C 
HETATM    3  C3  UNL     1     -33.702  14.912  -5.375  1.00 20.00     0.168 C 
HETATM    4  C4  UNL     1     -33.980  15.837  -3.028  1.00 20.00     0.008 C 
HETATM    5  C5  UNL     1     -35.888  14.934  -4.448  1.00 20.00     0.121 C 
HETATM    6  O10 UNL     1     -34.937  14.210  -5.232  1.00 20.00    -0.386 OA
ENDROOT
BRANCH   4   7
HETATM    7  C9  UNL     1     -34.097  17.332  -3.331  1.00 20.00     0.082 C 
HETATM    8  C7  UNL     1     -35.282  17.950  -2.610  1.00 20.00     0.027 C 
HETATM    9 CL11 UNL     1     -32.593  18.154  -2.836  1.00 20.00    -0.125 Cl
ENDBRANCH   4   7
BRANCH   5  10
HETATM   10  C8  UNL     1     -37.180  14.127  -4.426  1.00 20.00     0.027 C 
HETATM   11  C6  UNL     1     -38.381  15.003  -4.257  1.00 20.00     0.007 C 
ENDBRANCH   5  10
TORSDOF 2
ENDMDL
MODEL 7
REMARK VINA RESULT:      -3.8      2.251      3.116
REMARK  2 active torsions:
REMARK  status: ('A' for Active; 'I' for Inactive)
REMARK    1  A    between atoms: C4_4  and  C9_9 
REMARK    2  A    between atoms: C5_5  and  C8_8 
ROOT
HETATM    1  C1  UNL     1     -35.441  13.846  -4.165  1.00 20.00     0.032 C 
HETATM    2  C2  UNL     1     -36.285  16.093  -3.427  1.00 20.00     0.038 C 
HETATM    3  C3  UNL     1     -35.992  14.172  -5.549  1.00 20.00     0.168 C 
HETATM    4  C4  UNL     1     -35.107  15.112  -3.365  1.00 20.00     0.008 C 
HETATM    5  C5  UNL     1     -36.786  16.301  -4.860  1.00 20.00     0.121 C 
HETATM    6  O10 UNL     1     -37.118  15.043  -5.455  1.00 20.00    -0.386 OA
ENDROOT
BRANCH   4   7
HETATM    7  C9  UNL     1     -33.805  15.758  -3.846  1.00 20.00     0.082 C 
HETATM    8  C7  UNL     1     -33.183  16.619  -2.763  1.00 20.00     0.027 C 
HETATM    9 CL11 UNL     1     -32.660  14.482  -4.337  1.00 20.00    -0.125 Cl
ENDBRANCH   4   7
BRANCH   5  10
HETATM   10  C8  UNL     1     -38.039  17.167  -4.879  1.00 20.00     0.027 C 
HETATM   11  C6  UNL     1     -39.285  16.345  -4.788  1.00 20.00     0.007 C 
ENDBRANCH   5  10
TORSDOF 2
ENDMDL
MODEL 8
REMARK VINA RESULT:      -3.8      2.755      4.050
REMARK  2 active torsions:
REMARK  status: ('A' for Active; 'I' for Inactive)
REMARK    1  A    between atoms: C4_4  and  C9_9 
REMARK    2  A    between atoms: C5_5  and  C8_8 
ROOT
HETATM    1  C1  UNL     1     -33.943  17.725  -0.783  1.00 20.00     0.032 C 
HETATM    2  C2  UNL     1     -34.990  15.917  -2.177  1.00 20.00     0.038 C 
HETATM    3  C3  UNL     1     -32.951  17.932  -1.922  1.00 20.00     0.168 C 
HETATM    4  C4  UNL     1     -35.268  17.127  -1.274  1.00 20.00     0.008 C 
HETATM    5  C5  UNL     1     -33.940  16.229  -3.248  1.00 20.00     0.121 C 
HETATM    6  O10 UNL     1     -32.741  16.716  -2.639  1.00 20.00    -0.386 OA
ENDROOT
BRANCH   4   7
HETATM    7  C9  UNL     1     -36.134  18.174  -1.980  1.00 20.00     0.082 C 
HETATM    8  C7  UNL     1     -37.233  17.520  -2.798  1.00 20.00     0.027 C 
HETATM    9 CL11 UNL     1     -36.852  19.262  -0.763  1.00 20.00    -0.125 Cl
ENDBRANCH   4   7
BRANCH   5  10
HETATM   10  C8  UNL     1     -33.581  14.977  -4.040  1.00 20.00     0.027 C 
HETATM   11  C6  UNL     1     -34.678  13.962  -4.003  1.00 20.00     0.007 C 
ENDBRANCH   5  10
TORSDOF 2
ENDMDL
MODEL 9
REMARK VINA RESULT:      -3.8      3.025      5.139
REMARK  2 active torsions:
REMARK  status: ('A' for Active; 'I' for Inactive)
REMARK    1  A    between atoms: C4_4  and  C9_9 
REMARK    2  A    between atoms: C5_5  and  C8_8 
ROOT
HETATM    1  C1  UNL     1     -33.497  17.098  -3.655  1.00 20.00     0.032 C 
HETATM    2  C2  UNL     1     -35.697  16.704  -2.510  1.00 20.00     0.038 C 
HETATM    3  C3  UNL     1     -32.871  17.188  -2.268  1.00 20.00     0.168 C 
HETATM    4  C4  UNL     1     -34.780  16.255  -3.655  1.00 20.00     0.008 C 
HETATM    5  C5  UNL     1     -34.946  16.808  -1.179  1.00 20.00     0.121 C 
HETATM    6  O10 UNL     1     -33.815  17.673  -1.315  1.00 20.00    -0.386 OA
ENDROOT
BRANCH   4   7
HETATM    7  C9  UNL     1     -34.472  14.758  -3.582  1.00 20.00     0.082 C 
HETATM    8  C7  UNL     1     -35.597  13.933  -4.179  1.00 20.00     0.027 C 
HETATM    9 CL11 UNL     1     -32.951  14.425  -4.452  1.00 20.00    -0.125 Cl
ENDBRANCH   4   7
BRANCH   5  10
HETATM   10  C8  UNL     1     -35.843  17.387  -0.091  1.00 20.00     0.027 C 
HETATM   11  C6  UNL     1     -35.067  17.756   1.132  1.00 20.00     0.007 C 
ENDBRANCH   5  10
TORSDOF 2
ENDMDL
