MODEL 1
REMARK VINA RESULT:      -4.1      0.000      0.000
REMARK  3 active torsions:
REMARK  status: ('A' for Active; 'I' for Inactive)
REMARK    1  A    between atoms: C5_5  and  S11_11 
REMARK    2  A    between atoms: C8_8  and  C9_9 
REMARK    3  A    between atoms: C9_9  and  S11_11 
ROOT
HETATM    1  C1  UNL     1     -36.044  14.012  -4.816  1.00 20.00     0.080 C 
HETATM    2  C2  UNL     1     -36.312  15.745  -7.263  1.00 20.00     0.009 C 
HETATM    3  C3  UNL     1     -37.224  15.910  -6.028  1.00 20.00     0.037 C 
HETATM    4  C4  UNL     1     -35.096  15.892  -6.311  1.00 20.00     0.014 C 
HETATM    5  C5  UNL     1     -36.038  15.417  -5.157  1.00 20.00     0.100 C 
HETATM    6  C6  UNL     1     -33.869  15.074  -6.675  1.00 20.00     0.012 C 
HETATM    7  N10 UNL     1     -36.048  12.884  -4.542  1.00 20.00    -0.196 NA
ENDROOT
BRANCH   5   8
HETATM    8  S11 UNL     1     -35.829  16.430  -3.646  1.00 20.00    -0.143 SA
BRANCH   8   9
HETATM    9  C9  UNL     1     -34.474  15.494  -2.907  1.00 20.00     0.075 C 
BRANCH   9  10
HETATM   10  C8  UNL     1     -33.143  16.197  -3.151  1.00 20.00     0.006 C 
HETATM   11  C7  UNL     1     -32.942  17.344  -2.169  1.00 20.00     0.006 C 
ENDBRANCH   9  10
ENDBRANCH   8   9
ENDBRANCH   5   8
TORSDOF 3
ENDMDL
MODEL 2
REMARK VINA RESULT:      -4.0      1.109      1.543
REMARK  3 active torsions:
REMARK  status: ('A' for Active; 'I' for Inactive)
REMARK    1  A    between atoms: C5_5  and  S11_11 
REMARK    2  A    between atoms: C8_8  and  C9_9 
REMARK    3  A    between atoms: C9_9  and  S11_11 
ROOT
HETATM    1  C1  UNL     1     -35.824  13.902  -4.678  1.00 20.00     0.080 C 
HETATM    2  C2  UNL     1     -34.009  15.087  -6.767  1.00 20.00     0.009 C 
HETATM    3  C3  UNL     1     -35.457  15.580  -6.552  1.00 20.00     0.037 C 
HETATM    4  C4  UNL     1     -33.761  15.342  -5.257  1.00 20.00     0.014 C 
HETATM    5  C5  UNL     1     -35.305  15.197  -5.056  1.00 20.00     0.100 C 
HETATM    6  C6  UNL     1     -32.812  14.375  -4.570  1.00 20.00     0.012 C 
HETATM    7  N10 UNL     1     -36.242  12.862  -4.374  1.00 20.00    -0.196 NA
ENDROOT
BRANCH   5   8
HETATM    8  S11 UNL     1     -35.972  16.491  -3.945  1.00 20.00    -0.143 SA
BRANCH   8   9
HETATM    9  C9  UNL     1     -35.362  15.816  -2.386  1.00 20.00     0.075 C 
BRANCH   9  10
HETATM   10  C8  UNL     1     -34.663  16.900  -1.572  1.00 20.00     0.006 C 
HETATM   11  C7  UNL     1     -33.271  17.182  -2.119  1.00 20.00     0.006 C 
ENDBRANCH   9  10
ENDBRANCH   8   9
ENDBRANCH   5   8
TORSDOF 3
ENDMDL
MODEL 3
REMARK VINA RESULT:      -3.8      1.603      3.942
REMARK  3 active torsions:
REMARK  status: ('A' for Active; 'I' for Inactive)
REMARK    1  A    between atoms: C5_5  and  S11_11 
REMARK    2  A    between atoms: C8_8  and  C9_9 
REMARK    3  A    between atoms: C9_9  and  S11_11 
ROOT
HETATM    1  C1  UNL     1     -35.397  13.828  -4.567  1.00 20.00     0.080 C 
HETATM    2  C2  UNL     1     -34.404  15.983  -2.715  1.00 20.00     0.009 C 
HETATM    3  C3  UNL     1     -33.472  15.242  -3.699  1.00 20.00     0.037 C 
HETATM    4  C4  UNL     1     -35.310  16.327  -3.927  1.00 20.00     0.014 C 
HETATM    5  C5  UNL     1     -34.690  15.086  -4.647  1.00 20.00     0.100 C 
HETATM    6  C6  UNL     1     -36.802  16.374  -3.644  1.00 20.00     0.012 C 
HETATM    7  N10 UNL     1     -35.965  12.817  -4.504  1.00 20.00    -0.196 NA
ENDROOT
BRANCH   5   8
HETATM    8  S11 UNL     1     -34.257  15.455  -6.387  1.00 20.00    -0.143 SA
BRANCH   8   9
HETATM    9  C9  UNL     1     -35.816  14.948  -7.143  1.00 20.00     0.075 C 
BRANCH   9  10
HETATM   10  C8  UNL     1     -36.698  16.162  -7.412  1.00 20.00     0.006 C 
HETATM   11  C7  UNL     1     -35.870  17.437  -7.474  1.00 20.00     0.006 C 
ENDBRANCH   9  10
ENDBRANCH   8   9
ENDBRANCH   5   8
TORSDOF 3
ENDMDL
MODEL 4
REMARK VINA RESULT:      -3.8      1.848      3.484
REMARK  3 active torsions:
REMARK  status: ('A' for Active; 'I' for Inactive)
REMARK    1  A    between atoms: C5_5  and  S11_11 
REMARK    2  A    between atoms: C8_8  and  C9_9 
REMARK    3  A    between atoms: C9_9  and  S11_11 
ROOT
HETATM    1  C1  UNL     1     -36.257  14.413  -4.754  1.00 20.00     0.080 C 
HETATM    2  C2  UNL     1     -33.319  14.781  -4.209  1.00 20.00     0.009 C 
HETATM    3  C3  UNL     1     -33.907  14.809  -5.637  1.00 20.00     0.037 C 
HETATM    4  C4  UNL     1     -34.345  15.882  -3.830  1.00 20.00     0.014 C 
HETATM    5  C5  UNL     1     -35.215  15.377  -5.027  1.00 20.00     0.100 C 
HETATM    6  C6  UNL     1     -34.891  15.817  -2.414  1.00 20.00     0.012 C 
HETATM    7  N10 UNL     1     -37.095  13.639  -4.535  1.00 20.00    -0.196 NA
ENDROOT
BRANCH   5   8
HETATM    8  S11 UNL     1     -35.886  16.766  -6.014  1.00 20.00    -0.143 SA
BRANCH   8   9
HETATM    9  C9  UNL     1     -37.488  16.903  -5.192  1.00 20.00     0.075 C 
BRANCH   9  10
HETATM   10  C8  UNL     1     -37.457  18.008  -4.143  1.00 20.00     0.006 C 
HETATM   11  C7  UNL     1     -38.182  17.578  -2.874  1.00 20.00     0.006 C 
ENDBRANCH   9  10
ENDBRANCH   8   9
ENDBRANCH   5   8
TORSDOF 3
ENDMDL
MODEL 5
REMARK VINA RESULT:      -3.7      2.370      3.356
REMARK  3 active torsions:
REMARK  status: ('A' for Active; 'I' for Inactive)
REMARK    1  A    between atoms: C5_5  and  S11_11 
REMARK    2  A    between atoms: C8_8  and  C9_9 
REMARK    3  A    between atoms: C9_9  and  S11_11 
ROOT
HETATM    1  C1  UNL     1     -35.216  16.842  -4.397  1.00 20.00     0.080 C 
HETATM    2  C2  UNL     1     -33.424  14.423  -4.390  1.00 20.00     0.009 C 
HETATM    3  C3  UNL     1     -33.088  15.705  -3.598  1.00 20.00     0.037 C 
HETATM    4  C4  UNL     1     -34.794  14.404  -3.660  1.00 20.00     0.014 C 
HETATM    5  C5  UNL     1     -34.613  15.941  -3.441  1.00 20.00     0.100 C 
HETATM    6  C6  UNL     1     -35.969  13.885  -4.471  1.00 20.00     0.012 C 
HETATM    7  N10 UNL     1     -35.702  17.566  -5.165  1.00 20.00    -0.196 NA
ENDROOT
BRANCH   5   8
HETATM    8  S11 UNL     1     -35.057  16.444  -1.737  1.00 20.00    -0.143 SA
BRANCH   8   9
HETATM    9  C9  UNL     1     -34.317  18.090  -1.764  1.00 20.00     0.075 C 
BRANCH   9  10
HETATM   10  C8  UNL     1     -33.314  18.244  -0.627  1.00 20.00     0.006 C 
HETATM   11  C7  UNL     1     -31.887  18.279  -1.157  1.00 20.00     0.006 C 
ENDBRANCH   9  10
ENDBRANCH   8   9
ENDBRANCH   5   8
TORSDOF 3
ENDMDL
MODEL 6
REMARK VINA RESULT:      -3.7      1.435      1.853
REMARK  3 active torsions:
REMARK  status: ('A' for Active; 'I' for Inactive)
REMARK    1  A    between atoms: C5_5  and  S11_11 
REMARK    2  A    between atoms: C8_8  and  C9_9 
REMARK    3  A    between atoms: C9_9  and  S11_11 
ROOT
HETATM    1  C1  UNL     1     -37.542  14.976  -4.476  1.00 20.00     0.080 C 
HETATM    2  C2  UNL     1     -37.750  17.139  -6.560  1.00 20.00     0.009 C 
HETATM    3  C3  UNL     1     -38.173  17.360  -5.091  1.00 20.00     0.037 C 
HETATM    4  C4  UNL     1     -36.368  16.673  -6.028  1.00 20.00     0.014 C 
HETATM    5  C5  UNL     1     -37.086  16.332  -4.682  1.00 20.00     0.100 C 
HETATM    6  C6  UNL     1     -35.689  15.573  -6.827  1.00 20.00     0.012 C 
HETATM    7  N10 UNL     1     -37.907  13.886  -4.311  1.00 20.00    -0.196 NA
ENDROOT
BRANCH   5   8
HETATM    8  S11 UNL     1     -36.119  16.897  -3.233  1.00 20.00    -0.143 SA
BRANCH   8   9
HETATM    9  C9  UNL     1     -35.126  15.407  -3.002  1.00 20.00     0.075 C 
BRANCH   9  10
HETATM   10  C8  UNL     1     -33.667  15.678  -3.353  1.00 20.00     0.006 C 
HETATM   11  C7  UNL     1     -33.137  14.637  -4.330  1.00 20.00     0.006 C 
ENDBRANCH   9  10
ENDBRANCH   8   9
ENDBRANCH   5   8
TORSDOF 3
ENDMDL
MODEL 7
REMARK VINA RESULT:      -3.6      1.838      3.619
REMARK  3 active torsions:
REMARK  status: ('A' for Active; 'I' for Inactive)
REMARK    1  A    between atoms: C5_5  and  S11_11 
REMARK    2  A    between atoms: C8_8  and  C9_9 
REMARK    3  A    between atoms: C9_9  and  S11_11 
ROOT
HETATM    1  C1  UNL     1     -35.859  13.902  -4.587  1.00 20.00     0.080 C 
HETATM    2  C2  UNL     1     -33.660  15.953  -4.437  1.00 20.00     0.009 C 
HETATM    3  C3  UNL     1     -34.440  15.669  -5.739  1.00 20.00     0.037 C 
HETATM    4  C4  UNL     1     -35.027  16.196  -3.742  1.00 20.00     0.014 C 
HETATM    5  C5  UNL     1     -35.666  15.308  -4.859  1.00 20.00     0.100 C 
HETATM    6  C6  UNL     1     -35.114  15.766  -2.288  1.00 20.00     0.012 C 
HETATM    7  N10 UNL     1     -36.014  12.772  -4.368  1.00 20.00    -0.196 NA
ENDROOT
BRANCH   5   8
HETATM    8  S11 UNL     1     -37.214  16.041  -5.508  1.00 20.00    -0.143 SA
BRANCH   8   9
HETATM    9  C9  UNL     1     -38.364  15.234  -4.374  1.00 20.00     0.075 C 
BRANCH   9  10
HETATM   10  C8  UNL     1     -39.283  16.262  -3.723  1.00 20.00     0.006 C 
HETATM   11  C7  UNL     1     -38.491  17.456  -3.209  1.00 20.00     0.006 C 
ENDBRANCH   9  10
ENDBRANCH   8   9
ENDBRANCH   5   8
TORSDOF 3
ENDMDL
MODEL 8
REMARK VINA RESULT:      -3.5      2.203      2.938
REMARK  3 active torsions:
REMARK  status: ('A' for Active; 'I' for Inactive)
REMARK    1  A    between atoms: C5_5  and  S11_11 
REMARK    2  A    between atoms: C8_8  and  C9_9 
REMARK    3  A    between atoms: C9_9  and  S11_11 
ROOT
HETATM    1  C1  UNL     1     -34.370  17.081  -5.512  1.00 20.00     0.080 C 
HETATM    2  C2  UNL     1     -35.559  15.047  -7.385  1.00 20.00     0.009 C 
HETATM    3  C3  UNL     1     -34.046  15.113  -7.088  1.00 20.00     0.037 C 
HETATM    4  C4  UNL     1     -35.795  14.956  -5.854  1.00 20.00     0.014 C 
HETATM    5  C5  UNL     1     -34.404  15.646  -5.675  1.00 20.00     0.100 C 
HETATM    6  C6  UNL     1     -37.052  15.636  -5.337  1.00 20.00     0.012 C 
HETATM    7  N10 UNL     1     -34.343  18.235  -5.380  1.00 20.00    -0.196 NA
ENDROOT
BRANCH   5   8
HETATM    8  S11 UNL     1     -33.408  14.840  -4.366  1.00 20.00    -0.143 SA
BRANCH   8   9
HETATM    9  C9  UNL     1     -33.661  16.072  -3.070  1.00 20.00     0.075 C 
BRANCH   9  10
HETATM   10  C8  UNL     1     -34.938  15.773  -2.292  1.00 20.00     0.006 C 
HETATM   11  C7  UNL     1     -35.162  16.801  -1.192  1.00 20.00     0.006 C 
ENDBRANCH   9  10
ENDBRANCH   8   9
ENDBRANCH   5   8
TORSDOF 3
ENDMDL
MODEL 9
REMARK VINA RESULT:      -3.5      2.471      4.399
REMARK  3 active torsions:
REMARK  status: ('A' for Active; 'I' for Inactive)
REMARK    1  A    between atoms: C5_5  and  S11_11 
REMARK    2  A    between atoms: C8_8  and  C9_9 
REMARK    3  A    between atoms: C9_9  and  S11_11 
ROOT
HETATM    1  C1  UNL     1     -35.255  18.108  -4.050  1.00 20.00     0.080 C 
HETATM    2  C2  UNL     1     -34.653  17.018  -1.310  1.00 20.00     0.009 C 
HETATM    3  C3  UNL     1     -36.068  17.476  -1.726  1.00 20.00     0.037 C 
HETATM    4  C4  UNL     1     -34.651  16.092  -2.555  1.00 20.00     0.014 C 
HETATM    5  C5  UNL     1     -35.716  17.053  -3.177  1.00 20.00     0.100 C 
HETATM    6  C6  UNL     1     -33.307  15.905  -3.237  1.00 20.00     0.012 C 
HETATM    7  N10 UNL     1     -34.886  18.956  -4.753  1.00 20.00    -0.196 NA
ENDROOT
BRANCH   5   8
HETATM    8  S11 UNL     1     -37.084  16.130  -3.972  1.00 20.00    -0.143 SA
BRANCH   8   9
HETATM    9  C9  UNL     1     -36.340  15.947  -5.607  1.00 20.00     0.075 C 
BRANCH   9  10
HETATM   10  C8  UNL     1     -35.801  14.533  -5.793  1.00 20.00     0.006 C 
HETATM   11  C7  UNL     1     -36.258  13.620  -4.663  1.00 20.00     0.006 C 
ENDBRANCH   9  10
ENDBRANCH   8   9
ENDBRANCH   5   8
TORSDOF 3
ENDMDL
