MODEL 1
REMARK VINA RESULT:      -4.2      0.000      0.000
REMARK  1 active torsions:
REMARK  status: ('A' for Active; 'I' for Inactive)
REMARK    1  A    between atoms: C9_9  and  N10_10 
ROOT
HETATM    1  C1  UNL     1     -32.938   9.138   0.107  1.00 20.00     0.013 C 
HETATM    2  C2  UNL     1     -32.609   8.272   0.870  1.00 20.00    -0.087 C 
HETATM    3  C9  UNL     1     -32.201   7.215   1.799  1.00 20.00     0.364 C 
ENDROOT
BRANCH   3   4
HETATM    4  N10 UNL     1     -33.256   6.945   2.764  1.00 20.00     0.100 N 
HETATM    5  C3  UNL     1     -33.575   5.518   2.869  1.00 20.00     0.278 C 
HETATM    6  C5  UNL     1     -34.168   5.346   4.276  1.00 20.00     0.015 C 
HETATM    7  C6  UNL     1     -34.020   6.730   4.930  1.00 20.00     0.015 C 
HETATM    8  C7  UNL     1     -35.617   4.875   4.252  1.00 20.00     0.012 C 
HETATM    9  C4  UNL     1     -32.905   7.379   4.117  1.00 20.00     0.278 C 
HETATM   10  C8  UNL     1     -33.708   6.669   6.417  1.00 20.00     0.012 C 
ENDBRANCH   3   4
TORSDOF 1
ENDMDL
MODEL 2
REMARK VINA RESULT:      -3.9     10.691     11.564
REMARK  1 active torsions:
REMARK  status: ('A' for Active; 'I' for Inactive)
REMARK    1  A    between atoms: C9_9  and  N10_10 
ROOT
HETATM    1  C1  UNL     1     -35.216  17.383   0.942  1.00 20.00     0.013 C 
HETATM    2  C2  UNL     1     -35.400  17.443  -0.242  1.00 20.00    -0.087 C 
HETATM    3  C9  UNL     1     -35.624  17.521  -1.688  1.00 20.00     0.364 C 
ENDROOT
BRANCH   3   4
HETATM    4  N10 UNL     1     -35.421  16.222  -2.310  1.00 20.00     0.100 N 
HETATM    5  C3  UNL     1     -36.235  16.041  -3.517  1.00 20.00     0.278 C 
HETATM    6  C5  UNL     1     -35.477  14.996  -4.352  1.00 20.00     0.015 C 
HETATM    7  C6  UNL     1     -34.175  14.749  -3.573  1.00 20.00     0.015 C 
HETATM    8  C7  UNL     1     -36.275  13.715  -4.560  1.00 20.00     0.012 C 
HETATM    9  C4  UNL     1     -34.034  16.008  -2.725  1.00 20.00     0.278 C 
HETATM   10  C8  UNL     1     -32.970  14.501  -4.467  1.00 20.00     0.012 C 
ENDBRANCH   3   4
TORSDOF 1
ENDMDL
MODEL 3
REMARK VINA RESULT:      -3.9     10.882     11.530
REMARK  1 active torsions:
REMARK  status: ('A' for Active; 'I' for Inactive)
REMARK    1  A    between atoms: C9_9  and  N10_10 
ROOT
HETATM    1  C1  UNL     1     -36.295  13.637  -4.553  1.00 20.00     0.013 C 
HETATM    2  C2  UNL     1     -35.250  14.188  -4.346  1.00 20.00    -0.087 C 
HETATM    3  C9  UNL     1     -33.970  14.857  -4.098  1.00 20.00     0.364 C 
ENDROOT
BRANCH   3   4
HETATM    4  N10 UNL     1     -34.170  16.084  -3.343  1.00 20.00     0.100 N 
HETATM    5  C3  UNL     1     -35.033  15.892  -2.172  1.00 20.00     0.278 C 
HETATM    6  C5  UNL     1     -34.634  17.013  -1.199  1.00 20.00     0.015 C 
HETATM    7  C6  UNL     1     -33.441  17.707  -1.875  1.00 20.00     0.015 C 
HETATM    8  C7  UNL     1     -35.776  17.981  -0.914  1.00 20.00     0.012 C 
HETATM    9  C4  UNL     1     -32.917  16.641  -2.831  1.00 20.00     0.278 C 
HETATM   10  C8  UNL     1     -32.384  18.191  -0.895  1.00 20.00     0.012 C 
ENDBRANCH   3   4
TORSDOF 1
ENDMDL
MODEL 4
REMARK VINA RESULT:      -3.8     10.939     11.752
REMARK  1 active torsions:
REMARK  status: ('A' for Active; 'I' for Inactive)
REMARK    1  A    between atoms: C9_9  and  N10_10 
ROOT
HETATM    1  C1  UNL     1     -34.012  15.120  -6.922  1.00 20.00     0.013 C 
HETATM    2  C2  UNL     1     -34.043  14.914  -5.741  1.00 20.00    -0.087 C 
HETATM    3  C9  UNL     1     -34.078  14.655  -4.299  1.00 20.00     0.364 C 
ENDROOT
BRANCH   3   4
HETATM    4  N10 UNL     1     -34.262  15.895  -3.559  1.00 20.00     0.100 N 
HETATM    5  C3  UNL     1     -35.075  15.716  -2.352  1.00 20.00     0.278 C 
HETATM    6  C5  UNL     1     -34.651  16.860  -1.417  1.00 20.00     0.015 C 
HETATM    7  C6  UNL     1     -33.494  17.554  -2.154  1.00 20.00     0.015 C 
HETATM    8  C7  UNL     1     -35.792  17.821  -1.105  1.00 20.00     0.012 C 
HETATM    9  C4  UNL     1     -32.997  16.475  -3.110  1.00 20.00     0.278 C 
HETATM   10  C8  UNL     1     -32.404  18.069  -1.227  1.00 20.00     0.012 C 
ENDBRANCH   3   4
TORSDOF 1
ENDMDL
MODEL 5
REMARK VINA RESULT:      -3.8     11.055     11.857
REMARK  1 active torsions:
REMARK  status: ('A' for Active; 'I' for Inactive)
REMARK    1  A    between atoms: C9_9  and  N10_10 
ROOT
HETATM    1  C1  UNL     1     -33.036  14.403  -4.525  1.00 20.00     0.013 C 
HETATM    2  C2  UNL     1     -33.808  15.008  -3.834  1.00 20.00    -0.087 C 
HETATM    3  C9  UNL     1     -34.755  15.745  -2.993  1.00 20.00     0.364 C 
ENDROOT
BRANCH   3   4
HETATM    4  N10 UNL     1     -34.059  16.428  -1.913  1.00 20.00     0.100 N 
HETATM    5  C3  UNL     1     -33.014  17.335  -2.399  1.00 20.00     0.278 C 
HETATM    6  C5  UNL     1     -32.850  18.383  -1.286  1.00 20.00     0.015 C 
HETATM    7  C6  UNL     1     -33.949  18.040  -0.268  1.00 20.00     0.015 C 
HETATM    8  C7  UNL     1     -31.461  18.366  -0.661  1.00 20.00     0.012 C 
HETATM    9  C4  UNL     1     -34.954  17.247  -1.096  1.00 20.00     0.278 C 
HETATM   10  C8  UNL     1     -34.565  19.262   0.396  1.00 20.00     0.012 C 
ENDBRANCH   3   4
TORSDOF 1
ENDMDL
MODEL 6
REMARK VINA RESULT:      -3.8     10.932     11.796
REMARK  1 active torsions:
REMARK  status: ('A' for Active; 'I' for Inactive)
REMARK    1  A    between atoms: C9_9  and  N10_10 
ROOT
HETATM    1  C1  UNL     1     -34.602  15.824  -6.473  1.00 20.00     0.013 C 
HETATM    2  C2  UNL     1     -34.174  15.218  -5.530  1.00 20.00    -0.087 C 
HETATM    3  C9  UNL     1     -33.650  14.475  -4.381  1.00 20.00     0.364 C 
ENDROOT
BRANCH   3   4
HETATM    4  N10 UNL     1     -33.698  15.289  -3.177  1.00 20.00     0.100 N 
HETATM    5  C3  UNL     1     -32.999  16.569  -3.332  1.00 20.00     0.278 C 
HETATM    6  C5  UNL     1     -33.655  17.506  -2.306  1.00 20.00     0.015 C 
HETATM    7  C6  UNL     1     -34.807  16.681  -1.710  1.00 20.00     0.015 C 
HETATM    8  C7  UNL     1     -32.681  17.988  -1.239  1.00 20.00     0.012 C 
HETATM    9  C4  UNL     1     -35.066  15.625  -2.779  1.00 20.00     0.278 C 
HETATM   10  C8  UNL     1     -36.042  17.508  -1.386  1.00 20.00     0.012 C 
ENDBRANCH   3   4
TORSDOF 1
ENDMDL
MODEL 7
REMARK VINA RESULT:      -3.7     10.938     11.892
REMARK  1 active torsions:
REMARK  status: ('A' for Active; 'I' for Inactive)
REMARK    1  A    between atoms: C9_9  and  N10_10 
ROOT
HETATM    1  C1  UNL     1     -37.951  17.054  -5.462  1.00 20.00     0.013 C 
HETATM    2  C2  UNL     1     -37.711  16.011  -4.919  1.00 20.00    -0.087 C 
HETATM    3  C9  UNL     1     -37.425  14.735  -4.258  1.00 20.00     0.364 C 
ENDROOT
BRANCH   3   4
HETATM    4  N10 UNL     1     -36.039  14.686  -3.817  1.00 20.00     0.100 N 
HETATM    5  C3  UNL     1     -35.088  14.789  -4.929  1.00 20.00     0.278 C 
HETATM    6  C5  UNL     1     -33.803  15.350  -4.299  1.00 20.00     0.015 C 
HETATM    7  C6  UNL     1     -34.184  15.646  -2.840  1.00 20.00     0.015 C 
HETATM    8  C7  UNL     1     -32.627  14.386  -4.402  1.00 20.00     0.012 C 
HETATM    9  C4  UNL     1     -35.702  15.773  -2.897  1.00 20.00     0.278 C 
HETATM   10  C8  UNL     1     -33.509  16.886  -2.276  1.00 20.00     0.012 C 
ENDBRANCH   3   4
TORSDOF 1
ENDMDL
MODEL 8
REMARK VINA RESULT:      -3.7     10.939     11.917
REMARK  1 active torsions:
REMARK  status: ('A' for Active; 'I' for Inactive)
REMARK    1  A    between atoms: C9_9  and  N10_10 
ROOT
HETATM    1  C1  UNL     1     -35.402  17.234   0.421  1.00 20.00     0.013 C 
HETATM    2  C2  UNL     1     -35.145  17.727  -0.642  1.00 20.00    -0.087 C 
HETATM    3  C9  UNL     1     -34.830  18.336  -1.937  1.00 20.00     0.364 C 
ENDROOT
BRANCH   3   4
HETATM    4  N10 UNL     1     -34.725  17.317  -2.971  1.00 20.00     0.100 N 
HETATM    5  C3  UNL     1     -33.748  16.275  -2.640  1.00 20.00     0.278 C 
HETATM    6  C5  UNL     1     -34.203  15.039  -3.434  1.00 20.00     0.015 C 
HETATM    7  C6  UNL     1     -35.528  15.464  -4.085  1.00 20.00     0.015 C 
HETATM    8  C7  UNL     1     -33.174  14.589  -4.464  1.00 20.00     0.012 C 
HETATM    9  C4  UNL     1     -35.991  16.622  -3.206  1.00 20.00     0.278 C 
HETATM   10  C8  UNL     1     -36.551  14.342  -4.169  1.00 20.00     0.012 C 
ENDBRANCH   3   4
TORSDOF 1
ENDMDL
MODEL 9
REMARK VINA RESULT:      -3.7     10.572     12.176
REMARK  1 active torsions:
REMARK  status: ('A' for Active; 'I' for Inactive)
REMARK    1  A    between atoms: C9_9  and  N10_10 
ROOT
HETATM    1  C1  UNL     1     -31.219  18.506  -0.495  1.00 20.00     0.013 C 
HETATM    2  C2  UNL     1     -32.336  18.188  -0.795  1.00 20.00    -0.087 C 
HETATM    3  C9  UNL     1     -33.703  17.804  -1.157  1.00 20.00     0.364 C 
ENDROOT
BRANCH   3   4
HETATM    4  N10 UNL     1     -33.694  16.841  -2.248  1.00 20.00     0.100 N 
HETATM    5  C3  UNL     1     -34.851  15.941  -2.216  1.00 20.00     0.278 C 
HETATM    6  C5  UNL     1     -35.031  15.477  -3.670  1.00 20.00     0.015 C 
HETATM    7  C6  UNL     1     -33.990  16.281  -4.465  1.00 20.00     0.015 C 
HETATM    8  C7  UNL     1     -34.846  13.973  -3.837  1.00 20.00     0.012 C 
HETATM    9  C4  UNL     1     -33.717  17.480  -3.564  1.00 20.00     0.278 C 
HETATM   10  C8  UNL     1     -34.463  16.682  -5.854  1.00 20.00     0.012 C 
ENDBRANCH   3   4
TORSDOF 1
ENDMDL
