MODEL 1
REMARK VINA RESULT:      -4.3      0.000      0.000
REMARK  3 active torsions:
REMARK  status: ('A' for Active; 'I' for Inactive)
REMARK    1  A    between atoms: C4_4  and  C5_5 
REMARK    2  A    between atoms: C4_4  and  O7_7 
REMARK    3  A    between atoms: C5_5  and  C6_6 
ROOT
HETATM    1  C1  UNL     1     -33.281   5.144   2.340  1.00 20.00     0.014 C 
HETATM    2  C5  UNL     1     -32.971   6.144   3.436  1.00 20.00     0.023 C 
ENDROOT
BRANCH   2   3
HETATM    3  C4  UNL     1     -32.412   7.443   2.834  1.00 20.00     0.172 C 
BRANCH   3   4
HETATM    4  O7  UNL     1     -32.550   7.408   1.416  1.00 20.00    -0.396 OA
HETATM    5  C3  UNL     1     -32.824   8.697   0.889  1.00 20.00     0.201 C 
ENDBRANCH   3   4
ENDBRANCH   2   3
BRANCH   2   6
HETATM    6  C6  UNL     1     -34.177   6.427   4.365  1.00 20.00     0.084 C 
HETATM    7  C2  UNL     1     -33.773   6.828   5.782  1.00 20.00     0.027 C 
HETATM    8 CL8  UNL     1     -35.321   5.051   4.452  1.00 20.00    -0.125 Cl
ENDBRANCH   2   6
TORSDOF 3
ENDMDL
MODEL 2
REMARK VINA RESULT:      -4.2      1.235      1.838
REMARK  3 active torsions:
REMARK  status: ('A' for Active; 'I' for Inactive)
REMARK    1  A    between atoms: C4_4  and  C5_5 
REMARK    2  A    between atoms: C4_4  and  O7_7 
REMARK    3  A    between atoms: C5_5  and  C6_6 
ROOT
HETATM    1  C1  UNL     1     -33.236   7.301   5.200  1.00 20.00     0.014 C 
HETATM    2  C5  UNL     1     -33.964   6.619   4.060  1.00 20.00     0.023 C 
ENDROOT
BRANCH   2   3
HETATM    3  C4  UNL     1     -32.982   6.275   2.928  1.00 20.00     0.172 C 
BRANCH   3   4
HETATM    4  O7  UNL     1     -32.200   7.422   2.613  1.00 20.00    -0.396 OA
HETATM    5  C3  UNL     1     -32.578   7.982   1.364  1.00 20.00     0.201 C 
ENDBRANCH   3   4
ENDBRANCH   2   3
BRANCH   2   6
HETATM    6  C6  UNL     1     -34.769   5.373   4.506  1.00 20.00     0.084 C 
HETATM    7  C2  UNL     1     -34.829   5.197   6.021  1.00 20.00     0.027 C 
HETATM    8 CL8  UNL     1     -34.166   3.858   3.764  1.00 20.00    -0.125 Cl
ENDBRANCH   2   6
TORSDOF 3
ENDMDL
MODEL 3
REMARK VINA RESULT:      -3.9      2.685      3.781
REMARK  3 active torsions:
REMARK  status: ('A' for Active; 'I' for Inactive)
REMARK    1  A    between atoms: C4_4  and  C5_5 
REMARK    2  A    between atoms: C4_4  and  O7_7 
REMARK    3  A    between atoms: C5_5  and  C6_6 
ROOT
HETATM    1  C1  UNL     1     -33.282   4.632   2.595  1.00 20.00     0.014 C 
HETATM    2  C5  UNL     1     -33.553   6.117   2.737  1.00 20.00     0.023 C 
ENDROOT
BRANCH   2   3
HETATM    3  C4  UNL     1     -34.077   6.433   4.148  1.00 20.00     0.172 C 
BRANCH   3   4
HETATM    4  O7  UNL     1     -34.863   5.343   4.619  1.00 20.00    -0.396 OA
HETATM    5  C3  UNL     1     -34.763   5.201   6.028  1.00 20.00     0.201 C 
ENDBRANCH   3   4
ENDBRANCH   2   3
BRANCH   2   6
HETATM    6  C6  UNL     1     -32.334   7.000   2.377  1.00 20.00     0.084 C 
HETATM    7  C2  UNL     1     -31.702   7.688   3.584  1.00 20.00     0.027 C 
HETATM    8 CL8  UNL     1     -32.715   8.233   1.135  1.00 20.00    -0.125 Cl
ENDBRANCH   2   6
TORSDOF 3
ENDMDL
MODEL 4
REMARK VINA RESULT:      -3.6     11.054     11.809
REMARK  3 active torsions:
REMARK  status: ('A' for Active; 'I' for Inactive)
REMARK    1  A    between atoms: C4_4  and  C5_5 
REMARK    2  A    between atoms: C4_4  and  O7_7 
REMARK    3  A    between atoms: C5_5  and  C6_6 
ROOT
HETATM    1  C1  UNL     1     -35.392  14.778  -6.540  1.00 20.00     0.014 C 
HETATM    2  C5  UNL     1     -35.679  14.949  -5.062  1.00 20.00     0.023 C 
ENDROOT
BRANCH   2   3
HETATM    3  C4  UNL     1     -36.229  13.641  -4.469  1.00 20.00     0.172 C 
BRANCH   3   4
HETATM    4  O7  UNL     1     -37.653  13.664  -4.506  1.00 20.00    -0.396 OA
HETATM    5  C3  UNL     1     -38.159  14.958  -4.214  1.00 20.00     0.201 C 
ENDBRANCH   3   4
ENDBRANCH   2   3
BRANCH   2   6
HETATM    6  C6  UNL     1     -34.461  15.465  -4.257  1.00 20.00     0.084 C 
HETATM    7  C2  UNL     1     -33.213  14.603  -4.423  1.00 20.00     0.027 C 
HETATM    8 CL8  UNL     1     -34.815  15.651  -2.511  1.00 20.00    -0.125 Cl
ENDBRANCH   2   6
TORSDOF 3
ENDMDL
MODEL 5
REMARK VINA RESULT:      -3.6     15.903     16.458
REMARK  3 active torsions:
REMARK  status: ('A' for Active; 'I' for Inactive)
REMARK    1  A    between atoms: C4_4  and  C5_5 
REMARK    2  A    between atoms: C4_4  and  O7_7 
REMARK    3  A    between atoms: C5_5  and  C6_6 
ROOT
HETATM    1  C1  UNL     1     -22.065  17.326   8.818  1.00 20.00     0.014 C 
HETATM    2  C5  UNL     1     -22.825  18.378   9.599  1.00 20.00     0.023 C 
ENDROOT
BRANCH   2   3
HETATM    3  C4  UNL     1     -23.969  18.954   8.749  1.00 20.00     0.172 C 
BRANCH   3   4
HETATM    4  O7  UNL     1     -23.782  18.584   7.386  1.00 20.00    -0.396 OA
HETATM    5  C3  UNL     1     -24.692  19.263   6.534  1.00 20.00     0.201 C 
ENDBRANCH   3   4
ENDBRANCH   2   3
BRANCH   2   6
HETATM    6  C6  UNL     1     -23.340  17.872  10.969  1.00 20.00     0.084 C 
HETATM    7  C2  UNL     1     -22.243  17.749  12.024  1.00 20.00     0.027 C 
HETATM    8 CL8  UNL     1     -24.211  16.311  10.846  1.00 20.00    -0.125 Cl
ENDBRANCH   2   6
TORSDOF 3
ENDMDL
MODEL 6
REMARK VINA RESULT:      -3.5      1.223      1.430
REMARK  3 active torsions:
REMARK  status: ('A' for Active; 'I' for Inactive)
REMARK    1  A    between atoms: C4_4  and  C5_5 
REMARK    2  A    between atoms: C4_4  and  O7_7 
REMARK    3  A    between atoms: C5_5  and  C6_6 
ROOT
HETATM    1  C1  UNL     1     -33.384   4.887   2.238  1.00 20.00     0.014 C 
HETATM    2  C5  UNL     1     -33.049   5.781   3.414  1.00 20.00     0.023 C 
ENDROOT
BRANCH   2   3
HETATM    3  C4  UNL     1     -32.986   7.251   2.968  1.00 20.00     0.172 C 
BRANCH   3   4
HETATM    4  O7  UNL     1     -32.303   7.341   1.722  1.00 20.00    -0.396 OA
HETATM    5  C3  UNL     1     -32.777   8.432   0.948  1.00 20.00     0.201 C 
ENDBRANCH   3   4
ENDBRANCH   2   3
BRANCH   2   6
HETATM    6  C6  UNL     1     -34.007   5.597   4.617  1.00 20.00     0.084 C 
HETATM    7  C2  UNL     1     -35.467   5.418   4.210  1.00 20.00     0.027 C 
HETATM    8 CL8  UNL     1     -33.889   6.932   5.805  1.00 20.00    -0.125 Cl
ENDBRANCH   2   6
TORSDOF 3
ENDMDL
MODEL 7
REMARK VINA RESULT:      -3.5     11.101     11.813
REMARK  3 active torsions:
REMARK  status: ('A' for Active; 'I' for Inactive)
REMARK    1  A    between atoms: C4_4  and  C5_5 
REMARK    2  A    between atoms: C4_4  and  O7_7 
REMARK    3  A    between atoms: C5_5  and  C6_6 
ROOT
HETATM    1  C1  UNL     1     -35.280  16.169  -5.572  1.00 20.00     0.014 C 
HETATM    2  C5  UNL     1     -35.809  15.319  -4.435  1.00 20.00     0.023 C 
ENDROOT
BRANCH   2   3
HETATM    3  C4  UNL     1     -36.338  13.978  -4.970  1.00 20.00     0.172 C 
BRANCH   3   4
HETATM    4  O7  UNL     1     -37.589  13.681  -4.355  1.00 20.00    -0.396 OA
HETATM    5  C3  UNL     1     -38.421  14.830  -4.292  1.00 20.00     0.201 C 
ENDBRANCH   3   4
ENDBRANCH   2   3
BRANCH   2   6
HETATM    6  C6  UNL     1     -34.780  15.106  -3.298  1.00 20.00     0.084 C 
HETATM    7  C2  UNL     1     -35.004  16.020  -2.096  1.00 20.00     0.027 C 
HETATM    8 CL8  UNL     1     -33.087  15.280  -3.856  1.00 20.00    -0.125 Cl
ENDBRANCH   2   6
TORSDOF 3
ENDMDL
MODEL 8
REMARK VINA RESULT:      -3.4     11.001     11.531
REMARK  3 active torsions:
REMARK  status: ('A' for Active; 'I' for Inactive)
REMARK    1  A    between atoms: C4_4  and  C5_5 
REMARK    2  A    between atoms: C4_4  and  O7_7 
REMARK    3  A    between atoms: C5_5  and  C6_6 
ROOT
HETATM    1  C1  UNL     1     -36.041  14.620  -3.865  1.00 20.00     0.014 C 
HETATM    2  C5  UNL     1     -34.622  14.923  -3.427  1.00 20.00     0.023 C 
ENDROOT
BRANCH   2   3
HETATM    3  C4  UNL     1     -33.642  14.691  -4.589  1.00 20.00     0.172 C 
BRANCH   3   4
HETATM    4  O7  UNL     1     -34.370  14.344  -5.763  1.00 20.00    -0.396 OA
HETATM    5  C3  UNL     1     -33.941  15.105  -6.883  1.00 20.00     0.201 C 
ENDBRANCH   3   4
ENDBRANCH   2   3
BRANCH   2   6
HETATM    6  C6  UNL     1     -34.457  16.340  -2.824  1.00 20.00     0.084 C 
HETATM    7  C2  UNL     1     -33.005  16.808  -2.759  1.00 20.00     0.027 C 
HETATM    8 CL8  UNL     1     -35.192  16.490  -1.198  1.00 20.00    -0.125 Cl
ENDBRANCH   2   6
TORSDOF 3
ENDMDL
MODEL 9
REMARK VINA RESULT:      -3.3     11.245     11.687
REMARK  3 active torsions:
REMARK  status: ('A' for Active; 'I' for Inactive)
REMARK    1  A    between atoms: C4_4  and  C5_5 
REMARK    2  A    between atoms: C4_4  and  O7_7 
REMARK    3  A    between atoms: C5_5  and  C6_6 
ROOT
HETATM    1  C1  UNL     1     -35.205  16.309  -1.548  1.00 20.00     0.014 C 
HETATM    2  C5  UNL     1     -35.037  15.585  -2.868  1.00 20.00     0.023 C 
ENDROOT
BRANCH   2   3
HETATM    3  C4  UNL     1     -36.313  15.715  -3.717  1.00 20.00     0.172 C 
BRANCH   3   4
HETATM    4  O7  UNL     1     -36.972  14.454  -3.782  1.00 20.00    -0.396 OA
HETATM    5  C3  UNL     1     -36.336  13.583  -4.705  1.00 20.00     0.201 C 
ENDBRANCH   3   4
ENDBRANCH   2   3
BRANCH   2   6
HETATM    6  C6  UNL     1     -33.785  16.035  -3.660  1.00 20.00     0.084 C 
HETATM    7  C2  UNL     1     -32.946  14.873  -4.186  1.00 20.00     0.027 C 
HETATM    8 CL8  UNL     1     -32.732  17.137  -2.719  1.00 20.00    -0.125 Cl
ENDBRANCH   2   6
TORSDOF 3
ENDMDL
