MODEL 1
REMARK VINA RESULT:      -4.9      0.000      0.000
REMARK  1 active torsions:
REMARK  status: ('A' for Active; 'I' for Inactive)
REMARK    1  A    between atoms: C1_1  and  C7_7 
ROOT
HETATM    1  C2  UNL     1     -34.086  15.803  -2.781  1.00 20.00     0.002 C 
HETATM    2  C3  UNL     1     -33.872  14.728  -3.846  1.00 20.00     0.012 C 
HETATM    3  C4  UNL     1     -35.469  16.056  -5.427  1.00 20.00     0.013 C 
HETATM    4  C5  UNL     1     -33.445  17.142  -3.152  1.00 20.00     0.008 C 
HETATM    5  C6  UNL     1     -34.447  17.189  -5.533  1.00 20.00     0.009 C 
HETATM    6  C7  UNL     1     -34.902  14.710  -4.976  1.00 20.00     0.055 C 
HETATM    7  C8  UNL     1     -34.160  17.984  -4.234  1.00 20.00    -0.048 C 
HETATM    8  C10 UNL     1     -33.218  19.155  -4.606  1.00 20.00     0.015 C 
HETATM    9  C11 UNL     1     -35.448  18.604  -3.657  1.00 20.00     0.015 C 
ENDROOT
BRANCH   6  10
HETATM   10  C1  UNL     1     -36.052  13.827  -4.589  1.00 20.00     0.127 C 
HETATM   11  C9  UNL     1     -37.371  14.505  -4.331  1.00 20.00     0.091 C 
HETATM   12  O12 UNL     1     -35.925  12.607  -4.489  1.00 20.00    -0.298 OA
ENDBRANCH   6  10
TORSDOF 1
ENDMDL
MODEL 2
REMARK VINA RESULT:      -4.6      1.843      2.957
REMARK  1 active torsions:
REMARK  status: ('A' for Active; 'I' for Inactive)
REMARK    1  A    between atoms: C1_1  and  C7_7 
ROOT
HETATM    1  C2  UNL     1     -35.655  15.996  -2.533  1.00 20.00     0.002 C 
HETATM    2  C3  UNL     1     -34.616  15.034  -3.106  1.00 20.00     0.012 C 
HETATM    3  C4  UNL     1     -33.133  17.091  -3.722  1.00 20.00     0.013 C 
HETATM    4  C5  UNL     1     -35.180  16.689  -1.254  1.00 20.00     0.008 C 
HETATM    5  C6  UNL     1     -32.896  17.384  -2.240  1.00 20.00     0.009 C 
HETATM    6  C7  UNL     1     -33.581  15.664  -4.039  1.00 20.00     0.055 C 
HETATM    7  C8  UNL     1     -34.135  17.816  -1.415  1.00 20.00    -0.048 C 
HETATM    8  C10 UNL     1     -33.639  18.194   0.002  1.00 20.00     0.015 C 
HETATM    9  C11 UNL     1     -34.799  19.073  -2.013  1.00 20.00     0.015 C 
ENDROOT
BRANCH   6  10
HETATM   10  C1  UNL     1     -34.100  15.642  -5.448  1.00 20.00     0.127 C 
HETATM   11  C9  UNL     1     -34.544  16.958  -6.028  1.00 20.00     0.091 C 
HETATM   12  O12 UNL     1     -34.159  14.599  -6.098  1.00 20.00    -0.298 OA
ENDBRANCH   6  10
TORSDOF 1
ENDMDL
MODEL 3
REMARK VINA RESULT:      -4.6      1.415      2.100
REMARK  1 active torsions:
REMARK  status: ('A' for Active; 'I' for Inactive)
REMARK    1  A    between atoms: C1_1  and  C7_7 
ROOT
HETATM    1  C2  UNL     1     -34.711  14.481  -3.774  1.00 20.00     0.002 C 
HETATM    2  C3  UNL     1     -35.549  14.764  -5.020  1.00 20.00     0.012 C 
HETATM    3  C4  UNL     1     -36.586  16.817  -3.788  1.00 20.00     0.013 C 
HETATM    4  C5  UNL     1     -33.630  15.536  -3.533  1.00 20.00     0.008 C 
HETATM    5  C6  UNL     1     -35.238  17.538  -3.820  1.00 20.00     0.009 C 
HETATM    6  C7  UNL     1     -36.746  15.692  -4.810  1.00 20.00     0.055 C 
HETATM    7  C8  UNL     1     -34.096  16.904  -2.985  1.00 20.00    -0.048 C 
HETATM    8  C10 UNL     1     -32.885  17.867  -3.050  1.00 20.00     0.015 C 
HETATM    9  C11 UNL     1     -34.491  16.772  -1.500  1.00 20.00     0.015 C 
ENDROOT
BRANCH   6  10
HETATM   10  C1  UNL     1     -37.946  14.878  -4.421  1.00 20.00     0.127 C 
HETATM   11  C9  UNL     1     -39.197  15.638  -4.074  1.00 20.00     0.091 C 
HETATM   12  O12 UNL     1     -37.910  13.648  -4.389  1.00 20.00    -0.298 OA
ENDBRANCH   6  10
TORSDOF 1
ENDMDL
MODEL 4
REMARK VINA RESULT:      -4.5      1.203      2.026
REMARK  1 active torsions:
REMARK  status: ('A' for Active; 'I' for Inactive)
REMARK    1  A    between atoms: C1_1  and  C7_7 
ROOT
HETATM    1  C2  UNL     1     -35.930  16.904  -3.271  1.00 20.00     0.002 C 
HETATM    2  C3  UNL     1     -35.760  15.465  -2.786  1.00 20.00     0.012 C 
HETATM    3  C4  UNL     1     -33.531  15.332  -4.136  1.00 20.00     0.013 C 
HETATM    4  C5  UNL     1     -34.902  17.860  -2.663  1.00 20.00     0.008 C 
HETATM    5  C6  UNL     1     -32.880  16.343  -3.192  1.00 20.00     0.009 C 
HETATM    6  C7  UNL     1     -34.762  14.618  -3.577  1.00 20.00     0.055 C 
HETATM    7  C8  UNL     1     -33.460  17.780  -3.212  1.00 20.00    -0.048 C 
HETATM    8  C10 UNL     1     -32.566  18.653  -2.298  1.00 20.00     0.015 C 
HETATM    9  C11 UNL     1     -33.397  18.392  -4.626  1.00 20.00     0.015 C 
ENDROOT
BRANCH   6  10
HETATM   10  C1  UNL     1     -35.470  13.948  -4.719  1.00 20.00     0.127 C 
HETATM   11  C9  UNL     1     -35.484  14.682  -6.032  1.00 20.00     0.091 C 
HETATM   12  O12 UNL     1     -36.011  12.851  -4.588  1.00 20.00    -0.298 OA
ENDBRANCH   6  10
TORSDOF 1
ENDMDL
MODEL 5
REMARK VINA RESULT:      -4.5      1.663      3.007
REMARK  1 active torsions:
REMARK  status: ('A' for Active; 'I' for Inactive)
REMARK    1  A    between atoms: C1_1  and  C7_7 
ROOT
HETATM    1  C2  UNL     1     -35.580  17.659  -4.665  1.00 20.00     0.002 C 
HETATM    2  C3  UNL     1     -36.542  16.511  -4.964  1.00 20.00     0.012 C 
HETATM    3  C4  UNL     1     -34.781  14.854  -3.984  1.00 20.00     0.013 C 
HETATM    4  C5  UNL     1     -35.410  17.917  -3.167  1.00 20.00     0.008 C 
HETATM    5  C6  UNL     1     -34.989  15.435  -2.585  1.00 20.00     0.009 C 
HETATM    6  C7  UNL     1     -35.918  15.116  -4.972  1.00 20.00     0.055 C 
HETATM    7  C8  UNL     1     -34.548  16.906  -2.376  1.00 20.00    -0.048 C 
HETATM    8  C10 UNL     1     -34.716  17.231  -0.872  1.00 20.00     0.015 C 
HETATM    9  C11 UNL     1     -33.057  17.101  -2.718  1.00 20.00     0.015 C 
ENDROOT
BRANCH   6  10
HETATM   10  C1  UNL     1     -35.416  14.801  -6.352  1.00 20.00     0.127 C 
HETATM   11  C9  UNL     1     -33.943  14.985  -6.596  1.00 20.00     0.091 C 
HETATM   12  O12 UNL     1     -36.172  14.410  -7.241  1.00 20.00    -0.298 OA
ENDBRANCH   6  10
TORSDOF 1
ENDMDL
MODEL 6
REMARK VINA RESULT:      -4.4      1.429      1.911
REMARK  1 active torsions:
REMARK  status: ('A' for Active; 'I' for Inactive)
REMARK    1  A    between atoms: C1_1  and  C7_7 
ROOT
HETATM    1  C2  UNL     1     -33.575  15.347  -3.517  1.00 20.00     0.002 C 
HETATM    2  C3  UNL     1     -34.030  15.637  -4.946  1.00 20.00     0.012 C 
HETATM    3  C4  UNL     1     -36.209  16.699  -3.978  1.00 20.00     0.013 C 
HETATM    4  C5  UNL     1     -33.226  16.616  -2.737  1.00 20.00     0.008 C 
HETATM    5  C6  UNL     1     -35.401  17.852  -3.382  1.00 20.00     0.009 C 
HETATM    6  C7  UNL     1     -35.520  15.940  -5.113  1.00 20.00     0.055 C 
HETATM    7  C8  UNL     1     -34.407  17.486  -2.250  1.00 20.00    -0.048 C 
HETATM    8  C10 UNL     1     -33.815  18.810  -1.708  1.00 20.00     0.015 C 
HETATM    9  C11 UNL     1     -35.124  16.795  -1.073  1.00 20.00     0.015 C 
ENDROOT
BRANCH   6  10
HETATM   10  C1  UNL     1     -36.268  14.659  -5.337  1.00 20.00     0.127 C 
HETATM   11  C9  UNL     1     -37.383  14.347  -4.375  1.00 20.00     0.091 C 
HETATM   12  O12 UNL     1     -35.986  13.900  -6.264  1.00 20.00    -0.298 OA
ENDBRANCH   6  10
TORSDOF 1
ENDMDL
MODEL 7
REMARK VINA RESULT:      -4.3      1.691      3.080
REMARK  1 active torsions:
REMARK  status: ('A' for Active; 'I' for Inactive)
REMARK    1  A    between atoms: C1_1  and  C7_7 
ROOT
HETATM    1  C2  UNL     1     -34.074  18.079  -4.347  1.00 20.00     0.002 C 
HETATM    2  C3  UNL     1     -35.226  17.115  -4.627  1.00 20.00     0.012 C 
HETATM    3  C4  UNL     1     -34.457  15.689  -2.582  1.00 20.00     0.013 C 
HETATM    4  C5  UNL     1     -34.271  18.880  -3.058  1.00 20.00     0.008 C 
HETATM    5  C6  UNL     1     -34.861  16.812  -1.626  1.00 20.00     0.009 C 
HETATM    6  C7  UNL     1     -35.111  15.743  -3.962  1.00 20.00     0.055 C 
HETATM    7  C8  UNL     1     -34.048  18.129  -1.726  1.00 20.00    -0.048 C 
HETATM    8  C10 UNL     1     -34.530  19.058  -0.584  1.00 20.00     0.015 C 
HETATM    9  C11 UNL     1     -32.543  17.879  -1.503  1.00 20.00     0.015 C 
ENDROOT
BRANCH   6  10
HETATM   10  C1  UNL     1     -34.362  14.810  -4.869  1.00 20.00     0.127 C 
HETATM   11  C9  UNL     1     -32.962  14.444  -4.457  1.00 20.00     0.091 C 
HETATM   12  O12 UNL     1     -34.868  14.364  -5.898  1.00 20.00    -0.298 OA
ENDBRANCH   6  10
TORSDOF 1
ENDMDL
MODEL 8
REMARK VINA RESULT:      -4.2      3.772      5.609
REMARK  1 active torsions:
REMARK  status: ('A' for Active; 'I' for Inactive)
REMARK    1  A    between atoms: C1_1  and  C7_7 
ROOT
HETATM    1  C2  UNL     1     -34.618  17.469   0.039  1.00 20.00     0.002 C 
HETATM    2  C3  UNL     1     -33.917  18.826   0.065  1.00 20.00     0.012 C 
HETATM    3  C4  UNL     1     -32.623  18.136  -2.093  1.00 20.00     0.013 C 
HETATM    4  C5  UNL     1     -35.599  17.330  -1.126  1.00 20.00     0.008 C 
HETATM    5  C6  UNL     1     -33.921  18.169  -2.901  1.00 20.00     0.009 C 
HETATM    6  C7  UNL     1     -32.651  18.927  -0.786  1.00 20.00     0.055 C 
HETATM    7  C8  UNL     1     -34.992  17.112  -2.530  1.00 20.00    -0.048 C 
HETATM    8  C10 UNL     1     -36.144  17.239  -3.558  1.00 20.00     0.015 C 
HETATM    9  C11 UNL     1     -34.435  15.679  -2.650  1.00 20.00     0.015 C 
ENDROOT
BRANCH   6  10
HETATM   10  C1  UNL     1     -31.463  18.512   0.034  1.00 20.00     0.127 C 
HETATM   11  C9  UNL     1     -31.622  18.563   1.530  1.00 20.00     0.091 C 
HETATM   12  O12 UNL     1     -30.412  18.146  -0.491  1.00 20.00    -0.298 OA
ENDBRANCH   6  10
TORSDOF 1
ENDMDL
MODEL 9
REMARK VINA RESULT:      -4.2      2.474      4.149
REMARK  1 active torsions:
REMARK  status: ('A' for Active; 'I' for Inactive)
REMARK    1  A    between atoms: C1_1  and  C7_7 
ROOT
HETATM    1  C2  UNL     1     -34.446  17.836  -4.489  1.00 20.00     0.002 C 
HETATM    2  C3  UNL     1     -33.299  17.375  -3.590  1.00 20.00     0.012 C 
HETATM    3  C4  UNL     1     -34.884  15.557  -2.595  1.00 20.00     0.013 C 
HETATM    4  C5  UNL     1     -34.800  16.815  -5.571  1.00 20.00     0.008 C 
HETATM    5  C6  UNL     1     -34.905  14.819  -3.934  1.00 20.00     0.009 C 
HETATM    6  C7  UNL     1     -33.707  16.511  -2.397  1.00 20.00     0.055 C 
HETATM    7  C8  UNL     1     -35.577  15.557  -5.120  1.00 20.00    -0.048 C 
HETATM    8  C10 UNL     1     -35.609  14.577  -6.318  1.00 20.00     0.015 C 
HETATM    9  C11 UNL     1     -37.039  15.926  -4.797  1.00 20.00     0.015 C 
ENDROOT
BRANCH   6  10
HETATM   10  C1  UNL     1     -34.017  17.395  -1.223  1.00 20.00     0.127 C 
HETATM   11  C9  UNL     1     -35.306  17.127  -0.495  1.00 20.00     0.091 C 
HETATM   12  O12 UNL     1     -33.254  18.294  -0.872  1.00 20.00    -0.298 OA
ENDBRANCH   6  10
TORSDOF 1
ENDMDL
