MODEL 1
REMARK VINA RESULT:      -4.5      0.000      0.000
REMARK  1 active torsions:
REMARK  status: ('A' for Active; 'I' for Inactive)
REMARK    1  A    between atoms: C6_6  and  C10_10 
ROOT
HETATM    1  C1  UNL     1     -32.936  15.346  -3.860  1.00 20.00     0.001 C 
HETATM    2  C2  UNL     1     -33.106  16.641  -3.071  1.00 20.00     0.005 C 
HETATM    3  C3  UNL     1     -35.591  16.856  -2.588  1.00 20.00     0.006 C 
HETATM    4  C4  UNL     1     -34.117  14.386  -3.970  1.00 20.00     0.008 C 
HETATM    5  C5  UNL     1     -36.219  15.616  -3.220  1.00 20.00     0.009 C 
HETATM    6  C6  UNL     1     -34.191  16.649  -1.988  1.00 20.00    -0.005 C 
HETATM    7  C7  UNL     1     -35.484  14.955  -4.408  1.00 20.00    -0.048 C 
HETATM    8  C8  UNL     1     -35.364  15.913  -5.605  1.00 20.00     0.015 C 
HETATM    9  C9  UNL     1     -36.358  13.757  -4.862  1.00 20.00     0.015 C 
ENDROOT
BRANCH   6  10
HETATM   10  C10 UNL     1     -33.902  17.791  -1.003  1.00 20.00     0.089 C 
HETATM   11 BR11 UNL     1     -32.049  18.326  -1.174  1.00 20.00    -0.096 Br
ENDBRANCH   6  10
TORSDOF 1
ENDMDL
MODEL 2
REMARK VINA RESULT:      -4.2      2.433      4.500
REMARK  1 active torsions:
REMARK  status: ('A' for Active; 'I' for Inactive)
REMARK    1  A    between atoms: C6_6  and  C10_10 
ROOT
HETATM    1  C1  UNL     1     -35.904  17.053  -1.890  1.00 20.00     0.001 C 
HETATM    2  C2  UNL     1     -36.117  16.174  -3.120  1.00 20.00     0.005 C 
HETATM    3  C3  UNL     1     -33.802  15.631  -4.012  1.00 20.00     0.006 C 
HETATM    4  C4  UNL     1     -34.496  17.206  -1.324  1.00 20.00     0.008 C 
HETATM    5  C5  UNL     1     -32.841  16.334  -3.056  1.00 20.00     0.009 C 
HETATM    6  C6  UNL     1     -35.080  15.073  -3.365  1.00 20.00    -0.005 C 
HETATM    7  C7  UNL     1     -33.354  17.578  -2.296  1.00 20.00    -0.048 C 
HETATM    8  C8  UNL     1     -33.749  18.709  -3.259  1.00 20.00     0.015 C 
HETATM    9  C9  UNL     1     -32.170  18.096  -1.439  1.00 20.00     0.015 C 
ENDROOT
BRANCH   6  10
HETATM   10  C10 UNL     1     -35.688  14.019  -4.302  1.00 20.00     0.089 C 
HETATM   11 BR11 UNL     1     -35.661  14.688  -6.118  1.00 20.00    -0.096 Br
ENDBRANCH   6  10
TORSDOF 1
ENDMDL
MODEL 3
REMARK VINA RESULT:      -4.2      1.920      2.764
REMARK  1 active torsions:
REMARK  status: ('A' for Active; 'I' for Inactive)
REMARK    1  A    between atoms: C6_6  and  C10_10 
ROOT
HETATM    1  C1  UNL     1     -32.553  18.198  -2.302  1.00 20.00     0.001 C 
HETATM    2  C2  UNL     1     -33.280  18.921  -1.172  1.00 20.00     0.005 C 
HETATM    3  C3  UNL     1     -35.248  17.446  -0.537  1.00 20.00     0.006 C 
HETATM    4  C4  UNL     1     -32.936  16.757  -2.626  1.00 20.00     0.008 C 
HETATM    5  C5  UNL     1     -35.145  16.238  -1.465  1.00 20.00     0.009 C 
HETATM    6  C6  UNL     1     -33.906  18.042  -0.083  1.00 20.00    -0.005 C 
HETATM    7  C7  UNL     1     -34.431  16.424  -2.823  1.00 20.00    -0.048 C 
HETATM    8  C8  UNL     1     -35.150  17.459  -3.704  1.00 20.00     0.015 C 
HETATM    9  C9  UNL     1     -34.507  15.061  -3.557  1.00 20.00     0.015 C 
ENDROOT
BRANCH   6  10
HETATM   10  C10 UNL     1     -34.143  18.898   1.170  1.00 20.00     0.089 C 
HETATM   11 BR11 UNL     1     -33.190  18.119   2.663  1.00 20.00    -0.096 Br
ENDBRANCH   6  10
TORSDOF 1
ENDMDL
MODEL 4
REMARK VINA RESULT:      -4.1      2.561      4.343
REMARK  1 active torsions:
REMARK  status: ('A' for Active; 'I' for Inactive)
REMARK    1  A    between atoms: C6_6  and  C10_10 
ROOT
HETATM    1  C1  UNL     1     -34.824  18.137  -4.609  1.00 20.00     0.001 C 
HETATM    2  C2  UNL     1     -34.563  16.946  -5.527  1.00 20.00     0.005 C 
HETATM    3  C3  UNL     1     -34.679  14.878  -4.056  1.00 20.00     0.006 C 
HETATM    4  C4  UNL     1     -35.319  17.882  -3.189  1.00 20.00     0.008 C 
HETATM    5  C5  UNL     1     -34.987  15.411  -2.659  1.00 20.00     0.009 C 
HETATM    6  C6  UNL     1     -35.328  15.655  -5.213  1.00 20.00    -0.005 C 
HETATM    7  C7  UNL     1     -34.556  16.856  -2.321  1.00 20.00    -0.048 C 
HETATM    8  C8  UNL     1     -33.031  17.029  -2.413  1.00 20.00     0.015 C 
HETATM    9  C9  UNL     1     -34.960  17.109  -0.846  1.00 20.00     0.015 C 
ENDROOT
BRANCH   6  10
HETATM   10  C10 UNL     1     -35.334  14.765  -6.464  1.00 20.00     0.089 C 
HETATM   11 BR11 UNL     1     -34.068  15.463  -7.750  1.00 20.00    -0.096 Br
ENDBRANCH   6  10
TORSDOF 1
ENDMDL
MODEL 5
REMARK VINA RESULT:      -4.0     11.497     13.516
REMARK  1 active torsions:
REMARK  status: ('A' for Active; 'I' for Inactive)
REMARK    1  A    between atoms: C6_6  and  C10_10 
ROOT
HETATM    1  C1  UNL     1     -41.821   5.505   0.794  1.00 20.00     0.001 C 
HETATM    2  C2  UNL     1     -42.811   4.837  -0.157  1.00 20.00     0.005 C 
HETATM    3  C3  UNL     1     -43.399   6.580  -1.908  1.00 20.00     0.006 C 
HETATM    4  C4  UNL     1     -41.224   6.855   0.410  1.00 20.00     0.008 C 
HETATM    5  C5  UNL     1     -42.585   7.812  -1.520  1.00 20.00     0.009 C 
HETATM    6  C6  UNL     1     -42.717   5.230  -1.635  1.00 20.00    -0.005 C 
HETATM    7  C7  UNL     1     -42.184   7.979  -0.037  1.00 20.00    -0.048 C 
HETATM    8  C8  UNL     1     -43.416   8.095   0.875  1.00 20.00     0.015 C 
HETATM    9  C9  UNL     1     -41.407   9.317   0.066  1.00 20.00     0.015 C 
ENDROOT
BRANCH   6  10
HETATM   10  C10 UNL     1     -43.405   4.149  -2.482  1.00 20.00     0.089 C 
HETATM   11 BR11 UNL     1     -42.062   2.967  -3.221  1.00 20.00    -0.096 Br
ENDBRANCH   6  10
TORSDOF 1
ENDMDL
MODEL 6
REMARK VINA RESULT:      -4.0      2.639      4.347
REMARK  1 active torsions:
REMARK  status: ('A' for Active; 'I' for Inactive)
REMARK    1  A    between atoms: C6_6  and  C10_10 
ROOT
HETATM    1  C1  UNL     1     -34.140  14.380  -4.113  1.00 20.00     0.001 C 
HETATM    2  C2  UNL     1     -35.389  14.699  -4.930  1.00 20.00     0.005 C 
HETATM    3  C3  UNL     1     -35.744  17.207  -4.731  1.00 20.00     0.006 C 
HETATM    4  C4  UNL     1     -33.274  15.529  -3.607  1.00 20.00     0.008 C 
HETATM    5  C5  UNL     1     -34.595  17.694  -3.853  1.00 20.00     0.009 C 
HETATM    6  C6  UNL     1     -35.401  16.040  -5.672  1.00 20.00    -0.005 C 
HETATM    7  C7  UNL     1     -33.964  16.692  -2.860  1.00 20.00    -0.048 C 
HETATM    8  C8  UNL     1     -34.987  16.198  -1.825  1.00 20.00     0.015 C 
HETATM    9  C9  UNL     1     -32.862  17.462  -2.088  1.00 20.00     0.015 C 
ENDROOT
BRANCH   6  10
HETATM   10  C10 UNL     1     -36.454  15.980  -6.789  1.00 20.00     0.089 C 
HETATM   11 BR11 UNL     1     -38.133  16.672  -6.120  1.00 20.00    -0.096 Br
ENDBRANCH   6  10
TORSDOF 1
ENDMDL
MODEL 7
REMARK VINA RESULT:      -4.0      1.175      2.378
REMARK  1 active torsions:
REMARK  status: ('A' for Active; 'I' for Inactive)
REMARK    1  A    between atoms: C6_6  and  C10_10 
ROOT
HETATM    1  C1  UNL     1     -36.384  16.554  -3.248  1.00 20.00     0.001 C 
HETATM    2  C2  UNL     1     -35.167  16.613  -2.328  1.00 20.00     0.005 C 
HETATM    3  C3  UNL     1     -33.230  15.638  -3.653  1.00 20.00     0.006 C 
HETATM    4  C4  UNL     1     -36.183  16.211  -4.720  1.00 20.00     0.008 C 
HETATM    5  C5  UNL     1     -33.830  15.273  -5.008  1.00 20.00     0.009 C 
HETATM    6  C6  UNL     1     -33.816  16.898  -2.994  1.00 20.00    -0.005 C 
HETATM    7  C7  UNL     1     -35.343  14.963  -5.073  1.00 20.00    -0.048 C 
HETATM    8  C8  UNL     1     -35.711  13.746  -4.208  1.00 20.00     0.015 C 
HETATM    9  C9  UNL     1     -35.660  14.595  -6.545  1.00 20.00     0.015 C 
ENDROOT
BRANCH   6  10
HETATM   10  C10 UNL     1     -32.832  17.400  -1.926  1.00 20.00     0.089 C 
HETATM   11 BR11 UNL     1     -33.827  18.148  -0.445  1.00 20.00    -0.096 Br
ENDBRANCH   6  10
TORSDOF 1
ENDMDL
MODEL 8
REMARK VINA RESULT:      -3.9      2.087      2.539
REMARK  1 active torsions:
REMARK  status: ('A' for Active; 'I' for Inactive)
REMARK    1  A    between atoms: C6_6  and  C10_10 
ROOT
HETATM    1  C1  UNL     1     -32.774  17.660  -2.342  1.00 20.00     0.001 C 
HETATM    2  C2  UNL     1     -33.988  18.099  -1.528  1.00 20.00     0.005 C 
HETATM    3  C3  UNL     1     -35.847  16.460  -2.090  1.00 20.00     0.006 C 
HETATM    4  C4  UNL     1     -32.809  16.313  -3.057  1.00 20.00     0.008 C 
HETATM    5  C5  UNL     1     -35.220  15.486  -3.084  1.00 20.00     0.009 C 
HETATM    6  C6  UNL     1     -34.899  16.985  -0.999  1.00 20.00    -0.005 C 
HETATM    7  C7  UNL     1     -34.033  15.984  -3.939  1.00 20.00    -0.048 C 
HETATM    8  C8  UNL     1     -34.438  17.162  -4.841  1.00 20.00     0.015 C 
HETATM    9  C9  UNL     1     -33.629  14.811  -4.869  1.00 20.00     0.015 C 
ENDROOT
BRANCH   6  10
HETATM   10  C10 UNL     1     -35.740  17.541   0.160  1.00 20.00     0.089 C 
HETATM   11 BR11 UNL     1     -37.385  18.281  -0.543  1.00 20.00    -0.096 Br
ENDBRANCH   6  10
TORSDOF 1
ENDMDL
MODEL 9
REMARK VINA RESULT:      -3.9      1.769      2.877
REMARK  1 active torsions:
REMARK  status: ('A' for Active; 'I' for Inactive)
REMARK    1  A    between atoms: C6_6  and  C10_10 
ROOT
HETATM    1  C1  UNL     1     -36.493  16.660  -4.795  1.00 20.00     0.001 C 
HETATM    2  C2  UNL     1     -36.997  16.972  -3.388  1.00 20.00     0.005 C 
HETATM    3  C3  UNL     1     -35.140  16.276  -1.800  1.00 20.00     0.006 C 
HETATM    4  C4  UNL     1     -35.028  16.282  -4.990  1.00 20.00     0.008 C 
HETATM    5  C5  UNL     1     -34.032  15.746  -2.706  1.00 20.00     0.009 C 
HETATM    6  C6  UNL     1     -35.951  17.449  -2.374  1.00 20.00    -0.005 C 
HETATM    7  C7  UNL     1     -34.431  15.180  -4.088  1.00 20.00    -0.048 C 
HETATM    8  C8  UNL     1     -35.361  13.963  -3.955  1.00 20.00     0.015 C 
HETATM    9  C9  UNL     1     -33.124  14.689  -4.764  1.00 20.00     0.015 C 
ENDROOT
BRANCH   6  10
HETATM   10  C10 UNL     1     -36.669  18.164  -1.220  1.00 20.00     0.089 C 
HETATM   11 BR11 UNL     1     -35.886  17.608   0.460  1.00 20.00    -0.096 Br
ENDBRANCH   6  10
TORSDOF 1
ENDMDL
