MODEL 1
REMARK VINA RESULT:      -3.9      0.000      0.000
REMARK  2 active torsions:
REMARK  status: ('A' for Active; 'I' for Inactive)
REMARK    1  A    between atoms: C3_3  and  C6_6 
REMARK    2  A    between atoms: C6_6  and  C7_7 
ROOT
HETATM    1  C4  UNL     1     -32.920   7.599   4.947  1.00 20.00     0.011 C 
HETATM    2  C6  UNL     1     -33.589   6.662   3.967  1.00 20.00    -0.001 C 
ENDROOT
BRANCH   2   3
HETATM    3  C3  UNL     1     -34.065   5.401   4.698  1.00 20.00    -0.010 A 
HETATM    4  C1  UNL     1     -34.794   5.514   6.008  1.00 20.00     0.005 A 
HETATM    5  C2  UNL     1     -35.531   5.077   4.773  1.00 20.00     0.005 A 
ENDBRANCH   2   3
BRANCH   2   6
HETATM    6  C7  UNL     1     -32.708   6.291   2.757  1.00 20.00     0.058 C 
HETATM    7  C5  UNL     1     -33.128   5.051   1.980  1.00 20.00     0.022 C 
HETATM    8 BR8  UNL     1     -32.611   7.805   1.504  1.00 20.00    -0.091 Br
ENDBRANCH   2   6
TORSDOF 2
ENDMDL
MODEL 2
REMARK VINA RESULT:      -3.8      1.005      2.091
REMARK  2 active torsions:
REMARK  status: ('A' for Active; 'I' for Inactive)
REMARK    1  A    between atoms: C3_3  and  C6_6 
REMARK    2  A    between atoms: C6_6  and  C7_7 
ROOT
HETATM    1  C4  UNL     1     -33.618   5.002   2.389  1.00 20.00     0.011 C 
HETATM    2  C6  UNL     1     -33.310   5.908   3.559  1.00 20.00    -0.001 C 
ENDROOT
BRANCH   2   3
HETATM    3  C3  UNL     1     -34.534   6.004   4.478  1.00 20.00    -0.010 A 
HETATM    4  C1  UNL     1     -34.831   4.904   5.459  1.00 20.00     0.005 A 
HETATM    5  C2  UNL     1     -34.357   6.242   5.952  1.00 20.00     0.005 A 
ENDBRANCH   2   3
BRANCH   2   6
HETATM    6  C7  UNL     1     -32.825   7.314   3.150  1.00 20.00     0.058 C 
HETATM    7  C5  UNL     1     -31.557   7.809   3.831  1.00 20.00     0.022 C 
HETATM    8 BR8  UNL     1     -32.554   7.394   1.203  1.00 20.00    -0.091 Br
ENDBRANCH   2   6
TORSDOF 2
ENDMDL
MODEL 3
REMARK VINA RESULT:      -3.7     16.221     16.865
REMARK  2 active torsions:
REMARK  status: ('A' for Active; 'I' for Inactive)
REMARK    1  A    between atoms: C3_3  and  C6_6 
REMARK    2  A    between atoms: C6_6  and  C7_7 
ROOT
HETATM    1  C4  UNL     1     -22.397  16.865   9.091  1.00 20.00     0.011 C 
HETATM    2  C6  UNL     1     -23.641  17.172   9.892  1.00 20.00    -0.001 C 
ENDROOT
BRANCH   2   3
HETATM    3  C3  UNL     1     -24.017  18.648   9.720  1.00 20.00    -0.010 A 
HETATM    4  C1  UNL     1     -24.069  19.261   8.348  1.00 20.00     0.005 A 
HETATM    5  C2  UNL     1     -25.341  19.027   9.113  1.00 20.00     0.005 A 
ENDBRANCH   2   3
BRANCH   2   6
HETATM    6  C7  UNL     1     -23.527  16.810  11.387  1.00 20.00     0.058 C 
HETATM    7  C5  UNL     1     -22.749  17.788  12.254  1.00 20.00     0.022 C 
HETATM    8 BR8  UNL     1     -25.320  16.584  12.164  1.00 20.00    -0.091 Br
ENDBRANCH   2   6
TORSDOF 2
ENDMDL
MODEL 4
REMARK VINA RESULT:      -3.6      1.950      3.744
REMARK  2 active torsions:
REMARK  status: ('A' for Active; 'I' for Inactive)
REMARK    1  A    between atoms: C3_3  and  C6_6 
REMARK    2  A    between atoms: C6_6  and  C7_7 
ROOT
HETATM    1  C4  UNL     1     -33.531   4.582   2.894  1.00 20.00     0.011 C 
HETATM    2  C6  UNL     1     -34.059   5.933   3.316  1.00 20.00    -0.001 C 
ENDROOT
BRANCH   2   3
HETATM    3  C3  UNL     1     -32.948   6.983   3.199  1.00 20.00    -0.010 A 
HETATM    4  C1  UNL     1     -31.869   6.833   2.163  1.00 20.00     0.005 A 
HETATM    5  C2  UNL     1     -32.905   7.912   2.017  1.00 20.00     0.005 A 
ENDBRANCH   2   3
BRANCH   2   6
HETATM    6  C7  UNL     1     -34.676   5.949   4.730  1.00 20.00     0.058 C 
HETATM    7  C5  UNL     1     -34.827   4.595   5.408  1.00 20.00     0.022 C 
HETATM    8 BR8  UNL     1     -33.626   7.121   5.911  1.00 20.00    -0.091 Br
ENDBRANCH   2   6
TORSDOF 2
ENDMDL
MODEL 5
REMARK VINA RESULT:      -3.5      2.498      4.006
REMARK  2 active torsions:
REMARK  status: ('A' for Active; 'I' for Inactive)
REMARK    1  A    between atoms: C3_3  and  C6_6 
REMARK    2  A    between atoms: C6_6  and  C7_7 
ROOT
HETATM    1  C4  UNL     1     -31.802   7.684   3.299  1.00 20.00     0.011 C 
HETATM    2  C6  UNL     1     -32.588   7.055   2.172  1.00 20.00    -0.001 C 
ENDROOT
BRANCH   2   3
HETATM    3  C3  UNL     1     -33.328   8.143   1.385  1.00 20.00    -0.010 A 
HETATM    4  C1  UNL     1     -32.590   9.360   0.898  1.00 20.00     0.005 A 
HETATM    5  C2  UNL     1     -33.064   8.326  -0.085  1.00 20.00     0.005 A 
ENDBRANCH   2   3
BRANCH   2   6
HETATM    6  C7  UNL     1     -33.567   5.955   2.631  1.00 20.00     0.058 C 
HETATM    7  C5  UNL     1     -33.062   4.523   2.523  1.00 20.00     0.022 C 
HETATM    8 BR8  UNL     1     -34.121   6.278   4.491  1.00 20.00    -0.091 Br
ENDBRANCH   2   6
TORSDOF 2
ENDMDL
MODEL 6
REMARK VINA RESULT:      -3.5     15.723     16.518
REMARK  2 active torsions:
REMARK  status: ('A' for Active; 'I' for Inactive)
REMARK    1  A    between atoms: C3_3  and  C6_6 
REMARK    2  A    between atoms: C6_6  and  C7_7 
ROOT
HETATM    1  C4  UNL     1     -24.170  16.313  10.837  1.00 20.00     0.011 C 
HETATM    2  C6  UNL     1     -24.076  17.821  10.868  1.00 20.00    -0.001 C 
ENDROOT
BRANCH   2   3
HETATM    3  C3  UNL     1     -25.477  18.425  11.021  1.00 20.00    -0.010 A 
HETATM    4  C1  UNL     1     -26.421  17.893  12.064  1.00 20.00     0.005 A 
HETATM    5  C2  UNL     1     -25.814  19.258  12.227  1.00 20.00     0.005 A 
ENDBRANCH   2   3
BRANCH   2   6
HETATM    6  C7  UNL     1     -23.352  18.428   9.648  1.00 20.00     0.058 C 
HETATM    7  C5  UNL     1     -22.391  17.504   8.914  1.00 20.00     0.022 C 
HETATM    8 BR8  UNL     1     -24.668  19.108   8.353  1.00 20.00    -0.091 Br
ENDBRANCH   2   6
TORSDOF 2
ENDMDL
MODEL 7
REMARK VINA RESULT:      -3.4     11.662     12.396
REMARK  2 active torsions:
REMARK  status: ('A' for Active; 'I' for Inactive)
REMARK    1  A    between atoms: C3_3  and  C6_6 
REMARK    2  A    between atoms: C6_6  and  C7_7 
ROOT
HETATM    1  C4  UNL     1     -32.983  17.174  -2.411  1.00 20.00     0.011 C 
HETATM    2  C6  UNL     1     -34.071  16.126  -2.357  1.00 20.00    -0.001 C 
ENDROOT
BRANCH   2   3
HETATM    3  C3  UNL     1     -34.307  15.552  -3.759  1.00 20.00    -0.010 A 
HETATM    4  C1  UNL     1     -33.279  14.657  -4.394  1.00 20.00     0.005 A 
HETATM    5  C2  UNL     1     -34.593  14.087  -3.939  1.00 20.00     0.005 A 
ENDBRANCH   2   3
BRANCH   2   6
HETATM    6  C7  UNL     1     -35.394  16.629  -1.744  1.00 20.00     0.058 C 
HETATM    7  C5  UNL     1     -35.319  17.125  -0.307  1.00 20.00     0.022 C 
HETATM    8 BR8  UNL     1     -36.148  18.067  -2.857  1.00 20.00    -0.091 Br
ENDBRANCH   2   6
TORSDOF 2
ENDMDL
MODEL 8
REMARK VINA RESULT:      -3.4     11.804     12.379
REMARK  2 active torsions:
REMARK  status: ('A' for Active; 'I' for Inactive)
REMARK    1  A    between atoms: C3_3  and  C6_6 
REMARK    2  A    between atoms: C6_6  and  C7_7 
ROOT
HETATM    1  C4  UNL     1     -33.281  14.881  -4.217  1.00 20.00     0.011 C 
HETATM    2  C6  UNL     1     -34.536  14.984  -3.380  1.00 20.00    -0.001 C 
ENDROOT
BRANCH   2   3
HETATM    3  C3  UNL     1     -35.755  15.160  -4.293  1.00 20.00    -0.010 A 
HETATM    4  C1  UNL     1     -35.829  14.432  -5.607  1.00 20.00     0.005 A 
HETATM    5  C2  UNL     1     -36.734  14.033  -4.475  1.00 20.00     0.005 A 
ENDBRANCH   2   3
BRANCH   2   6
HETATM    6  C7  UNL     1     -34.487  16.098  -2.315  1.00 20.00     0.058 C 
HETATM    7  C5  UNL     1     -33.243  16.975  -2.322  1.00 20.00     0.022 C 
HETATM    8 BR8  UNL     1     -36.065  17.261  -2.484  1.00 20.00    -0.091 Br
ENDBRANCH   2   6
TORSDOF 2
ENDMDL
MODEL 9
REMARK VINA RESULT:      -3.4     11.919     12.351
REMARK  2 active torsions:
REMARK  status: ('A' for Active; 'I' for Inactive)
REMARK    1  A    between atoms: C3_3  and  C6_6 
REMARK    2  A    between atoms: C6_6  and  C7_7 
ROOT
HETATM    1  C4  UNL     1     -32.943  14.661  -4.347  1.00 20.00     0.011 C 
HETATM    2  C6  UNL     1     -34.304  15.318  -4.371  1.00 20.00    -0.001 C 
ENDROOT
BRANCH   2   3
HETATM    3  C3  UNL     1     -34.831  15.472  -2.940  1.00 20.00    -0.010 A 
HETATM    4  C1  UNL     1     -34.203  16.467  -2.004  1.00 20.00     0.005 A 
HETATM    5  C2  UNL     1     -35.586  16.710  -2.540  1.00 20.00     0.005 A 
ENDBRANCH   2   3
BRANCH   2   6
HETATM    6  C7  UNL     1     -35.335  14.588  -5.256  1.00 20.00     0.058 C 
HETATM    7  C5  UNL     1     -36.260  13.615  -4.539  1.00 20.00     0.022 C 
HETATM    8 BR8  UNL     1     -36.440  15.897  -6.223  1.00 20.00    -0.091 Br
ENDBRANCH   2   6
TORSDOF 2
ENDMDL
