MODEL 1
REMARK VINA RESULT:      -5.2      0.000      0.000
REMARK  2 active torsions:
REMARK  status: ('A' for Active; 'I' for Inactive)
REMARK    1  A    between atoms: C1_1  and  C7_7 
REMARK    2  A    between atoms: C8_8  and  C12_12 
ROOT
HETATM    1  C2  UNL     1     -36.102  16.740  -3.013  1.00 20.00     0.001 C 
HETATM    2  C3  UNL     1     -35.827  16.374  -4.470  1.00 20.00     0.012 C 
HETATM    3  C4  UNL     1     -33.890  14.654  -4.126  1.00 20.00     0.012 C 
HETATM    4  C5  UNL     1     -35.101  16.223  -1.984  1.00 20.00     0.005 C 
HETATM    5  C6  UNL     1     -33.112  15.872  -3.628  1.00 20.00     0.006 C 
HETATM    6  C7  UNL     1     -35.291  14.957  -4.695  1.00 20.00     0.055 C 
HETATM    7  C8  UNL     1     -33.614  16.460  -2.294  1.00 20.00    -0.011 C 
ENDROOT
BRANCH   6   8
HETATM    8  C1  UNL     1     -35.265  14.705  -6.176  1.00 20.00     0.127 C 
HETATM    9  C9  UNL     1     -34.019  15.120  -6.912  1.00 20.00     0.091 C 
HETATM   10  O13 UNL     1     -36.215  14.185  -6.758  1.00 20.00    -0.298 OA
ENDBRANCH   6   8
BRANCH   7  11
HETATM   11  C12 UNL     1     -33.250  17.943  -2.198  1.00 20.00    -0.019 C 
HETATM   12  C10 UNL     1     -32.117  18.147  -1.198  1.00 20.00     0.010 C 
HETATM   13  C11 UNL     1     -32.864  18.482  -3.571  1.00 20.00     0.010 C 
ENDBRANCH   7  11
TORSDOF 2
ENDMDL
MODEL 2
REMARK VINA RESULT:      -5.0      1.531      2.770
REMARK  2 active torsions:
REMARK  status: ('A' for Active; 'I' for Inactive)
REMARK    1  A    between atoms: C1_1  and  C7_7 
REMARK    2  A    between atoms: C8_8  and  C12_12 
ROOT
HETATM    1  C2  UNL     1     -33.142  15.722  -3.501  1.00 20.00     0.001 C 
HETATM    2  C3  UNL     1     -34.319  14.750  -3.530  1.00 20.00     0.012 C 
HETATM    3  C4  UNL     1     -36.270  16.444  -3.928  1.00 20.00     0.012 C 
HETATM    4  C5  UNL     1     -33.490  17.208  -3.471  1.00 20.00     0.005 C 
HETATM    5  C6  UNL     1     -35.904  16.947  -2.530  1.00 20.00     0.006 C 
HETATM    6  C7  UNL     1     -35.505  15.189  -4.395  1.00 20.00     0.055 C 
HETATM    7  C8  UNL     1     -34.534  17.646  -2.432  1.00 20.00    -0.011 C 
ENDROOT
BRANCH   6   8
HETATM    8  C1  UNL     1     -36.474  14.042  -4.464  1.00 20.00     0.127 C 
HETATM    9  C9  UNL     1     -37.935  14.384  -4.347  1.00 20.00     0.091 C 
HETATM   10  O13 UNL     1     -36.091  12.883  -4.609  1.00 20.00    -0.298 OA
ENDBRANCH   6   8
BRANCH   7  11
HETATM   11  C12 UNL     1     -33.987  17.541  -1.006  1.00 20.00    -0.019 C 
HETATM   12  C10 UNL     1     -33.165  18.777  -0.661  1.00 20.00     0.010 C 
HETATM   13  C11 UNL     1     -35.130  17.355  -0.014  1.00 20.00     0.010 C 
ENDBRANCH   7  11
TORSDOF 2
ENDMDL
MODEL 3
REMARK VINA RESULT:      -4.8      2.977      5.377
REMARK  2 active torsions:
REMARK  status: ('A' for Active; 'I' for Inactive)
REMARK    1  A    between atoms: C1_1  and  C7_7 
REMARK    2  A    between atoms: C8_8  and  C12_12 
ROOT
HETATM    1  C2  UNL     1     -35.424  17.421  -1.060  1.00 20.00     0.001 C 
HETATM    2  C3  UNL     1     -34.047  17.447  -0.400  1.00 20.00     0.012 C 
HETATM    3  C4  UNL     1     -32.591  18.118  -2.465  1.00 20.00     0.012 C 
HETATM    4  C5  UNL     1     -35.449  17.541  -2.581  1.00 20.00     0.005 C 
HETATM    5  C6  UNL     1     -33.005  16.746  -3.000  1.00 20.00     0.006 C 
HETATM    6  C7  UNL     1     -33.045  18.424  -1.023  1.00 20.00     0.055 C 
HETATM    7  C8  UNL     1     -34.499  16.616  -3.357  1.00 20.00    -0.011 C 
ENDROOT
BRANCH   6   8
HETATM    8  C1  UNL     1     -31.829  18.460  -0.142  1.00 20.00     0.127 C 
HETATM    9  C9  UNL     1     -32.071  18.515   1.343  1.00 20.00     0.091 C 
HETATM   10  O13 UNL     1     -30.692  18.445  -0.610  1.00 20.00    -0.298 OA
ENDBRANCH   6   8
BRANCH   7  11
HETATM   11  C12 UNL     1     -34.939  15.152  -3.265  1.00 20.00    -0.019 C 
HETATM   12  C10 UNL     1     -36.363  14.993  -3.787  1.00 20.00     0.010 C 
HETATM   13  C11 UNL     1     -33.974  14.260  -4.039  1.00 20.00     0.010 C 
ENDBRANCH   7  11
TORSDOF 2
ENDMDL
MODEL 4
REMARK VINA RESULT:      -4.7      1.660      2.836
REMARK  2 active torsions:
REMARK  status: ('A' for Active; 'I' for Inactive)
REMARK    1  A    between atoms: C1_1  and  C7_7 
REMARK    2  A    between atoms: C8_8  and  C12_12 
ROOT
HETATM    1  C2  UNL     1     -34.254  14.405  -3.821  1.00 20.00     0.001 C 
HETATM    2  C3  UNL     1     -35.777  14.449  -3.725  1.00 20.00     0.012 C 
HETATM    3  C4  UNL     1     -36.210  16.791  -4.803  1.00 20.00     0.012 C 
HETATM    4  C5  UNL     1     -33.563  15.699  -4.240  1.00 20.00     0.005 C 
HETATM    5  C6  UNL     1     -35.487  17.317  -3.563  1.00 20.00     0.006 C 
HETATM    6  C7  UNL     1     -36.475  15.271  -4.813  1.00 20.00     0.055 C 
HETATM    7  C8  UNL     1     -33.985  16.975  -3.495  1.00 20.00    -0.011 C 
ENDROOT
BRANCH   6   8
HETATM    8  C1  UNL     1     -37.954  15.047  -4.682  1.00 20.00     0.127 C 
HETATM    9  C9  UNL     1     -38.843  16.240  -4.911  1.00 20.00     0.091 C 
HETATM   10  O13 UNL     1     -38.417  13.942  -4.402  1.00 20.00    -0.298 OA
ENDBRANCH   6   8
BRANCH   7  11
HETATM   11  C12 UNL     1     -33.512  16.959  -2.040  1.00 20.00    -0.019 C 
HETATM   12  C10 UNL     1     -32.487  18.062  -1.804  1.00 20.00     0.010 C 
HETATM   13  C11 UNL     1     -34.699  17.110  -1.095  1.00 20.00     0.010 C 
ENDBRANCH   7  11
TORSDOF 2
ENDMDL
MODEL 5
REMARK VINA RESULT:      -4.6      1.566      2.472
REMARK  2 active torsions:
REMARK  status: ('A' for Active; 'I' for Inactive)
REMARK    1  A    between atoms: C1_1  and  C7_7 
REMARK    2  A    between atoms: C8_8  and  C12_12 
ROOT
HETATM    1  C2  UNL     1     -34.442  16.277  -1.906  1.00 20.00     0.001 C 
HETATM    2  C3  UNL     1     -35.524  15.569  -2.718  1.00 20.00     0.012 C 
HETATM    3  C4  UNL     1     -34.194  15.137  -4.927  1.00 20.00     0.012 C 
HETATM    4  C5  UNL     1     -33.175  16.667  -2.660  1.00 20.00     0.005 C 
HETATM    5  C6  UNL     1     -34.214  16.662  -5.048  1.00 20.00     0.006 C 
HETATM    6  C7  UNL     1     -35.009  14.561  -3.751  1.00 20.00     0.055 C 
HETATM    7  C8  UNL     1     -33.370  17.405  -3.994  1.00 20.00    -0.011 C 
ENDROOT
BRANCH   6   8
HETATM    8  C1  UNL     1     -36.195  13.828  -4.310  1.00 20.00     0.127 C 
HETATM    9  C9  UNL     1     -37.516  14.549  -4.271  1.00 20.00     0.091 C 
HETATM   10  O13 UNL     1     -36.091  12.696  -4.778  1.00 20.00    -0.298 OA
ENDBRANCH   6   8
BRANCH   7  11
HETATM   11  C12 UNL     1     -33.918  18.819  -3.779  1.00 20.00    -0.019 C 
HETATM   12  C10 UNL     1     -35.399  18.873  -4.139  1.00 20.00     0.010 C 
HETATM   13  C11 UNL     1     -33.694  19.259  -2.337  1.00 20.00     0.010 C 
ENDBRANCH   7  11
TORSDOF 2
ENDMDL
MODEL 6
REMARK VINA RESULT:      -4.6      2.377      5.000
REMARK  2 active torsions:
REMARK  status: ('A' for Active; 'I' for Inactive)
REMARK    1  A    between atoms: C1_1  and  C7_7 
REMARK    2  A    between atoms: C8_8  and  C12_12 
ROOT
HETATM    1  C2  UNL     1     -33.262  15.314  -3.940  1.00 20.00     0.001 C 
HETATM    2  C3  UNL     1     -33.142  16.678  -3.264  1.00 20.00     0.012 C 
HETATM    3  C4  UNL     1     -35.255  16.586  -1.728  1.00 20.00     0.012 C 
HETATM    4  C5  UNL     1     -34.561  14.550  -3.700  1.00 20.00     0.005 C 
HETATM    5  C6  UNL     1     -36.021  16.607  -3.052  1.00 20.00     0.006 C 
HETATM    6  C7  UNL     1     -33.727  16.758  -1.850  1.00 20.00     0.055 C 
HETATM    7  C8  UNL     1     -35.866  15.334  -3.908  1.00 20.00    -0.011 C 
ENDROOT
BRANCH   6   8
HETATM    8  C1  UNL     1     -33.352  18.092  -1.272  1.00 20.00     0.127 C 
HETATM    9  C9  UNL     1     -31.882  18.363  -1.093  1.00 20.00     0.091 C 
HETATM   10  O13 UNL     1     -34.204  18.923  -0.961  1.00 20.00    -0.298 OA
ENDBRANCH   6   8
BRANCH   7  11
HETATM   11  C12 UNL     1     -36.097  15.660  -5.386  1.00 20.00    -0.019 C 
HETATM   12  C10 UNL     1     -35.872  14.420  -6.243  1.00 20.00     0.010 C 
HETATM   13  C11 UNL     1     -37.502  16.215  -5.592  1.00 20.00     0.010 C 
ENDBRANCH   7  11
TORSDOF 2
ENDMDL
MODEL 7
REMARK VINA RESULT:      -4.5      2.227      4.753
REMARK  2 active torsions:
REMARK  status: ('A' for Active; 'I' for Inactive)
REMARK    1  A    between atoms: C1_1  and  C7_7 
REMARK    2  A    between atoms: C8_8  and  C12_12 
ROOT
HETATM    1  C2  UNL     1     -33.746  14.931  -4.696  1.00 20.00     0.001 C 
HETATM    2  C3  UNL     1     -33.360  16.347  -4.276  1.00 20.00     0.012 C 
HETATM    3  C4  UNL     1     -34.490  16.423  -1.920  1.00 20.00     0.012 C 
HETATM    4  C5  UNL     1     -34.755  14.211  -3.805  1.00 20.00     0.005 C 
HETATM    5  C6  UNL     1     -35.791  16.338  -2.719  1.00 20.00     0.006 C 
HETATM    6  C7  UNL     1     -33.208  16.560  -2.766  1.00 20.00     0.055 C 
HETATM    7  C8  UNL     1     -36.024  14.993  -3.435  1.00 20.00    -0.011 C 
ENDROOT
BRANCH   6   8
HETATM    8  C1  UNL     1     -32.642  17.934  -2.550  1.00 20.00     0.127 C 
HETATM    9  C9  UNL     1     -32.075  18.226  -1.186  1.00 20.00     0.091 C 
HETATM   10  O13 UNL     1     -32.641  18.779  -3.443  1.00 20.00    -0.298 OA
ENDBRANCH   6   8
BRANCH   7  11
HETATM   11  C12 UNL     1     -36.936  15.191  -4.648  1.00 20.00    -0.019 C 
HETATM   12  C10 UNL     1     -38.334  14.657  -4.354  1.00 20.00     0.010 C 
HETATM   13  C11 UNL     1     -36.990  16.665  -5.035  1.00 20.00     0.010 C 
ENDBRANCH   7  11
TORSDOF 2
ENDMDL
MODEL 8
REMARK VINA RESULT:      -4.5      2.190      4.805
REMARK  2 active torsions:
REMARK  status: ('A' for Active; 'I' for Inactive)
REMARK    1  A    between atoms: C1_1  and  C7_7 
REMARK    2  A    between atoms: C8_8  and  C12_12 
ROOT
HETATM    1  C2  UNL     1     -32.875  14.967  -4.048  1.00 20.00     0.001 C 
HETATM    2  C3  UNL     1     -33.057  16.259  -3.256  1.00 20.00     0.012 C 
HETATM    3  C4  UNL     1     -35.626  16.125  -2.794  1.00 20.00     0.012 C 
HETATM    4  C5  UNL     1     -34.151  14.242  -4.466  1.00 20.00     0.005 C 
HETATM    5  C6  UNL     1     -35.745  16.296  -4.309  1.00 20.00     0.006 C 
HETATM    6  C7  UNL     1     -34.195  16.239  -2.230  1.00 20.00     0.055 C 
HETATM    7  C8  UNL     1     -35.237  15.098  -5.137  1.00 20.00    -0.011 C 
ENDROOT
BRANCH   6   8
HETATM    8  C1  UNL     1     -34.105  17.500  -1.419  1.00 20.00     0.127 C 
HETATM    9  C9  UNL     1     -32.726  18.057  -1.185  1.00 20.00     0.091 C 
HETATM   10  O13 UNL     1     -35.108  18.050  -0.968  1.00 20.00    -0.298 OA
ENDBRANCH   6   8
BRANCH   7  11
HETATM   11  C12 UNL     1     -34.806  15.563  -6.530  1.00 20.00    -0.019 C 
HETATM   12  C10 UNL     1     -35.795  15.073  -7.582  1.00 20.00     0.010 C 
HETATM   13  C11 UNL     1     -34.684  17.082  -6.566  1.00 20.00     0.010 C 
ENDBRANCH   7  11
TORSDOF 2
ENDMDL
MODEL 9
REMARK VINA RESULT:      -4.5      3.634      6.302
REMARK  2 active torsions:
REMARK  status: ('A' for Active; 'I' for Inactive)
REMARK    1  A    between atoms: C1_1  and  C7_7 
REMARK    2  A    between atoms: C8_8  and  C12_12 
ROOT
HETATM    1  C2  UNL     1     -34.718  17.953   0.231  1.00 20.00     0.001 C 
HETATM    2  C3  UNL     1     -33.349  17.969   0.907  1.00 20.00     0.012 C 
HETATM    3  C4  UNL     1     -31.967  19.193  -0.943  1.00 20.00     0.012 C 
HETATM    4  C5  UNL     1     -34.757  18.388  -1.231  1.00 20.00     0.005 C 
HETATM    5  C6  UNL     1     -32.249  17.933  -1.762  1.00 20.00     0.006 C 
HETATM    6  C7  UNL     1     -32.446  19.145   0.522  1.00 20.00     0.055 C 
HETATM    7  C8  UNL     1     -33.724  17.741  -2.167  1.00 20.00    -0.011 C 
ENDROOT
BRANCH   6   8
HETATM    8  C1  UNL     1     -31.238  19.108   1.414  1.00 20.00     0.127 C 
HETATM    9  C9  UNL     1     -31.492  19.123   2.898  1.00 20.00     0.091 C 
HETATM   10  O13 UNL     1     -30.098  19.068   0.955  1.00 20.00    -0.298 OA
ENDBRANCH   6   8
BRANCH   7  11
HETATM   11  C12 UNL     1     -34.022  16.256  -2.392  1.00 20.00    -0.019 C 
HETATM   12  C10 UNL     1     -35.498  16.054  -2.715  1.00 20.00     0.010 C 
HETATM   13  C11 UNL     1     -33.142  15.703  -3.507  1.00 20.00     0.010 C 
ENDBRANCH   7  11
TORSDOF 2
ENDMDL
