MODEL 1
REMARK VINA RESULT:      -5.0      0.000      0.000
REMARK  2 active torsions:
REMARK  status: ('A' for Active; 'I' for Inactive)
REMARK    1  A    between atoms: C5_5  and  C7_7 
REMARK    2  A    between atoms: C6_6  and  C8_8 
ROOT
HETATM    1  C1  UNL     1     -35.451  16.784  -1.677  1.00 20.00     0.001 C 
HETATM    2  C2  UNL     1     -34.245  17.475  -1.048  1.00 20.00     0.005 C 
HETATM    3  C3  UNL     1     -35.036  15.570  -2.504  1.00 20.00     0.013 C 
HETATM    4  C4  UNL     1     -32.783  16.631  -2.929  1.00 20.00     0.018 C 
HETATM    5  C5  UNL     1     -33.198  17.856  -2.102  1.00 20.00    -0.004 C 
HETATM    6  C6  UNL     1     -33.996  15.940  -3.569  1.00 20.00     0.094 C 
ENDROOT
BRANCH   6   7
HETATM    7  C8  UNL     1     -33.559  14.701  -4.349  1.00 20.00     0.391 C 
HETATM    8  F9  UNL     1     -34.204  13.618  -3.891  1.00 20.00    -0.171 F 
HETATM    9  F10 UNL     1     -33.838  14.856  -5.651  1.00 20.00    -0.171 F 
HETATM   10  F11 UNL     1     -32.238  14.512  -4.207  1.00 20.00    -0.171 F 
ENDBRANCH   6   7
BRANCH   5  11
HETATM   11  C7  UNL     1     -31.980  18.500  -1.443  1.00 20.00     0.089 C 
HETATM   12 BR12 UNL     1     -32.263  18.607   0.473  1.00 20.00    -0.096 Br
ENDBRANCH   5  11
TORSDOF 2
ENDMDL
MODEL 2
REMARK VINA RESULT:      -5.0      0.024      1.093
REMARK  2 active torsions:
REMARK  status: ('A' for Active; 'I' for Inactive)
REMARK    1  A    between atoms: C5_5  and  C7_7 
REMARK    2  A    between atoms: C6_6  and  C8_8 
ROOT
HETATM    1  C1  UNL     1     -35.445  16.792  -1.650  1.00 20.00     0.001 C 
HETATM    2  C2  UNL     1     -34.236  17.484  -1.025  1.00 20.00     0.005 C 
HETATM    3  C3  UNL     1     -35.032  15.582  -2.484  1.00 20.00     0.013 C 
HETATM    4  C4  UNL     1     -32.784  16.651  -2.919  1.00 20.00     0.018 C 
HETATM    5  C5  UNL     1     -33.197  17.872  -2.085  1.00 20.00    -0.004 C 
HETATM    6  C6  UNL     1     -33.999  15.958  -3.553  1.00 20.00     0.094 C 
ENDROOT
BRANCH   6   7
HETATM    7  C8  UNL     1     -33.565  14.723  -4.341  1.00 20.00     0.391 C 
HETATM    8  F9  UNL     1     -33.843  14.887  -5.643  1.00 20.00    -0.171 F 
HETATM    9  F10 UNL     1     -32.246  14.528  -4.199  1.00 20.00    -0.171 F 
HETATM   10  F11 UNL     1     -34.216  13.640  -3.890  1.00 20.00    -0.171 F 
ENDBRANCH   6   7
BRANCH   5  11
HETATM   11  C7  UNL     1     -31.976  18.516  -1.431  1.00 20.00     0.089 C 
HETATM   12 BR12 UNL     1     -32.249  18.617   0.486  1.00 20.00    -0.096 Br
ENDBRANCH   5  11
TORSDOF 2
ENDMDL
MODEL 3
REMARK VINA RESULT:      -5.0     11.641     12.564
REMARK  2 active torsions:
REMARK  status: ('A' for Active; 'I' for Inactive)
REMARK    1  A    between atoms: C5_5  and  C7_7 
REMARK    2  A    between atoms: C6_6  and  C8_8 
ROOT
HETATM    1  C1  UNL     1     -33.228   4.669   2.271  1.00 20.00     0.001 C 
HETATM    2  C2  UNL     1     -33.041   6.063   1.680  1.00 20.00     0.005 C 
HETATM    3  C3  UNL     1     -34.123   4.696   3.507  1.00 20.00     0.013 C 
HETATM    4  C4  UNL     1     -33.415   7.079   3.964  1.00 20.00     0.018 C 
HETATM    5  C5  UNL     1     -32.510   7.053   2.724  1.00 20.00    -0.004 C 
HETATM    6  C6  UNL     1     -33.598   5.677   4.563  1.00 20.00     0.094 C 
ENDROOT
BRANCH   6   7
HETATM    7  C8  UNL     1     -34.536   5.724   5.768  1.00 20.00     0.391 C 
HETATM    8  F9  UNL     1     -34.436   6.914   6.381  1.00 20.00    -0.171 F 
HETATM    9  F10 UNL     1     -35.803   5.543   5.371  1.00 20.00    -0.171 F 
HETATM   10  F11 UNL     1     -34.211   4.757   6.640  1.00 20.00    -0.171 F 
ENDBRANCH   6   7
BRANCH   5  11
HETATM   11  C7  UNL     1     -32.379   8.452   2.123  1.00 20.00     0.089 C 
HETATM   12 BR12 UNL     1     -33.006   8.427   0.288  1.00 20.00    -0.096 Br
ENDBRANCH   5  11
TORSDOF 2
ENDMDL
MODEL 4
REMARK VINA RESULT:      -4.8      1.967      2.986
REMARK  2 active torsions:
REMARK  status: ('A' for Active; 'I' for Inactive)
REMARK    1  A    between atoms: C5_5  and  C7_7 
REMARK    2  A    between atoms: C6_6  and  C8_8 
ROOT
HETATM    1  C1  UNL     1     -32.739  15.880  -3.473  1.00 20.00     0.001 C 
HETATM    2  C2  UNL     1     -33.383  17.047  -2.730  1.00 20.00     0.005 C 
HETATM    3  C3  UNL     1     -33.756  15.125  -4.325  1.00 20.00     0.013 C 
HETATM    4  C4  UNL     1     -35.600  15.832  -2.747  1.00 20.00     0.018 C 
HETATM    5  C5  UNL     1     -34.579  16.589  -1.886  1.00 20.00    -0.004 C 
HETATM    6  C6  UNL     1     -34.954  14.653  -3.490  1.00 20.00     0.094 C 
ENDROOT
BRANCH   6   7
HETATM    7  C8  UNL     1     -35.981  13.945  -4.372  1.00 20.00     0.391 C 
HETATM    8  F9  UNL     1     -35.806  14.297  -5.654  1.00 20.00    -0.171 F 
HETATM    9  F10 UNL     1     -35.842  12.616  -4.262  1.00 20.00    -0.171 F 
HETATM   10  F11 UNL     1     -37.222  14.285  -3.993  1.00 20.00    -0.171 F 
ENDBRANCH   6   7
BRANCH   5  11
HETATM   11  C7  UNL     1     -35.237  17.781  -1.192  1.00 20.00     0.089 C 
HETATM   12 BR12 UNL     1     -35.530  17.358   0.677  1.00 20.00    -0.096 Br
ENDBRANCH   5  11
TORSDOF 2
ENDMDL
MODEL 5
REMARK VINA RESULT:      -4.8      1.972      2.863
REMARK  2 active torsions:
REMARK  status: ('A' for Active; 'I' for Inactive)
REMARK    1  A    between atoms: C5_5  and  C7_7 
REMARK    2  A    between atoms: C6_6  and  C8_8 
ROOT
HETATM    1  C1  UNL     1     -32.743  15.870  -3.484  1.00 20.00     0.001 C 
HETATM    2  C2  UNL     1     -33.365  17.041  -2.729  1.00 20.00     0.005 C 
HETATM    3  C3  UNL     1     -33.778  15.134  -4.331  1.00 20.00     0.013 C 
HETATM    4  C4  UNL     1     -35.598  15.856  -2.733  1.00 20.00     0.018 C 
HETATM    5  C5  UNL     1     -34.559  16.594  -1.876  1.00 20.00    -0.004 C 
HETATM    6  C6  UNL     1     -34.974  14.673  -3.488  1.00 20.00     0.094 C 
ENDROOT
BRANCH   6   7
HETATM    7  C8  UNL     1     -36.018  13.984  -4.365  1.00 20.00     0.391 C 
HETATM    8  F9  UNL     1     -35.877  12.653  -4.287  1.00 20.00    -0.171 F 
HETATM    9  F10 UNL     1     -37.252  14.316  -3.958  1.00 20.00    -0.171 F 
HETATM   10  F11 UNL     1     -35.865  14.364  -5.643  1.00 20.00    -0.171 F 
ENDBRANCH   6   7
BRANCH   5  11
HETATM   11  C7  UNL     1     -35.194  17.790  -1.169  1.00 20.00     0.089 C 
HETATM   12 BR12 UNL     1     -35.488  17.355   0.698  1.00 20.00    -0.096 Br
ENDBRANCH   5  11
TORSDOF 2
ENDMDL
MODEL 6
REMARK VINA RESULT:      -4.7     11.438     12.338
REMARK  2 active torsions:
REMARK  status: ('A' for Active; 'I' for Inactive)
REMARK    1  A    between atoms: C5_5  and  C7_7 
REMARK    2  A    between atoms: C6_6  and  C8_8 
ROOT
HETATM    1  C1  UNL     1     -32.589   7.916   5.219  1.00 20.00     0.001 C 
HETATM    2  C2  UNL     1     -31.904   7.850   3.856  1.00 20.00     0.005 C 
HETATM    3  C3  UNL     1     -33.338   6.624   5.536  1.00 20.00     0.013 C 
HETATM    4  C4  UNL     1     -33.646   6.199   3.064  1.00 20.00     0.018 C 
HETATM    5  C5  UNL     1     -32.897   7.500   2.741  1.00 20.00    -0.004 C 
HETATM    6  C6  UNL     1     -34.341   6.267   4.432  1.00 20.00     0.094 C 
ENDROOT
BRANCH   6   7
HETATM    7  C8  UNL     1     -35.041   4.946   4.746  1.00 20.00     0.391 C 
HETATM    8  F9  UNL     1     -34.294   3.917   4.320  1.00 20.00    -0.171 F 
HETATM    9  F10 UNL     1     -35.230   4.830   6.069  1.00 20.00    -0.171 F 
HETATM   10  F11 UNL     1     -36.233   4.902   4.131  1.00 20.00    -0.171 F 
ENDBRANCH   6   7
BRANCH   5  11
HETATM   11  C7  UNL     1     -32.181   7.390   1.397  1.00 20.00     0.089 C 
HETATM   12 BR12 UNL     1     -32.873   8.737   0.185  1.00 20.00    -0.096 Br
ENDBRANCH   5  11
TORSDOF 2
ENDMDL
MODEL 7
REMARK VINA RESULT:      -4.6      1.586      2.706
REMARK  2 active torsions:
REMARK  status: ('A' for Active; 'I' for Inactive)
REMARK    1  A    between atoms: C5_5  and  C7_7 
REMARK    2  A    between atoms: C6_6  and  C8_8 
ROOT
HETATM    1  C1  UNL     1     -32.785  17.089  -2.649  1.00 20.00     0.001 C 
HETATM    2  C2  UNL     1     -33.875  17.882  -1.934  1.00 20.00     0.005 C 
HETATM    3  C3  UNL     1     -33.374  16.109  -3.660  1.00 20.00     0.013 C 
HETATM    4  C4  UNL     1     -35.495  15.975  -2.293  1.00 20.00     0.018 C 
HETATM    5  C5  UNL     1     -34.905  16.958  -1.272  1.00 20.00    -0.004 C 
HETATM    6  C6  UNL     1     -34.399  15.172  -3.008  1.00 20.00     0.094 C 
ENDROOT
BRANCH   6   7
HETATM    7  C8  UNL     1     -35.011  14.235  -4.048  1.00 20.00     0.391 C 
HETATM    8  F9  UNL     1     -34.535  14.528  -5.268  1.00 20.00    -0.171 F 
HETATM    9  F10 UNL     1     -34.706  12.962  -3.756  1.00 20.00    -0.171 F 
HETATM   10  F11 UNL     1     -36.346  14.370  -4.058  1.00 20.00    -0.171 F 
ENDBRANCH   6   7
BRANCH   5  11
HETATM   11  C7  UNL     1     -36.012  17.774  -0.606  1.00 20.00     0.089 C 
HETATM   12 BR12 UNL     1     -35.687  17.865   1.304  1.00 20.00    -0.096 Br
ENDBRANCH   5  11
TORSDOF 2
ENDMDL
MODEL 8
REMARK VINA RESULT:      -4.6      1.501      2.639
REMARK  2 active torsions:
REMARK  status: ('A' for Active; 'I' for Inactive)
REMARK    1  A    between atoms: C5_5  and  C7_7 
REMARK    2  A    between atoms: C6_6  and  C8_8 
ROOT
HETATM    1  C1  UNL     1     -32.762  17.866  -1.836  1.00 20.00     0.001 C 
HETATM    2  C2  UNL     1     -34.070  18.335  -1.207  1.00 20.00     0.005 C 
HETATM    3  C3  UNL     1     -33.009  16.977  -3.053  1.00 20.00     0.013 C 
HETATM    4  C4  UNL     1     -35.229  16.264  -2.079  1.00 20.00     0.018 C 
HETATM    5  C5  UNL     1     -34.982  17.154  -0.851  1.00 20.00    -0.004 C 
HETATM    6  C6  UNL     1     -33.913  15.786  -2.709  1.00 20.00     0.094 C 
ENDROOT
BRANCH   6   7
HETATM    7  C8  UNL     1     -34.187  14.941  -3.951  1.00 20.00     0.391 C 
HETATM    8  F9  UNL     1     -33.029  14.554  -4.508  1.00 20.00    -0.171 F 
HETATM    9  F10 UNL     1     -34.896  13.852  -3.619  1.00 20.00    -0.171 F 
HETATM   10  F11 UNL     1     -34.883  15.656  -4.848  1.00 20.00    -0.171 F 
ENDBRANCH   6   7
BRANCH   5  11
HETATM   11  C7  UNL     1     -36.305  17.650  -0.270  1.00 20.00     0.089 C 
HETATM   12 BR12 UNL     1     -36.069  18.061   1.611  1.00 20.00    -0.096 Br
ENDBRANCH   5  11
TORSDOF 2
ENDMDL
MODEL 9
REMARK VINA RESULT:      -4.5      1.957      2.899
REMARK  2 active torsions:
REMARK  status: ('A' for Active; 'I' for Inactive)
REMARK    1  A    between atoms: C5_5  and  C7_7 
REMARK    2  A    between atoms: C6_6  and  C8_8 
ROOT
HETATM    1  C1  UNL     1     -32.776  17.764  -1.552  1.00 20.00     0.001 C 
HETATM    2  C2  UNL     1     -34.100  18.312  -1.028  1.00 20.00     0.005 C 
HETATM    3  C3  UNL     1     -32.972  16.939  -2.822  1.00 20.00     0.013 C 
HETATM    4  C4  UNL     1     -35.321  16.368  -2.086  1.00 20.00     0.018 C 
HETATM    5  C5  UNL     1     -35.126  17.193  -0.806  1.00 20.00    -0.004 C 
HETATM    6  C6  UNL     1     -33.990  15.811  -2.611  1.00 20.00     0.094 C 
ENDROOT
BRANCH   6   7
HETATM    7  C8  UNL     1     -34.206  15.031  -3.907  1.00 20.00     0.391 C 
HETATM    8  F9  UNL     1     -34.937  15.759  -4.764  1.00 20.00    -0.171 F 
HETATM    9  F10 UNL     1     -33.025  14.746  -4.474  1.00 20.00    -0.171 F 
HETATM   10  F11 UNL     1     -34.853  13.884  -3.649  1.00 20.00    -0.171 F 
ENDBRANCH   6   7
BRANCH   5  11
HETATM   11  C7  UNL     1     -36.458  17.771  -0.329  1.00 20.00     0.089 C 
HETATM   12 BR12 UNL     1     -37.566  18.190  -1.864  1.00 20.00    -0.096 Br
ENDBRANCH   5  11
TORSDOF 2
ENDMDL
