MODEL 1
REMARK VINA RESULT:      -4.3      0.000      0.000
REMARK  2 active torsions:
REMARK  status: ('A' for Active; 'I' for Inactive)
REMARK    1  A    between atoms: C4_4  and  C9_9 
REMARK    2  A    between atoms: C5_5  and  C8_8 
ROOT
HETATM    1  C1  UNL     1     -35.825  14.716  -3.661  1.00 20.00     0.032 C 
HETATM    2  C2  UNL     1     -34.057  15.685  -5.164  1.00 20.00     0.038 C 
HETATM    3  C3  UNL     1     -36.297  13.813  -4.801  1.00 20.00     0.168 C 
HETATM    4  C4  UNL     1     -34.337  15.033  -3.800  1.00 20.00     0.008 C 
HETATM    5  C5  UNL     1     -35.091  15.285  -6.224  1.00 20.00     0.121 C 
HETATM    6  O10 UNL     1     -35.523  13.945  -5.995  1.00 20.00    -0.386 OA
ENDROOT
BRANCH   4   7
HETATM    7  C9  UNL     1     -33.839  15.910  -2.655  1.00 20.00     0.082 C 
HETATM    8  C7  UNL     1     -33.162  17.166  -3.177  1.00 20.00     0.027 C 
HETATM    9 CL11 UNL     1     -35.214  16.355  -1.611  1.00 20.00    -0.125 Cl
ENDBRANCH   4   7
BRANCH   5  10
HETATM   10  C8  UNL     1     -34.510  15.371  -7.629  1.00 20.00     0.027 C 
HETATM   11  C6  UNL     1     -33.949  16.726  -7.917  1.00 20.00     0.007 C 
ENDBRANCH   5  10
TORSDOF 2
ENDMDL
MODEL 2
REMARK VINA RESULT:      -4.3      2.902      4.787
REMARK  2 active torsions:
REMARK  status: ('A' for Active; 'I' for Inactive)
REMARK    1  A    between atoms: C4_4  and  C9_9 
REMARK    2  A    between atoms: C5_5  and  C8_8 
ROOT
HETATM    1  C1  UNL     1     -35.171  15.856  -2.228  1.00 20.00     0.032 C 
HETATM    2  C2  UNL     1     -33.038  16.888  -3.070  1.00 20.00     0.038 C 
HETATM    3  C3  UNL     1     -35.365  17.038  -1.276  1.00 20.00     0.168 C 
HETATM    4  C4  UNL     1     -34.394  16.282  -3.472  1.00 20.00     0.008 C 
HETATM    5  C5  UNL     1     -33.064  17.489  -1.660  1.00 20.00     0.121 C 
HETATM    6  O10 UNL     1     -34.353  18.039  -1.394  1.00 20.00    -0.386 OA
ENDROOT
BRANCH   4   7
HETATM    7  C9  UNL     1     -34.214  15.123  -4.449  1.00 20.00     0.082 C 
HETATM    8  C7  UNL     1     -32.810  14.551  -4.372  1.00 20.00     0.027 C 
HETATM    9 CL11 UNL     1     -35.406  13.850  -4.077  1.00 20.00    -0.125 Cl
ENDBRANCH   4   7
BRANCH   5  10
HETATM   10  C8  UNL     1     -32.027  18.594  -1.506  1.00 20.00     0.027 C 
HETATM   11  C6  UNL     1     -31.134  18.359  -0.331  1.00 20.00     0.007 C 
ENDBRANCH   5  10
TORSDOF 2
ENDMDL
MODEL 3
REMARK VINA RESULT:      -4.3      2.173      3.101
REMARK  2 active torsions:
REMARK  status: ('A' for Active; 'I' for Inactive)
REMARK    1  A    between atoms: C4_4  and  C9_9 
REMARK    2  A    between atoms: C5_5  and  C8_8 
ROOT
HETATM    1  C1  UNL     1     -32.970  15.702  -3.395  1.00 20.00     0.032 C 
HETATM    2  C2  UNL     1     -35.480  15.567  -3.313  1.00 20.00     0.038 C 
HETATM    3  C3  UNL     1     -32.962  14.791  -4.624  1.00 20.00     0.168 C 
HETATM    4  C4  UNL     1     -34.265  16.510  -3.326  1.00 20.00     0.008 C 
HETATM    5  C5  UNL     1     -35.182  14.224  -3.991  1.00 20.00     0.121 C 
HETATM    6  O10 UNL     1     -34.268  14.420  -5.069  1.00 20.00    -0.386 OA
ENDROOT
BRANCH   4   7
HETATM    7  C9  UNL     1     -34.280  17.448  -2.122  1.00 20.00     0.082 C 
HETATM    8  C7  UNL     1     -35.135  16.888  -0.999  1.00 20.00     0.027 C 
HETATM    9 CL11 UNL     1     -32.611  17.693  -1.545  1.00 20.00    -0.125 Cl
ENDBRANCH   4   7
BRANCH   5  10
HETATM   10  C8  UNL     1     -36.448  13.585  -4.542  1.00 20.00     0.027 C 
HETATM   11  C6  UNL     1     -37.638  14.474  -4.376  1.00 20.00     0.007 C 
ENDBRANCH   5  10
TORSDOF 2
ENDMDL
MODEL 4
REMARK VINA RESULT:      -4.2      3.105      5.469
REMARK  2 active torsions:
REMARK  status: ('A' for Active; 'I' for Inactive)
REMARK    1  A    between atoms: C4_4  and  C9_9 
REMARK    2  A    between atoms: C5_5  and  C8_8 
ROOT
HETATM    1  C1  UNL     1     -33.041  17.437  -3.089  1.00 20.00     0.032 C 
HETATM    2  C2  UNL     1     -34.900  16.258  -1.873  1.00 20.00     0.038 C 
HETATM    3  C3  UNL     1     -32.651  18.154  -1.795  1.00 20.00     0.168 C 
HETATM    4  C4  UNL     1     -33.676  16.081  -2.788  1.00 20.00     0.008 C 
HETATM    5  C5  UNL     1     -34.804  17.523  -1.012  1.00 20.00     0.121 C 
HETATM    6  O10 UNL     1     -33.442  17.771  -0.668  1.00 20.00    -0.386 OA
ENDROOT
BRANCH   4   7
HETATM    7  C9  UNL     1     -34.047  15.337  -4.068  1.00 20.00     0.082 C 
HETATM    8  C7  UNL     1     -32.942  14.384  -4.491  1.00 20.00     0.027 C 
HETATM    9 CL11 UNL     1     -35.558  14.429  -3.806  1.00 20.00    -0.125 Cl
ENDBRANCH   4   7
BRANCH   5  10
HETATM   10  C8  UNL     1     -35.608  17.384   0.274  1.00 20.00     0.027 C 
HETATM   11  C6  UNL     1     -34.829  17.833   1.468  1.00 20.00     0.007 C 
ENDBRANCH   5  10
TORSDOF 2
ENDMDL
MODEL 5
REMARK VINA RESULT:      -4.2      2.989      5.326
REMARK  2 active torsions:
REMARK  status: ('A' for Active; 'I' for Inactive)
REMARK    1  A    between atoms: C4_4  and  C9_9 
REMARK    2  A    between atoms: C5_5  and  C8_8 
ROOT
HETATM    1  C1  UNL     1     -33.146  17.233  -3.547  1.00 20.00     0.032 C 
HETATM    2  C2  UNL     1     -34.804  15.964  -2.145  1.00 20.00     0.038 C 
HETATM    3  C3  UNL     1     -32.739  18.054  -2.322  1.00 20.00     0.168 C 
HETATM    4  C4  UNL     1     -33.633  15.845  -3.135  1.00 20.00     0.008 C 
HETATM    5  C5  UNL     1     -34.769  17.280  -1.357  1.00 20.00     0.121 C 
HETATM    6  O10 UNL     1     -33.416  17.667  -1.124  1.00 20.00    -0.386 OA
ENDROOT
BRANCH   4   7
HETATM    7  C9  UNL     1     -34.016  15.000  -4.346  1.00 20.00     0.082 C 
HETATM    8  C7  UNL     1     -35.245  14.154  -4.061  1.00 20.00     0.027 C 
HETATM    9 CL11 UNL     1     -34.330  16.071  -5.737  1.00 20.00    -0.125 Cl
ENDBRANCH   4   7
BRANCH   5  10
HETATM   10  C8  UNL     1     -35.470  17.143  -0.013  1.00 20.00     0.027 C 
HETATM   11  C6  UNL     1     -34.695  17.794   1.087  1.00 20.00     0.007 C 
ENDBRANCH   5  10
TORSDOF 2
ENDMDL
MODEL 6
REMARK VINA RESULT:      -4.2      2.693      4.289
REMARK  2 active torsions:
REMARK  status: ('A' for Active; 'I' for Inactive)
REMARK    1  A    between atoms: C4_4  and  C9_9 
REMARK    2  A    between atoms: C5_5  and  C8_8 
ROOT
HETATM    1  C1  UNL     1     -33.273  17.955  -1.007  1.00 20.00     0.032 C 
HETATM    2  C2  UNL     1     -34.655  16.140  -2.065  1.00 20.00     0.038 C 
HETATM    3  C3  UNL     1     -32.567  18.196  -2.343  1.00 20.00     0.168 C 
HETATM    4  C4  UNL     1     -34.690  17.430  -1.227  1.00 20.00     0.008 C 
HETATM    5  C5  UNL     1     -33.415  16.064  -2.965  1.00 20.00     0.121 C 
HETATM    6  O10 UNL     1     -33.057  17.374  -3.404  1.00 20.00    -0.386 OA
ENDROOT
BRANCH   4   7
HETATM    7  C9  UNL     1     -35.421  17.211   0.094  1.00 20.00     0.082 C 
HETATM    8  C7  UNL     1     -34.657  17.824   1.255  1.00 20.00     0.027 C 
HETATM    9 CL11 UNL     1     -37.048  17.934  -0.005  1.00 20.00    -0.125 Cl
ENDBRANCH   4   7
BRANCH   5  10
HETATM   10  C8  UNL     1     -33.669  15.198  -4.191  1.00 20.00     0.027 C 
HETATM   11  C6  UNL     1     -34.753  14.197  -3.950  1.00 20.00     0.007 C 
ENDBRANCH   5  10
TORSDOF 2
ENDMDL
MODEL 7
REMARK VINA RESULT:      -4.0      1.556      1.845
REMARK  2 active torsions:
REMARK  status: ('A' for Active; 'I' for Inactive)
REMARK    1  A    between atoms: C4_4  and  C9_9 
REMARK    2  A    between atoms: C5_5  and  C8_8 
ROOT
HETATM    1  C1  UNL     1     -34.798  15.204  -2.960  1.00 20.00     0.032 C 
HETATM    2  C2  UNL     1     -34.166  16.971  -4.634  1.00 20.00     0.038 C 
HETATM    3  C3  UNL     1     -34.646  14.130  -4.038  1.00 20.00     0.168 C 
HETATM    4  C4  UNL     1     -33.875  16.389  -3.240  1.00 20.00     0.008 C 
HETATM    5  C5  UNL     1     -34.762  15.928  -5.588  1.00 20.00     0.121 C 
HETATM    6  O10 UNL     1     -34.213  14.643  -5.300  1.00 20.00    -0.386 OA
ENDROOT
BRANCH   4   7
HETATM    7  C9  UNL     1     -33.991  17.460  -2.159  1.00 20.00     0.082 C 
HETATM    8  C7  UNL     1     -34.908  17.011  -1.035  1.00 20.00     0.027 C 
HETATM    9 CL11 UNL     1     -32.370  17.818  -1.508  1.00 20.00    -0.125 Cl
ENDBRANCH   4   7
BRANCH   5  10
HETATM   10  C8  UNL     1     -34.461  16.266  -7.041  1.00 20.00     0.027 C 
HETATM   11  C6  UNL     1     -33.787  15.134  -7.748  1.00 20.00     0.007 C 
ENDBRANCH   5  10
TORSDOF 2
ENDMDL
MODEL 8
REMARK VINA RESULT:      -3.8      1.371      1.882
REMARK  2 active torsions:
REMARK  status: ('A' for Active; 'I' for Inactive)
REMARK    1  A    between atoms: C4_4  and  C9_9 
REMARK    2  A    between atoms: C5_5  and  C8_8 
ROOT
HETATM    1  C1  UNL     1     -34.765  15.895  -2.349  1.00 20.00     0.032 C 
HETATM    2  C2  UNL     1     -33.613  17.080  -4.245  1.00 20.00     0.038 C 
HETATM    3  C3  UNL     1     -35.292  14.844  -3.328  1.00 20.00     0.168 C 
HETATM    4  C4  UNL     1     -33.441  16.479  -2.839  1.00 20.00     0.008 C 
HETATM    5  C5  UNL     1     -34.758  16.420  -5.024  1.00 20.00     0.121 C 
HETATM    6  O10 UNL     1     -34.849  15.040  -4.672  1.00 20.00    -0.386 OA
ENDROOT
BRANCH   4   7
HETATM    7  C9  UNL     1     -32.885  17.510  -1.861  1.00 20.00     0.082 C 
HETATM    8  C7  UNL     1     -32.527  18.804  -2.570  1.00 20.00     0.027 C 
HETATM    9 CL11 UNL     1     -34.095  17.832  -0.592  1.00 20.00    -0.125 Cl
ENDBRANCH   4   7
BRANCH   5  10
HETATM   10  C8  UNL     1     -34.538  16.521  -6.527  1.00 20.00     0.027 C 
HETATM   11  C6  UNL     1     -34.029  15.238  -7.102  1.00 20.00     0.007 C 
ENDBRANCH   5  10
TORSDOF 2
ENDMDL
MODEL 9
REMARK VINA RESULT:      -3.8      3.905      5.719
REMARK  2 active torsions:
REMARK  status: ('A' for Active; 'I' for Inactive)
REMARK    1  A    between atoms: C4_4  and  C9_9 
REMARK    2  A    between atoms: C5_5  and  C8_8 
ROOT
HETATM    1  C1  UNL     1     -32.288  18.610   0.559  1.00 20.00     0.032 C 
HETATM    2  C2  UNL     1     -34.007  17.754  -1.065  1.00 20.00     0.038 C 
HETATM    3  C3  UNL     1     -31.322  18.864  -0.600  1.00 20.00     0.168 C 
HETATM    4  C4  UNL     1     -33.738  18.730   0.093  1.00 20.00     0.008 C 
HETATM    5  C5  UNL     1     -32.734  17.421  -1.853  1.00 20.00     0.121 C 
HETATM    6  O10 UNL     1     -31.873  18.559  -1.882  1.00 20.00    -0.386 OA
ENDROOT
BRANCH   4   7
HETATM    7  C9  UNL     1     -34.718  18.509   1.242  1.00 20.00     0.082 C 
HETATM    8  C7  UNL     1     -35.704  17.400   0.919  1.00 20.00     0.027 C 
HETATM    9 CL11 UNL     1     -33.811  18.098   2.720  1.00 20.00    -0.125 Cl
ENDBRANCH   4   7
BRANCH   5  10
HETATM   10  C8  UNL     1     -33.055  17.023  -3.287  1.00 20.00     0.027 C 
HETATM   11  C6  UNL     1     -33.714  15.684  -3.359  1.00 20.00     0.007 C 
ENDBRANCH   5  10
TORSDOF 2
ENDMDL
