MODEL 1
REMARK VINA RESULT:      -4.4      0.000      0.000
REMARK  3 active torsions:
REMARK  status: ('A' for Active; 'I' for Inactive)
REMARK    1  A    between atoms: C4_4  and  C5_5 
REMARK    2  A    between atoms: C4_4  and  O7_7 
REMARK    3  A    between atoms: C5_5  and  C6_6 
ROOT
HETATM    1  C1  UNL     1     -33.197   4.702   2.591  1.00 20.00     0.014 C 
HETATM    2  C5  UNL     1     -33.671   6.087   2.980  1.00 20.00     0.023 C 
ENDROOT
BRANCH   2   3
HETATM    3  C4  UNL     1     -32.494   7.077   2.980  1.00 20.00     0.172 C 
BRANCH   3   4
HETATM    4  O7  UNL     1     -32.106   7.352   1.637  1.00 20.00    -0.396 OA
HETATM    5  C3  UNL     1     -32.827   8.455   1.104  1.00 20.00     0.201 C 
ENDBRANCH   3   4
ENDBRANCH   2   3
BRANCH   2   6
HETATM    6  C6  UNL     1     -34.426   6.123   4.332  1.00 20.00     0.084 C 
HETATM    7  C2  UNL     1     -34.799   4.741   4.861  1.00 20.00     0.027 C 
HETATM    8 CL8  UNL     1     -33.517   7.010   5.596  1.00 20.00    -0.125 Cl
ENDBRANCH   2   6
TORSDOF 3
ENDMDL
MODEL 2
REMARK VINA RESULT:      -3.6      1.007      1.469
REMARK  3 active torsions:
REMARK  status: ('A' for Active; 'I' for Inactive)
REMARK    1  A    between atoms: C4_4  and  C5_5 
REMARK    2  A    between atoms: C4_4  and  O7_7 
REMARK    3  A    between atoms: C5_5  and  C6_6 
ROOT
HETATM    1  C1  UNL     1     -31.850   7.644   3.839  1.00 20.00     0.014 C 
HETATM    2  C5  UNL     1     -32.812   6.622   3.269  1.00 20.00     0.023 C 
ENDROOT
BRANCH   2   3
HETATM    3  C4  UNL     1     -33.181   6.982   1.820  1.00 20.00     0.172 C 
BRANCH   3   4
HETATM    4  O7  UNL     1     -32.316   8.012   1.352  1.00 20.00    -0.396 OA
HETATM    5  C3  UNL     1     -32.989   8.889   0.460  1.00 20.00     0.201 C 
ENDBRANCH   3   4
ENDBRANCH   2   3
BRANCH   2   6
HETATM    6  C6  UNL     1     -34.083   6.422   4.132  1.00 20.00     0.084 C 
HETATM    7  C2  UNL     1     -34.641   5.003   4.077  1.00 20.00     0.027 C 
HETATM    8 CL8  UNL     1     -33.823   6.886   5.843  1.00 20.00    -0.125 Cl
ENDBRANCH   2   6
TORSDOF 3
ENDMDL
MODEL 3
REMARK VINA RESULT:      -3.6     11.011     11.881
REMARK  3 active torsions:
REMARK  status: ('A' for Active; 'I' for Inactive)
REMARK    1  A    between atoms: C4_4  and  C5_5 
REMARK    2  A    between atoms: C4_4  and  O7_7 
REMARK    3  A    between atoms: C5_5  and  C6_6 
ROOT
HETATM    1  C1  UNL     1     -35.640  14.508  -6.127  1.00 20.00     0.014 C 
HETATM    2  C5  UNL     1     -35.846  14.074  -4.691  1.00 20.00     0.023 C 
ENDROOT
BRANCH   2   3
HETATM    3  C4  UNL     1     -37.076  14.776  -4.090  1.00 20.00     0.172 C 
BRANCH   3   4
HETATM    4  O7  UNL     1     -38.241  14.000  -4.354  1.00 20.00    -0.396 OA
HETATM    5  C3  UNL     1     -39.414  14.802  -4.328  1.00 20.00     0.201 C 
ENDBRANCH   3   4
ENDBRANCH   2   3
BRANCH   2   6
HETATM    6  C6  UNL     1     -34.597  14.280  -3.799  1.00 20.00     0.084 C 
HETATM    7  C2  UNL     1     -33.326  14.580  -4.587  1.00 20.00     0.027 C 
HETATM    8 CL8  UNL     1     -34.843  15.562  -2.571  1.00 20.00    -0.125 Cl
ENDBRANCH   2   6
TORSDOF 3
ENDMDL
MODEL 4
REMARK VINA RESULT:      -3.5     15.846     16.360
REMARK  3 active torsions:
REMARK  status: ('A' for Active; 'I' for Inactive)
REMARK    1  A    between atoms: C4_4  and  C5_5 
REMARK    2  A    between atoms: C4_4  and  O7_7 
REMARK    3  A    between atoms: C5_5  and  C6_6 
ROOT
HETATM    1  C1  UNL     1     -22.257  17.188   8.994  1.00 20.00     0.014 C 
HETATM    2  C5  UNL     1     -23.638  17.637   9.426  1.00 20.00     0.023 C 
ENDROOT
BRANCH   2   3
HETATM    3  C4  UNL     1     -23.893  19.089   8.986  1.00 20.00     0.172 C 
BRANCH   3   4
HETATM    4  O7  UNL     1     -23.727  19.193   7.575  1.00 20.00    -0.396 OA
HETATM    5  C3  UNL     1     -24.981  19.209   6.906  1.00 20.00     0.201 C 
ENDBRANCH   3   4
ENDBRANCH   2   3
BRANCH   2   6
HETATM    6  C6  UNL     1     -23.897  17.463  10.943  1.00 20.00     0.084 C 
HETATM    7  C2  UNL     1     -24.503  16.111  11.309  1.00 20.00     0.027 C 
HETATM    8 CL8  UNL     1     -22.418  17.727  11.920  1.00 20.00    -0.125 Cl
ENDBRANCH   2   6
TORSDOF 3
ENDMDL
MODEL 5
REMARK VINA RESULT:      -3.3      2.609      3.780
REMARK  3 active torsions:
REMARK  status: ('A' for Active; 'I' for Inactive)
REMARK    1  A    between atoms: C4_4  and  C5_5 
REMARK    2  A    between atoms: C4_4  and  O7_7 
REMARK    3  A    between atoms: C5_5  and  C6_6 
ROOT
HETATM    1  C1  UNL     1     -33.102   4.710   2.174  1.00 20.00     0.014 C 
HETATM    2  C5  UNL     1     -33.414   5.623   3.342  1.00 20.00     0.023 C 
ENDROOT
BRANCH   2   3
HETATM    3  C4  UNL     1     -34.893   5.493   3.744  1.00 20.00     0.172 C 
BRANCH   3   4
HETATM    4  O7  UNL     1     -35.008   4.600   4.849  1.00 20.00    -0.396 OA
HETATM    5  C3  UNL     1     -34.669   5.242   6.070  1.00 20.00     0.201 C 
ENDBRANCH   3   4
ENDBRANCH   2   3
BRANCH   2   6
HETATM    6  C6  UNL     1     -33.036   7.103   3.087  1.00 20.00     0.084 C 
HETATM    7  C2  UNL     1     -31.990   7.642   4.059  1.00 20.00     0.027 C 
HETATM    8 CL8  UNL     1     -32.476   7.383   1.408  1.00 20.00    -0.125 Cl
ENDBRANCH   2   6
TORSDOF 3
ENDMDL
MODEL 6
REMARK VINA RESULT:      -3.3     11.361     11.764
REMARK  3 active torsions:
REMARK  status: ('A' for Active; 'I' for Inactive)
REMARK    1  A    between atoms: C4_4  and  C5_5 
REMARK    2  A    between atoms: C4_4  and  O7_7 
REMARK    3  A    between atoms: C5_5  and  C6_6 
ROOT
HETATM    1  C1  UNL     1     -32.667  14.693  -4.269  1.00 20.00     0.014 C 
HETATM    2  C5  UNL     1     -34.117  15.070  -4.047  1.00 20.00     0.023 C 
ENDROOT
BRANCH   2   3
HETATM    3  C4  UNL     1     -34.843  15.222  -5.395  1.00 20.00     0.172 C 
BRANCH   3   4
HETATM    4  O7  UNL     1     -35.529  14.013  -5.704  1.00 20.00    -0.396 OA
HETATM    5  C3  UNL     1     -36.382  13.614  -4.640  1.00 20.00     0.201 C 
ENDBRANCH   3   4
ENDBRANCH   2   3
BRANCH   2   6
HETATM    6  C6  UNL     1     -34.299  16.335  -3.173  1.00 20.00     0.084 C 
HETATM    7  C2  UNL     1     -35.174  16.107  -1.944  1.00 20.00     0.027 C 
HETATM    8 CL8  UNL     1     -32.732  17.036  -2.656  1.00 20.00    -0.125 Cl
ENDBRANCH   2   6
TORSDOF 3
ENDMDL
MODEL 7
REMARK VINA RESULT:      -3.3     11.117     11.612
REMARK  3 active torsions:
REMARK  status: ('A' for Active; 'I' for Inactive)
REMARK    1  A    between atoms: C4_4  and  C5_5 
REMARK    2  A    between atoms: C4_4  and  O7_7 
REMARK    3  A    between atoms: C5_5  and  C6_6 
ROOT
HETATM    1  C1  UNL     1     -33.582  14.021  -4.245  1.00 20.00     0.014 C 
HETATM    2  C5  UNL     1     -34.862  14.615  -3.694  1.00 20.00     0.023 C 
ENDROOT
BRANCH   2   3
HETATM    3  C4  UNL     1     -35.981  14.545  -4.747  1.00 20.00     0.172 C 
BRANCH   3   4
HETATM    4  O7  UNL     1     -37.098  13.845  -4.206  1.00 20.00    -0.396 OA
HETATM    5  C3  UNL     1     -38.273  14.644  -4.233  1.00 20.00     0.201 C 
ENDBRANCH   3   4
ENDBRANCH   2   3
BRANCH   2   6
HETATM    6  C6  UNL     1     -34.692  16.058  -3.158  1.00 20.00     0.084 C 
HETATM    7  C2  UNL     1     -35.247  16.255  -1.750  1.00 20.00     0.027 C 
HETATM    8 CL8  UNL     1     -32.986  16.603  -3.199  1.00 20.00    -0.125 Cl
ENDBRANCH   2   6
TORSDOF 3
ENDMDL
MODEL 8
REMARK VINA RESULT:      -3.3     11.210     11.924
REMARK  3 active torsions:
REMARK  status: ('A' for Active; 'I' for Inactive)
REMARK    1  A    between atoms: C4_4  and  C5_5 
REMARK    2  A    between atoms: C4_4  and  O7_7 
REMARK    3  A    between atoms: C5_5  and  C6_6 
ROOT
HETATM    1  C1  UNL     1     -36.996  16.275  -3.755  1.00 20.00     0.014 C 
HETATM    2  C5  UNL     1     -35.884  15.341  -4.186  1.00 20.00     0.023 C 
ENDROOT
BRANCH   2   3
HETATM    3  C4  UNL     1     -36.455  13.961  -4.553  1.00 20.00     0.172 C 
BRANCH   3   4
HETATM    4  O7  UNL     1     -35.977  13.576  -5.838  1.00 20.00    -0.396 OA
HETATM    5  C3  UNL     1     -35.649  14.709  -6.630  1.00 20.00     0.201 C 
ENDBRANCH   3   4
ENDBRANCH   2   3
BRANCH   2   6
HETATM    6  C6  UNL     1     -34.747  15.213  -3.143  1.00 20.00     0.084 C 
HETATM    7  C2  UNL     1     -33.367  15.557  -3.698  1.00 20.00     0.027 C 
HETATM    8 CL8  UNL     1     -35.053  16.197  -1.677  1.00 20.00    -0.125 Cl
ENDBRANCH   2   6
TORSDOF 3
ENDMDL
MODEL 9
REMARK VINA RESULT:      -3.3     16.054     16.388
REMARK  3 active torsions:
REMARK  status: ('A' for Active; 'I' for Inactive)
REMARK    1  A    between atoms: C4_4  and  C5_5 
REMARK    2  A    between atoms: C4_4  and  O7_7 
REMARK    3  A    between atoms: C5_5  and  C6_6 
ROOT
HETATM    1  C1  UNL     1     -24.708  18.823   9.482  1.00 20.00     0.014 C 
HETATM    2  C5  UNL     1     -23.753  18.050  10.368  1.00 20.00     0.023 C 
ENDROOT
BRANCH   2   3
HETATM    3  C4  UNL     1     -23.140  16.870   9.594  1.00 20.00     0.172 C 
BRANCH   3   4
HETATM    4  O7  UNL     1     -21.800  17.187   9.230  1.00 20.00    -0.396 OA
HETATM    5  C3  UNL     1     -21.666  17.337   7.823  1.00 20.00     0.201 C 
ENDBRANCH   3   4
ENDBRANCH   2   3
BRANCH   2   6
HETATM    6  C6  UNL     1     -24.393  17.571  11.694  1.00 20.00     0.084 C 
HETATM    7  C2  UNL     1     -25.681  18.308  12.052  1.00 20.00     0.027 C 
HETATM    8 CL8  UNL     1     -24.706  15.807  11.701  1.00 20.00    -0.125 Cl
ENDBRANCH   2   6
TORSDOF 3
ENDMDL
