MODEL 1
REMARK VINA RESULT:      -4.9      0.000      0.000
REMARK  1 active torsions:
REMARK  status: ('A' for Active; 'I' for Inactive)
REMARK    1  A    between atoms: C1_1  and  C3_3 
REMARK       I    between atoms: C3_3  and  N11_11 
ROOT
HETATM    1  C3  UNL     1     -23.693  18.470   7.832  1.00 20.00     0.243 C 
HETATM    2  C4  UNL     1     -23.268  18.099  11.508  1.00 20.00     0.030 C 
HETATM    3  C5  UNL     1     -22.628  18.156  10.126  1.00 20.00     0.127 C 
HETATM    4  C6  UNL     1     -25.020  18.059   9.883  1.00 20.00     0.134 C 
HETATM    5  C7  UNL     1     -24.654  17.477  11.254  1.00 20.00    -0.030 C 
HETATM    6  C9  UNL     1     -25.659  17.884  12.332  1.00 20.00     0.016 C 
HETATM    7  C10 UNL     1     -24.564  15.943  11.190  1.00 20.00     0.016 C 
HETATM    8  N11 UNL     1     -23.749  18.242   9.194  1.00 20.00    -0.348 N 
HETATM    9  O12 UNL     1     -22.759  18.132   7.104  1.00 20.00    -0.268 OA
ENDROOT
BRANCH   1  10
HETATM   10  C1  UNL     1     -24.843  19.173   7.231  1.00 20.00     0.070 C 
HETATM   11  C2  UNL     1     -25.799  18.556   6.523  1.00 20.00    -0.026 C 
HETATM   12  C8  UNL     1     -26.963  19.263   5.909  1.00 20.00     0.036 C 
ENDBRANCH   1  10
TORSDOF 1
ENDMDL
MODEL 2
REMARK VINA RESULT:      -4.3     14.100     16.278
REMARK  1 active torsions:
REMARK  status: ('A' for Active; 'I' for Inactive)
REMARK    1  A    between atoms: C1_1  and  C3_3 
REMARK       I    between atoms: C3_3  and  N11_11 
ROOT
HETATM    1  C3  UNL     1     -34.141  17.167  -1.722  1.00 20.00     0.243 C 
HETATM    2  C4  UNL     1     -33.732  14.503  -4.283  1.00 20.00     0.030 C 
HETATM    3  C5  UNL     1     -33.124  15.671  -3.517  1.00 20.00     0.127 C 
HETATM    4  C6  UNL     1     -35.484  15.566  -3.052  1.00 20.00     0.134 C 
HETATM    5  C7  UNL     1     -35.226  14.861  -4.390  1.00 20.00    -0.030 C 
HETATM    6  C9  UNL     1     -36.093  13.611  -4.551  1.00 20.00     0.016 C 
HETATM    7  C10 UNL     1     -35.480  15.816  -5.568  1.00 20.00     0.016 C 
HETATM    8  N11 UNL     1     -34.218  16.201  -2.706  1.00 20.00    -0.348 N 
HETATM    9  O12 UNL     1     -33.321  18.085  -1.705  1.00 20.00    -0.268 OA
ENDROOT
BRANCH   1  10
HETATM   10  C1  UNL     1     -35.120  17.069  -0.621  1.00 20.00     0.070 C 
HETATM   11  C2  UNL     1     -35.109  17.872   0.452  1.00 20.00    -0.026 C 
HETATM   12  C8  UNL     1     -36.093  17.773   1.570  1.00 20.00     0.036 C 
ENDBRANCH   1  10
TORSDOF 1
ENDMDL
MODEL 3
REMARK VINA RESULT:      -4.3     13.872     17.131
REMARK  1 active torsions:
REMARK  status: ('A' for Active; 'I' for Inactive)
REMARK    1  A    between atoms: C1_1  and  C3_3 
REMARK       I    between atoms: C3_3  and  N11_11 
ROOT
HETATM    1  C3  UNL     1     -34.028  16.140  -2.687  1.00 20.00     0.243 C 
HETATM    2  C4  UNL     1     -36.187  13.701  -4.480  1.00 20.00     0.030 C 
HETATM    3  C5  UNL     1     -34.784  14.168  -4.113  1.00 20.00     0.127 C 
HETATM    4  C6  UNL     1     -36.377  15.831  -3.411  1.00 20.00     0.134 C 
HETATM    5  C7  UNL     1     -37.013  15.000  -4.534  1.00 20.00    -0.030 C 
HETATM    6  C9  UNL     1     -38.496  14.735  -4.274  1.00 20.00     0.016 C 
HETATM    7  C10 UNL     1     -36.848  15.701  -5.892  1.00 20.00     0.016 C 
HETATM    8  N11 UNL     1     -34.982  15.409  -3.369  1.00 20.00    -0.348 N 
HETATM    9  O12 UNL     1     -32.837  16.193  -2.992  1.00 20.00    -0.268 OA
ENDROOT
BRANCH   1  10
HETATM   10  C1  UNL     1     -34.495  16.900  -1.510  1.00 20.00     0.070 C 
HETATM   11  C2  UNL     1     -33.772  17.861  -0.917  1.00 20.00    -0.026 C 
HETATM   12  C8  UNL     1     -34.238  18.629   0.276  1.00 20.00     0.036 C 
ENDBRANCH   1  10
TORSDOF 1
ENDMDL
MODEL 4
REMARK VINA RESULT:      -4.3     14.625     18.013
REMARK  1 active torsions:
REMARK  status: ('A' for Active; 'I' for Inactive)
REMARK    1  A    between atoms: C1_1  and  C3_3 
REMARK       I    between atoms: C3_3  and  N11_11 
ROOT
HETATM    1  C3  UNL     1     -34.618  14.938  -3.727  1.00 20.00     0.243 C 
HETATM    2  C4  UNL     1     -38.271  14.613  -4.338  1.00 20.00     0.030 C 
HETATM    3  C5  UNL     1     -36.879  14.003  -4.438  1.00 20.00     0.127 C 
HETATM    4  C6  UNL     1     -36.683  16.306  -3.768  1.00 20.00     0.134 C 
HETATM    5  C7  UNL     1     -38.029  16.127  -4.483  1.00 20.00    -0.030 C 
HETATM    6  C9  UNL     1     -39.139  16.941  -3.817  1.00 20.00     0.016 C 
HETATM    7  C10 UNL     1     -37.918  16.527  -5.963  1.00 20.00     0.016 C 
HETATM    8  N11 UNL     1     -35.973  15.049  -3.971  1.00 20.00    -0.348 N 
HETATM    9  O12 UNL     1     -33.861  14.167  -4.316  1.00 20.00    -0.268 OA
ENDROOT
BRANCH   1  10
HETATM   10  C1  UNL     1     -34.062  15.815  -2.677  1.00 20.00     0.070 C 
HETATM   11  C2  UNL     1     -33.145  16.763  -2.914  1.00 20.00    -0.026 C 
HETATM   12  C8  UNL     1     -32.576  17.649  -1.855  1.00 20.00     0.036 C 
ENDBRANCH   1  10
TORSDOF 1
ENDMDL
MODEL 5
REMARK VINA RESULT:      -4.3     15.963     18.294
REMARK  1 active torsions:
REMARK  status: ('A' for Active; 'I' for Inactive)
REMARK    1  A    between atoms: C1_1  and  C3_3 
REMARK       I    between atoms: C3_3  and  N11_11 
ROOT
HETATM    1  C3  UNL     1     -37.578  14.978  -4.578  1.00 20.00     0.243 C 
HETATM    2  C4  UNL     1     -33.985  15.122  -3.632  1.00 20.00     0.030 C 
HETATM    3  C5  UNL     1     -35.226  14.278  -3.889  1.00 20.00     0.127 C 
HETATM    4  C6  UNL     1     -35.844  16.604  -3.880  1.00 20.00     0.134 C 
HETATM    5  C7  UNL     1     -34.541  16.450  -3.084  1.00 20.00    -0.030 C 
HETATM    6  C9  UNL     1     -33.578  17.610  -3.339  1.00 20.00     0.016 C 
HETATM    7  C10 UNL     1     -34.831  16.346  -1.578  1.00 20.00     0.016 C 
HETATM    8  N11 UNL     1     -36.293  15.242  -4.143  1.00 20.00    -0.348 N 
HETATM    9  O12 UNL     1     -38.199  13.943  -4.339  1.00 20.00    -0.268 OA
ENDROOT
BRANCH   1  10
HETATM   10  C1  UNL     1     -38.229  16.026  -5.389  1.00 20.00     0.070 C 
HETATM   11  C2  UNL     1     -39.554  16.224  -5.414  1.00 20.00    -0.026 C 
HETATM   12  C8  UNL     1     -40.218  17.279  -6.237  1.00 20.00     0.036 C 
ENDBRANCH   1  10
TORSDOF 1
ENDMDL
MODEL 6
REMARK VINA RESULT:      -4.3      0.944      1.058
REMARK  1 active torsions:
REMARK  status: ('A' for Active; 'I' for Inactive)
REMARK    1  A    between atoms: C1_1  and  C3_3 
REMARK       I    between atoms: C3_3  and  N11_11 
ROOT
HETATM    1  C3  UNL     1     -24.781  18.845   7.530  1.00 20.00     0.243 C 
HETATM    2  C4  UNL     1     -23.104  18.434  10.824  1.00 20.00     0.030 C 
HETATM    3  C5  UNL     1     -22.982  18.714   9.332  1.00 20.00     0.127 C 
HETATM    4  C6  UNL     1     -25.233  18.016   9.821  1.00 20.00     0.134 C 
HETATM    5  C7  UNL     1     -24.315  17.488  10.931  1.00 20.00    -0.030 C 
HETATM    6  C9  UNL     1     -24.978  17.575  12.306  1.00 20.00     0.016 C 
HETATM    7  C10 UNL     1     -23.903  16.033  10.652  1.00 20.00     0.016 C 
HETATM    8  N11 UNL     1     -24.335  18.551   8.805  1.00 20.00    -0.348 N 
HETATM    9  O12 UNL     1     -24.085  18.791   6.516  1.00 20.00    -0.268 OA
ENDROOT
BRANCH   1  10
HETATM   10  C1  UNL     1     -26.193  19.254   7.402  1.00 20.00     0.070 C 
HETATM   11  C2  UNL     1     -26.995  18.842   6.411  1.00 20.00    -0.026 C 
HETATM   12  C8  UNL     1     -28.423  19.257   6.275  1.00 20.00     0.036 C 
ENDBRANCH   1  10
TORSDOF 1
ENDMDL
MODEL 7
REMARK VINA RESULT:      -4.2     11.762     15.308
REMARK  1 active torsions:
REMARK  status: ('A' for Active; 'I' for Inactive)
REMARK    1  A    between atoms: C1_1  and  C3_3 
REMARK       I    between atoms: C3_3  and  N11_11 
ROOT
HETATM    1  C3  UNL     1     -33.475  18.409  -1.547  1.00 20.00     0.243 C 
HETATM    2  C4  UNL     1     -34.339  16.780  -4.776  1.00 20.00     0.030 C 
HETATM    3  C5  UNL     1     -34.563  17.929  -3.801  1.00 20.00     0.127 C 
HETATM    4  C6  UNL     1     -33.173  16.267  -2.754  1.00 20.00     0.134 C 
HETATM    5  C7  UNL     1     -33.973  15.588  -3.873  1.00 20.00    -0.030 C 
HETATM    6  C9  UNL     1     -33.134  14.551  -4.623  1.00 20.00     0.016 C 
HETATM    7  C10 UNL     1     -35.235  14.915  -3.310  1.00 20.00     0.016 C 
HETATM    8  N11 UNL     1     -33.737  17.606  -2.641  1.00 20.00    -0.348 N 
HETATM    9  O12 UNL     1     -34.245  19.262  -1.104  1.00 20.00    -0.268 OA
ENDROOT
BRANCH   1  10
HETATM   10  C1  UNL     1     -32.171  18.216  -0.882  1.00 20.00     0.070 C 
HETATM   11  C2  UNL     1     -31.934  18.553   0.393  1.00 20.00    -0.026 C 
HETATM   12  C8  UNL     1     -30.616  18.363   1.069  1.00 20.00     0.036 C 
ENDBRANCH   1  10
TORSDOF 1
ENDMDL
MODEL 8
REMARK VINA RESULT:      -4.2     15.895     18.017
REMARK  1 active torsions:
REMARK  status: ('A' for Active; 'I' for Inactive)
REMARK    1  A    between atoms: C1_1  and  C3_3 
REMARK       I    between atoms: C3_3  and  N11_11 
ROOT
HETATM    1  C3  UNL     1     -35.692  15.003  -6.106  1.00 20.00     0.243 C 
HETATM    2  C4  UNL     1     -33.001  15.559  -3.602  1.00 20.00     0.030 C 
HETATM    3  C5  UNL     1     -33.745  14.593  -4.514  1.00 20.00     0.127 C 
HETATM    4  C6  UNL     1     -34.913  16.697  -4.475  1.00 20.00     0.134 C 
HETATM    5  C7  UNL     1     -34.069  16.592  -3.197  1.00 20.00    -0.030 C 
HETATM    6  C9  UNL     1     -33.440  17.934  -2.820  1.00 20.00     0.016 C 
HETATM    7  C10 UNL     1     -34.917  16.076  -2.024  1.00 20.00     0.016 C 
HETATM    8  N11 UNL     1     -34.827  15.381  -5.097  1.00 20.00    -0.348 N 
HETATM    9  O12 UNL     1     -36.052  13.846  -6.323  1.00 20.00    -0.268 OA
ENDROOT
BRANCH   1  10
HETATM   10  C1  UNL     1     -36.205  16.081  -6.976  1.00 20.00     0.070 C 
HETATM   11  C2  UNL     1     -37.485  16.478  -6.984  1.00 20.00    -0.026 C 
HETATM   12  C8  UNL     1     -38.009  17.564  -7.865  1.00 20.00     0.036 C 
ENDBRANCH   1  10
TORSDOF 1
ENDMDL
MODEL 9
REMARK VINA RESULT:      -4.1     12.991     16.303
REMARK  1 active torsions:
REMARK  status: ('A' for Active; 'I' for Inactive)
REMARK    1  A    between atoms: C1_1  and  C3_3 
REMARK       I    between atoms: C3_3  and  N11_11 
ROOT
HETATM    1  C3  UNL     1     -35.871  17.368  -1.497  1.00 20.00     0.243 C 
HETATM    2  C4  UNL     1     -34.713  16.352  -4.881  1.00 20.00     0.030 C 
HETATM    3  C5  UNL     1     -35.685  17.159  -4.030  1.00 20.00     0.127 C 
HETATM    4  C6  UNL     1     -34.414  15.697  -2.602  1.00 20.00     0.134 C 
HETATM    5  C7  UNL     1     -34.400  15.114  -4.021  1.00 20.00    -0.030 C 
HETATM    6  C9  UNL     1     -33.038  14.513  -4.374  1.00 20.00     0.016 C 
HETATM    7  C10 UNL     1     -35.490  14.042  -4.181  1.00 20.00     0.016 C 
HETATM    8  N11 UNL     1     -35.372  16.795  -2.650  1.00 20.00    -0.348 N 
HETATM    9  O12 UNL     1     -36.985  17.882  -1.396  1.00 20.00    -0.268 OA
ENDROOT
BRANCH   1  10
HETATM   10  C1  UNL     1     -34.985  17.355  -0.316  1.00 20.00     0.070 C 
HETATM   11  C2  UNL     1     -34.168  18.367   0.006  1.00 20.00    -0.026 C 
HETATM   12  C8  UNL     1     -33.267  18.357   1.197  1.00 20.00     0.036 C 
ENDBRANCH   1  10
TORSDOF 1
ENDMDL
