MODEL 1
REMARK VINA RESULT:      -4.6      0.000      0.000
REMARK  2 active torsions:
REMARK  status: ('A' for Active; 'I' for Inactive)
REMARK    1  A    between atoms: C5_5  and  C9_9 
REMARK    2  A    between atoms: C6_6  and  C10_10 
ROOT
HETATM    1  C1  UNL     1     -32.884  15.893  -3.421  1.00 20.00     0.005 C 
HETATM    2  C2  UNL     1     -34.846  16.452  -1.933  1.00 20.00     0.005 C 
HETATM    3  C3  UNL     1     -33.823  15.182  -4.393  1.00 20.00     0.006 C 
HETATM    4  C4  UNL     1     -35.785  15.741  -2.905  1.00 20.00     0.006 C 
HETATM    5  C5  UNL     1     -33.603  17.003  -2.645  1.00 20.00    -0.015 C 
HETATM    6  C6  UNL     1     -35.065  14.631  -3.681  1.00 20.00     0.003 C 
ENDROOT
BRANCH   6   7
HETATM    7  C10 UNL     1     -36.012  13.970  -4.680  1.00 20.00     0.082 C 
HETATM    8  C8  UNL     1     -35.717  14.416  -6.102  1.00 20.00     0.027 C 
HETATM    9 CL11 UNL     1     -37.697  14.378  -4.256  1.00 20.00    -0.125 Cl
ENDBRANCH   6   7
BRANCH   5  10
HETATM   10  C9  UNL     1     -32.657  17.663  -1.645  1.00 20.00     0.000 C 
HETATM   11  C7  UNL     1     -33.387  18.166  -0.443  1.00 20.00     0.005 C 
ENDBRANCH   5  10
TORSDOF 2
ENDMDL
MODEL 2
REMARK VINA RESULT:      -4.6      2.343      4.880
REMARK  2 active torsions:
REMARK  status: ('A' for Active; 'I' for Inactive)
REMARK    1  A    between atoms: C5_5  and  C9_9 
REMARK    2  A    between atoms: C6_6  and  C10_10 
ROOT
HETATM    1  C1  UNL     1     -33.125  16.579  -3.364  1.00 20.00     0.005 C 
HETATM    2  C2  UNL     1     -35.383  15.941  -2.432  1.00 20.00     0.005 C 
HETATM    3  C3  UNL     1     -32.816  17.354  -2.085  1.00 20.00     0.006 C 
HETATM    4  C4  UNL     1     -35.074  16.716  -1.153  1.00 20.00     0.006 C 
HETATM    5  C5  UNL     1     -34.104  15.428  -3.108  1.00 20.00    -0.015 C 
HETATM    6  C6  UNL     1     -34.094  17.868  -1.410  1.00 20.00     0.003 C 
ENDROOT
BRANCH   6   7
HETATM    7  C10 UNL     1     -33.764  18.595  -0.109  1.00 20.00     0.082 C 
HETATM    8  C8  UNL     1     -32.266  18.619   0.148  1.00 20.00     0.027 C 
HETATM    9 CL11 UNL     1     -34.596  17.787   1.248  1.00 20.00    -0.125 Cl
ENDBRANCH   6   7
BRANCH   5  10
HETATM   10  C9  UNL     1     -34.436  14.701  -4.409  1.00 20.00     0.000 C 
HETATM   11  C7  UNL     1     -35.666  13.865  -4.276  1.00 20.00     0.005 C 
ENDBRANCH   5  10
TORSDOF 2
ENDMDL
MODEL 3
REMARK VINA RESULT:      -4.6      1.230      1.710
REMARK  2 active torsions:
REMARK  status: ('A' for Active; 'I' for Inactive)
REMARK    1  A    between atoms: C5_5  and  C9_9 
REMARK    2  A    between atoms: C6_6  and  C10_10 
ROOT
HETATM    1  C1  UNL     1     -32.825  17.408  -2.016  1.00 20.00     0.005 C 
HETATM    2  C2  UNL     1     -35.088  16.672  -1.172  1.00 20.00     0.005 C 
HETATM    3  C3  UNL     1     -33.064  16.648  -3.319  1.00 20.00     0.006 C 
HETATM    4  C4  UNL     1     -35.327  15.912  -2.476  1.00 20.00     0.006 C 
HETATM    5  C5  UNL     1     -34.142  17.862  -1.374  1.00 20.00    -0.015 C 
HETATM    6  C6  UNL     1     -34.009  15.457  -3.116  1.00 20.00     0.003 C 
ENDROOT
BRANCH   6   7
HETATM    7  C10 UNL     1     -34.272  14.744  -4.441  1.00 20.00     0.082 C 
HETATM    8  C8  UNL     1     -34.481  15.737  -5.573  1.00 20.00     0.027 C 
HETATM    9 CL11 UNL     1     -35.714  13.705  -4.277  1.00 20.00    -0.125 Cl
ENDBRANCH   6   7
BRANCH   5  10
HETATM   10  C9  UNL     1     -33.879  18.574  -0.049  1.00 20.00     0.000 C 
HETATM   11  C7  UNL     1     -32.437  18.511   0.335  1.00 20.00     0.005 C 
ENDBRANCH   5  10
TORSDOF 2
ENDMDL
MODEL 4
REMARK VINA RESULT:      -4.4      1.825      2.751
REMARK  2 active torsions:
REMARK  status: ('A' for Active; 'I' for Inactive)
REMARK    1  A    between atoms: C5_5  and  C9_9 
REMARK    2  A    between atoms: C6_6  and  C10_10 
ROOT
HETATM    1  C1  UNL     1     -35.218  17.014  -1.224  1.00 20.00     0.005 C 
HETATM    2  C2  UNL     1     -32.982  17.822  -2.074  1.00 20.00     0.005 C 
HETATM    3  C3  UNL     1     -35.188  15.869  -2.234  1.00 20.00     0.006 C 
HETATM    4  C4  UNL     1     -32.952  16.677  -3.084  1.00 20.00     0.006 C 
HETATM    5  C5  UNL     1     -33.805  17.461  -0.830  1.00 20.00    -0.015 C 
HETATM    6  C6  UNL     1     -34.366  16.231  -3.477  1.00 20.00     0.003 C 
ENDROOT
BRANCH   6   7
HETATM    7  C10 UNL     1     -34.309  15.054  -4.449  1.00 20.00     0.082 C 
HETATM    8  C8  UNL     1     -35.338  13.994  -4.097  1.00 20.00     0.027 C 
HETATM    9 CL11 UNL     1     -32.673  14.340  -4.418  1.00 20.00    -0.125 Cl
ENDBRANCH   6   7
BRANCH   5  10
HETATM   10  C9  UNL     1     -33.862  18.639   0.140  1.00 20.00     0.000 C 
HETATM   11  C7  UNL     1     -34.076  18.185   1.547  1.00 20.00     0.005 C 
ENDBRANCH   5  10
TORSDOF 2
ENDMDL
MODEL 5
REMARK VINA RESULT:      -4.3      1.222      2.190
REMARK  2 active torsions:
REMARK  status: ('A' for Active; 'I' for Inactive)
REMARK    1  A    between atoms: C5_5  and  C9_9 
REMARK    2  A    between atoms: C6_6  and  C10_10 
ROOT
HETATM    1  C1  UNL     1     -35.271  16.883  -1.525  1.00 20.00     0.005 C 
HETATM    2  C2  UNL     1     -32.963  17.569  -2.285  1.00 20.00     0.005 C 
HETATM    3  C3  UNL     1     -35.214  15.667  -2.448  1.00 20.00     0.006 C 
HETATM    4  C4  UNL     1     -32.905  16.353  -3.208  1.00 20.00     0.006 C 
HETATM    5  C5  UNL     1     -33.872  17.320  -1.074  1.00 20.00    -0.015 C 
HETATM    6  C6  UNL     1     -34.305  15.917  -3.658  1.00 20.00     0.003 C 
ENDROOT
BRANCH   6   7
HETATM    7  C10 UNL     1     -34.224  14.672  -4.539  1.00 20.00     0.082 C 
HETATM    8  C8  UNL     1     -34.174  15.038  -6.013  1.00 20.00     0.027 C 
HETATM    9 CL11 UNL     1     -35.639  13.631  -4.224  1.00 20.00    -0.125 Cl
ENDBRANCH   6   7
BRANCH   5  10
HETATM   10  C9  UNL     1     -33.953  18.566  -0.195  1.00 20.00     0.000 C 
HETATM   11  C7  UNL     1     -32.920  18.548   0.884  1.00 20.00     0.005 C 
ENDBRANCH   5  10
TORSDOF 2
ENDMDL
MODEL 6
REMARK VINA RESULT:      -4.3      2.452      5.101
REMARK  2 active torsions:
REMARK  status: ('A' for Active; 'I' for Inactive)
REMARK    1  A    between atoms: C5_5  and  C9_9 
REMARK    2  A    between atoms: C6_6  and  C10_10 
ROOT
HETATM    1  C1  UNL     1     -35.232  15.604  -2.225  1.00 20.00     0.005 C 
HETATM    2  C2  UNL     1     -33.070  15.844  -3.507  1.00 20.00     0.005 C 
HETATM    3  C3  UNL     1     -35.039  17.001  -1.638  1.00 20.00     0.006 C 
HETATM    4  C4  UNL     1     -32.877  17.241  -2.920  1.00 20.00     0.006 C 
HETATM    5  C5  UNL     1     -34.554  15.465  -3.594  1.00 20.00    -0.015 C 
HETATM    6  C6  UNL     1     -33.555  17.379  -1.551  1.00 20.00     0.003 C 
ENDROOT
BRANCH   6   7
HETATM    7  C10 UNL     1     -33.390  18.797  -1.009  1.00 20.00     0.082 C 
HETATM    8  C8  UNL     1     -31.928  19.211  -0.977  1.00 20.00     0.027 C 
HETATM    9 CL11 UNL     1     -34.077  18.885   0.636  1.00 20.00    -0.125 Cl
ENDBRANCH   6   7
BRANCH   5  10
HETATM   10  C9  UNL     1     -34.717  14.046  -4.135  1.00 20.00     0.000 C 
HETATM   11  C7  UNL     1     -36.139  13.750  -4.486  1.00 20.00     0.005 C 
ENDBRANCH   5  10
TORSDOF 2
ENDMDL
MODEL 7
REMARK VINA RESULT:      -4.3      1.154      2.193
REMARK  2 active torsions:
REMARK  status: ('A' for Active; 'I' for Inactive)
REMARK    1  A    between atoms: C5_5  and  C9_9 
REMARK    2  A    between atoms: C6_6  and  C10_10 
ROOT
HETATM    1  C1  UNL     1     -34.304  17.607  -1.186  1.00 20.00     0.005 C 
HETATM    2  C2  UNL     1     -32.819  17.283  -3.202  1.00 20.00     0.005 C 
HETATM    3  C3  UNL     1     -35.137  16.397  -1.605  1.00 20.00     0.006 C 
HETATM    4  C4  UNL     1     -33.651  16.072  -3.621  1.00 20.00     0.006 C 
HETATM    5  C5  UNL     1     -32.858  17.500  -1.683  1.00 20.00    -0.015 C 
HETATM    6  C6  UNL     1     -35.098  16.180  -3.123  1.00 20.00     0.003 C 
ENDROOT
BRANCH   6   7
HETATM    7  C10 UNL     1     -35.895  14.937  -3.512  1.00 20.00     0.082 C 
HETATM    8  C8  UNL     1     -34.988  13.842  -4.047  1.00 20.00     0.027 C 
HETATM    9 CL11 UNL     1     -37.107  15.374  -4.747  1.00 20.00    -0.125 Cl
ENDBRANCH   6   7
BRANCH   5  10
HETATM   10  C9  UNL     1     -32.061  18.744  -1.296  1.00 20.00     0.000 C 
HETATM   11  C7  UNL     1     -31.109  18.464  -0.180  1.00 20.00     0.005 C 
ENDBRANCH   5  10
TORSDOF 2
ENDMDL
MODEL 8
REMARK VINA RESULT:      -4.2     14.170     16.980
REMARK  2 active torsions:
REMARK  status: ('A' for Active; 'I' for Inactive)
REMARK    1  A    between atoms: C5_5  and  C9_9 
REMARK    2  A    between atoms: C6_6  and  C10_10 
ROOT
HETATM    1  C1  UNL     1     -25.535  18.918   8.310  1.00 20.00     0.005 C 
HETATM    2  C2  UNL     1     -23.154  18.144   7.982  1.00 20.00     0.005 C 
HETATM    3  C3  UNL     1     -25.364  18.802   9.823  1.00 20.00     0.006 C 
HETATM    4  C4  UNL     1     -22.983  18.028   9.495  1.00 20.00     0.006 C 
HETATM    5  C5  UNL     1     -24.201  19.201   7.608  1.00 20.00    -0.015 C 
HETATM    6  C6  UNL     1     -24.318  17.744  10.197  1.00 20.00     0.003 C 
ENDROOT
BRANCH   6   7
HETATM    7  C10 UNL     1     -24.129  17.682  11.711  1.00 20.00     0.082 C 
HETATM    8  C8  UNL     1     -22.659  17.762  12.089  1.00 20.00     0.027 C 
HETATM    9 CL11 UNL     1     -24.829  16.163  12.332  1.00 20.00    -0.125 Cl
ENDBRANCH   6   7
BRANCH   5  10
HETATM   10  C9  UNL     1     -24.390  19.262   6.094  1.00 20.00     0.000 C 
HETATM   11  C7  UNL     1     -25.832  19.174   5.714  1.00 20.00     0.005 C 
ENDBRANCH   5  10
TORSDOF 2
ENDMDL
MODEL 9
REMARK VINA RESULT:      -4.2     13.818     16.343
REMARK  2 active torsions:
REMARK  status: ('A' for Active; 'I' for Inactive)
REMARK    1  A    between atoms: C5_5  and  C9_9 
REMARK    2  A    between atoms: C6_6  and  C10_10 
ROOT
HETATM    1  C1  UNL     1     -23.076  17.552   9.313  1.00 20.00     0.005 C 
HETATM    2  C2  UNL     1     -25.010  18.529  10.610  1.00 20.00     0.005 C 
HETATM    3  C3  UNL     1     -23.558  18.270   8.054  1.00 20.00     0.006 C 
HETATM    4  C4  UNL     1     -25.491  19.247   9.350  1.00 20.00     0.006 C 
HETATM    5  C5  UNL     1     -23.493  18.298  10.586  1.00 20.00    -0.015 C 
HETATM    6  C6  UNL     1     -25.074  18.500   8.077  1.00 20.00     0.003 C 
ENDROOT
BRANCH   6   7
HETATM    7  C10 UNL     1     -25.524  19.263   6.833  1.00 20.00     0.082 C 
HETATM    8  C8  UNL     1     -26.776  18.650   6.230  1.00 20.00     0.027 C 
HETATM    9 CL11 UNL     1     -24.208  19.256   5.627  1.00 20.00    -0.125 Cl
ENDBRANCH   6   7
BRANCH   5  10
HETATM   10  C9  UNL     1     -23.045  17.534  11.830  1.00 20.00     0.000 C 
HETATM   11  C7  UNL     1     -23.793  16.251  11.989  1.00 20.00     0.005 C 
ENDBRANCH   5  10
TORSDOF 2
ENDMDL
