MODEL 1
REMARK VINA RESULT:      -5.4      0.000      0.000
REMARK  3 active torsions:
REMARK  status: ('A' for Active; 'I' for Inactive)
REMARK    1  A    between atoms: C1_1  and  C7_7 
REMARK    2  A    between atoms: C8_8  and  C11_11 
REMARK    3  A    between atoms: C11_11  and  C12_12 
ROOT
HETATM    1  C2  UNL     1     -35.160  17.957  -0.453  1.00 20.00     0.001 C 
HETATM    2  C3  UNL     1     -33.821  18.091   0.266  1.00 20.00     0.012 C 
HETATM    3  C4  UNL     1     -32.629  18.316  -2.041  1.00 20.00     0.012 C 
HETATM    4  C5  UNL     1     -35.278  16.655  -1.245  1.00 20.00     0.005 C 
HETATM    5  C6  UNL     1     -32.952  16.851  -2.340  1.00 20.00     0.005 C 
HETATM    6  C7  UNL     1     -32.708  18.726  -0.569  1.00 20.00     0.055 C 
HETATM    7  C8  UNL     1     -34.455  16.590  -2.538  1.00 20.00    -0.014 C 
ENDROOT
BRANCH   6   8
HETATM    8  C1  UNL     1     -31.389  18.442   0.090  1.00 20.00     0.127 C 
HETATM    9  C9  UNL     1     -31.397  18.292   1.587  1.00 20.00     0.091 C 
HETATM   10  O13 UNL     1     -30.351  18.335  -0.563  1.00 20.00    -0.298 OA
ENDBRANCH   6   8
BRANCH   7  11
HETATM   11  C11 UNL     1     -34.658  15.218  -3.192  1.00 20.00     0.004 C 
BRANCH  11  12
HETATM   12  C12 UNL     1     -33.500  14.881  -4.121  1.00 20.00    -0.004 C 
HETATM   13  C10 UNL     1     -33.931  14.955  -5.577  1.00 20.00     0.005 C 
ENDBRANCH  11  12
ENDBRANCH   7  11
TORSDOF 3
ENDMDL
MODEL 2
REMARK VINA RESULT:      -5.0      2.490      5.289
REMARK  3 active torsions:
REMARK  status: ('A' for Active; 'I' for Inactive)
REMARK    1  A    between atoms: C1_1  and  C7_7 
REMARK    2  A    between atoms: C8_8  and  C11_11 
REMARK    3  A    between atoms: C11_11  and  C12_12 
ROOT
HETATM    1  C2  UNL     1     -35.133  16.277  -1.444  1.00 20.00     0.001 C 
HETATM    2  C3  UNL     1     -35.649  15.912  -2.833  1.00 20.00     0.012 C 
HETATM    3  C4  UNL     1     -33.195  15.506  -3.614  1.00 20.00     0.012 C 
HETATM    4  C5  UNL     1     -34.346  17.586  -1.431  1.00 20.00     0.005 C 
HETATM    5  C6  UNL     1     -32.922  17.008  -3.502  1.00 20.00     0.005 C 
HETATM    6  C7  UNL     1     -34.670  15.105  -3.686  1.00 20.00     0.055 C 
HETATM    7  C8  UNL     1     -32.944  17.520  -2.051  1.00 20.00    -0.014 C 
ENDROOT
BRANCH   6   8
HETATM    8  C1  UNL     1     -35.122  15.156  -5.118  1.00 20.00     0.127 C 
HETATM    9  C9  UNL     1     -36.030  16.293  -5.502  1.00 20.00     0.091 C 
HETATM   10  O13 UNL     1     -34.764  14.311  -5.938  1.00 20.00    -0.298 OA
ENDBRANCH   6   8
BRANCH   7  11
HETATM   11  C11 UNL     1     -32.303  18.912  -1.988  1.00 20.00     0.004 C 
BRANCH  11  12
HETATM   12  C12 UNL     1     -31.901  19.263  -0.562  1.00 20.00    -0.004 C 
HETATM   13  C10 UNL     1     -30.887  18.267  -0.022  1.00 20.00     0.005 C 
ENDBRANCH  11  12
ENDBRANCH   7  11
TORSDOF 3
ENDMDL
MODEL 3
REMARK VINA RESULT:      -4.9      2.383      5.512
REMARK  3 active torsions:
REMARK  status: ('A' for Active; 'I' for Inactive)
REMARK    1  A    between atoms: C1_1  and  C7_7 
REMARK    2  A    between atoms: C8_8  and  C11_11 
REMARK    3  A    between atoms: C11_11  and  C12_12 
ROOT
HETATM    1  C2  UNL     1     -32.849  17.229  -3.126  1.00 20.00     0.001 C 
HETATM    2  C3  UNL     1     -33.130  15.814  -3.620  1.00 20.00     0.012 C 
HETATM    3  C4  UNL     1     -35.682  16.227  -3.282  1.00 20.00     0.012 C 
HETATM    4  C5  UNL     1     -33.168  17.413  -1.643  1.00 20.00     0.005 C 
HETATM    5  C6  UNL     1     -35.466  16.251  -1.767  1.00 20.00     0.005 C 
HETATM    6  C7  UNL     1     -34.563  15.578  -4.100  1.00 20.00     0.055 C 
HETATM    7  C8  UNL     1     -34.659  17.471  -1.290  1.00 20.00    -0.014 C 
ENDROOT
BRANCH   6   8
HETATM    8  C1  UNL     1     -34.808  14.098  -4.178  1.00 20.00     0.127 C 
HETATM    9  C9  UNL     1     -36.222  13.659  -4.448  1.00 20.00     0.091 C 
HETATM   10  O13 UNL     1     -33.897  13.284  -4.031  1.00 20.00    -0.298 OA
ENDBRANCH   6   8
BRANCH   7  11
HETATM   11  C11 UNL     1     -34.809  17.625   0.229  1.00 20.00     0.004 C 
BRANCH  11  12
HETATM   12  C12 UNL     1     -33.608  18.345   0.825  1.00 20.00    -0.004 C 
HETATM   13  C10 UNL     1     -33.446  18.005   2.298  1.00 20.00     0.005 C 
ENDBRANCH  11  12
ENDBRANCH   7  11
TORSDOF 3
ENDMDL
MODEL 4
REMARK VINA RESULT:      -4.8      3.065      5.886
REMARK  3 active torsions:
REMARK  status: ('A' for Active; 'I' for Inactive)
REMARK    1  A    between atoms: C1_1  and  C7_7 
REMARK    2  A    between atoms: C8_8  and  C11_11 
REMARK    3  A    between atoms: C11_11  and  C12_12 
ROOT
HETATM    1  C2  UNL     1     -33.141  15.867  -3.536  1.00 20.00     0.001 C 
HETATM    2  C3  UNL     1     -34.071  14.687  -3.802  1.00 20.00     0.012 C 
HETATM    3  C4  UNL     1     -35.989  16.356  -4.378  1.00 20.00     0.012 C 
HETATM    4  C5  UNL     1     -33.541  16.668  -2.299  1.00 20.00     0.005 C 
HETATM    5  C6  UNL     1     -36.043  16.783  -2.910  1.00 20.00     0.005 C 
HETATM    6  C7  UNL     1     -35.297  15.019  -4.653  1.00 20.00     0.055 C 
HETATM    7  C8  UNL     1     -34.788  17.548  -2.455  1.00 20.00    -0.014 C 
ENDROOT
BRANCH   6   8
HETATM    8  C1  UNL     1     -36.299  13.910  -4.509  1.00 20.00     0.127 C 
HETATM    9  C9  UNL     1     -37.744  14.314  -4.394  1.00 20.00     0.091 C 
HETATM   10  O13 UNL     1     -35.957  12.728  -4.488  1.00 20.00    -0.298 OA
ENDBRANCH   6   8
BRANCH   7  11
HETATM   11  C11 UNL     1     -35.072  18.256  -1.125  1.00 20.00     0.004 C 
BRANCH  11  12
HETATM   12  C12 UNL     1     -35.251  17.249   0.003  1.00 20.00    -0.004 C 
HETATM   13  C10 UNL     1     -34.708  17.797   1.314  1.00 20.00     0.005 C 
ENDBRANCH  11  12
ENDBRANCH   7  11
TORSDOF 3
ENDMDL
MODEL 5
REMARK VINA RESULT:      -4.7      2.932      5.707
REMARK  3 active torsions:
REMARK  status: ('A' for Active; 'I' for Inactive)
REMARK    1  A    between atoms: C1_1  and  C7_7 
REMARK    2  A    between atoms: C8_8  and  C11_11 
REMARK    3  A    between atoms: C11_11  and  C12_12 
ROOT
HETATM    1  C2  UNL     1     -36.412  17.661  -3.735  1.00 20.00     0.001 C 
HETATM    2  C3  UNL     1     -36.481  16.423  -4.623  1.00 20.00     0.012 C 
HETATM    3  C4  UNL     1     -35.203  15.070  -2.799  1.00 20.00     0.012 C 
HETATM    4  C5  UNL     1     -34.990  18.195  -3.573  1.00 20.00     0.005 C 
HETATM    5  C6  UNL     1     -33.943  15.889  -3.088  1.00 20.00     0.005 C 
HETATM    6  C7  UNL     1     -36.277  15.098  -3.889  1.00 20.00     0.055 C 
HETATM    7  C8  UNL     1     -34.070  17.364  -2.669  1.00 20.00    -0.014 C 
ENDROOT
BRANCH   6   8
HETATM    8  C1  UNL     1     -35.977  14.027  -4.899  1.00 20.00     0.127 C 
HETATM    9  C9  UNL     1     -35.679  14.484  -6.302  1.00 20.00     0.091 C 
HETATM   10  O13 UNL     1     -35.972  12.836  -4.594  1.00 20.00    -0.298 OA
ENDBRANCH   6   8
BRANCH   7  11
HETATM   11  C11 UNL     1     -32.680  18.011  -2.637  1.00 20.00     0.004 C 
BRANCH  11  12
HETATM   12  C12 UNL     1     -32.189  18.176  -1.205  1.00 20.00    -0.004 C 
HETATM   13  C10 UNL     1     -33.356  18.262  -0.235  1.00 20.00     0.005 C 
ENDBRANCH  11  12
ENDBRANCH   7  11
TORSDOF 3
ENDMDL
MODEL 6
REMARK VINA RESULT:      -4.5      3.195      5.996
REMARK  3 active torsions:
REMARK  status: ('A' for Active; 'I' for Inactive)
REMARK    1  A    between atoms: C1_1  and  C7_7 
REMARK    2  A    between atoms: C8_8  and  C11_11 
REMARK    3  A    between atoms: C11_11  and  C12_12 
ROOT
HETATM    1  C2  UNL     1     -33.435  14.677  -4.253  1.00 20.00     0.001 C 
HETATM    2  C3  UNL     1     -34.909  14.294  -4.157  1.00 20.00     0.012 C 
HETATM    3  C4  UNL     1     -35.543  16.512  -5.369  1.00 20.00     0.012 C 
HETATM    4  C5  UNL     1     -33.080  15.881  -3.382  1.00 20.00     0.005 C 
HETATM    5  C6  UNL     1     -35.095  17.301  -4.137  1.00 20.00     0.005 C 
HETATM    6  C7  UNL     1     -35.825  15.026  -5.138  1.00 20.00     0.055 C 
HETATM    7  C8  UNL     1     -33.577  17.238  -3.896  1.00 20.00    -0.014 C 
ENDROOT
BRANCH   6   8
HETATM    8  C1  UNL     1     -37.247  14.862  -4.685  1.00 20.00     0.127 C 
HETATM    9  C9  UNL     1     -38.183  16.007  -4.963  1.00 20.00     0.091 C 
HETATM   10  O13 UNL     1     -37.630  13.841  -4.116  1.00 20.00    -0.298 OA
ENDBRANCH   6   8
BRANCH   7  11
HETATM   11  C11 UNL     1     -33.169  18.331  -2.900  1.00 20.00     0.004 C 
BRANCH  11  12
HETATM   12  C12 UNL     1     -32.912  17.743  -1.520  1.00 20.00    -0.004 C 
HETATM   13  C10 UNL     1     -31.677  18.363  -0.885  1.00 20.00     0.005 C 
ENDBRANCH  11  12
ENDBRANCH   7  11
TORSDOF 3
ENDMDL
MODEL 7
REMARK VINA RESULT:      -4.5      3.275      5.872
REMARK  3 active torsions:
REMARK  status: ('A' for Active; 'I' for Inactive)
REMARK    1  A    between atoms: C1_1  and  C7_7 
REMARK    2  A    between atoms: C8_8  and  C11_11 
REMARK    3  A    between atoms: C11_11  and  C12_12 
ROOT
HETATM    1  C2  UNL     1     -33.242  16.142  -3.213  1.00 20.00     0.001 C 
HETATM    2  C3  UNL     1     -33.930  15.066  -4.047  1.00 20.00     0.012 C 
HETATM    3  C4  UNL     1     -35.713  16.816  -4.793  1.00 20.00     0.012 C 
HETATM    4  C5  UNL     1     -34.081  16.591  -2.018  1.00 20.00     0.005 C 
HETATM    5  C6  UNL     1     -36.264  16.846  -3.366  1.00 20.00     0.005 C 
HETATM    6  C7  UNL     1     -34.851  15.601  -5.144  1.00 20.00     0.055 C 
HETATM    7  C8  UNL     1     -35.291  17.473  -2.353  1.00 20.00    -0.014 C 
ENDROOT
BRANCH   6   8
HETATM    8  C1  UNL     1     -35.744  14.486  -5.611  1.00 20.00     0.127 C 
HETATM    9  C9  UNL     1     -36.157  13.472  -4.579  1.00 20.00     0.091 C 
HETATM   10  O13 UNL     1     -36.121  14.408  -6.779  1.00 20.00    -0.298 OA
ENDBRANCH   6   8
BRANCH   7  11
HETATM   11  C11 UNL     1     -36.041  17.809  -1.059  1.00 20.00     0.004 C 
BRANCH  11  12
HETATM   12  C12 UNL     1     -35.412  17.104   0.135  1.00 20.00    -0.004 C 
HETATM   13  C10 UNL     1     -35.047  18.098   1.226  1.00 20.00     0.005 C 
ENDBRANCH  11  12
ENDBRANCH   7  11
TORSDOF 3
ENDMDL
MODEL 8
REMARK VINA RESULT:      -4.5      2.748      5.711
REMARK  3 active torsions:
REMARK  status: ('A' for Active; 'I' for Inactive)
REMARK    1  A    between atoms: C1_1  and  C7_7 
REMARK    2  A    between atoms: C8_8  and  C11_11 
REMARK    3  A    between atoms: C11_11  and  C12_12 
ROOT
HETATM    1  C2  UNL     1     -36.146  15.200  -3.430  1.00 20.00     0.001 C 
HETATM    2  C3  UNL     1     -35.840  15.418  -4.909  1.00 20.00     0.012 C 
HETATM    3  C4  UNL     1     -33.326  14.913  -4.439  1.00 20.00     0.012 C 
HETATM    4  C5  UNL     1     -35.543  16.281  -2.535  1.00 20.00     0.005 C 
HETATM    5  C6  UNL     1     -33.220  16.222  -3.654  1.00 20.00     0.005 C 
HETATM    6  C7  UNL     1     -34.524  14.803  -5.385  1.00 20.00     0.055 C 
HETATM    7  C8  UNL     1     -34.023  16.207  -2.341  1.00 20.00    -0.014 C 
ENDROOT
BRANCH   6   8
HETATM    8  C1  UNL     1     -34.159  15.410  -6.710  1.00 20.00     0.127 C 
HETATM    9  C9  UNL     1     -34.722  16.773  -7.009  1.00 20.00     0.091 C 
HETATM   10  O13 UNL     1     -33.433  14.823  -7.511  1.00 20.00    -0.298 OA
ENDBRANCH   6   8
BRANCH   7  11
HETATM   11  C11 UNL     1     -33.573  17.371  -1.450  1.00 20.00     0.004 C 
BRANCH  11  12
HETATM   12  C12 UNL     1     -34.666  17.756  -0.463  1.00 20.00    -0.004 C 
HETATM   13  C10 UNL     1     -34.070  18.205   0.862  1.00 20.00     0.005 C 
ENDBRANCH  11  12
ENDBRANCH   7  11
TORSDOF 3
ENDMDL
MODEL 9
REMARK VINA RESULT:      -4.3      2.478      4.013
REMARK  3 active torsions:
REMARK  status: ('A' for Active; 'I' for Inactive)
REMARK    1  A    between atoms: C1_1  and  C7_7 
REMARK    2  A    between atoms: C8_8  and  C11_11 
REMARK    3  A    between atoms: C11_11  and  C12_12 
ROOT
HETATM    1  C2  UNL     1     -34.088  14.079  -4.081  1.00 20.00     0.001 C 
HETATM    2  C3  UNL     1     -33.295  15.378  -3.966  1.00 20.00     0.012 C 
HETATM    3  C4  UNL     1     -34.947  16.198  -2.124  1.00 20.00     0.012 C 
HETATM    4  C5  UNL     1     -35.482  14.288  -4.669  1.00 20.00     0.005 C 
HETATM    5  C6  UNL     1     -36.049  16.314  -3.179  1.00 20.00     0.005 C 
HETATM    6  C7  UNL     1     -33.516  16.148  -2.664  1.00 20.00     0.055 C 
HETATM    7  C8  UNL     1     -36.501  14.953  -3.735  1.00 20.00    -0.014 C 
ENDROOT
BRANCH   6   8
HETATM    8  C1  UNL     1     -33.010  17.551  -2.841  1.00 20.00     0.127 C 
HETATM    9  C9  UNL     1     -32.399  18.209  -1.633  1.00 20.00     0.091 C 
HETATM   10  O13 UNL     1     -33.088  18.134  -3.922  1.00 20.00    -0.298 OA
ENDBRANCH   6   8
BRANCH   7  11
HETATM   11  C11 UNL     1     -37.831  15.118  -4.480  1.00 20.00     0.004 C 
BRANCH  11  12
HETATM   12  C12 UNL     1     -38.009  16.549  -4.970  1.00 20.00    -0.004 C 
HETATM   13  C10 UNL     1     -37.839  16.633  -6.479  1.00 20.00     0.005 C 
ENDBRANCH  11  12
ENDBRANCH   7  11
TORSDOF 3
ENDMDL
