MODEL 1
REMARK VINA RESULT:      -4.8      0.000      0.000
REMARK  2 active torsions:
REMARK  status: ('A' for Active; 'I' for Inactive)
REMARK    1  A    between atoms: C4_4  and  C8_8 
REMARK    2  A    between atoms: C5_5  and  C9_9 
ROOT
HETATM    1  C1  UNL     1     -33.990   4.102   3.571  1.00 20.00     0.005 C 
HETATM    2  C2  UNL     1     -33.142   4.724   2.457  1.00 20.00     0.006 C 
HETATM    3  C3  UNL     1     -33.988   6.495   3.841  1.00 20.00     0.010 C 
HETATM    4  C4  UNL     1     -34.807   5.251   4.172  1.00 20.00    -0.014 C 
HETATM    5  C5  UNL     1     -33.516   6.207   2.418  1.00 20.00    -0.000 C 
ENDROOT
BRANCH   5   6
HETATM    6  C9  UNL     1     -32.372   7.104   1.976  1.00 20.00     0.058 C 
HETATM    7  C7  UNL     1     -32.842   8.239   1.083  1.00 20.00     0.022 C 
HETATM    8 BR10 UNL     1     -31.510   7.863   3.560  1.00 20.00    -0.091 Br
ENDBRANCH   5   6
BRANCH   4   9
HETATM    9  C8  UNL     1     -35.069   5.085   5.659  1.00 20.00     0.000 C 
HETATM   10  C6  UNL     1     -34.390   6.144   6.469  1.00 20.00     0.005 C 
ENDBRANCH   4   9
TORSDOF 2
ENDMDL
MODEL 2
REMARK VINA RESULT:      -4.6     11.584     12.306
REMARK  2 active torsions:
REMARK  status: ('A' for Active; 'I' for Inactive)
REMARK    1  A    between atoms: C4_4  and  C8_8 
REMARK    2  A    between atoms: C5_5  and  C9_9 
ROOT
HETATM    1  C1  UNL     1     -33.055  15.849  -3.470  1.00 20.00     0.005 C 
HETATM    2  C2  UNL     1     -33.674  14.785  -4.383  1.00 20.00     0.006 C 
HETATM    3  C3  UNL     1     -35.397  15.643  -2.945  1.00 20.00     0.010 C 
HETATM    4  C4  UNL     1     -34.064  16.076  -2.340  1.00 20.00    -0.014 C 
HETATM    5  C5  UNL     1     -35.006  14.398  -3.738  1.00 20.00    -0.000 C 
ENDROOT
BRANCH   5   6
HETATM    6  C9  UNL     1     -36.061  13.976  -4.746  1.00 20.00     0.058 C 
HETATM    7  C7  UNL     1     -37.454  14.431  -4.346  1.00 20.00     0.022 C 
HETATM    8 BR10 UNL     1     -35.622  14.753  -6.487  1.00 20.00    -0.091 Br
ENDBRANCH   5   6
BRANCH   4   9
HETATM    9  C8  UNL     1     -34.077  17.506  -1.826  1.00 20.00     0.000 C 
HETATM   10  C6  UNL     1     -32.702  17.996  -1.499  1.00 20.00     0.005 C 
ENDBRANCH   4   9
TORSDOF 2
ENDMDL
MODEL 3
REMARK VINA RESULT:      -4.3     11.142     12.260
REMARK  2 active torsions:
REMARK  status: ('A' for Active; 'I' for Inactive)
REMARK    1  A    between atoms: C4_4  and  C8_8 
REMARK    2  A    between atoms: C5_5  and  C9_9 
ROOT
HETATM    1  C1  UNL     1     -33.085  15.842  -3.464  1.00 20.00     0.005 C 
HETATM    2  C2  UNL     1     -33.035  17.055  -2.529  1.00 20.00     0.006 C 
HETATM    3  C3  UNL     1     -35.216  16.061  -2.364  1.00 20.00     0.010 C 
HETATM    4  C4  UNL     1     -34.568  15.490  -3.622  1.00 20.00    -0.014 C 
HETATM    5  C5  UNL     1     -34.490  17.394  -2.199  1.00 20.00    -0.000 C 
ENDROOT
BRANCH   5   6
HETATM    6  C9  UNL     1     -34.667  18.004  -0.819  1.00 20.00     0.058 C 
HETATM    7  C7  UNL     1     -35.383  17.066   0.137  1.00 20.00     0.022 C 
HETATM    8 BR10 UNL     1     -32.905  18.428  -0.082  1.00 20.00    -0.091 Br
ENDBRANCH   5   6
BRANCH   4   9
HETATM    9  C8  UNL     1     -34.815  14.001  -3.798  1.00 20.00     0.000 C 
HETATM   10  C6  UNL     1     -36.116  13.726  -4.482  1.00 20.00     0.005 C 
ENDBRANCH   4   9
TORSDOF 2
ENDMDL
MODEL 4
REMARK VINA RESULT:      -4.3     15.501     16.766
REMARK  2 active torsions:
REMARK  status: ('A' for Active; 'I' for Inactive)
REMARK    1  A    between atoms: C4_4  and  C8_8 
REMARK    2  A    between atoms: C5_5  and  C9_9 
ROOT
HETATM    1  C1  UNL     1     -23.003  17.749   8.407  1.00 20.00     0.005 C 
HETATM    2  C2  UNL     1     -23.014  17.308   9.875  1.00 20.00     0.006 C 
HETATM    3  C3  UNL     1     -24.776  18.909   9.553  1.00 20.00     0.010 C 
HETATM    4  C4  UNL     1     -23.854  19.022   8.342  1.00 20.00    -0.014 C 
HETATM    5  C5  UNL     1     -23.840  18.355  10.625  1.00 20.00    -0.000 C 
ENDROOT
BRANCH   5   6
HETATM    6  C9  UNL     1     -24.578  17.790  11.827  1.00 20.00     0.058 C 
HETATM    7  C7  UNL     1     -26.008  18.292  11.913  1.00 20.00     0.022 C 
HETATM    8 BR10 UNL     1     -24.604  15.837  11.696  1.00 20.00    -0.091 Br
ENDBRANCH   5   6
BRANCH   4   9
HETATM    9  C8  UNL     1     -24.606  19.173   7.030  1.00 20.00     0.000 C 
HETATM   10  C6  UNL     1     -26.074  18.939   7.196  1.00 20.00     0.005 C 
ENDBRANCH   4   9
TORSDOF 2
ENDMDL
MODEL 5
REMARK VINA RESULT:      -4.2     11.558     12.652
REMARK  2 active torsions:
REMARK  status: ('A' for Active; 'I' for Inactive)
REMARK    1  A    between atoms: C4_4  and  C8_8 
REMARK    2  A    between atoms: C5_5  and  C9_9 
ROOT
HETATM    1  C1  UNL     1     -32.914  17.218  -2.403  1.00 20.00     0.005 C 
HETATM    2  C2  UNL     1     -32.187  18.117  -1.397  1.00 20.00     0.006 C 
HETATM    3  C3  UNL     1     -34.335  17.544  -0.486  1.00 20.00     0.010 C 
HETATM    4  C4  UNL     1     -34.385  17.204  -1.973  1.00 20.00    -0.014 C 
HETATM    5  C5  UNL     1     -33.261  18.628  -0.434  1.00 20.00    -0.000 C 
ENDROOT
BRANCH   5   6
HETATM    6  C9  UNL     1     -32.737  18.883   0.969  1.00 20.00     0.058 C 
HETATM    7  C7  UNL     1     -33.491  18.086   2.019  1.00 20.00     0.022 C 
HETATM    8 BR10 UNL     1     -30.845  18.388   1.040  1.00 20.00    -0.091 Br
ENDBRANCH   5   6
BRANCH   4   9
HETATM    9  C8  UNL     1     -35.082  15.885  -2.262  1.00 20.00     0.000 C 
HETATM   10  C6  UNL     1     -34.415  15.130  -3.368  1.00 20.00     0.005 C 
ENDBRANCH   4   9
TORSDOF 2
ENDMDL
MODEL 6
REMARK VINA RESULT:      -4.2     11.758     12.236
REMARK  2 active torsions:
REMARK  status: ('A' for Active; 'I' for Inactive)
REMARK    1  A    between atoms: C4_4  and  C8_8 
REMARK    2  A    between atoms: C5_5  and  C9_9 
ROOT
HETATM    1  C1  UNL     1     -33.244  16.853  -2.404  1.00 20.00     0.005 C 
HETATM    2  C2  UNL     1     -33.207  15.880  -3.587  1.00 20.00     0.006 C 
HETATM    3  C3  UNL     1     -35.435  15.894  -2.688  1.00 20.00     0.010 C 
HETATM    4  C4  UNL     1     -34.535  16.541  -1.639  1.00 20.00    -0.014 C 
HETATM    5  C5  UNL     1     -34.457  15.007  -3.456  1.00 20.00    -0.000 C 
ENDROOT
BRANCH   5   6
HETATM    6  C9  UNL     1     -35.003  14.535  -4.793  1.00 20.00     0.058 C 
HETATM    7  C7  UNL     1     -36.237  13.665  -4.636  1.00 20.00     0.022 C 
HETATM    8 BR10 UNL     1     -35.467  16.096  -5.877  1.00 20.00    -0.091 Br
ENDBRANCH   5   6
BRANCH   4   9
HETATM    9  C8  UNL     1     -35.157  17.765  -0.990  1.00 20.00     0.000 C 
HETATM   10  C6  UNL     1     -34.979  17.763   0.496  1.00 20.00     0.005 C 
ENDBRANCH   4   9
TORSDOF 2
ENDMDL
MODEL 7
REMARK VINA RESULT:      -4.2     11.352     12.506
REMARK  2 active torsions:
REMARK  status: ('A' for Active; 'I' for Inactive)
REMARK    1  A    between atoms: C4_4  and  C8_8 
REMARK    2  A    between atoms: C5_5  and  C9_9 
ROOT
HETATM    1  C1  UNL     1     -34.470  16.962  -1.353  1.00 20.00     0.005 C 
HETATM    2  C2  UNL     1     -35.065  15.902  -2.286  1.00 20.00     0.006 C 
HETATM    3  C3  UNL     1     -32.948  16.597  -3.184  1.00 20.00     0.010 C 
HETATM    4  C4  UNL     1     -33.349  17.642  -2.146  1.00 20.00    -0.014 C 
HETATM    5  C5  UNL     1     -34.298  16.020  -3.605  1.00 20.00    -0.000 C 
ENDROOT
BRANCH   5   6
HETATM    6  C9  UNL     1     -34.178  14.702  -4.350  1.00 20.00     0.058 C 
HETATM    7  C7  UNL     1     -35.333  13.764  -4.050  1.00 20.00     0.022 C 
HETATM    8 BR10 UNL     1     -34.141  15.061  -6.273  1.00 20.00    -0.091 Br
ENDBRANCH   5   6
BRANCH   4   9
HETATM    9  C8  UNL     1     -32.189  18.095  -1.276  1.00 20.00     0.000 C 
HETATM   10  C6  UNL     1     -32.640  18.503   0.091  1.00 20.00     0.005 C 
ENDBRANCH   4   9
TORSDOF 2
ENDMDL
MODEL 8
REMARK VINA RESULT:      -4.1     11.670     12.510
REMARK  2 active torsions:
REMARK  status: ('A' for Active; 'I' for Inactive)
REMARK    1  A    between atoms: C4_4  and  C8_8 
REMARK    2  A    between atoms: C5_5  and  C9_9 
ROOT
HETATM    1  C1  UNL     1     -34.444  16.995  -1.265  1.00 20.00     0.005 C 
HETATM    2  C2  UNL     1     -35.090  16.083  -2.313  1.00 20.00     0.006 C 
HETATM    3  C3  UNL     1     -33.040  16.946  -3.221  1.00 20.00     0.010 C 
HETATM    4  C4  UNL     1     -33.381  17.809  -2.009  1.00 20.00    -0.014 C 
HETATM    5  C5  UNL     1     -34.410  16.419  -3.642  1.00 20.00    -0.000 C 
ENDROOT
BRANCH   5   6
HETATM    6  C9  UNL     1     -34.328  15.236  -4.591  1.00 20.00     0.058 C 
HETATM    7  C7  UNL     1     -33.043  14.446  -4.417  1.00 20.00     0.022 C 
HETATM    8 BR10 UNL     1     -35.848  14.049  -4.258  1.00 20.00    -0.091 Br
ENDBRANCH   5   6
BRANCH   4   9
HETATM    9  C8  UNL     1     -32.171  18.141  -1.152  1.00 20.00     0.000 C 
HETATM   10  C6  UNL     1     -32.558  18.498   0.248  1.00 20.00     0.005 C 
ENDBRANCH   4   9
TORSDOF 2
ENDMDL
MODEL 9
REMARK VINA RESULT:      -4.1     11.697     12.607
REMARK  2 active torsions:
REMARK  status: ('A' for Active; 'I' for Inactive)
REMARK    1  A    between atoms: C4_4  and  C8_8 
REMARK    2  A    between atoms: C5_5  and  C9_9 
ROOT
HETATM    1  C1  UNL     1     -35.222  15.293  -3.047  1.00 20.00     0.005 C 
HETATM    2  C2  UNL     1     -35.088  16.308  -1.907  1.00 20.00     0.006 C 
HETATM    3  C3  UNL     1     -33.204  16.565  -3.375  1.00 20.00     0.010 C 
HETATM    4  C4  UNL     1     -33.846  15.223  -3.717  1.00 20.00    -0.014 C 
HETATM    5  C5  UNL     1     -33.630  16.771  -1.924  1.00 20.00    -0.000 C 
ENDROOT
BRANCH   5   6
HETATM    6  C9  UNL     1     -33.449  18.201  -1.446  1.00 20.00     0.058 C 
HETATM    7  C7  UNL     1     -34.446  18.577  -0.364  1.00 20.00     0.022 C 
HETATM    8 BR10 UNL     1     -31.639  18.409  -0.733  1.00 20.00    -0.091 Br
ENDBRANCH   5   6
BRANCH   4   9
HETATM    9  C8  UNL     1     -33.919  14.958  -5.211  1.00 20.00     0.000 C 
HETATM   10  C6  UNL     1     -35.314  14.656  -5.659  1.00 20.00     0.005 C 
ENDBRANCH   4   9
TORSDOF 2
ENDMDL
