MODEL 1
REMARK VINA RESULT:      -3.7      0.000      0.000
REMARK  4 active torsions:
REMARK  status: ('A' for Active; 'I' for Inactive)
REMARK    1  A    between atoms: C1_1  and  C7_7 
REMARK    2  A    between atoms: C1_1  and  C9_9 
REMARK    3  A    between atoms: C8_8  and  C9_9 
REMARK    4  A    between atoms: C9_9  and  N10_10 
ROOT
HETATM    1  C4  UNL     1     -34.766  14.192  -3.859  1.00 20.00     0.058 C 
HETATM    2  C9  UNL     1     -35.750  15.309  -4.230  1.00 20.00     0.214 C 
ENDROOT
BRANCH   2   3
HETATM    3  C1  UNL     1     -37.187  14.754  -4.330  1.00 20.00     0.165 C 
HETATM    4  O11 UNL     1     -37.404  13.551  -4.497  1.00 20.00    -0.295 OA
BRANCH   3   5
HETATM    5  C7  UNL     1     -38.338  15.749  -4.232  1.00 20.00     0.076 C 
HETATM    6  C2  UNL     1     -39.697  15.075  -4.314  1.00 20.00     0.013 C 
ENDBRANCH   3   5
ENDBRANCH   2   3
BRANCH   2   7
HETATM    7  C8  UNL     1     -35.659  16.455  -3.200  1.00 20.00     0.045 C 
HETATM    8  C3  UNL     1     -34.905  16.119  -1.917  1.00 20.00     0.008 C 
ENDBRANCH   2   7
BRANCH   2   9
HETATM    9  N10 UNL     1     -35.366  15.792  -5.564  1.00 20.00     0.096 N 
HETATM   10  C5  UNL     1     -34.219  15.040  -6.062  1.00 20.00     0.310 C 
HETATM   11  C6  UNL     1     -35.066  17.220  -5.515  1.00 20.00     0.310 C 
ENDBRANCH   2   9
TORSDOF 4
ENDMDL
MODEL 2
REMARK VINA RESULT:      -3.6      1.925      3.917
REMARK  4 active torsions:
REMARK  status: ('A' for Active; 'I' for Inactive)
REMARK    1  A    between atoms: C1_1  and  C7_7 
REMARK    2  A    between atoms: C1_1  and  C9_9 
REMARK    3  A    between atoms: C8_8  and  C9_9 
REMARK    4  A    between atoms: C9_9  and  N10_10 
ROOT
HETATM    1  C4  UNL     1     -35.187  13.870  -4.138  1.00 20.00     0.058 C 
HETATM    2  C9  UNL     1     -35.300  15.398  -4.058  1.00 20.00     0.214 C 
ENDROOT
BRANCH   2   3
HETATM    3  C1  UNL     1     -34.579  15.930  -2.802  1.00 20.00     0.165 C 
HETATM    4  O11 UNL     1     -35.154  16.014  -1.714  1.00 20.00    -0.295 OA
BRANCH   3   5
HETATM    5  C7  UNL     1     -33.127  16.368  -2.953  1.00 20.00     0.076 C 
HETATM    6  C2  UNL     1     -32.779  17.548  -2.060  1.00 20.00     0.013 C 
ENDBRANCH   3   5
ENDBRANCH   2   3
BRANCH   2   7
HETATM    7  C8  UNL     1     -34.736  16.036  -5.345  1.00 20.00     0.045 C 
HETATM    8  C3  UNL     1     -34.116  15.058  -6.340  1.00 20.00     0.008 C 
ENDBRANCH   2   7
BRANCH   2   9
HETATM    9  N10 UNL     1     -36.729  15.714  -3.918  1.00 20.00     0.096 N 
HETATM   10  C5  UNL     1     -37.540  14.565  -4.306  1.00 20.00     0.310 C 
HETATM   11  C6  UNL     1     -37.067  16.882  -4.727  1.00 20.00     0.310 C 
ENDBRANCH   2   9
TORSDOF 4
ENDMDL
MODEL 3
REMARK VINA RESULT:      -3.6      2.240      2.819
REMARK  4 active torsions:
REMARK  status: ('A' for Active; 'I' for Inactive)
REMARK    1  A    between atoms: C1_1  and  C7_7 
REMARK    2  A    between atoms: C1_1  and  C9_9 
REMARK    3  A    between atoms: C8_8  and  C9_9 
REMARK    4  A    between atoms: C9_9  and  N10_10 
ROOT
HETATM    1  C4  UNL     1     -32.938  16.565  -2.942  1.00 20.00     0.058 C 
HETATM    2  C9  UNL     1     -34.248  16.177  -3.641  1.00 20.00     0.214 C 
ENDROOT
BRANCH   2   3
HETATM    3  C1  UNL     1     -34.144  14.759  -4.240  1.00 20.00     0.165 C 
HETATM    4  O11 UNL     1     -33.216  14.442  -4.989  1.00 20.00    -0.295 OA
BRANCH   3   5
HETATM    5  C7  UNL     1     -35.240  13.760  -3.888  1.00 20.00     0.076 C 
HETATM    6  C2  UNL     1     -36.333  13.701  -4.941  1.00 20.00     0.013 C 
ENDBRANCH   3   5
ENDBRANCH   2   3
BRANCH   2   7
HETATM    7  C8  UNL     1     -35.426  16.284  -2.649  1.00 20.00     0.045 C 
HETATM    8  C3  UNL     1     -35.048  16.702  -1.231  1.00 20.00     0.008 C 
ENDBRANCH   2   7
BRANCH   2   9
HETATM    9  N10 UNL     1     -34.434  17.118  -4.754  1.00 20.00     0.096 N 
HETATM   10  C5  UNL     1     -33.691  18.349  -4.503  1.00 20.00     0.310 C 
HETATM   11  C6  UNL     1     -35.854  17.401  -4.943  1.00 20.00     0.310 C 
ENDBRANCH   2   9
TORSDOF 4
ENDMDL
MODEL 4
REMARK VINA RESULT:      -3.5      1.532      3.115
REMARK  4 active torsions:
REMARK  status: ('A' for Active; 'I' for Inactive)
REMARK    1  A    between atoms: C1_1  and  C7_7 
REMARK    2  A    between atoms: C1_1  and  C9_9 
REMARK    3  A    between atoms: C8_8  and  C9_9 
REMARK    4  A    between atoms: C9_9  and  N10_10 
ROOT
HETATM    1  C4  UNL     1     -34.824  16.908  -5.548  1.00 20.00     0.058 C 
HETATM    2  C9  UNL     1     -35.438  15.507  -5.425  1.00 20.00     0.214 C 
ENDROOT
BRANCH   2   3
HETATM    3  C1  UNL     1     -34.824  14.750  -4.228  1.00 20.00     0.165 C 
HETATM    4  O11 UNL     1     -34.948  13.529  -4.105  1.00 20.00    -0.295 OA
BRANCH   3   5
HETATM    5  C7  UNL     1     -34.066  15.567  -3.188  1.00 20.00     0.076 C 
HETATM    6  C2  UNL     1     -34.955  16.010  -2.038  1.00 20.00     0.013 C 
ENDBRANCH   3   5
ENDBRANCH   2   3
BRANCH   2   7
HETATM    7  C8  UNL     1     -36.972  15.613  -5.296  1.00 20.00     0.045 C 
HETATM    8  C3  UNL     1     -37.486  16.903  -4.663  1.00 20.00     0.008 C 
ENDBRANCH   2   7
BRANCH   2   9
HETATM    9  N10 UNL     1     -35.079  14.774  -6.647  1.00 20.00     0.096 N 
HETATM   10  C5  UNL     1     -33.694  15.050  -7.012  1.00 20.00     0.310 C 
HETATM   11  C6  UNL     1     -35.983  15.137  -7.735  1.00 20.00     0.310 C 
ENDBRANCH   2   9
TORSDOF 4
ENDMDL
MODEL 5
REMARK VINA RESULT:      -3.5      1.075      2.264
REMARK  4 active torsions:
REMARK  status: ('A' for Active; 'I' for Inactive)
REMARK    1  A    between atoms: C1_1  and  C7_7 
REMARK    2  A    between atoms: C1_1  and  C9_9 
REMARK    3  A    between atoms: C8_8  and  C9_9 
REMARK    4  A    between atoms: C9_9  and  N10_10 
ROOT
HETATM    1  C4  UNL     1     -35.235  16.003  -5.594  1.00 20.00     0.058 C 
HETATM    2  C9  UNL     1     -35.647  15.417  -4.237  1.00 20.00     0.214 C 
ENDROOT
BRANCH   2   3
HETATM    3  C1  UNL     1     -37.058  14.796  -4.321  1.00 20.00     0.165 C 
HETATM    4  O11 UNL     1     -37.220  13.584  -4.487  1.00 20.00    -0.295 OA
BRANCH   3   5
HETATM    5  C7  UNL     1     -38.252  15.736  -4.208  1.00 20.00     0.076 C 
HETATM    6  C2  UNL     1     -39.580  15.004  -4.310  1.00 20.00     0.013 C 
ENDBRANCH   3   5
ENDBRANCH   2   3
BRANCH   2   7
HETATM    7  C8  UNL     1     -34.603  14.381  -3.771  1.00 20.00     0.045 C 
HETATM    8  C3  UNL     1     -33.251  14.457  -4.475  1.00 20.00     0.008 C 
ENDBRANCH   2   7
BRANCH   2   9
HETATM    9  N10 UNL     1     -35.710  16.538  -3.289  1.00 20.00     0.096 N 
HETATM   10  C5  UNL     1     -35.022  17.702  -3.837  1.00 20.00     0.310 C 
HETATM   11  C6  UNL     1     -35.126  16.147  -2.008  1.00 20.00     0.310 C 
ENDBRANCH   2   9
TORSDOF 4
ENDMDL
MODEL 6
REMARK VINA RESULT:      -3.5      1.866      3.657
REMARK  4 active torsions:
REMARK  status: ('A' for Active; 'I' for Inactive)
REMARK    1  A    between atoms: C1_1  and  C7_7 
REMARK    2  A    between atoms: C1_1  and  C9_9 
REMARK    3  A    between atoms: C8_8  and  C9_9 
REMARK    4  A    between atoms: C9_9  and  N10_10 
ROOT
HETATM    1  C4  UNL     1     -36.011  16.634  -4.725  1.00 20.00     0.058 C 
HETATM    2  C9  UNL     1     -35.265  15.333  -5.049  1.00 20.00     0.214 C 
ENDROOT
BRANCH   2   3
HETATM    3  C1  UNL     1     -34.077  15.135  -4.084  1.00 20.00     0.165 C 
HETATM    4  O11 UNL     1     -33.104  14.441  -4.392  1.00 20.00    -0.295 OA
BRANCH   3   5
HETATM    5  C7  UNL     1     -34.150  15.816  -2.722  1.00 20.00     0.076 C 
HETATM    6  C2  UNL     1     -33.079  16.880  -2.546  1.00 20.00     0.013 C 
ENDBRANCH   3   5
ENDBRANCH   2   3
BRANCH   2   7
HETATM    7  C8  UNL     1     -36.241  14.138  -4.992  1.00 20.00     0.045 C 
HETATM    8  C3  UNL     1     -37.568  14.413  -4.292  1.00 20.00     0.008 C 
ENDBRANCH   2   7
BRANCH   2   9
HETATM    9  N10 UNL     1     -34.718  15.480  -6.405  1.00 20.00     0.096 N 
HETATM   10  C5  UNL     1     -34.443  16.885  -6.688  1.00 20.00     0.310 C 
HETATM   11  C6  UNL     1     -35.648  14.927  -7.385  1.00 20.00     0.310 C 
ENDBRANCH   2   9
TORSDOF 4
ENDMDL
MODEL 7
REMARK VINA RESULT:      -3.5      1.256      2.752
REMARK  4 active torsions:
REMARK  status: ('A' for Active; 'I' for Inactive)
REMARK    1  A    between atoms: C1_1  and  C7_7 
REMARK    2  A    between atoms: C1_1  and  C9_9 
REMARK    3  A    between atoms: C8_8  and  C9_9 
REMARK    4  A    between atoms: C9_9  and  N10_10 
ROOT
HETATM    1  C4  UNL     1     -35.539  16.780  -4.822  1.00 20.00     0.058 C 
HETATM    2  C9  UNL     1     -35.704  15.255  -4.861  1.00 20.00     0.214 C 
ENDROOT
BRANCH   2   3
HETATM    3  C1  UNL     1     -37.145  14.855  -4.480  1.00 20.00     0.165 C 
HETATM    4  O11 UNL     1     -37.498  13.673  -4.438  1.00 20.00    -0.295 OA
BRANCH   3   5
HETATM    5  C7  UNL     1     -38.131  15.976  -4.170  1.00 20.00     0.076 C 
HETATM    6  C2  UNL     1     -39.177  16.147  -5.258  1.00 20.00     0.013 C 
ENDBRANCH   3   5
ENDBRANCH   2   3
BRANCH   2   7
HETATM    7  C8  UNL     1     -35.322  14.719  -6.258  1.00 20.00     0.045 C 
HETATM    8  C3  UNL     1     -35.988  15.430  -7.433  1.00 20.00     0.008 C 
ENDBRANCH   2   7
BRANCH   2   9
HETATM    9  N10 UNL     1     -34.804  14.700  -3.841  1.00 20.00     0.096 N 
HETATM   10  C5  UNL     1     -34.766  15.574  -2.673  1.00 20.00     0.310 C 
HETATM   11  C6  UNL     1     -33.464  14.520  -4.395  1.00 20.00     0.310 C 
ENDBRANCH   2   9
TORSDOF 4
ENDMDL
MODEL 8
REMARK VINA RESULT:      -3.4      1.969      3.837
REMARK  4 active torsions:
REMARK  status: ('A' for Active; 'I' for Inactive)
REMARK    1  A    between atoms: C1_1  and  C7_7 
REMARK    2  A    between atoms: C1_1  and  C9_9 
REMARK    3  A    between atoms: C8_8  and  C9_9 
REMARK    4  A    between atoms: C9_9  and  N10_10 
ROOT
HETATM    1  C4  UNL     1     -34.748  14.953  -6.058  1.00 20.00     0.058 C 
HETATM    2  C9  UNL     1     -35.054  15.678  -4.740  1.00 20.00     0.214 C 
ENDROOT
BRANCH   2   3
HETATM    3  C1  UNL     1     -33.857  15.572  -3.772  1.00 20.00     0.165 C 
HETATM    4  O11 UNL     1     -32.824  14.973  -4.086  1.00 20.00    -0.295 OA
BRANCH   3   5
HETATM    5  C7  UNL     1     -33.996  16.221  -2.401  1.00 20.00     0.076 C 
HETATM    6  C2  UNL     1     -32.971  17.319  -2.170  1.00 20.00     0.013 C 
ENDBRANCH   3   5
ENDBRANCH   2   3
BRANCH   2   7
HETATM    7  C8  UNL     1     -35.422  17.150  -5.022  1.00 20.00     0.045 C 
HETATM    8  C3  UNL     1     -34.351  17.963  -5.744  1.00 20.00     0.008 C 
ENDBRANCH   2   7
BRANCH   2   9
HETATM    9  N10 UNL     1     -36.189  14.979  -4.121  1.00 20.00     0.096 N 
HETATM   10  C5  UNL     1     -36.276  13.613  -4.627  1.00 20.00     0.310 C 
HETATM   11  C6  UNL     1     -37.429  15.706  -4.380  1.00 20.00     0.310 C 
ENDBRANCH   2   9
TORSDOF 4
ENDMDL
MODEL 9
REMARK VINA RESULT:      -3.4      2.347      3.638
REMARK  4 active torsions:
REMARK  status: ('A' for Active; 'I' for Inactive)
REMARK    1  A    between atoms: C1_1  and  C7_7 
REMARK    2  A    between atoms: C1_1  and  C9_9 
REMARK    3  A    between atoms: C8_8  and  C9_9 
REMARK    4  A    between atoms: C9_9  and  N10_10 
ROOT
HETATM    1  C4  UNL     1     -36.496  16.495  -5.014  1.00 20.00     0.058 C 
HETATM    2  C9  UNL     1     -35.049  15.983  -5.026  1.00 20.00     0.214 C 
ENDROOT
BRANCH   2   3
HETATM    3  C1  UNL     1     -34.200  16.735  -3.980  1.00 20.00     0.165 C 
HETATM    4  O11 UNL     1     -33.707  17.840  -4.222  1.00 20.00    -0.295 OA
BRANCH   3   5
HETATM    5  C7  UNL     1     -33.973  16.058  -2.633  1.00 20.00     0.076 C 
HETATM    6  C2  UNL     1     -35.039  16.421  -1.613  1.00 20.00     0.013 C 
ENDBRANCH   3   5
ENDBRANCH   2   3
BRANCH   2   7
HETATM    7  C8  UNL     1     -35.027  14.459  -4.779  1.00 20.00     0.045 C 
HETATM    8  C3  UNL     1     -36.385  13.828  -4.482  1.00 20.00     0.008 C 
ENDBRANCH   2   7
BRANCH   2   9
HETATM    9  N10 UNL     1     -34.497  16.291  -6.352  1.00 20.00     0.096 N 
HETATM   10  C5  UNL     1     -35.530  16.864  -7.208  1.00 20.00     0.310 C 
HETATM   11  C6  UNL     1     -33.935  15.086  -6.956  1.00 20.00     0.310 C 
ENDBRANCH   2   9
TORSDOF 4
ENDMDL
