MODEL 1
REMARK VINA RESULT:      -4.3      0.000      0.000
REMARK  1 active torsions:
REMARK  status: ('A' for Active; 'I' for Inactive)
REMARK    1  A    between atoms: C1_1  and  C2_2 
ROOT
HETATM    1  C2  UNL     1     -35.012  14.270  -3.882  1.00 20.00     0.089 A 
HETATM    2  C3  UNL     1     -34.716  15.756  -3.753  1.00 20.00    -0.028 A 
HETATM    3  C4  UNL     1     -33.863  14.871  -4.678  1.00 20.00    -0.028 A 
HETATM    4  C5  UNL     1     -34.132  16.237  -2.441  1.00 20.00     0.016 C 
HETATM    5  C6  UNL     1     -35.660  16.774  -4.356  1.00 20.00     0.016 C 
HETATM    6  C7  UNL     1     -33.982  15.030  -6.179  1.00 20.00     0.016 C 
HETATM    7  C8  UNL     1     -32.457  14.497  -4.260  1.00 20.00     0.016 C 
ENDROOT
BRANCH   1   8
HETATM    8  C1  UNL     1     -36.232  13.791  -4.548  1.00 20.00     0.224 C 
HETATM    9  O9  UNL     1     -36.203  12.881  -5.370  1.00 20.00    -0.279 OA
HETATM   10 CL10 UNL     1     -37.645  14.658  -4.026  1.00 20.00    -0.043 Cl
ENDBRANCH   1   8
TORSDOF 1
ENDMDL
MODEL 2
REMARK VINA RESULT:      -4.2      1.168      2.888
REMARK  1 active torsions:
REMARK  status: ('A' for Active; 'I' for Inactive)
REMARK    1  A    between atoms: C1_1  and  C2_2 
ROOT
HETATM    1  C2  UNL     1     -35.848  14.635  -5.890  1.00 20.00     0.089 A 
HETATM    2  C3  UNL     1     -34.384  15.049  -5.880  1.00 20.00    -0.028 A 
HETATM    3  C4  UNL     1     -35.487  16.087  -5.612  1.00 20.00    -0.028 A 
HETATM    4  C5  UNL     1     -33.657  15.063  -7.209  1.00 20.00     0.016 C 
HETATM    5  C6  UNL     1     -33.479  14.611  -4.748  1.00 20.00     0.016 C 
HETATM    6  C7  UNL     1     -35.651  16.656  -4.219  1.00 20.00     0.016 C 
HETATM    7  C8  UNL     1     -35.825  17.104  -6.681  1.00 20.00     0.016 C 
ENDROOT
BRANCH   1   8
HETATM    8  C1  UNL     1     -36.403  13.773  -4.836  1.00 20.00     0.224 C 
HETATM    9  O9  UNL     1     -35.839  12.742  -4.483  1.00 20.00    -0.279 OA
HETATM   10 CL10 UNL     1     -37.896  14.395  -4.202  1.00 20.00    -0.043 Cl
ENDBRANCH   1   8
TORSDOF 1
ENDMDL
MODEL 3
REMARK VINA RESULT:      -4.2      0.954      1.246
REMARK  1 active torsions:
REMARK  status: ('A' for Active; 'I' for Inactive)
REMARK    1  A    between atoms: C1_1  and  C2_2 
ROOT
HETATM    1  C2  UNL     1     -35.672  15.062  -3.717  1.00 20.00     0.089 A 
HETATM    2  C3  UNL     1     -35.569  16.414  -4.408  1.00 20.00    -0.028 A 
HETATM    3  C4  UNL     1     -34.353  15.475  -4.351  1.00 20.00    -0.028 A 
HETATM    4  C5  UNL     1     -35.597  17.647  -3.529  1.00 20.00     0.016 C 
HETATM    5  C6  UNL     1     -36.271  16.647  -5.728  1.00 20.00     0.016 C 
HETATM    6  C7  UNL     1     -33.874  14.797  -5.618  1.00 20.00     0.016 C 
HETATM    7  C8  UNL     1     -33.205  15.801  -3.419  1.00 20.00     0.016 C 
ENDROOT
BRANCH   1   8
HETATM    8  C1  UNL     1     -36.484  13.976  -4.285  1.00 20.00     0.224 C 
HETATM    9  O9  UNL     1     -35.982  12.918  -4.649  1.00 20.00    -0.279 OA
HETATM   10 CL10 UNL     1     -38.170  14.392  -4.362  1.00 20.00    -0.043 Cl
ENDBRANCH   1   8
TORSDOF 1
ENDMDL
MODEL 4
REMARK VINA RESULT:      -4.2      1.697      2.590
REMARK  1 active torsions:
REMARK  status: ('A' for Active; 'I' for Inactive)
REMARK    1  A    between atoms: C1_1  and  C2_2 
ROOT
HETATM    1  C2  UNL     1     -35.708  15.238  -3.416  1.00 20.00     0.089 A 
HETATM    2  C3  UNL     1     -35.736  16.700  -3.836  1.00 20.00    -0.028 A 
HETATM    3  C4  UNL     1     -34.777  16.227  -2.731  1.00 20.00    -0.028 A 
HETATM    4  C5  UNL     1     -36.961  17.508  -3.461  1.00 20.00     0.016 C 
HETATM    5  C6  UNL     1     -35.178  17.114  -5.181  1.00 20.00     0.016 C 
HETATM    6  C7  UNL     1     -33.289  16.182  -3.004  1.00 20.00     0.016 C 
HETATM    7  C8  UNL     1     -35.075  16.578  -1.289  1.00 20.00     0.016 C 
ENDROOT
BRANCH   1   8
HETATM    8  C1  UNL     1     -35.188  14.197  -4.313  1.00 20.00     0.224 C 
HETATM    9  O9  UNL     1     -34.257  13.468  -3.985  1.00 20.00    -0.279 OA
HETATM   10 CL10 UNL     1     -36.039  14.153  -5.827  1.00 20.00    -0.043 Cl
ENDBRANCH   1   8
TORSDOF 1
ENDMDL
MODEL 5
REMARK VINA RESULT:      -4.2      2.006      3.153
REMARK  1 active torsions:
REMARK  status: ('A' for Active; 'I' for Inactive)
REMARK    1  A    between atoms: C1_1  and  C2_2 
ROOT
HETATM    1  C2  UNL     1     -34.469  16.487  -4.370  1.00 20.00     0.089 A 
HETATM    2  C3  UNL     1     -33.995  15.122  -3.898  1.00 20.00    -0.028 A 
HETATM    3  C4  UNL     1     -34.126  16.287  -2.902  1.00 20.00    -0.028 A 
HETATM    4  C5  UNL     1     -32.617  14.674  -4.340  1.00 20.00     0.016 C 
HETATM    5  C6  UNL     1     -34.967  13.964  -3.824  1.00 20.00     0.016 C 
HETATM    6  C7  UNL     1     -35.225  16.258  -1.862  1.00 20.00     0.016 C 
HETATM    7  C8  UNL     1     -32.875  16.963  -2.382  1.00 20.00     0.016 C 
ENDROOT
BRANCH   1   8
HETATM    8  C1  UNL     1     -35.857  16.703  -4.806  1.00 20.00     0.224 C 
HETATM    9  O9  UNL     1     -36.623  17.432  -4.183  1.00 20.00    -0.279 OA
HETATM   10 CL10 UNL     1     -36.232  15.820  -6.255  1.00 20.00    -0.043 Cl
ENDBRANCH   1   8
TORSDOF 1
ENDMDL
MODEL 6
REMARK VINA RESULT:      -4.1      2.204      2.929
REMARK  1 active torsions:
REMARK  status: ('A' for Active; 'I' for Inactive)
REMARK    1  A    between atoms: C1_1  and  C2_2 
ROOT
HETATM    1  C2  UNL     1     -34.260  15.741  -2.483  1.00 20.00     0.089 A 
HETATM    2  C3  UNL     1     -35.186  16.867  -2.049  1.00 20.00    -0.028 A 
HETATM    3  C4  UNL     1     -33.818  17.183  -2.678  1.00 20.00    -0.028 A 
HETATM    4  C5  UNL     1     -35.383  17.070  -0.561  1.00 20.00     0.016 C 
HETATM    5  C6  UNL     1     -36.450  17.155  -2.829  1.00 20.00     0.016 C 
HETATM    6  C7  UNL     1     -33.757  17.777  -4.069  1.00 20.00     0.016 C 
HETATM    7  C8  UNL     1     -32.695  17.691  -1.799  1.00 20.00     0.016 C 
ENDROOT
BRANCH   1   8
HETATM    8  C1  UNL     1     -34.590  14.883  -3.631  1.00 20.00     0.224 C 
HETATM    9  O9  UNL     1     -35.743  14.536  -3.865  1.00 20.00    -0.279 OA
HETATM   10 CL10 UNL     1     -33.182  14.457  -4.555  1.00 20.00    -0.043 Cl
ENDBRANCH   1   8
TORSDOF 1
ENDMDL
MODEL 7
REMARK VINA RESULT:      -4.1      2.622      3.551
REMARK  1 active torsions:
REMARK  status: ('A' for Active; 'I' for Inactive)
REMARK    1  A    between atoms: C1_1  and  C2_2 
ROOT
HETATM    1  C2  UNL     1     -34.512  15.194  -3.404  1.00 20.00     0.089 A 
HETATM    2  C3  UNL     1     -34.574  15.667  -4.849  1.00 20.00    -0.028 A 
HETATM    3  C4  UNL     1     -35.816  15.058  -4.175  1.00 20.00    -0.028 A 
HETATM    4  C5  UNL     1     -33.816  14.856  -5.878  1.00 20.00     0.016 C 
HETATM    5  C6  UNL     1     -34.546  17.147  -5.166  1.00 20.00     0.016 C 
HETATM    6  C7  UNL     1     -36.993  15.949  -3.839  1.00 20.00     0.016 C 
HETATM    7  C8  UNL     1     -36.257  13.661  -4.555  1.00 20.00     0.016 C 
ENDROOT
BRANCH   1   8
HETATM    8  C1  UNL     1     -34.379  16.150  -2.295  1.00 20.00     0.224 C 
HETATM    9  O9  UNL     1     -35.249  16.271  -1.439  1.00 20.00    -0.279 OA
HETATM   10 CL10 UNL     1     -32.886  17.036  -2.372  1.00 20.00    -0.043 Cl
ENDBRANCH   1   8
TORSDOF 1
ENDMDL
MODEL 8
REMARK VINA RESULT:      -4.1      2.636      3.316
REMARK  1 active torsions:
REMARK  status: ('A' for Active; 'I' for Inactive)
REMARK    1  A    between atoms: C1_1  and  C2_2 
ROOT
HETATM    1  C2  UNL     1     -34.850  16.496  -4.233  1.00 20.00     0.089 A 
HETATM    2  C3  UNL     1     -34.253  16.305  -2.847  1.00 20.00    -0.028 A 
HETATM    3  C4  UNL     1     -34.234  15.154  -3.867  1.00 20.00    -0.028 A 
HETATM    4  C5  UNL     1     -35.215  16.246  -1.679  1.00 20.00     0.016 C 
HETATM    5  C6  UNL     1     -32.958  16.995  -2.477  1.00 20.00     0.016 C 
HETATM    6  C7  UNL     1     -32.920  14.728  -4.486  1.00 20.00     0.016 C 
HETATM    7  C8  UNL     1     -35.177  13.984  -3.684  1.00 20.00     0.016 C 
ENDROOT
BRANCH   1   8
HETATM    8  C1  UNL     1     -34.215  17.382  -5.221  1.00 20.00     0.224 C 
HETATM    9  O9  UNL     1     -33.656  18.422  -4.888  1.00 20.00    -0.279 OA
HETATM   10 CL10 UNL     1     -34.368  16.771  -6.840  1.00 20.00    -0.043 Cl
ENDBRANCH   1   8
TORSDOF 1
ENDMDL
MODEL 9
REMARK VINA RESULT:      -4.0      1.885      2.937
REMARK  1 active torsions:
REMARK  status: ('A' for Active; 'I' for Inactive)
REMARK    1  A    between atoms: C1_1  and  C2_2 
ROOT
HETATM    1  C2  UNL     1     -34.535  15.842  -5.195  1.00 20.00     0.089 A 
HETATM    2  C3  UNL     1     -33.608  15.372  -4.084  1.00 20.00    -0.028 A 
HETATM    3  C4  UNL     1     -35.119  15.096  -4.005  1.00 20.00    -0.028 A 
HETATM    4  C5  UNL     1     -32.999  16.434  -3.192  1.00 20.00     0.016 C 
HETATM    5  C6  UNL     1     -32.651  14.225  -4.327  1.00 20.00     0.016 C 
HETATM    6  C7  UNL     1     -35.627  13.680  -4.171  1.00 20.00     0.016 C 
HETATM    7  C8  UNL     1     -35.969  15.891  -3.037  1.00 20.00     0.016 C 
ENDROOT
BRANCH   1   8
HETATM    8  C1  UNL     1     -34.493  15.230  -6.531  1.00 20.00     0.224 C 
HETATM    9  O9  UNL     1     -33.458  14.760  -6.993  1.00 20.00    -0.279 OA
HETATM   10 CL10 UNL     1     -36.042  15.270  -7.317  1.00 20.00    -0.043 Cl
ENDBRANCH   1   8
TORSDOF 1
ENDMDL
