MODEL 1
REMARK VINA RESULT:      -5.0      0.000      0.000
REMARK  2 active torsions:
REMARK  status: ('A' for Active; 'I' for Inactive)
REMARK    1  A    between atoms: C2_2  and  C3_3 
REMARK    2  A    between atoms: C2_2  and  C10_10 
ROOT
HETATM    1  C1  UNL     1     -36.398  13.881  -4.304  1.00 20.00     0.066 C 
HETATM    2  C10 UNL     1     -34.975  13.835  -3.948  1.00 20.00     0.202 C 
HETATM    3  N11 UNL     1     -37.523  13.914  -4.584  1.00 20.00    -0.197 NA
ENDROOT
BRANCH   2   4
HETATM    4  C2  UNL     1     -34.313  15.189  -4.063  1.00 20.00     0.145 C 
HETATM    5  O12 UNL     1     -34.000  15.729  -5.116  1.00 20.00    -0.296 OA
BRANCH   4   6
HETATM    6  C3  UNL     1     -34.046  15.865  -2.786  1.00 20.00     0.073 A 
HETATM    7  C4  UNL     1     -35.018  16.885  -2.214  1.00 20.00    -0.029 A 
HETATM    8  C5  UNL     1     -33.642  17.330  -2.739  1.00 20.00    -0.029 A 
HETATM    9  C6  UNL     1     -35.267  16.849  -0.722  1.00 20.00     0.016 C 
HETATM   10  C7  UNL     1     -36.266  17.259  -2.986  1.00 20.00     0.016 C 
HETATM   11  C8  UNL     1     -33.555  18.135  -4.017  1.00 20.00     0.016 C 
HETATM   12  C9  UNL     1     -32.563  17.723  -1.751  1.00 20.00     0.016 C 
ENDBRANCH   4   6
ENDBRANCH   2   4
TORSDOF 2
ENDMDL
MODEL 2
REMARK VINA RESULT:      -4.7      0.907      1.685
REMARK  2 active torsions:
REMARK  status: ('A' for Active; 'I' for Inactive)
REMARK    1  A    between atoms: C2_2  and  C3_3 
REMARK    2  A    between atoms: C2_2  and  C10_10 
ROOT
HETATM    1  C1  UNL     1     -36.337  13.860  -4.325  1.00 20.00     0.066 C 
HETATM    2  C10 UNL     1     -34.890  13.758  -4.105  1.00 20.00     0.202 C 
HETATM    3  N11 UNL     1     -37.481  13.937  -4.501  1.00 20.00    -0.197 NA
ENDROOT
BRANCH   2   4
HETATM    4  C2  UNL     1     -34.316  15.012  -3.487  1.00 20.00     0.145 C 
HETATM    5  O12 UNL     1     -33.178  15.423  -3.666  1.00 20.00    -0.296 OA
BRANCH   4   6
HETATM    6  C3  UNL     1     -35.234  15.756  -2.613  1.00 20.00     0.073 A 
HETATM    7  C4  UNL     1     -35.701  17.159  -2.970  1.00 20.00    -0.029 A 
HETATM    8  C5  UNL     1     -34.751  16.933  -1.781  1.00 20.00    -0.029 A 
HETATM    9  C6  UNL     1     -37.151  17.498  -2.706  1.00 20.00     0.016 C 
HETATM   10  C7  UNL     1     -35.180  17.836  -4.220  1.00 20.00     0.016 C 
HETATM   11  C8  UNL     1     -33.311  17.390  -1.877  1.00 20.00     0.016 C 
HETATM   12  C9  UNL     1     -35.287  17.054  -0.370  1.00 20.00     0.016 C 
ENDBRANCH   4   6
ENDBRANCH   2   4
TORSDOF 2
ENDMDL
MODEL 3
REMARK VINA RESULT:      -4.5      1.462      2.203
REMARK  2 active torsions:
REMARK  status: ('A' for Active; 'I' for Inactive)
REMARK    1  A    between atoms: C2_2  and  C3_3 
REMARK    2  A    between atoms: C2_2  and  C10_10 
ROOT
HETATM    1  C1  UNL     1     -35.057  13.997  -4.271  1.00 20.00     0.066 C 
HETATM    2  C10 UNL     1     -33.866  14.780  -3.927  1.00 20.00     0.202 C 
HETATM    3  N11 UNL     1     -35.997  13.375  -4.546  1.00 20.00    -0.197 NA
ENDROOT
BRANCH   2   4
HETATM    4  C2  UNL     1     -34.129  15.756  -2.803  1.00 20.00     0.145 C 
HETATM    5  O12 UNL     1     -35.071  15.692  -2.025  1.00 20.00    -0.296 OA
BRANCH   4   6
HETATM    6  C3  UNL     1     -33.150  16.846  -2.678  1.00 20.00     0.073 A 
HETATM    7  C4  UNL     1     -33.227  17.849  -1.538  1.00 20.00    -0.029 A 
HETATM    8  C5  UNL     1     -33.531  18.286  -2.982  1.00 20.00    -0.029 A 
HETATM    9  C6  UNL     1     -31.924  18.272  -0.894  1.00 20.00     0.016 C 
HETATM   10  C7  UNL     1     -34.355  17.768  -0.532  1.00 20.00     0.016 C 
HETATM   11  C8  UNL     1     -34.952  18.629  -3.375  1.00 20.00     0.016 C 
HETATM   12  C9  UNL     1     -32.520  19.130  -3.730  1.00 20.00     0.016 C 
ENDBRANCH   4   6
ENDBRANCH   2   4
TORSDOF 2
ENDMDL
MODEL 4
REMARK VINA RESULT:      -4.4      1.909      2.858
REMARK  2 active torsions:
REMARK  status: ('A' for Active; 'I' for Inactive)
REMARK    1  A    between atoms: C2_2  and  C3_3 
REMARK    2  A    between atoms: C2_2  and  C10_10 
ROOT
HETATM    1  C1  UNL     1     -38.836  15.038  -4.386  1.00 20.00     0.066 C 
HETATM    2  C10 UNL     1     -37.500  15.399  -3.899  1.00 20.00     0.202 C 
HETATM    3  N11 UNL     1     -39.893  14.757  -4.771  1.00 20.00    -0.197 NA
ENDROOT
BRANCH   2   4
HETATM    4  C2  UNL     1     -36.460  14.364  -4.263  1.00 20.00     0.145 C 
HETATM    5  O12 UNL     1     -36.671  13.367  -4.941  1.00 20.00    -0.296 OA
BRANCH   4   6
HETATM    6  C3  UNL     1     -35.111  14.622  -3.739  1.00 20.00     0.073 A 
HETATM    7  C4  UNL     1     -34.524  16.024  -3.725  1.00 20.00    -0.029 A 
HETATM    8  C5  UNL     1     -33.953  14.950  -4.668  1.00 20.00    -0.029 A 
HETATM    9  C6  UNL     1     -33.731  16.435  -2.504  1.00 20.00     0.016 C 
HETATM   10  C7  UNL     1     -35.310  17.181  -4.304  1.00 20.00     0.016 C 
HETATM   11  C8  UNL     1     -34.186  15.066  -6.160  1.00 20.00     0.016 C 
HETATM   12  C9  UNL     1     -32.610  14.325  -4.355  1.00 20.00     0.016 C 
ENDBRANCH   4   6
ENDBRANCH   2   4
TORSDOF 2
ENDMDL
MODEL 5
REMARK VINA RESULT:      -4.3      2.053      3.054
REMARK  2 active torsions:
REMARK  status: ('A' for Active; 'I' for Inactive)
REMARK    1  A    between atoms: C2_2  and  C3_3 
REMARK    2  A    between atoms: C2_2  and  C10_10 
ROOT
HETATM    1  C1  UNL     1     -36.137  15.562  -6.844  1.00 20.00     0.066 C 
HETATM    2  C10 UNL     1     -36.210  16.867  -6.178  1.00 20.00     0.202 C 
HETATM    3  N11 UNL     1     -36.078  14.532  -7.375  1.00 20.00    -0.197 NA
ENDROOT
BRANCH   2   4
HETATM    4  C2  UNL     1     -35.949  16.765  -4.693  1.00 20.00     0.145 C 
HETATM    5  O12 UNL     1     -36.801  16.880  -3.822  1.00 20.00    -0.296 OA
BRANCH   4   6
HETATM    6  C3  UNL     1     -34.550  16.510  -4.319  1.00 20.00     0.073 A 
HETATM    7  C4  UNL     1     -34.092  15.132  -3.868  1.00 20.00    -0.029 A 
HETATM    8  C5  UNL     1     -34.147  16.301  -2.868  1.00 20.00    -0.029 A 
HETATM    9  C6  UNL     1     -32.750  14.647  -4.368  1.00 20.00     0.016 C 
HETATM   10  C7  UNL     1     -35.093  14.002  -3.748  1.00 20.00     0.016 C 
HETATM   11  C8  UNL     1     -35.199  16.304  -1.780  1.00 20.00     0.016 C 
HETATM   12  C9  UNL     1     -32.855  16.942  -2.405  1.00 20.00     0.016 C 
ENDBRANCH   4   6
ENDBRANCH   2   4
TORSDOF 2
ENDMDL
MODEL 6
REMARK VINA RESULT:      -4.3      1.856      3.239
REMARK  2 active torsions:
REMARK  status: ('A' for Active; 'I' for Inactive)
REMARK    1  A    between atoms: C2_2  and  C3_3 
REMARK    2  A    between atoms: C2_2  and  C10_10 
ROOT
HETATM    1  C1  UNL     1     -37.995  15.011  -4.151  1.00 20.00     0.066 C 
HETATM    2  C10 UNL     1     -37.338  16.252  -3.727  1.00 20.00     0.202 C 
HETATM    3  N11 UNL     1     -38.518  14.032  -4.489  1.00 20.00    -0.197 NA
ENDROOT
BRANCH   2   4
HETATM    4  C2  UNL     1     -35.938  16.010  -3.213  1.00 20.00     0.145 C 
HETATM    5  O12 UNL     1     -35.523  16.361  -2.117  1.00 20.00    -0.296 OA
BRANCH   4   6
HETATM    6  C3  UNL     1     -35.046  15.296  -4.138  1.00 20.00     0.073 A 
HETATM    7  C4  UNL     1     -33.542  15.521  -4.116  1.00 20.00    -0.029 A 
HETATM    8  C5  UNL     1     -34.385  16.011  -5.306  1.00 20.00    -0.029 A 
HETATM    9  C6  UNL     1     -32.654  14.307  -4.286  1.00 20.00     0.016 C 
HETATM   10  C7  UNL     1     -32.940  16.531  -3.162  1.00 20.00     0.016 C 
HETATM   11  C8  UNL     1     -34.600  17.496  -5.507  1.00 20.00     0.016 C 
HETATM   12  C9  UNL     1     -34.309  15.270  -6.624  1.00 20.00     0.016 C 
ENDBRANCH   4   6
ENDBRANCH   2   4
TORSDOF 2
ENDMDL
MODEL 7
REMARK VINA RESULT:      -4.3      1.823      2.072
REMARK  2 active torsions:
REMARK  status: ('A' for Active; 'I' for Inactive)
REMARK    1  A    between atoms: C2_2  and  C3_3 
REMARK    2  A    between atoms: C2_2  and  C10_10 
ROOT
HETATM    1  C1  UNL     1     -36.280  13.768  -4.754  1.00 20.00     0.066 C 
HETATM    2  C10 UNL     1     -36.869  15.070  -5.082  1.00 20.00     0.202 C 
HETATM    3  N11 UNL     1     -35.814  12.736  -4.499  1.00 20.00    -0.197 NA
ENDROOT
BRANCH   2   4
HETATM    4  C2  UNL     1     -36.962  15.976  -3.875  1.00 20.00     0.145 C 
HETATM    5  O12 UNL     1     -37.937  16.654  -3.581  1.00 20.00    -0.296 OA
BRANCH   4   6
HETATM    6  C3  UNL     1     -35.763  16.009  -3.025  1.00 20.00     0.073 A 
HETATM    7  C4  UNL     1     -35.344  17.279  -2.301  1.00 20.00    -0.029 A 
HETATM    8  C5  UNL     1     -34.502  16.733  -3.468  1.00 20.00    -0.029 A 
HETATM    9  C6  UNL     1     -34.831  17.136  -0.885  1.00 20.00     0.016 C 
HETATM   10  C7  UNL     1     -36.136  18.556  -2.489  1.00 20.00     0.016 C 
HETATM   11  C8  UNL     1     -34.477  17.479  -4.784  1.00 20.00     0.016 C 
HETATM   12  C9  UNL     1     -33.175  16.063  -3.175  1.00 20.00     0.016 C 
ENDBRANCH   4   6
ENDBRANCH   2   4
TORSDOF 2
ENDMDL
MODEL 8
REMARK VINA RESULT:      -4.3      1.992      3.115
REMARK  2 active torsions:
REMARK  status: ('A' for Active; 'I' for Inactive)
REMARK    1  A    between atoms: C2_2  and  C3_3 
REMARK    2  A    between atoms: C2_2  and  C10_10 
ROOT
HETATM    1  C1  UNL     1     -35.589  15.753  -7.172  1.00 20.00     0.066 C 
HETATM    2  C10 UNL     1     -34.346  16.474  -6.881  1.00 20.00     0.202 C 
HETATM    3  N11 UNL     1     -36.571  15.180  -7.406  1.00 20.00    -0.197 NA
ENDROOT
BRANCH   2   4
HETATM    4  C2  UNL     1     -34.344  17.074  -5.494  1.00 20.00     0.145 C 
HETATM    5  O12 UNL     1     -33.909  18.181  -5.209  1.00 20.00    -0.296 OA
BRANCH   4   6
HETATM    6  C3  UNL     1     -34.919  16.222  -4.443  1.00 20.00     0.073 A 
HETATM    7  C4  UNL     1     -34.290  16.140  -3.061  1.00 20.00    -0.029 A 
HETATM    8  C5  UNL     1     -34.238  14.932  -4.013  1.00 20.00    -0.029 A 
HETATM    9  C6  UNL     1     -35.224  16.107  -1.872  1.00 20.00     0.016 C 
HETATM   10  C7  UNL     1     -33.019  16.906  -2.759  1.00 20.00     0.016 C 
HETATM   11  C8  UNL     1     -32.918  14.527  -4.634  1.00 20.00     0.016 C 
HETATM   12  C9  UNL     1     -35.123  13.734  -3.741  1.00 20.00     0.016 C 
ENDBRANCH   4   6
ENDBRANCH   2   4
TORSDOF 2
ENDMDL
MODEL 9
REMARK VINA RESULT:      -4.3      1.439      2.201
REMARK  2 active torsions:
REMARK  status: ('A' for Active; 'I' for Inactive)
REMARK    1  A    between atoms: C2_2  and  C3_3 
REMARK    2  A    between atoms: C2_2  and  C10_10 
ROOT
HETATM    1  C1  UNL     1     -36.319  14.109  -5.072  1.00 20.00     0.066 C 
HETATM    2  C10 UNL     1     -35.177  14.675  -5.797  1.00 20.00     0.202 C 
HETATM    3  N11 UNL     1     -37.221  13.657  -4.499  1.00 20.00    -0.197 NA
ENDROOT
BRANCH   2   4
HETATM    4  C2  UNL     1     -35.102  16.178  -5.661  1.00 20.00     0.145 C 
HETATM    5  O12 UNL     1     -34.810  16.950  -6.564  1.00 20.00    -0.296 OA
BRANCH   4   6
HETATM    6  C3  UNL     1     -35.411  16.702  -4.322  1.00 20.00     0.073 A 
HETATM    7  C4  UNL     1     -34.713  17.939  -3.778  1.00 20.00    -0.029 A 
HETATM    8  C5  UNL     1     -34.429  16.553  -3.171  1.00 20.00    -0.029 A 
HETATM    9  C6  UNL     1     -35.556  18.928  -3.003  1.00 20.00     0.016 C 
HETATM   10  C7  UNL     1     -33.642  18.627  -4.597  1.00 20.00     0.016 C 
HETATM   11  C8  UNL     1     -33.083  15.899  -3.401  1.00 20.00     0.016 C 
HETATM   12  C9  UNL     1     -34.998  16.208  -1.811  1.00 20.00     0.016 C 
ENDBRANCH   4   6
ENDBRANCH   2   4
TORSDOF 2
ENDMDL
