MODEL 1
REMARK VINA RESULT:      -4.4      0.000      0.000
REMARK  4 active torsions:
REMARK  status: ('A' for Active; 'I' for Inactive)
REMARK    1  A    between atoms: C4_4  and  C9_9 
REMARK    2  A    between atoms: C7_7  and  C9_9 
REMARK    3  A    between atoms: C8_8  and  C9_9 
REMARK    4  A    between atoms: C9_9  and  O11_11 
ROOT
HETATM    1  C1  UNL     1     -37.079  14.371  -4.368  1.00 20.00     0.066 C 
HETATM    2  C6  UNL     1     -34.758  13.738  -3.947  1.00 20.00     0.028 C 
HETATM    3  C8  UNL     1     -35.689  14.881  -4.382  1.00 20.00     0.123 C 
HETATM    4  N10 UNL     1     -38.167  13.969  -4.360  1.00 20.00    -0.197 NA
ENDROOT
BRANCH   3   5
HETATM    5  C9  UNL     1     -35.540  16.168  -3.509  1.00 20.00     0.077 C 
BRANCH   5   6
HETATM    6  C4  UNL     1     -34.427  16.004  -2.487  1.00 20.00     0.021 A 
HETATM    7  C2  UNL     1     -33.143  16.773  -2.635  1.00 20.00     0.008 A 
HETATM    8  C3  UNL     1     -34.106  17.121  -1.533  1.00 20.00     0.008 A 
ENDBRANCH   5   6
BRANCH   5   9
HETATM    9  C7  UNL     1     -35.302  17.458  -4.341  1.00 20.00     0.035 C 
HETATM   10  C5  UNL     1     -35.013  17.242  -5.821  1.00 20.00     0.008 C 
ENDBRANCH   5   9
BRANCH   5  11
HETATM   11  O11 UNL     1     -36.766  16.358  -2.785  1.00 20.00    -0.388 OA
HETATM   12  H26 UNL     1     -37.471  16.056  -3.374  1.00 20.00     0.210 HD
ENDBRANCH   5  11
ENDBRANCH   3   5
TORSDOF 4
ENDMDL
MODEL 2
REMARK VINA RESULT:      -4.3      1.131      1.280
REMARK  4 active torsions:
REMARK  status: ('A' for Active; 'I' for Inactive)
REMARK    1  A    between atoms: C4_4  and  C9_9 
REMARK    2  A    between atoms: C7_7  and  C9_9 
REMARK    3  A    between atoms: C8_8  and  C9_9 
REMARK    4  A    between atoms: C9_9  and  O11_11 
ROOT
HETATM    1  C1  UNL     1     -35.543  13.837  -4.411  1.00 20.00     0.066 C 
HETATM    2  C6  UNL     1     -33.339  14.844  -4.112  1.00 20.00     0.028 C 
HETATM    3  C8  UNL     1     -34.823  15.130  -4.388  1.00 20.00     0.123 C 
HETATM    4  N10 UNL     1     -36.105  12.822  -4.432  1.00 20.00    -0.197 NA
ENDROOT
BRANCH   3   5
HETATM    5  C9  UNL     1     -35.462  16.126  -3.369  1.00 20.00     0.077 C 
BRANCH   5   6
HETATM    6  C4  UNL     1     -34.667  16.161  -2.074  1.00 20.00     0.021 A 
HETATM    7  C2  UNL     1     -34.023  17.441  -1.616  1.00 20.00     0.008 A 
HETATM    8  C3  UNL     1     -35.208  16.887  -0.873  1.00 20.00     0.008 A 
ENDBRANCH   5   6
BRANCH   5   9
HETATM    9  C7  UNL     1     -35.623  17.567  -3.926  1.00 20.00     0.035 C 
HETATM   10  C5  UNL     1     -34.975  17.824  -5.280  1.00 20.00     0.008 C 
ENDBRANCH   5   9
BRANCH   5  11
HETATM   11  O11 UNL     1     -36.781  15.653  -3.052  1.00 20.00    -0.388 OA
HETATM   12  H26 UNL     1     -37.312  15.795  -3.848  1.00 20.00     0.210 HD
ENDBRANCH   5  11
ENDBRANCH   3   5
TORSDOF 4
ENDMDL
MODEL 3
REMARK VINA RESULT:      -4.2      1.928      3.524
REMARK  4 active torsions:
REMARK  status: ('A' for Active; 'I' for Inactive)
REMARK    1  A    between atoms: C4_4  and  C9_9 
REMARK    2  A    between atoms: C7_7  and  C9_9 
REMARK    3  A    between atoms: C8_8  and  C9_9 
REMARK    4  A    between atoms: C9_9  and  O11_11 
ROOT
HETATM    1  C1  UNL     1     -37.503  14.701  -4.259  1.00 20.00     0.066 C 
HETATM    2  C6  UNL     1     -36.553  16.935  -4.519  1.00 20.00     0.028 C 
HETATM    3  C8  UNL     1     -36.248  15.478  -4.138  1.00 20.00     0.123 C 
HETATM    4  N10 UNL     1     -38.488  14.094  -4.350  1.00 20.00    -0.197 NA
ENDROOT
BRANCH   3   5
HETATM    5  C9  UNL     1     -35.097  14.845  -4.982  1.00 20.00     0.077 C 
BRANCH   5   6
HETATM    6  C4  UNL     1     -34.809  15.679  -6.220  1.00 20.00     0.021 A 
HETATM    7  C2  UNL     1     -33.860  15.172  -7.271  1.00 20.00     0.008 A 
HETATM    8  C3  UNL     1     -35.334  15.248  -7.562  1.00 20.00     0.008 A 
ENDBRANCH   5   6
BRANCH   5   9
HETATM    9  C7  UNL     1     -33.785  14.629  -4.179  1.00 20.00     0.035 C 
HETATM   10  C5  UNL     1     -33.260  15.851  -3.438  1.00 20.00     0.008 C 
ENDBRANCH   5   9
BRANCH   5  11
HETATM   11  O11 UNL     1     -35.531  13.550  -5.427  1.00 20.00    -0.388 OA
HETATM   12  H26 UNL     1     -34.725  13.031  -5.558  1.00 20.00     0.210 HD
ENDBRANCH   5  11
ENDBRANCH   3   5
TORSDOF 4
ENDMDL
MODEL 4
REMARK VINA RESULT:      -4.1      1.794      2.277
REMARK  4 active torsions:
REMARK  status: ('A' for Active; 'I' for Inactive)
REMARK    1  A    between atoms: C4_4  and  C9_9 
REMARK    2  A    between atoms: C7_7  and  C9_9 
REMARK    3  A    between atoms: C8_8  and  C9_9 
REMARK    4  A    between atoms: C9_9  and  O11_11 
ROOT
HETATM    1  C1  UNL     1     -36.780  14.725  -4.529  1.00 20.00     0.066 C 
HETATM    2  C6  UNL     1     -36.718  16.861  -5.710  1.00 20.00     0.028 C 
HETATM    3  C8  UNL     1     -36.081  16.029  -4.585  1.00 20.00     0.123 C 
HETATM    4  N10 UNL     1     -37.330  13.704  -4.483  1.00 20.00    -0.197 NA
ENDROOT
BRANCH   3   5
HETATM    5  C9  UNL     1     -34.538  15.848  -4.745  1.00 20.00     0.077 C 
BRANCH   5   6
HETATM    6  C4  UNL     1     -33.880  15.594  -3.399  1.00 20.00     0.021 A 
HETATM    7  C2  UNL     1     -33.138  16.699  -2.699  1.00 20.00     0.008 A 
HETATM    8  C3  UNL     1     -34.449  16.208  -2.150  1.00 20.00     0.008 A 
ENDBRANCH   5   6
BRANCH   5   9
HETATM    9  C7  UNL     1     -34.145  14.723  -5.742  1.00 20.00     0.035 C 
HETATM   10  C5  UNL     1     -33.857  15.178  -7.166  1.00 20.00     0.008 C 
ENDBRANCH   5   9
BRANCH   5  11
HETATM   11  O11 UNL     1     -33.998  17.073  -5.265  1.00 20.00    -0.388 OA
HETATM   12  H26 UNL     1     -33.042  17.022  -5.124  1.00 20.00     0.210 HD
ENDBRANCH   5  11
ENDBRANCH   3   5
TORSDOF 4
ENDMDL
MODEL 5
REMARK VINA RESULT:      -4.0      1.317      1.602
REMARK  4 active torsions:
REMARK  status: ('A' for Active; 'I' for Inactive)
REMARK    1  A    between atoms: C4_4  and  C9_9 
REMARK    2  A    between atoms: C7_7  and  C9_9 
REMARK    3  A    between atoms: C8_8  and  C9_9 
REMARK    4  A    between atoms: C9_9  and  O11_11 
ROOT
HETATM    1  C1  UNL     1     -36.033  13.729  -4.716  1.00 20.00     0.066 C 
HETATM    2  C6  UNL     1     -35.165  15.369  -6.305  1.00 20.00     0.028 C 
HETATM    3  C8  UNL     1     -36.149  15.141  -5.146  1.00 20.00     0.123 C 
HETATM    4  N10 UNL     1     -35.942  12.621  -4.383  1.00 20.00    -0.197 NA
ENDROOT
BRANCH   3   5
HETATM    5  C9  UNL     1     -35.938  16.125  -3.952  1.00 20.00     0.077 C 
BRANCH   5   6
HETATM    6  C4  UNL     1     -34.869  15.606  -3.005  1.00 20.00     0.021 A 
HETATM    7  C2  UNL     1     -33.440  16.049  -3.161  1.00 20.00     0.008 A 
HETATM    8  C3  UNL     1     -34.250  16.524  -1.986  1.00 20.00     0.008 A 
ENDBRANCH   5   6
BRANCH   5   9
HETATM    9  C7  UNL     1     -35.590  17.573  -4.393  1.00 20.00     0.035 C 
HETATM   10  C5  UNL     1     -36.630  18.632  -4.051  1.00 20.00     0.008 C 
ENDBRANCH   5   9
BRANCH   5  11
HETATM   11  O11 UNL     1     -37.168  16.198  -3.213  1.00 20.00    -0.388 OA
HETATM   12  H26 UNL     1     -37.736  15.504  -3.575  1.00 20.00     0.210 HD
ENDBRANCH   5  11
ENDBRANCH   3   5
TORSDOF 4
ENDMDL
MODEL 6
REMARK VINA RESULT:      -3.9      1.988      3.296
REMARK  4 active torsions:
REMARK  status: ('A' for Active; 'I' for Inactive)
REMARK    1  A    between atoms: C4_4  and  C9_9 
REMARK    2  A    between atoms: C7_7  and  C9_9 
REMARK    3  A    between atoms: C8_8  and  C9_9 
REMARK    4  A    between atoms: C9_9  and  O11_11 
ROOT
HETATM    1  C1  UNL     1     -36.516  14.287  -4.197  1.00 20.00     0.066 C 
HETATM    2  C6  UNL     1     -35.146  15.550  -2.619  1.00 20.00     0.028 C 
HETATM    3  C8  UNL     1     -35.146  14.795  -3.958  1.00 20.00     0.123 C 
HETATM    4  N10 UNL     1     -37.590  13.887  -4.381  1.00 20.00    -0.197 NA
ENDROOT
BRANCH   3   5
HETATM    5  C9  UNL     1     -34.635  15.657  -5.155  1.00 20.00     0.077 C 
BRANCH   5   6
HETATM    6  C4  UNL     1     -34.601  14.839  -6.436  1.00 20.00     0.021 A 
HETATM    7  C2  UNL     1     -35.425  15.255  -7.623  1.00 20.00     0.008 A 
HETATM    8  C3  UNL     1     -33.927  15.385  -7.665  1.00 20.00     0.008 A 
ENDBRANCH   5   6
BRANCH   5   9
HETATM    9  C7  UNL     1     -35.460  16.953  -5.384  1.00 20.00     0.035 C 
HETATM   10  C5  UNL     1     -34.683  18.257  -5.256  1.00 20.00     0.008 C 
ENDBRANCH   5   9
BRANCH   5  11
HETATM   11  O11 UNL     1     -33.288  16.064  -4.868  1.00 20.00    -0.388 OA
HETATM   12  H26 UNL     1     -33.141  16.871  -5.382  1.00 20.00     0.210 HD
ENDBRANCH   5  11
ENDBRANCH   3   5
TORSDOF 4
ENDMDL
MODEL 7
REMARK VINA RESULT:      -3.8      2.441      3.396
REMARK  4 active torsions:
REMARK  status: ('A' for Active; 'I' for Inactive)
REMARK    1  A    between atoms: C4_4  and  C9_9 
REMARK    2  A    between atoms: C7_7  and  C9_9 
REMARK    3  A    between atoms: C8_8  and  C9_9 
REMARK    4  A    between atoms: C9_9  and  O11_11 
ROOT
HETATM    1  C1  UNL     1     -34.261  15.480  -6.993  1.00 20.00     0.066 C 
HETATM    2  C6  UNL     1     -35.232  17.441  -5.909  1.00 20.00     0.028 C 
HETATM    3  C8  UNL     1     -35.045  15.918  -5.816  1.00 20.00     0.123 C 
HETATM    4  N10 UNL     1     -33.649  15.138  -7.918  1.00 20.00    -0.197 NA
ENDROOT
BRANCH   3   5
HETATM    5  C9  UNL     1     -34.383  15.455  -4.480  1.00 20.00     0.077 C 
BRANCH   5   6
HETATM    6  C4  UNL     1     -34.481  16.541  -3.421  1.00 20.00     0.021 A 
HETATM    7  C2  UNL     1     -34.509  16.176  -1.962  1.00 20.00     0.008 A 
HETATM    8  C3  UNL     1     -33.299  16.854  -2.545  1.00 20.00     0.008 A 
ENDBRANCH   5   6
BRANCH   5   9
HETATM    9  C7  UNL     1     -34.967  14.127  -3.925  1.00 20.00     0.035 C 
HETATM   10  C5  UNL     1     -36.295  13.689  -4.530  1.00 20.00     0.008 C 
ENDBRANCH   5   9
BRANCH   5  11
HETATM   11  O11 UNL     1     -32.988  15.224  -4.731  1.00 20.00    -0.388 OA
HETATM   12  H26 UNL     1     -32.658  16.029  -5.153  1.00 20.00     0.210 HD
ENDBRANCH   5  11
ENDBRANCH   3   5
TORSDOF 4
ENDMDL
MODEL 8
REMARK VINA RESULT:      -3.8      1.778      3.130
REMARK  4 active torsions:
REMARK  status: ('A' for Active; 'I' for Inactive)
REMARK    1  A    between atoms: C4_4  and  C9_9 
REMARK    2  A    between atoms: C7_7  and  C9_9 
REMARK    3  A    between atoms: C8_8  and  C9_9 
REMARK    4  A    between atoms: C9_9  and  O11_11 
ROOT
HETATM    1  C1  UNL     1     -35.695  13.903  -4.197  1.00 20.00     0.066 C 
HETATM    2  C6  UNL     1     -36.882  16.000  -3.802  1.00 20.00     0.028 C 
HETATM    3  C8  UNL     1     -35.528  15.283  -3.688  1.00 20.00     0.123 C 
HETATM    4  N10 UNL     1     -35.829  12.820  -4.593  1.00 20.00    -0.197 NA
ENDROOT
BRANCH   3   5
HETATM    5  C9  UNL     1     -34.368  16.029  -4.421  1.00 20.00     0.077 C 
BRANCH   5   6
HETATM    6  C4  UNL     1     -34.903  17.196  -5.236  1.00 20.00     0.021 A 
HETATM    7  C2  UNL     1     -34.023  18.379  -5.532  1.00 20.00     0.008 A 
HETATM    8  C3  UNL     1     -34.407  17.432  -6.636  1.00 20.00     0.008 A 
ENDBRANCH   5   6
BRANCH   5   9
HETATM    9  C7  UNL     1     -33.248  16.526  -3.466  1.00 20.00     0.035 C 
HETATM   10  C5  UNL     1     -33.698  16.886  -2.056  1.00 20.00     0.008 C 
ENDBRANCH   5   9
BRANCH   5  11
HETATM   11  O11 UNL     1     -33.756  15.108  -5.338  1.00 20.00    -0.388 OA
HETATM   12  H26 UNL     1     -33.604  15.607  -6.153  1.00 20.00     0.210 HD
ENDBRANCH   5  11
ENDBRANCH   3   5
TORSDOF 4
ENDMDL
MODEL 9
REMARK VINA RESULT:      -3.8      1.363      2.479
REMARK  4 active torsions:
REMARK  status: ('A' for Active; 'I' for Inactive)
REMARK    1  A    between atoms: C4_4  and  C9_9 
REMARK    2  A    between atoms: C7_7  and  C9_9 
REMARK    3  A    between atoms: C8_8  and  C9_9 
REMARK    4  A    between atoms: C9_9  and  O11_11 
ROOT
HETATM    1  C1  UNL     1     -37.353  14.964  -4.252  1.00 20.00     0.066 C 
HETATM    2  C6  UNL     1     -36.481  16.876  -5.496  1.00 20.00     0.028 C 
HETATM    3  C8  UNL     1     -36.807  16.331  -4.097  1.00 20.00     0.123 C 
HETATM    4  N10 UNL     1     -37.783  13.894  -4.377  1.00 20.00    -0.197 NA
ENDROOT
BRANCH   3   5
HETATM    5  C9  UNL     1     -35.586  16.355  -3.123  1.00 20.00     0.077 C 
BRANCH   5   6
HETATM    6  C4  UNL     1     -34.278  16.427  -3.894  1.00 20.00     0.021 A 
HETATM    7  C2  UNL     1     -32.966  16.428  -3.160  1.00 20.00     0.008 A 
HETATM    8  C3  UNL     1     -33.376  15.227  -3.967  1.00 20.00     0.008 A 
ENDBRANCH   5   6
BRANCH   5   9
HETATM    9  C7  UNL     1     -35.645  17.507  -2.081  1.00 20.00     0.035 C 
HETATM   10  C5  UNL     1     -35.460  17.088  -0.628  1.00 20.00     0.008 C 
ENDBRANCH   5   9
BRANCH   5  11
HETATM   11  O11 UNL     1     -35.583  15.124  -2.383  1.00 20.00    -0.388 OA
HETATM   12  H26 UNL     1     -36.130  15.283  -1.601  1.00 20.00     0.210 HD
ENDBRANCH   5  11
ENDBRANCH   3   5
TORSDOF 4
ENDMDL
