MODEL 1
REMARK VINA RESULT:      -4.6      0.000      0.000
REMARK  4 active torsions:
REMARK  status: ('A' for Active; 'I' for Inactive)
REMARK    1  A    between atoms: C6_6  and  C9_9 
REMARK    2  A    between atoms: C7_7  and  C8_8 
REMARK    3  A    between atoms: C8_8  and  C9_9 
REMARK    4  A    between atoms: C8_8  and  O11_11 
ROOT
HETATM    1  C1  UNL     1     -37.270  14.397  -4.406  1.00 20.00     0.071 C 
HETATM    2  C5  UNL     1     -34.987  13.722  -3.912  1.00 20.00     0.034 C 
HETATM    3  C9  UNL     1     -35.864  14.879  -4.452  1.00 20.00     0.071 C 
HETATM    4  N10 UNL     1     -38.363  14.007  -4.360  1.00 20.00    -0.196 NA
ENDROOT
BRANCH   3   5
HETATM    5  C6  UNL     1     -35.502  15.158  -5.937  1.00 20.00     0.022 C 
HETATM    6  C2  UNL     1     -34.022  15.051  -6.287  1.00 20.00     0.007 C 
ENDBRANCH   3   5
BRANCH   3   7
HETATM    7  C8  UNL     1     -35.670  16.129  -3.530  1.00 20.00     0.143 C 
BRANCH   7   8
HETATM    8  C7  UNL     1     -34.646  16.022  -2.362  1.00 20.00     0.008 C 
HETATM    9  C3  UNL     1     -35.086  16.704  -1.066  1.00 20.00     0.012 C 
HETATM   10  C4  UNL     1     -33.287  16.604  -2.783  1.00 20.00     0.012 C 
ENDBRANCH   7   8
BRANCH   7  11
HETATM   11  O11 UNL     1     -36.949  16.538  -3.029  1.00 20.00    -0.393 OA
HETATM   12  H28 UNL     1     -37.383  17.007  -3.756  1.00 20.00     0.210 HD
ENDBRANCH   7  11
ENDBRANCH   3   7
TORSDOF 4
ENDMDL
MODEL 2
REMARK VINA RESULT:      -4.4      2.143      3.870
REMARK  4 active torsions:
REMARK  status: ('A' for Active; 'I' for Inactive)
REMARK    1  A    between atoms: C6_6  and  C9_9 
REMARK    2  A    between atoms: C7_7  and  C8_8 
REMARK    3  A    between atoms: C8_8  and  C9_9 
REMARK    4  A    between atoms: C8_8  and  O11_11 
ROOT
HETATM    1  C1  UNL     1     -35.348  13.705  -4.244  1.00 20.00     0.071 C 
HETATM    2  C5  UNL     1     -36.452  15.853  -4.527  1.00 20.00     0.034 C 
HETATM    3  C9  UNL     1     -35.096  15.170  -4.219  1.00 20.00     0.071 C 
HETATM    4  N10 UNL     1     -35.560  12.564  -4.271  1.00 20.00    -0.196 NA
ENDROOT
BRANCH   3   5
HETATM    5  C6  UNL     1     -34.634  15.553  -2.785  1.00 20.00     0.022 C 
HETATM    6  C2  UNL     1     -33.432  16.486  -2.706  1.00 20.00     0.007 C 
ENDBRANCH   3   5
BRANCH   3   7
HETATM    7  C8  UNL     1     -34.065  15.581  -5.324  1.00 20.00     0.143 C 
BRANCH   7   8
HETATM    8  C7  UNL     1     -34.617  16.173  -6.653  1.00 20.00     0.008 C 
HETATM    9  C3  UNL     1     -34.106  15.482  -7.918  1.00 20.00     0.012 C 
HETATM   10  C4  UNL     1     -34.291  17.672  -6.751  1.00 20.00     0.012 C 
ENDBRANCH   7   8
BRANCH   7  11
HETATM   11  O11 UNL     1     -33.211  14.463  -5.598  1.00 20.00    -0.393 OA
HETATM   12  H28 UNL     1     -32.756  14.670  -6.426  1.00 20.00     0.210 HD
ENDBRANCH   7  11
ENDBRANCH   3   7
TORSDOF 4
ENDMDL
MODEL 3
REMARK VINA RESULT:      -4.3      1.813      3.779
REMARK  4 active torsions:
REMARK  status: ('A' for Active; 'I' for Inactive)
REMARK    1  A    between atoms: C6_6  and  C9_9 
REMARK    2  A    between atoms: C7_7  and  C8_8 
REMARK    3  A    between atoms: C8_8  and  C9_9 
REMARK    4  A    between atoms: C8_8  and  O11_11 
ROOT
HETATM    1  C1  UNL     1     -37.145  14.538  -4.404  1.00 20.00     0.071 C 
HETATM    2  C5  UNL     1     -36.133  16.749  -4.463  1.00 20.00     0.034 C 
HETATM    3  C9  UNL     1     -35.840  15.231  -4.569  1.00 20.00     0.071 C 
HETATM    4  N10 UNL     1     -38.173  14.013  -4.278  1.00 20.00    -0.196 NA
ENDROOT
BRANCH   3   5
HETATM    5  C6  UNL     1     -34.916  14.798  -3.397  1.00 20.00     0.022 C 
HETATM    6  C2  UNL     1     -34.067  15.905  -2.781  1.00 20.00     0.007 C 
ENDBRANCH   3   5
BRANCH   3   7
HETATM    7  C8  UNL     1     -35.221  14.936  -5.977  1.00 20.00     0.143 C 
BRANCH   7   8
HETATM    8  C7  UNL     1     -35.163  16.101  -7.007  1.00 20.00     0.008 C 
HETATM    9  C3  UNL     1     -36.400  16.225  -7.897  1.00 20.00     0.012 C 
HETATM   10  C4  UNL     1     -33.926  15.960  -7.908  1.00 20.00     0.012 C 
ENDBRANCH   7   8
BRANCH   7  11
HETATM   11  O11 UNL     1     -35.891  13.805  -6.547  1.00 20.00    -0.393 OA
HETATM   12  H28 UNL     1     -36.476  14.158  -7.233  1.00 20.00     0.210 HD
ENDBRANCH   7  11
ENDBRANCH   3   7
TORSDOF 4
ENDMDL
MODEL 4
REMARK VINA RESULT:      -4.2      1.933      2.413
REMARK  4 active torsions:
REMARK  status: ('A' for Active; 'I' for Inactive)
REMARK    1  A    between atoms: C6_6  and  C9_9 
REMARK    2  A    between atoms: C7_7  and  C8_8 
REMARK    3  A    between atoms: C8_8  and  C9_9 
REMARK    4  A    between atoms: C8_8  and  O11_11 
ROOT
HETATM    1  C1  UNL     1     -35.641  13.895  -4.601  1.00 20.00     0.071 C 
HETATM    2  C5  UNL     1     -34.020  14.957  -6.071  1.00 20.00     0.034 C 
HETATM    3  C9  UNL     1     -34.874  15.155  -4.794  1.00 20.00     0.071 C 
HETATM    4  N10 UNL     1     -36.228  12.903  -4.463  1.00 20.00    -0.196 NA
ENDROOT
BRANCH   3   5
HETATM    5  C6  UNL     1     -35.894  16.305  -5.023  1.00 20.00     0.022 C 
HETATM    6  C2  UNL     1     -35.523  17.310  -6.108  1.00 20.00     0.007 C 
ENDBRANCH   3   5
BRANCH   3   7
HETATM    7  C8  UNL     1     -33.915  15.419  -3.584  1.00 20.00     0.143 C 
BRANCH   7   8
HETATM    8  C7  UNL     1     -34.163  16.690  -2.722  1.00 20.00     0.008 C 
HETATM    9  C3  UNL     1     -32.892  17.367  -2.206  1.00 20.00     0.012 C 
HETATM   10  C4  UNL     1     -35.060  16.357  -1.518  1.00 20.00     0.012 C 
ENDBRANCH   7   8
BRANCH   7  11
HETATM   11  O11 UNL     1     -32.562  15.397  -4.055  1.00 20.00    -0.393 OA
HETATM   12  H28 UNL     1     -32.442  16.211  -4.564  1.00 20.00     0.210 HD
ENDBRANCH   7  11
ENDBRANCH   3   7
TORSDOF 4
ENDMDL
MODEL 5
REMARK VINA RESULT:      -4.1      2.356      3.160
REMARK  4 active torsions:
REMARK  status: ('A' for Active; 'I' for Inactive)
REMARK    1  A    between atoms: C6_6  and  C9_9 
REMARK    2  A    between atoms: C7_7  and  C8_8 
REMARK    3  A    between atoms: C8_8  and  C9_9 
REMARK    4  A    between atoms: C8_8  and  O11_11 
ROOT
HETATM    1  C1  UNL     1     -34.210  14.985  -6.144  1.00 20.00     0.071 C 
HETATM    2  C5  UNL     1     -35.758  16.541  -5.097  1.00 20.00     0.034 C 
HETATM    3  C9  UNL     1     -34.977  15.219  -4.892  1.00 20.00     0.071 C 
HETATM    4  N10 UNL     1     -33.615  14.819  -7.127  1.00 20.00    -0.196 NA
ENDROOT
BRANCH   3   5
HETATM    5  C6  UNL     1     -35.980  14.045  -4.717  1.00 20.00     0.022 C 
HETATM    6  C2  UNL     1     -37.389  14.438  -4.288  1.00 20.00     0.007 C 
ENDBRANCH   3   5
BRANCH   3   7
HETATM    7  C8  UNL     1     -34.015  15.389  -3.668  1.00 20.00     0.143 C 
BRANCH   7   8
HETATM    8  C7  UNL     1     -34.198  16.643  -2.764  1.00 20.00     0.008 C 
HETATM    9  C3  UNL     1     -32.893  17.263  -2.264  1.00 20.00     0.012 C 
HETATM   10  C4  UNL     1     -35.075  16.304  -1.547  1.00 20.00     0.012 C 
ENDBRANCH   7   8
BRANCH   7  11
HETATM   11  O11 UNL     1     -32.661  15.308  -4.131  1.00 20.00    -0.393 OA
HETATM   12  H28 UNL     1     -32.129  15.058  -3.362  1.00 20.00     0.210 HD
ENDBRANCH   7  11
ENDBRANCH   3   7
TORSDOF 4
ENDMDL
MODEL 6
REMARK VINA RESULT:      -4.0     17.365     18.858
REMARK  4 active torsions:
REMARK  status: ('A' for Active; 'I' for Inactive)
REMARK    1  A    between atoms: C6_6  and  C9_9 
REMARK    2  A    between atoms: C7_7  and  C8_8 
REMARK    3  A    between atoms: C8_8  and  C9_9 
REMARK    4  A    between atoms: C8_8  and  O11_11 
ROOT
HETATM    1  C1  UNL     1     -25.114  18.598  10.715  1.00 20.00     0.071 C 
HETATM    2  C5  UNL     1     -23.366  18.104  12.332  1.00 20.00     0.034 C 
HETATM    3  C9  UNL     1     -23.888  17.779  10.910  1.00 20.00     0.071 C 
HETATM    4  N10 UNL     1     -26.067  19.247  10.578  1.00 20.00    -0.196 NA
ENDROOT
BRANCH   3   5
HETATM    5  C6  UNL     1     -24.295  16.281  10.835  1.00 20.00     0.022 C 
HETATM    6  C2  UNL     1     -24.993  15.724  12.071  1.00 20.00     0.007 C 
ENDBRANCH   3   5
BRANCH   3   7
HETATM    7  C8  UNL     1     -22.784  18.166   9.869  1.00 20.00     0.143 C 
BRANCH   7   8
HETATM    8  C7  UNL     1     -22.980  17.708   8.394  1.00 20.00     0.008 C 
HETATM    9  C3  UNL     1     -21.684  17.376   7.654  1.00 20.00     0.012 C 
HETATM   10  C4  UNL     1     -23.736  18.781   7.594  1.00 20.00     0.012 C 
ENDBRANCH   7   8
BRANCH   7  11
HETATM   11  O11 UNL     1     -21.512  17.723  10.359  1.00 20.00    -0.393 OA
HETATM   12  H28 UNL     1     -21.692  17.256  11.187  1.00 20.00     0.210 HD
ENDBRANCH   7  11
ENDBRANCH   3   7
TORSDOF 4
ENDMDL
MODEL 7
REMARK VINA RESULT:      -4.0      1.747      2.809
REMARK  4 active torsions:
REMARK  status: ('A' for Active; 'I' for Inactive)
REMARK    1  A    between atoms: C6_6  and  C9_9 
REMARK    2  A    between atoms: C7_7  and  C8_8 
REMARK    3  A    between atoms: C8_8  and  C9_9 
REMARK    4  A    between atoms: C8_8  and  O11_11 
ROOT
HETATM    1  C1  UNL     1     -37.519  14.722  -4.300  1.00 20.00     0.071 C 
HETATM    2  C5  UNL     1     -36.090  16.179  -5.623  1.00 20.00     0.034 C 
HETATM    3  C9  UNL     1     -36.364  15.653  -4.192  1.00 20.00     0.071 C 
HETATM    4  N10 UNL     1     -38.418  13.995  -4.403  1.00 20.00    -0.196 NA
ENDROOT
BRANCH   3   5
HETATM    5  C6  UNL     1     -36.787  16.835  -3.275  1.00 20.00     0.022 C 
HETATM    6  C2  UNL     1     -36.731  18.218  -3.914  1.00 20.00     0.007 C 
ENDBRANCH   3   5
BRANCH   3   7
HETATM    7  C8  UNL     1     -35.087  14.907  -3.678  1.00 20.00     0.143 C 
BRANCH   7   8
HETATM    8  C7  UNL     1     -33.698  15.524  -4.012  1.00 20.00     0.008 C 
HETATM    9  C3  UNL     1     -32.614  14.502  -4.355  1.00 20.00     0.012 C 
HETATM   10  C4  UNL     1     -33.199  16.389  -2.843  1.00 20.00     0.012 C 
ENDBRANCH   7   8
BRANCH   7  11
HETATM   11  O11 UNL     1     -35.141  13.544  -4.118  1.00 20.00    -0.393 OA
HETATM   12  H28 UNL     1     -35.515  13.565  -5.010  1.00 20.00     0.210 HD
ENDBRANCH   7  11
ENDBRANCH   3   7
TORSDOF 4
ENDMDL
MODEL 8
REMARK VINA RESULT:      -4.0      1.430      2.315
REMARK  4 active torsions:
REMARK  status: ('A' for Active; 'I' for Inactive)
REMARK    1  A    between atoms: C6_6  and  C9_9 
REMARK    2  A    between atoms: C7_7  and  C8_8 
REMARK    3  A    between atoms: C8_8  and  C9_9 
REMARK    4  A    between atoms: C8_8  and  O11_11 
ROOT
HETATM    1  C1  UNL     1     -36.066  13.877  -4.850  1.00 20.00     0.071 C 
HETATM    2  C5  UNL     1     -35.799  15.336  -6.777  1.00 20.00     0.034 C 
HETATM    3  C9  UNL     1     -36.240  15.286  -5.292  1.00 20.00     0.071 C 
HETATM    4  N10 UNL     1     -35.920  12.773  -4.519  1.00 20.00    -0.196 NA
ENDROOT
BRANCH   3   5
HETATM    5  C6  UNL     1     -37.749  15.638  -5.186  1.00 20.00     0.022 C 
HETATM    6  C2  UNL     1     -38.545  14.833  -4.165  1.00 20.00     0.007 C 
ENDBRANCH   3   5
BRANCH   3   7
HETATM    7  C8  UNL     1     -35.326  16.251  -4.464  1.00 20.00     0.143 C 
BRANCH   7   8
HETATM    8  C7  UNL     1     -34.581  15.668  -3.229  1.00 20.00     0.008 C 
HETATM    9  C3  UNL     1     -35.089  16.179  -1.880  1.00 20.00     0.012 C 
HETATM   10  C4  UNL     1     -33.074  15.960  -3.324  1.00 20.00     0.012 C 
ENDBRANCH   7   8
BRANCH   7  11
HETATM   11  O11 UNL     1     -36.095  17.399  -4.081  1.00 20.00    -0.393 OA
HETATM   12  H28 UNL     1     -36.895  17.056  -3.658  1.00 20.00     0.210 HD
ENDBRANCH   7  11
ENDBRANCH   3   7
TORSDOF 4
ENDMDL
MODEL 9
REMARK VINA RESULT:      -3.8      2.833      4.620
REMARK  4 active torsions:
REMARK  status: ('A' for Active; 'I' for Inactive)
REMARK    1  A    between atoms: C6_6  and  C9_9 
REMARK    2  A    between atoms: C7_7  and  C8_8 
REMARK    3  A    between atoms: C8_8  and  C9_9 
REMARK    4  A    between atoms: C8_8  and  O11_11 
ROOT
HETATM    1  C1  UNL     1     -33.141  17.071  -3.317  1.00 20.00     0.071 C 
HETATM    2  C5  UNL     1     -32.710  14.839  -4.180  1.00 20.00     0.034 C 
HETATM    3  C9  UNL     1     -33.812  15.903  -3.948  1.00 20.00     0.071 C 
HETATM    4  N10 UNL     1     -32.601  17.976  -2.829  1.00 20.00    -0.196 NA
ENDROOT
BRANCH   3   5
HETATM    5  C6  UNL     1     -34.862  15.354  -2.943  1.00 20.00     0.022 C 
HETATM    6  C2  UNL     1     -35.184  16.262  -1.761  1.00 20.00     0.007 C 
ENDBRANCH   3   5
BRANCH   3   7
HETATM    7  C8  UNL     1     -34.434  16.293  -5.331  1.00 20.00     0.143 C 
BRANCH   7   8
HETATM    8  C7  UNL     1     -34.411  15.229  -6.466  1.00 20.00     0.008 C 
HETATM    9  C3  UNL     1     -34.031  15.775  -7.843  1.00 20.00     0.012 C 
HETATM   10  C4  UNL     1     -35.778  14.534  -6.579  1.00 20.00     0.012 C 
ENDBRANCH   7   8
BRANCH   7  11
HETATM   11  O11 UNL     1     -33.828  17.511  -5.783  1.00 20.00    -0.393 OA
HETATM   12  H28 UNL     1     -34.535  18.171  -5.800  1.00 20.00     0.210 HD
ENDBRANCH   7  11
ENDBRANCH   3   7
TORSDOF 4
ENDMDL
