MODEL 1
REMARK VINA RESULT:      -4.3      0.000      0.000
REMARK  3 active torsions:
REMARK  status: ('A' for Active; 'I' for Inactive)
REMARK    1  A    between atoms: C5_5  and  C6_6 
REMARK    2  A    between atoms: C6_6  and  C7_7 
REMARK    3  A    between atoms: C6_6  and  O9_9 
ROOT
HETATM    1  C1  UNL     1     -23.024  16.872   9.766  1.00 20.00     0.071 C 
HETATM    2  C3  UNL     1     -22.701  17.509  12.110  1.00 20.00     0.033 C 
HETATM    3  C4  UNL     1     -24.475  15.873  11.480  1.00 20.00     0.033 C 
HETATM    4  C7  UNL     1     -23.745  17.153  11.031  1.00 20.00     0.067 C 
HETATM    5  N8  UNL     1     -22.458  16.652   8.776  1.00 20.00    -0.196 NA
ENDROOT
BRANCH   4   6
HETATM    6  C6  UNL     1     -24.752  18.329  10.844  1.00 20.00     0.139 C 
BRANCH   6   7
HETATM    7  C5  UNL     1     -25.905  18.365  11.864  1.00 20.00     0.029 C 
HETATM    8  C2  UNL     1     -27.050  19.263  11.408  1.00 20.00     0.007 C 
ENDBRANCH   6   7
BRANCH   6   9
HETATM    9  O9  UNL     1     -25.328  18.287   9.535  1.00 20.00    -0.394 OA
HETATM   10  H22 UNL     1     -25.774  17.429   9.463  1.00 20.00     0.210 HD
ENDBRANCH   6   9
ENDBRANCH   4   6
TORSDOF 3
ENDMDL
MODEL 2
REMARK VINA RESULT:      -4.2     18.070     18.812
REMARK  3 active torsions:
REMARK  status: ('A' for Active; 'I' for Inactive)
REMARK    1  A    between atoms: C5_5  and  C6_6 
REMARK    2  A    between atoms: C6_6  and  C7_7 
REMARK    3  A    between atoms: C6_6  and  O9_9 
ROOT
HETATM    1  C1  UNL     1     -37.065  14.353  -4.387  1.00 20.00     0.071 C 
HETATM    2  C3  UNL     1     -35.276  15.200  -5.831  1.00 20.00     0.033 C 
HETATM    3  C4  UNL     1     -34.747  13.669  -3.934  1.00 20.00     0.033 C 
HETATM    4  C7  UNL     1     -35.659  14.826  -4.384  1.00 20.00     0.067 C 
HETATM    5  N8  UNL     1     -38.165  13.982  -4.390  1.00 20.00    -0.196 NA
ENDROOT
BRANCH   4   6
HETATM    6  C6  UNL     1     -35.493  16.060  -3.445  1.00 20.00     0.139 C 
BRANCH   6   7
HETATM    7  C5  UNL     1     -34.349  15.947  -2.420  1.00 20.00     0.029 C 
HETATM    8  C2  UNL     1     -33.122  16.753  -2.835  1.00 20.00     0.007 C 
ENDBRANCH   6   7
BRANCH   6   9
HETATM    9  O9  UNL     1     -36.704  16.301  -2.723  1.00 20.00    -0.394 OA
HETATM   10  H22 UNL     1     -36.439  16.547  -1.824  1.00 20.00     0.210 HD
ENDBRANCH   6   9
ENDBRANCH   4   6
TORSDOF 3
ENDMDL
MODEL 3
REMARK VINA RESULT:      -4.1     17.598     18.284
REMARK  3 active torsions:
REMARK  status: ('A' for Active; 'I' for Inactive)
REMARK    1  A    between atoms: C5_5  and  C6_6 
REMARK    2  A    between atoms: C6_6  and  C7_7 
REMARK    3  A    between atoms: C6_6  and  O9_9 
ROOT
HETATM    1  C1  UNL     1     -35.453  13.812  -4.438  1.00 20.00     0.071 C 
HETATM    2  C3  UNL     1     -34.792  15.661  -5.904  1.00 20.00     0.033 C 
HETATM    3  C4  UNL     1     -33.205  14.779  -4.194  1.00 20.00     0.033 C 
HETATM    4  C7  UNL     1     -34.689  15.083  -4.477  1.00 20.00     0.067 C 
HETATM    5  N8  UNL     1     -36.050  12.817  -4.408  1.00 20.00    -0.196 NA
ENDROOT
BRANCH   4   6
HETATM    6  C6  UNL     1     -35.255  16.100  -3.439  1.00 20.00     0.139 C 
BRANCH   6   7
HETATM    7  C5  UNL     1     -34.369  16.323  -2.199  1.00 20.00     0.029 C 
HETATM    8  C2  UNL     1     -35.168  16.832  -1.004  1.00 20.00     0.007 C 
ENDBRANCH   6   7
BRANCH   6   9
HETATM    9  O9  UNL     1     -36.545  15.680  -2.984  1.00 20.00    -0.394 OA
HETATM   10  H22 UNL     1     -36.877  16.393  -2.419  1.00 20.00     0.210 HD
ENDBRANCH   6   9
ENDBRANCH   4   6
TORSDOF 3
ENDMDL
MODEL 4
REMARK VINA RESULT:      -4.1     18.654     19.362
REMARK  3 active torsions:
REMARK  status: ('A' for Active; 'I' for Inactive)
REMARK    1  A    between atoms: C5_5  and  C6_6 
REMARK    2  A    between atoms: C6_6  and  C7_7 
REMARK    3  A    between atoms: C6_6  and  O9_9 
ROOT
HETATM    1  C1  UNL     1     -35.515  13.833  -4.362  1.00 20.00     0.071 C 
HETATM    2  C3  UNL     1     -34.656  15.512  -2.797  1.00 20.00     0.033 C 
HETATM    3  C4  UNL     1     -36.390  16.128  -4.481  1.00 20.00     0.033 C 
HETATM    4  C7  UNL     1     -35.138  15.263  -4.242  1.00 20.00     0.067 C 
HETATM    5  N8  UNL     1     -35.811  12.715  -4.455  1.00 20.00    -0.196 NA
ENDROOT
BRANCH   4   6
HETATM    6  C6  UNL     1     -34.012  15.624  -5.257  1.00 20.00     0.139 C 
BRANCH   6   7
HETATM    7  C5  UNL     1     -34.506  16.187  -6.603  1.00 20.00     0.029 C 
HETATM    8  C2  UNL     1     -33.995  15.378  -7.790  1.00 20.00     0.007 C 
ENDBRANCH   6   7
BRANCH   6   9
HETATM    9  O9  UNL     1     -33.205  14.476  -5.535  1.00 20.00    -0.394 OA
HETATM   10  H22 UNL     1     -33.131  13.989  -4.701  1.00 20.00     0.210 HD
ENDBRANCH   6   9
ENDBRANCH   4   6
TORSDOF 3
ENDMDL
MODEL 5
REMARK VINA RESULT:      -4.1      2.140      3.633
REMARK  3 active torsions:
REMARK  status: ('A' for Active; 'I' for Inactive)
REMARK    1  A    between atoms: C5_5  and  C6_6 
REMARK    2  A    between atoms: C6_6  and  C7_7 
REMARK    3  A    between atoms: C6_6  and  O9_9 
ROOT
HETATM    1  C1  UNL     1     -25.388  18.413  11.718  1.00 20.00     0.071 C 
HETATM    2  C3  UNL     1     -24.682  16.082  11.447  1.00 20.00     0.033 C 
HETATM    3  C4  UNL     1     -23.090  17.787  12.331  1.00 20.00     0.033 C 
HETATM    4  C7  UNL     1     -24.240  17.556  11.332  1.00 20.00     0.067 C 
HETATM    5  N8  UNL     1     -26.286  19.083  12.021  1.00 20.00    -0.196 NA
ENDROOT
BRANCH   4   6
HETATM    6  C6  UNL     1     -23.782  17.871   9.876  1.00 20.00     0.139 C 
BRANCH   6   7
HETATM    7  C5  UNL     1     -22.261  17.800   9.644  1.00 20.00     0.029 C 
HETATM    8  C2  UNL     1     -21.913  17.398   8.214  1.00 20.00     0.007 C 
ENDBRANCH   6   7
BRANCH   6   9
HETATM    9  O9  UNL     1     -24.222  19.175   9.486  1.00 20.00    -0.394 OA
HETATM   10  H22 UNL     1     -24.698  19.061   8.650  1.00 20.00     0.210 HD
ENDBRANCH   6   9
ENDBRANCH   4   6
TORSDOF 3
ENDMDL
MODEL 6
REMARK VINA RESULT:      -4.0     18.545     19.169
REMARK  3 active torsions:
REMARK  status: ('A' for Active; 'I' for Inactive)
REMARK    1  A    between atoms: C5_5  and  C6_6 
REMARK    2  A    between atoms: C6_6  and  C7_7 
REMARK    3  A    between atoms: C6_6  and  O9_9 
ROOT
HETATM    1  C1  UNL     1     -35.287  13.687  -4.281  1.00 20.00     0.071 C 
HETATM    2  C3  UNL     1     -32.994  14.551  -4.280  1.00 20.00     0.033 C 
HETATM    3  C4  UNL     1     -34.726  15.568  -2.801  1.00 20.00     0.033 C 
HETATM    4  C7  UNL     1     -34.486  14.931  -4.183  1.00 20.00     0.067 C 
HETATM    5  N8  UNL     1     -35.913  12.712  -4.357  1.00 20.00    -0.196 NA
ENDROOT
BRANCH   4   6
HETATM    6  C6  UNL     1     -34.866  15.924  -5.324  1.00 20.00     0.139 C 
BRANCH   6   7
HETATM    7  C5  UNL     1     -35.173  15.265  -6.682  1.00 20.00     0.029 C 
HETATM    8  C2  UNL     1     -33.980  15.316  -7.630  1.00 20.00     0.007 C 
ENDBRANCH   6   7
BRANCH   6   9
HETATM    9  O9  UNL     1     -33.817  16.874  -5.527  1.00 20.00    -0.394 OA
HETATM   10  H22 UNL     1     -33.787  17.420  -4.727  1.00 20.00     0.210 HD
ENDBRANCH   6   9
ENDBRANCH   4   6
TORSDOF 3
ENDMDL
MODEL 7
REMARK VINA RESULT:      -4.0     18.722     19.462
REMARK  3 active torsions:
REMARK  status: ('A' for Active; 'I' for Inactive)
REMARK    1  A    between atoms: C5_5  and  C6_6 
REMARK    2  A    between atoms: C6_6  and  C7_7 
REMARK    3  A    between atoms: C6_6  and  O9_9 
ROOT
HETATM    1  C1  UNL     1     -36.683  14.413  -4.896  1.00 20.00     0.071 C 
HETATM    2  C3  UNL     1     -35.909  16.680  -5.418  1.00 20.00     0.033 C 
HETATM    3  C4  UNL     1     -35.496  14.808  -7.014  1.00 20.00     0.033 C 
HETATM    4  C7  UNL     1     -35.574  15.177  -5.520  1.00 20.00     0.067 C 
HETATM    5  N8  UNL     1     -37.551  13.817  -4.408  1.00 20.00    -0.196 NA
ENDROOT
BRANCH   4   6
HETATM    6  C6  UNL     1     -34.223  14.874  -4.803  1.00 20.00     0.139 C 
BRANCH   6   7
HETATM    7  C5  UNL     1     -33.675  16.023  -3.936  1.00 20.00     0.029 C 
HETATM    8  C2  UNL     1     -34.153  15.934  -2.491  1.00 20.00     0.007 C 
ENDBRANCH   6   7
BRANCH   6   9
HETATM    9  O9  UNL     1     -33.217  14.532  -5.761  1.00 20.00    -0.394 OA
HETATM   10  H22 UNL     1     -33.573  14.780  -6.627  1.00 20.00     0.210 HD
ENDBRANCH   6   9
ENDBRANCH   4   6
TORSDOF 3
ENDMDL
MODEL 8
REMARK VINA RESULT:      -3.8     18.287     19.105
REMARK  3 active torsions:
REMARK  status: ('A' for Active; 'I' for Inactive)
REMARK    1  A    between atoms: C5_5  and  C6_6 
REMARK    2  A    between atoms: C6_6  and  C7_7 
REMARK    3  A    between atoms: C6_6  and  O9_9 
ROOT
HETATM    1  C1  UNL     1     -37.216  14.536  -4.388  1.00 20.00     0.071 C 
HETATM    2  C3  UNL     1     -36.363  16.787  -3.925  1.00 20.00     0.033 C 
HETATM    3  C4  UNL     1     -35.626  15.554  -5.964  1.00 20.00     0.033 C 
HETATM    4  C7  UNL     1     -36.007  15.392  -4.480  1.00 20.00     0.067 C 
HETATM    5  N8  UNL     1     -38.162  13.868  -4.316  1.00 20.00    -0.196 NA
ENDROOT
BRANCH   4   6
HETATM    6  C6  UNL     1     -34.828  14.772  -3.670  1.00 20.00     0.139 C 
BRANCH   6   7
HETATM    7  C5  UNL     1     -33.442  15.369  -3.979  1.00 20.00     0.029 C 
HETATM    8  C2  UNL     1     -33.017  16.404  -2.943  1.00 20.00     0.007 C 
ENDBRANCH   6   7
BRANCH   6   9
HETATM    9  O9  UNL     1     -34.756  13.361  -3.897  1.00 20.00    -0.394 OA
HETATM   10  H22 UNL     1     -35.622  13.003  -3.652  1.00 20.00     0.210 HD
ENDBRANCH   6   9
ENDBRANCH   4   6
TORSDOF 3
ENDMDL
MODEL 9
REMARK VINA RESULT:      -3.8      2.142      3.602
REMARK  3 active torsions:
REMARK  status: ('A' for Active; 'I' for Inactive)
REMARK    1  A    between atoms: C5_5  and  C6_6 
REMARK    2  A    between atoms: C6_6  and  C7_7 
REMARK    3  A    between atoms: C6_6  and  O9_9 
ROOT
HETATM    1  C1  UNL     1     -24.390  16.391  11.600  1.00 20.00     0.071 C 
HETATM    2  C3  UNL     1     -22.915  18.206  12.332  1.00 20.00     0.033 C 
HETATM    3  C4  UNL     1     -24.606  18.599  10.541  1.00 20.00     0.033 C 
HETATM    4  C7  UNL     1     -23.621  17.565  11.119  1.00 20.00     0.067 C 
HETATM    5  N8  UNL     1     -24.992  15.473  11.978  1.00 20.00    -0.196 NA
ENDROOT
BRANCH   4   6
HETATM    6  C6  UNL     1     -22.574  17.137  10.047  1.00 20.00     0.139 C 
BRANCH   6   7
HETATM    7  C5  UNL     1     -22.284  18.193   8.964  1.00 20.00     0.029 C 
HETATM    8  C2  UNL     1     -21.761  17.568   7.674  1.00 20.00     0.007 C 
ENDBRANCH   6   7
BRANCH   6   9
HETATM    9  O9  UNL     1     -22.997  15.940   9.387  1.00 20.00    -0.394 OA
HETATM   10  H22 UNL     1     -23.547  16.222   8.642  1.00 20.00     0.210 HD
ENDBRANCH   6   9
ENDBRANCH   4   6
TORSDOF 3
ENDMDL
