MODEL 1
REMARK VINA RESULT:      -4.9      0.000      0.000
REMARK  3 active torsions:
REMARK  status: ('A' for Active; 'I' for Inactive)
REMARK    1  A    between atoms: C3_3  and  C11_11 
REMARK    2  A    between atoms: C8_8  and  N12_12 
REMARK    3  A    between atoms: C11_11  and  N12_12 
ROOT
HETATM    1  C1  UNL     1     -37.220  14.387  -4.659  1.00 20.00     0.127 C 
HETATM    2  C4  UNL     1     -37.144  15.682  -5.436  1.00 20.00     0.080 C 
HETATM    3  C5  UNL     1     -35.945  13.576  -4.569  1.00 20.00     0.080 C 
HETATM    4  C6  UNL     1     -35.957  16.519  -4.974  1.00 20.00     0.040 C 
HETATM    5  C7  UNL     1     -34.781  14.453  -4.123  1.00 20.00     0.040 C 
HETATM    6  C8  UNL     1     -34.667  15.700  -4.999  1.00 20.00     0.189 C 
HETATM    7  O13 UNL     1     -38.285  13.964  -4.213  1.00 20.00    -0.298 OA
ENDROOT
BRANCH   6   8
HETATM    8  N12 UNL     1     -33.554  16.544  -4.486  1.00 20.00    -0.067 N 
HETATM    9  C10 UNL     1     -33.883  18.015  -4.519  1.00 20.00     0.270 C 
HETATM   10  H33 UNL     1     -32.746  16.416  -5.119  1.00 20.00     0.280 HD
BRANCH   8  11
HETATM   11  C11 UNL     1     -33.088  16.116  -3.117  1.00 20.00     0.268 C 
BRANCH  11  12
HETATM   12  C3  UNL     1     -33.508  17.053  -2.020  1.00 20.00    -0.068 C 
HETATM   13  C2  UNL     1     -34.726  16.977  -1.462  1.00 20.00     0.015 C 
HETATM   14  C9  UNL     1     -32.493  18.056  -1.555  1.00 20.00     0.044 C 
ENDBRANCH  11  12
ENDBRANCH   8  11
ENDBRANCH   6   8
TORSDOF 3
ENDMDL
MODEL 2
REMARK VINA RESULT:      -4.8      1.892      2.393
REMARK  3 active torsions:
REMARK  status: ('A' for Active; 'I' for Inactive)
REMARK    1  A    between atoms: C3_3  and  C11_11 
REMARK    2  A    between atoms: C8_8  and  N12_12 
REMARK    3  A    between atoms: C11_11  and  N12_12 
ROOT
HETATM    1  C1  UNL     1     -35.708  13.809  -4.398  1.00 20.00     0.127 C 
HETATM    2  C4  UNL     1     -36.772  14.821  -4.760  1.00 20.00     0.080 C 
HETATM    3  C5  UNL     1     -34.359  14.361  -3.990  1.00 20.00     0.080 C 
HETATM    4  C6  UNL     1     -36.886  15.892  -3.681  1.00 20.00     0.040 C 
HETATM    5  C7  UNL     1     -34.520  15.440  -2.926  1.00 20.00     0.040 C 
HETATM    6  C8  UNL     1     -35.521  16.505  -3.371  1.00 20.00     0.189 C 
HETATM    7  O13 UNL     1     -35.897  12.601  -4.528  1.00 20.00    -0.298 OA
ENDROOT
BRANCH   6   8
HETATM    8  N12 UNL     1     -35.680  17.499  -2.276  1.00 20.00    -0.067 N 
HETATM    9  C10 UNL     1     -37.045  18.140  -2.272  1.00 20.00     0.270 C 
HETATM   10  H33 UNL     1     -35.004  18.262  -2.445  1.00 20.00     0.280 HD
BRANCH   8  11
HETATM   11  C11 UNL     1     -35.339  16.927  -0.923  1.00 20.00     0.268 C 
BRANCH  11  12
HETATM   12  C3  UNL     1     -34.390  17.782  -0.131  1.00 20.00    -0.068 C 
HETATM   13  C2  UNL     1     -34.618  18.071   1.159  1.00 20.00     0.015 C 
HETATM   14  C9  UNL     1     -33.160  18.270  -0.839  1.00 20.00     0.044 C 
ENDBRANCH  11  12
ENDBRANCH   8  11
ENDBRANCH   6   8
TORSDOF 3
ENDMDL
MODEL 3
REMARK VINA RESULT:      -4.7      1.766      2.830
REMARK  3 active torsions:
REMARK  status: ('A' for Active; 'I' for Inactive)
REMARK    1  A    between atoms: C3_3  and  C11_11 
REMARK    2  A    between atoms: C8_8  and  N12_12 
REMARK    3  A    between atoms: C11_11  and  N12_12 
ROOT
HETATM    1  C1  UNL     1     -35.055  14.398  -4.414  1.00 20.00     0.127 C 
HETATM    2  C4  UNL     1     -33.572  14.212  -4.184  1.00 20.00     0.080 C 
HETATM    3  C5  UNL     1     -35.816  15.151  -3.344  1.00 20.00     0.080 C 
HETATM    4  C6  UNL     1     -32.912  15.538  -3.827  1.00 20.00     0.040 C 
HETATM    5  C7  UNL     1     -35.112  16.459  -3.004  1.00 20.00     0.040 C 
HETATM    6  C8  UNL     1     -33.641  16.220  -2.671  1.00 20.00     0.189 C 
HETATM    7  O13 UNL     1     -35.631  13.876  -5.367  1.00 20.00    -0.298 OA
ENDROOT
BRANCH   6   8
HETATM    8  N12 UNL     1     -32.992  17.532  -2.403  1.00 20.00    -0.067 N 
HETATM    9  C10 UNL     1     -33.060  18.462  -3.587  1.00 20.00     0.270 C 
HETATM   10  H33 UNL     1     -31.988  17.355  -2.232  1.00 20.00     0.280 HD
BRANCH   8  11
HETATM   11  C11 UNL     1     -33.520  18.192  -1.154  1.00 20.00     0.268 C 
BRANCH  11  12
HETATM   12  C3  UNL     1     -32.489  18.343  -0.071  1.00 20.00    -0.068 C 
HETATM   13  C2  UNL     1     -31.179  18.392  -0.354  1.00 20.00     0.015 C 
HETATM   14  C9  UNL     1     -32.994  18.470   1.337  1.00 20.00     0.044 C 
ENDBRANCH  11  12
ENDBRANCH   8  11
ENDBRANCH   6   8
TORSDOF 3
ENDMDL
MODEL 4
REMARK VINA RESULT:      -4.7      2.372      3.348
REMARK  3 active torsions:
REMARK  status: ('A' for Active; 'I' for Inactive)
REMARK    1  A    between atoms: C3_3  and  C11_11 
REMARK    2  A    between atoms: C8_8  and  N12_12 
REMARK    3  A    between atoms: C11_11  and  N12_12 
ROOT
HETATM    1  C1  UNL     1     -34.001  14.738  -4.600  1.00 20.00     0.127 C 
HETATM    2  C4  UNL     1     -32.923  15.397  -3.769  1.00 20.00     0.080 C 
HETATM    3  C5  UNL     1     -35.289  14.390  -3.884  1.00 20.00     0.080 C 
HETATM    4  C6  UNL     1     -33.490  16.578  -2.990  1.00 20.00     0.040 C 
HETATM    5  C7  UNL     1     -35.811  15.590  -3.103  1.00 20.00     0.040 C 
HETATM    6  C8  UNL     1     -34.727  16.165  -2.192  1.00 20.00     0.189 C 
HETATM    7  O13 UNL     1     -33.804  14.407  -5.767  1.00 20.00    -0.298 OA
ENDROOT
BRANCH   6   8
HETATM    8  N12 UNL     1     -35.271  17.364  -1.499  1.00 20.00    -0.067 N 
HETATM    9  C10 UNL     1     -36.611  17.788  -2.045  1.00 20.00     0.270 C 
HETATM   10  H33 UNL     1     -34.625  18.150  -1.678  1.00 20.00     0.280 HD
BRANCH   8  11
HETATM   11  C11 UNL     1     -35.319  17.191  -0.001  1.00 20.00     0.268 C 
BRANCH  11  12
HETATM   12  C3  UNL     1     -34.321  18.042   0.734  1.00 20.00    -0.068 C 
HETATM   13  C2  UNL     1     -34.206  17.990   2.069  1.00 20.00     0.015 C 
HETATM   14  C9  UNL     1     -33.438  18.927  -0.097  1.00 20.00     0.044 C 
ENDBRANCH  11  12
ENDBRANCH   8  11
ENDBRANCH   6   8
TORSDOF 3
ENDMDL
MODEL 5
REMARK VINA RESULT:      -4.7      3.587      6.046
REMARK  3 active torsions:
REMARK  status: ('A' for Active; 'I' for Inactive)
REMARK    1  A    between atoms: C3_3  and  C11_11 
REMARK    2  A    between atoms: C8_8  and  N12_12 
REMARK    3  A    between atoms: C11_11  and  N12_12 
ROOT
HETATM    1  C1  UNL     1     -32.100  18.517   1.605  1.00 20.00     0.127 C 
HETATM    2  C4  UNL     1     -31.047  18.706   0.536  1.00 20.00     0.080 C 
HETATM    3  C5  UNL     1     -33.488  19.029   1.285  1.00 20.00     0.080 C 
HETATM    4  C6  UNL     1     -31.553  18.206  -0.812  1.00 20.00     0.040 C 
HETATM    5  C7  UNL     1     -33.947  18.523  -0.077  1.00 20.00     0.040 C 
HETATM    6  C8  UNL     1     -32.907  18.827  -1.154  1.00 20.00     0.189 C 
HETATM    7  O13 UNL     1     -31.819  18.067   2.714  1.00 20.00    -0.298 OA
ENDROOT
BRANCH   6   8
HETATM    8  N12 UNL     1     -33.379  18.264  -2.448  1.00 20.00    -0.067 N 
HETATM    9  C10 UNL     1     -33.112  19.185  -3.611  1.00 20.00     0.270 C 
HETATM   10  H33 UNL     1     -34.406  18.164  -2.390  1.00 20.00     0.280 HD
BRANCH   8  11
HETATM   11  C11 UNL     1     -32.836  16.881  -2.707  1.00 20.00     0.268 C 
BRANCH  11  12
HETATM   12  C3  UNL     1     -33.901  15.862  -2.999  1.00 20.00    -0.068 C 
HETATM   13  C2  UNL     1     -35.060  15.846  -2.322  1.00 20.00     0.015 C 
HETATM   14  C9  UNL     1     -33.624  14.884  -4.104  1.00 20.00     0.044 C 
ENDBRANCH  11  12
ENDBRANCH   8  11
ENDBRANCH   6   8
TORSDOF 3
ENDMDL
MODEL 6
REMARK VINA RESULT:      -4.6      0.986      1.423
REMARK  3 active torsions:
REMARK  status: ('A' for Active; 'I' for Inactive)
REMARK    1  A    between atoms: C3_3  and  C11_11 
REMARK    2  A    between atoms: C8_8  and  N12_12 
REMARK    3  A    between atoms: C11_11  and  N12_12 
ROOT
HETATM    1  C1  UNL     1     -36.459  14.267  -4.639  1.00 20.00     0.127 C 
HETATM    2  C4  UNL     1     -36.428  15.414  -5.624  1.00 20.00     0.080 C 
HETATM    3  C5  UNL     1     -35.148  13.914  -3.970  1.00 20.00     0.080 C 
HETATM    4  C6  UNL     1     -35.743  16.631  -5.013  1.00 20.00     0.040 C 
HETATM    5  C7  UNL     1     -34.488  15.159  -3.391  1.00 20.00     0.040 C 
HETATM    6  C8  UNL     1     -34.374  16.260  -4.444  1.00 20.00     0.189 C 
HETATM    7  O13 UNL     1     -37.472  13.591  -4.469  1.00 20.00    -0.298 OA
ENDROOT
BRANCH   6   8
HETATM    8  N12 UNL     1     -33.776  17.467  -3.811  1.00 20.00    -0.067 N 
HETATM    9  C10 UNL     1     -33.637  18.616  -4.778  1.00 20.00     0.270 C 
HETATM   10  H33 UNL     1     -32.817  17.222  -3.514  1.00 20.00     0.280 HD
BRANCH   8  11
HETATM   11  C11 UNL     1     -34.510  17.887  -2.563  1.00 20.00     0.268 C 
BRANCH  11  12
HETATM   12  C3  UNL     1     -33.642  17.914  -1.336  1.00 20.00    -0.068 C 
HETATM   13  C2  UNL     1     -32.305  17.984  -1.425  1.00 20.00     0.015 C 
HETATM   14  C9  UNL     1     -34.340  17.890  -0.007  1.00 20.00     0.044 C 
ENDBRANCH  11  12
ENDBRANCH   8  11
ENDBRANCH   6   8
TORSDOF 3
ENDMDL
MODEL 7
REMARK VINA RESULT:      -4.6      2.473      4.897
REMARK  3 active torsions:
REMARK  status: ('A' for Active; 'I' for Inactive)
REMARK    1  A    between atoms: C3_3  and  C11_11 
REMARK    2  A    between atoms: C8_8  and  N12_12 
REMARK    3  A    between atoms: C11_11  and  N12_12 
ROOT
HETATM    1  C1  UNL     1     -34.188  18.155  -0.876  1.00 20.00     0.127 C 
HETATM    2  C4  UNL     1     -35.154  16.997  -0.755  1.00 20.00     0.080 C 
HETATM    3  C5  UNL     1     -32.835  17.847  -1.481  1.00 20.00     0.080 C 
HETATM    4  C6  UNL     1     -35.266  16.249  -2.079  1.00 20.00     0.040 C 
HETATM    5  C7  UNL     1     -32.992  17.083  -2.790  1.00 20.00     0.040 C 
HETATM    6  C8  UNL     1     -33.887  15.858  -2.607  1.00 20.00     0.189 C 
HETATM    7  O13 UNL     1     -34.449  19.263  -0.413  1.00 20.00    -0.298 OA
ENDROOT
BRANCH   6   8
HETATM    8  N12 UNL     1     -34.051  15.184  -3.923  1.00 20.00    -0.067 N 
HETATM    9  C10 UNL     1     -32.757  14.614  -4.445  1.00 20.00     0.270 C 
HETATM   10  H33 UNL     1     -34.347  15.901  -4.607  1.00 20.00     0.280 HD
BRANCH   8  11
HETATM   11  C11 UNL     1     -35.142  14.143  -3.906  1.00 20.00     0.268 C 
BRANCH  11  12
HETATM   12  C3  UNL     1     -36.222  14.388  -4.923  1.00 20.00    -0.068 C 
HETATM   13  C2  UNL     1     -35.943  14.483  -6.231  1.00 20.00     0.015 C 
HETATM   14  C9  UNL     1     -37.630  14.487  -4.410  1.00 20.00     0.044 C 
ENDBRANCH  11  12
ENDBRANCH   8  11
ENDBRANCH   6   8
TORSDOF 3
ENDMDL
MODEL 8
REMARK VINA RESULT:      -4.6      1.605      2.556
REMARK  3 active torsions:
REMARK  status: ('A' for Active; 'I' for Inactive)
REMARK    1  A    between atoms: C3_3  and  C11_11 
REMARK    2  A    between atoms: C8_8  and  N12_12 
REMARK    3  A    between atoms: C11_11  and  N12_12 
ROOT
HETATM    1  C1  UNL     1     -35.910  14.192  -4.772  1.00 20.00     0.127 C 
HETATM    2  C4  UNL     1     -34.661  14.069  -3.928  1.00 20.00     0.080 C 
HETATM    3  C5  UNL     1     -37.072  14.940  -4.155  1.00 20.00     0.080 C 
HETATM    4  C6  UNL     1     -34.248  15.429  -3.376  1.00 20.00     0.040 C 
HETATM    5  C7  UNL     1     -36.613  16.283  -3.599  1.00 20.00     0.040 C 
HETATM    6  C8  UNL     1     -35.417  16.109  -2.665  1.00 20.00     0.189 C 
HETATM    7  O13 UNL     1     -36.013  13.625  -5.858  1.00 20.00    -0.298 OA
ENDROOT
BRANCH   6   8
HETATM    8  N12 UNL     1     -34.976  17.452  -2.197  1.00 20.00    -0.067 N 
HETATM    9  C10 UNL     1     -36.108  18.260  -1.614  1.00 20.00     0.270 C 
HETATM   10  H33 UNL     1     -34.642  17.977  -3.023  1.00 20.00     0.280 HD
BRANCH   8  11
HETATM   11  C11 UNL     1     -33.809  17.377  -1.246  1.00 20.00     0.268 C 
BRANCH  11  12
HETATM   12  C3  UNL     1     -32.625  18.194  -1.682  1.00 20.00    -0.068 C 
HETATM   13  C2  UNL     1     -32.593  18.797  -2.879  1.00 20.00     0.015 C 
HETATM   14  C9  UNL     1     -31.495  18.331  -0.703  1.00 20.00     0.044 C 
ENDBRANCH  11  12
ENDBRANCH   8  11
ENDBRANCH   6   8
TORSDOF 3
ENDMDL
MODEL 9
REMARK VINA RESULT:      -4.4      2.487      4.726
REMARK  3 active torsions:
REMARK  status: ('A' for Active; 'I' for Inactive)
REMARK    1  A    between atoms: C3_3  and  C11_11 
REMARK    2  A    between atoms: C8_8  and  N12_12 
REMARK    3  A    between atoms: C11_11  and  N12_12 
ROOT
HETATM    1  C1  UNL     1     -34.017  17.852  -1.266  1.00 20.00     0.127 C 
HETATM    2  C4  UNL     1     -35.105  16.821  -1.059  1.00 20.00     0.080 C 
HETATM    3  C5  UNL     1     -32.781  17.391  -2.008  1.00 20.00     0.080 C 
HETATM    4  C6  UNL     1     -35.442  16.123  -2.372  1.00 20.00     0.040 C 
HETATM    5  C7  UNL     1     -33.163  16.682  -3.302  1.00 20.00     0.040 C 
HETATM    6  C8  UNL     1     -34.182  15.575  -3.041  1.00 20.00     0.189 C 
HETATM    7  O13 UNL     1     -34.089  18.973  -0.768  1.00 20.00    -0.298 OA
ENDROOT
BRANCH   6   8
HETATM    8  N12 UNL     1     -34.561  14.957  -4.340  1.00 20.00    -0.067 N 
HETATM    9  C10 UNL     1     -35.384  13.706  -4.166  1.00 20.00     0.270 C 
HETATM   10  H33 UNL     1     -33.690  14.665  -4.814  1.00 20.00     0.280 HD
BRANCH   8  11
HETATM   11  C11 UNL     1     -35.237  15.934  -5.268  1.00 20.00     0.268 C 
BRANCH  11  12
HETATM   12  C3  UNL     1     -34.477  16.178  -6.541  1.00 20.00    -0.068 C 
HETATM   13  C2  UNL     1     -33.939  15.168  -7.241  1.00 20.00     0.015 C 
HETATM   14  C9  UNL     1     -34.374  17.601  -7.011  1.00 20.00     0.044 C 
ENDBRANCH  11  12
ENDBRANCH   8  11
ENDBRANCH   6   8
TORSDOF 3
ENDMDL
