MODEL 1
REMARK VINA RESULT:      -4.5      0.000      0.000
REMARK  3 active torsions:
REMARK  status: ('A' for Active; 'I' for Inactive)
REMARK    1  A    between atoms: C6_6  and  C7_7 
REMARK    2  A    between atoms: C7_7  and  C8_8 
REMARK    3  A    between atoms: C8_8  and  O10_10 
ROOT
HETATM    1  C1  UNL     1     -37.079  14.322  -4.419  1.00 20.00     0.072 C 
HETATM    2  C3  UNL     1     -34.772  13.668  -3.943  1.00 20.00     0.034 C 
HETATM    3  C7  UNL     1     -35.665  14.782  -4.540  1.00 20.00     0.075 C 
HETATM    4  N9  UNL     1     -38.178  13.961  -4.325  1.00 20.00    -0.196 NA
ENDROOT
BRANCH   3   5
HETATM    5  C6  UNL     1     -35.503  16.097  -3.717  1.00 20.00     0.023 C 
HETATM    6  C2  UNL     1     -34.886  15.939  -2.328  1.00 20.00     0.007 C 
ENDBRANCH   3   5
BRANCH   3   7
HETATM    7  C8  UNL     1     -35.322  15.011  -6.072  1.00 20.00     0.071 C 
HETATM    8  C4  UNL     1     -33.815  14.951  -6.371  1.00 20.00     0.047 C 
HETATM    9  C5  UNL     1     -35.868  16.333  -6.639  1.00 20.00     0.047 C 
BRANCH   7  10
HETATM   10  O10 UNL     1     -35.897  13.946  -6.851  1.00 20.00    -0.389 OA
HETATM   11  H25 UNL     1     -36.375  14.377  -7.571  1.00 20.00     0.210 HD
ENDBRANCH   7  10
ENDBRANCH   3   7
TORSDOF 3
ENDMDL
MODEL 2
REMARK VINA RESULT:      -4.5     18.753     19.908
REMARK  3 active torsions:
REMARK  status: ('A' for Active; 'I' for Inactive)
REMARK    1  A    between atoms: C6_6  and  C7_7 
REMARK    2  A    between atoms: C7_7  and  C8_8 
REMARK    3  A    between atoms: C8_8  and  O10_10 
ROOT
HETATM    1  C1  UNL     1     -24.256  16.345  11.355  1.00 20.00     0.072 C 
HETATM    2  C3  UNL     1     -22.744  18.081  12.175  1.00 20.00     0.034 C 
HETATM    3  C7  UNL     1     -23.661  17.665  10.999  1.00 20.00     0.075 C 
HETATM    4  N9  UNL     1     -24.717  15.317  11.634  1.00 20.00    -0.196 NA
ENDROOT
BRANCH   3   5
HETATM    5  C6  UNL     1     -24.817  18.698  10.829  1.00 20.00     0.023 C 
HETATM    6  C2  UNL     1     -25.794  18.799  12.001  1.00 20.00     0.007 C 
ENDBRANCH   3   5
BRANCH   3   7
HETATM    7  C8  UNL     1     -22.819  17.512   9.663  1.00 20.00     0.071 C 
HETATM    8  C4  UNL     1     -21.361  17.979   9.809  1.00 20.00     0.047 C 
HETATM    9  C5  UNL     1     -23.434  18.242   8.456  1.00 20.00     0.047 C 
BRANCH   7  10
HETATM   10  O10 UNL     1     -22.729  16.119   9.315  1.00 20.00    -0.389 OA
HETATM   11  H25 UNL     1     -21.801  15.879   9.430  1.00 20.00     0.210 HD
ENDBRANCH   7  10
ENDBRANCH   3   7
TORSDOF 3
ENDMDL
MODEL 3
REMARK VINA RESULT:      -4.4      1.165      1.278
REMARK  3 active torsions:
REMARK  status: ('A' for Active; 'I' for Inactive)
REMARK    1  A    between atoms: C6_6  and  C7_7 
REMARK    2  A    between atoms: C7_7  and  C8_8 
REMARK    3  A    between atoms: C8_8  and  O10_10 
ROOT
HETATM    1  C1  UNL     1     -35.417  13.505  -4.482  1.00 20.00     0.072 C 
HETATM    2  C3  UNL     1     -33.247  14.624  -4.591  1.00 20.00     0.034 C 
HETATM    3  C7  UNL     1     -34.766  14.800  -4.833  1.00 20.00     0.075 C 
HETATM    4  N9  UNL     1     -35.921  12.496  -4.209  1.00 20.00    -0.196 NA
ENDROOT
BRANCH   3   5
HETATM    5  C6  UNL     1     -35.334  15.908  -3.894  1.00 20.00     0.023 C 
HETATM    6  C2  UNL     1     -34.876  15.843  -2.438  1.00 20.00     0.007 C 
ENDBRANCH   3   5
BRANCH   3   7
HETATM    7  C8  UNL     1     -35.052  15.129  -6.359  1.00 20.00     0.071 C 
HETATM    8  C4  UNL     1     -33.776  15.199  -7.213  1.00 20.00     0.047 C 
HETATM    9  C5  UNL     1     -35.842  16.432  -6.574  1.00 20.00     0.047 C 
BRANCH   7  10
HETATM   10  O10 UNL     1     -35.827  14.063  -6.937  1.00 20.00    -0.389 OA
HETATM   11  H25 UNL     1     -36.548  14.493  -7.415  1.00 20.00     0.210 HD
ENDBRANCH   7  10
ENDBRANCH   3   7
TORSDOF 3
ENDMDL
MODEL 4
REMARK VINA RESULT:      -4.3      1.787      2.121
REMARK  3 active torsions:
REMARK  status: ('A' for Active; 'I' for Inactive)
REMARK    1  A    between atoms: C6_6  and  C7_7 
REMARK    2  A    between atoms: C7_7  and  C8_8 
REMARK    3  A    between atoms: C8_8  and  O10_10 
ROOT
HETATM    1  C1  UNL     1     -35.381  13.713  -4.317  1.00 20.00     0.072 C 
HETATM    2  C3  UNL     1     -33.083  14.546  -4.345  1.00 20.00     0.034 C 
HETATM    3  C7  UNL     1     -34.570  14.963  -4.248  1.00 20.00     0.075 C 
HETATM    4  N9  UNL     1     -36.009  12.738  -4.373  1.00 20.00    -0.196 NA
ENDROOT
BRANCH   3   5
HETATM    5  C6  UNL     1     -34.845  15.652  -2.876  1.00 20.00     0.023 C 
HETATM    6  C2  UNL     1     -33.712  16.521  -2.330  1.00 20.00     0.007 C 
ENDBRANCH   3   5
BRANCH   3   7
HETATM    7  C8  UNL     1     -34.965  15.907  -5.461  1.00 20.00     0.071 C 
HETATM    8  C4  UNL     1     -36.207  16.770  -5.177  1.00 20.00     0.047 C 
HETATM    9  C5  UNL     1     -35.201  15.153  -6.781  1.00 20.00     0.047 C 
BRANCH   7  10
HETATM   10  O10 UNL     1     -33.904  16.850  -5.694  1.00 20.00    -0.389 OA
HETATM   11  H25 UNL     1     -33.956  17.077  -6.631  1.00 20.00     0.210 HD
ENDBRANCH   7  10
ENDBRANCH   3   7
TORSDOF 3
ENDMDL
MODEL 5
REMARK VINA RESULT:      -4.3      1.851      3.151
REMARK  3 active torsions:
REMARK  status: ('A' for Active; 'I' for Inactive)
REMARK    1  A    between atoms: C6_6  and  C7_7 
REMARK    2  A    between atoms: C7_7  and  C8_8 
REMARK    3  A    between atoms: C8_8  and  O10_10 
ROOT
HETATM    1  C1  UNL     1     -36.938  14.495  -4.293  1.00 20.00     0.072 C 
HETATM    2  C3  UNL     1     -35.395  15.839  -5.629  1.00 20.00     0.034 C 
HETATM    3  C7  UNL     1     -35.666  15.270  -4.215  1.00 20.00     0.075 C 
HETATM    4  N9  UNL     1     -37.930  13.894  -4.356  1.00 20.00    -0.196 NA
ENDROOT
BRANCH   3   5
HETATM    5  C6  UNL     1     -34.521  14.295  -3.801  1.00 20.00     0.023 C 
HETATM    6  C2  UNL     1     -33.167  14.540  -4.467  1.00 20.00     0.007 C 
ENDBRANCH   3   5
BRANCH   3   7
HETATM    7  C8  UNL     1     -35.837  16.445  -3.163  1.00 20.00     0.071 C 
HETATM    8  C4  UNL     1     -35.433  17.820  -3.722  1.00 20.00     0.047 C 
HETATM    9  C5  UNL     1     -35.066  16.219  -1.851  1.00 20.00     0.047 C 
BRANCH   7  10
HETATM   10  O10 UNL     1     -37.228  16.578  -2.821  1.00 20.00    -0.389 OA
HETATM   11  H25 UNL     1     -37.546  15.679  -2.666  1.00 20.00     0.210 HD
ENDBRANCH   7  10
ENDBRANCH   3   7
TORSDOF 3
ENDMDL
MODEL 6
REMARK VINA RESULT:      -4.1      2.296      2.860
REMARK  3 active torsions:
REMARK  status: ('A' for Active; 'I' for Inactive)
REMARK    1  A    between atoms: C6_6  and  C7_7 
REMARK    2  A    between atoms: C7_7  and  C8_8 
REMARK    3  A    between atoms: C8_8  and  O10_10 
ROOT
HETATM    1  C1  UNL     1     -33.569  14.428  -4.353  1.00 20.00     0.072 C 
HETATM    2  C3  UNL     1     -34.744  16.479  -4.974  1.00 20.00     0.034 C 
HETATM    3  C7  UNL     1     -34.873  15.138  -4.212  1.00 20.00     0.075 C 
HETATM    4  N9  UNL     1     -32.553  13.877  -4.466  1.00 20.00    -0.196 NA
ENDROOT
BRANCH   3   5
HETATM    5  C6  UNL     1     -35.126  15.406  -2.697  1.00 20.00     0.023 C 
HETATM    6  C2  UNL     1     -34.291  16.522  -2.070  1.00 20.00     0.007 C 
ENDBRANCH   3   5
BRANCH   3   7
HETATM    7  C8  UNL     1     -36.022  14.246  -4.844  1.00 20.00     0.071 C 
HETATM    8  C4  UNL     1     -36.071  14.320  -6.380  1.00 20.00     0.047 C 
HETATM    9  C5  UNL     1     -37.426  14.571  -4.306  1.00 20.00     0.047 C 
BRANCH   7  10
HETATM   10  O10 UNL     1     -35.764  12.861  -4.548  1.00 20.00    -0.389 OA
HETATM   11  H25 UNL     1     -35.908  12.765  -3.598  1.00 20.00     0.210 HD
ENDBRANCH   7  10
ENDBRANCH   3   7
TORSDOF 3
ENDMDL
MODEL 7
REMARK VINA RESULT:      -4.1      1.599      2.136
REMARK  3 active torsions:
REMARK  status: ('A' for Active; 'I' for Inactive)
REMARK    1  A    between atoms: C6_6  and  C7_7 
REMARK    2  A    between atoms: C7_7  and  C8_8 
REMARK    3  A    between atoms: C8_8  and  O10_10 
ROOT
HETATM    1  C1  UNL     1     -36.767  14.594  -4.233  1.00 20.00     0.072 C 
HETATM    2  C3  UNL     1     -35.534  15.918  -2.590  1.00 20.00     0.034 C 
HETATM    3  C7  UNL     1     -35.628  15.546  -4.089  1.00 20.00     0.075 C 
HETATM    4  N9  UNL     1     -37.653  13.852  -4.342  1.00 20.00    -0.196 NA
ENDROOT
BRANCH   3   5
HETATM    5  C6  UNL     1     -35.938  16.817  -4.939  1.00 20.00     0.023 C 
HETATM    6  C2  UNL     1     -35.556  18.152  -4.301  1.00 20.00     0.007 C 
ENDBRANCH   3   5
BRANCH   3   7
HETATM    7  C8  UNL     1     -34.293  14.837  -4.572  1.00 20.00     0.071 C 
HETATM    8  C4  UNL     1     -33.036  15.360  -3.856  1.00 20.00     0.047 C 
HETATM    9  C5  UNL     1     -34.053  14.936  -6.089  1.00 20.00     0.047 C 
BRANCH   7  10
HETATM   10  O10 UNL     1     -34.353  13.438  -4.243  1.00 20.00    -0.389 OA
HETATM   11  H25 UNL     1     -34.244  13.390  -3.284  1.00 20.00     0.210 HD
ENDBRANCH   7  10
ENDBRANCH   3   7
TORSDOF 3
ENDMDL
MODEL 8
REMARK VINA RESULT:      -4.1      1.415      3.060
REMARK  3 active torsions:
REMARK  status: ('A' for Active; 'I' for Inactive)
REMARK    1  A    between atoms: C6_6  and  C7_7 
REMARK    2  A    between atoms: C7_7  and  C8_8 
REMARK    3  A    between atoms: C8_8  and  O10_10 
ROOT
HETATM    1  C1  UNL     1     -37.038  14.459  -4.692  1.00 20.00     0.072 C 
HETATM    2  C3  UNL     1     -35.996  16.657  -4.927  1.00 20.00     0.034 C 
HETATM    3  C7  UNL     1     -35.771  15.135  -5.096  1.00 20.00     0.075 C 
HETATM    4  N9  UNL     1     -38.024  13.935  -4.375  1.00 20.00    -0.196 NA
ENDROOT
BRANCH   3   5
HETATM    5  C6  UNL     1     -35.488  14.797  -6.592  1.00 20.00     0.023 C 
HETATM    6  C2  UNL     1     -36.281  15.607  -7.617  1.00 20.00     0.007 C 
ENDBRANCH   3   5
BRANCH   3   7
HETATM    7  C8  UNL     1     -34.594  14.637  -4.156  1.00 20.00     0.071 C 
HETATM    8  C4  UNL     1     -34.545  15.372  -2.806  1.00 20.00     0.047 C 
HETATM    9  C5  UNL     1     -33.201  14.735  -4.802  1.00 20.00     0.047 C 
BRANCH   7  10
HETATM   10  O10 UNL     1     -34.808  13.255  -3.818  1.00 20.00    -0.389 OA
HETATM   11  H25 UNL     1     -34.506  13.159  -2.905  1.00 20.00     0.210 HD
ENDBRANCH   7  10
ENDBRANCH   3   7
TORSDOF 3
ENDMDL
MODEL 9
REMARK VINA RESULT:      -4.0     10.420     11.774
REMARK  3 active torsions:
REMARK  status: ('A' for Active; 'I' for Inactive)
REMARK    1  A    between atoms: C6_6  and  C7_7 
REMARK    2  A    between atoms: C7_7  and  C8_8 
REMARK    3  A    between atoms: C8_8  and  O10_10 
ROOT
HETATM    1  C1  UNL     1     -42.956   7.648  -1.076  1.00 20.00     0.072 C 
HETATM    2  C3  UNL     1     -43.417   7.126   1.267  1.00 20.00     0.034 C 
HETATM    3  C7  UNL     1     -42.374   6.994   0.131  1.00 20.00     0.075 C 
HETATM    4  N9  UNL     1     -43.413   8.156  -2.014  1.00 20.00    -0.196 NA
ENDROOT
BRANCH   3   5
HETATM    5  C6  UNL     1     -41.064   7.748   0.516  1.00 20.00     0.023 C 
HETATM    6  C2  UNL     1     -41.145   9.274   0.493  1.00 20.00     0.007 C 
ENDBRANCH   3   5
BRANCH   3   7
HETATM    7  C8  UNL     1     -42.090   5.466  -0.191  1.00 20.00     0.071 C 
HETATM    8  C4  UNL     1     -40.909   5.260  -1.154  1.00 20.00     0.047 C 
HETATM    9  C5  UNL     1     -43.307   4.717  -0.761  1.00 20.00     0.047 C 
BRANCH   7  10
HETATM   10  O10 UNL     1     -41.704   4.790   1.019  1.00 20.00    -0.389 OA
HETATM   11  H25 UNL     1     -41.316   3.951   0.738  1.00 20.00     0.210 HD
ENDBRANCH   7  10
ENDBRANCH   3   7
TORSDOF 3
ENDMDL
