MODEL 1
REMARK VINA RESULT:      -4.3      0.000      0.000
REMARK  3 active torsions:
REMARK  status: ('A' for Active; 'I' for Inactive)
REMARK    1  A    between atoms: C5_5  and  C7_7 
REMARK    2  A    between atoms: C6_6  and  C7_7 
REMARK    3  A    between atoms: C6_6  and  O9_9 
ROOT
HETATM    1  C1  UNL     1     -36.920  14.443  -4.487  1.00 20.00     0.071 C 
HETATM    2  C4  UNL     1     -35.924  16.681  -4.625  1.00 20.00     0.034 C 
HETATM    3  C7  UNL     1     -35.631  15.165  -4.645  1.00 20.00     0.070 C 
HETATM    4  N8  UNL     1     -37.927  13.880  -4.364  1.00 20.00    -0.196 NA
ENDROOT
BRANCH   3   5
HETATM    5  C5  UNL     1     -34.673  14.775  -3.484  1.00 20.00     0.022 C 
HETATM    6  C2  UNL     1     -34.081  15.939  -2.692  1.00 20.00     0.007 C 
ENDBRANCH   3   5
BRANCH   3   7
HETATM    7  C6  UNL     1     -34.978  14.794  -6.017  1.00 20.00     0.136 C 
HETATM    8  C3  UNL     1     -34.612  15.976  -6.913  1.00 20.00     0.041 C 
BRANCH   7   9
HETATM    9  O9  UNL     1     -35.852  13.932  -6.753  1.00 20.00    -0.394 OA
HETATM   10  H22 UNL     1     -36.721  14.358  -6.745  1.00 20.00     0.210 HD
ENDBRANCH   7   9
ENDBRANCH   3   7
TORSDOF 3
ENDMDL
MODEL 2
REMARK VINA RESULT:      -4.3      1.539      1.555
REMARK  3 active torsions:
REMARK  status: ('A' for Active; 'I' for Inactive)
REMARK    1  A    between atoms: C5_5  and  C7_7 
REMARK    2  A    between atoms: C6_6  and  C7_7 
REMARK    3  A    between atoms: C6_6  and  O9_9 
ROOT
HETATM    1  C1  UNL     1     -35.498  13.839  -4.362  1.00 20.00     0.071 C 
HETATM    2  C4  UNL     1     -36.374  16.128  -4.485  1.00 20.00     0.034 C 
HETATM    3  C7  UNL     1     -35.117  15.268  -4.228  1.00 20.00     0.070 C 
HETATM    4  N8  UNL     1     -35.796  12.723  -4.469  1.00 20.00    -0.196 NA
ENDROOT
BRANCH   3   5
HETATM    5  C5  UNL     1     -34.561  15.523  -2.798  1.00 20.00     0.022 C 
HETATM    6  C2  UNL     1     -33.414  16.527  -2.701  1.00 20.00     0.007 C 
ENDBRANCH   3   5
BRANCH   3   7
HETATM    7  C6  UNL     1     -34.029  15.632  -5.291  1.00 20.00     0.136 C 
HETATM    8  C3  UNL     1     -34.557  16.221  -6.598  1.00 20.00     0.041 C 
BRANCH   7   9
HETATM    9  O9  UNL     1     -33.254  14.471  -5.608  1.00 20.00    -0.394 OA
HETATM   10  H22 UNL     1     -33.142  14.476  -6.569  1.00 20.00     0.210 HD
ENDBRANCH   7   9
ENDBRANCH   3   7
TORSDOF 3
ENDMDL
MODEL 3
REMARK VINA RESULT:      -4.1     18.844     19.862
REMARK  3 active torsions:
REMARK  status: ('A' for Active; 'I' for Inactive)
REMARK    1  A    between atoms: C5_5  and  C7_7 
REMARK    2  A    between atoms: C6_6  and  C7_7 
REMARK    3  A    between atoms: C6_6  and  O9_9 
ROOT
HETATM    1  C1  UNL     1     -22.807  16.918   9.385  1.00 20.00     0.071 C 
HETATM    2  C4  UNL     1     -22.542  18.001  11.572  1.00 20.00     0.034 C 
HETATM    3  C7  UNL     1     -23.558  17.417  10.566  1.00 20.00     0.070 C 
HETATM    4  N8  UNL     1     -22.220  16.527   8.464  1.00 20.00    -0.196 NA
ENDROOT
BRANCH   3   5
HETATM    5  C5  UNL     1     -24.570  18.509  10.112  1.00 20.00     0.022 C 
HETATM    6  C2  UNL     1     -24.205  19.263   8.836  1.00 20.00     0.007 C 
ENDBRANCH   3   5
BRANCH   3   7
HETATM    7  C6  UNL     1     -24.325  16.237  11.247  1.00 20.00     0.136 C 
HETATM    8  C3  UNL     1     -25.601  16.624  11.992  1.00 20.00     0.041 C 
BRANCH   7   9
HETATM    9  O9  UNL     1     -23.460  15.564  12.168  1.00 20.00    -0.394 OA
HETATM   10  H22 UNL     1     -22.771  16.201  12.407  1.00 20.00     0.210 HD
ENDBRANCH   7   9
ENDBRANCH   3   7
TORSDOF 3
ENDMDL
MODEL 4
REMARK VINA RESULT:      -4.0      1.883      3.219
REMARK  3 active torsions:
REMARK  status: ('A' for Active; 'I' for Inactive)
REMARK    1  A    between atoms: C5_5  and  C7_7 
REMARK    2  A    between atoms: C6_6  and  C7_7 
REMARK    3  A    between atoms: C6_6  and  O9_9 
ROOT
HETATM    1  C1  UNL     1     -35.484  13.795  -4.436  1.00 20.00     0.071 C 
HETATM    2  C4  UNL     1     -33.309  14.883  -4.105  1.00 20.00     0.034 C 
HETATM    3  C7  UNL     1     -34.795  15.112  -4.457  1.00 20.00     0.070 C 
HETATM    4  N8  UNL     1     -36.022  12.767  -4.417  1.00 20.00    -0.196 NA
ENDROOT
BRANCH   3   5
HETATM    5  C5  UNL     1     -34.933  15.745  -5.871  1.00 20.00     0.022 C 
HETATM    6  C2  UNL     1     -34.042  15.145  -6.957  1.00 20.00     0.007 C 
ENDBRANCH   3   5
BRANCH   3   7
HETATM    7  C6  UNL     1     -35.429  16.062  -3.389  1.00 20.00     0.136 C 
HETATM    8  C3  UNL     1     -34.643  16.204  -2.086  1.00 20.00     0.041 C 
BRANCH   7   9
HETATM    9  O9  UNL     1     -36.749  15.615  -3.064  1.00 20.00    -0.394 OA
HETATM   10  H22 UNL     1     -37.355  16.165  -3.582  1.00 20.00     0.210 HD
ENDBRANCH   7   9
ENDBRANCH   3   7
TORSDOF 3
ENDMDL
MODEL 5
REMARK VINA RESULT:      -3.9      2.152      2.861
REMARK  3 active torsions:
REMARK  status: ('A' for Active; 'I' for Inactive)
REMARK    1  A    between atoms: C5_5  and  C7_7 
REMARK    2  A    between atoms: C6_6  and  C7_7 
REMARK    3  A    between atoms: C6_6  and  O9_9 
ROOT
HETATM    1  C1  UNL     1     -34.666  16.238  -5.077  1.00 20.00     0.071 C 
HETATM    2  C4  UNL     1     -33.424  14.242  -4.370  1.00 20.00     0.034 C 
HETATM    3  C7  UNL     1     -34.759  15.009  -4.247  1.00 20.00     0.070 C 
HETATM    4  N8  UNL     1     -34.592  17.197  -5.726  1.00 20.00    -0.196 NA
ENDROOT
BRANCH   3   5
HETATM    5  C5  UNL     1     -35.032  15.402  -2.767  1.00 20.00     0.022 C 
HETATM    6  C2  UNL     1     -34.104  16.463  -2.180  1.00 20.00     0.007 C 
ENDBRANCH   3   5
BRANCH   3   7
HETATM    7  C6  UNL     1     -35.917  14.098  -4.774  1.00 20.00     0.136 C 
HETATM    8  C3  UNL     1     -37.321  14.488  -4.315  1.00 20.00     0.041 C 
BRANCH   7   9
HETATM    9  O9  UNL     1     -35.682  12.742  -4.385  1.00 20.00    -0.394 OA
HETATM   10  H22 UNL     1     -35.731  12.215  -5.196  1.00 20.00     0.210 HD
ENDBRANCH   7   9
ENDBRANCH   3   7
TORSDOF 3
ENDMDL
MODEL 6
REMARK VINA RESULT:      -3.8      1.409      2.591
REMARK  3 active torsions:
REMARK  status: ('A' for Active; 'I' for Inactive)
REMARK    1  A    between atoms: C5_5  and  C7_7 
REMARK    2  A    between atoms: C6_6  and  C7_7 
REMARK    3  A    between atoms: C6_6  and  O9_9 
ROOT
HETATM    1  C1  UNL     1     -36.344  14.285  -4.816  1.00 20.00     0.071 C 
HETATM    2  C4  UNL     1     -35.014  14.957  -6.766  1.00 20.00     0.034 C 
HETATM    3  C7  UNL     1     -35.207  15.140  -5.244  1.00 20.00     0.070 C 
HETATM    4  N8  UNL     1     -37.231  13.616  -4.482  1.00 20.00    -0.196 NA
ENDROOT
BRANCH   3   5
HETATM    5  C5  UNL     1     -35.519  16.625  -4.905  1.00 20.00     0.022 C 
HETATM    6  C2  UNL     1     -36.801  17.190  -5.513  1.00 20.00     0.007 C 
ENDBRANCH   3   5
BRANCH   3   7
HETATM    7  C6  UNL     1     -33.900  14.693  -4.511  1.00 20.00     0.136 C 
HETATM    8  C3  UNL     1     -33.329  15.699  -3.512  1.00 20.00     0.041 C 
BRANCH   7   9
HETATM    9  O9  UNL     1     -32.882  14.395  -5.471  1.00 20.00    -0.394 OA
HETATM   10  H22 UNL     1     -32.645  13.467  -5.335  1.00 20.00     0.210 HD
ENDBRANCH   7   9
ENDBRANCH   3   7
TORSDOF 3
ENDMDL
MODEL 7
REMARK VINA RESULT:      -3.7      1.291      1.714
REMARK  3 active torsions:
REMARK  status: ('A' for Active; 'I' for Inactive)
REMARK    1  A    between atoms: C5_5  and  C7_7 
REMARK    2  A    between atoms: C6_6  and  C7_7 
REMARK    3  A    between atoms: C6_6  and  O9_9 
ROOT
HETATM    1  C1  UNL     1     -36.769  14.419  -4.205  1.00 20.00     0.071 C 
HETATM    2  C4  UNL     1     -35.521  15.891  -2.688  1.00 20.00     0.034 C 
HETATM    3  C7  UNL     1     -35.466  15.109  -4.019  1.00 20.00     0.070 C 
HETATM    4  N8  UNL     1     -37.787  13.882  -4.350  1.00 20.00    -0.196 NA
ENDROOT
BRANCH   3   5
HETATM    5  C5  UNL     1     -34.322  14.056  -3.991  1.00 20.00     0.022 C 
HETATM    6  C2  UNL     1     -32.935  14.573  -4.368  1.00 20.00     0.007 C 
ENDBRANCH   3   5
BRANCH   3   7
HETATM    7  C6  UNL     1     -35.227  16.119  -5.189  1.00 20.00     0.136 C 
HETATM    8  C3  UNL     1     -35.208  17.594  -4.792  1.00 20.00     0.041 C 
BRANCH   7   9
HETATM    9  O9  UNL     1     -36.229  15.942  -6.195  1.00 20.00    -0.394 OA
HETATM   10  H22 UNL     1     -36.982  15.520  -5.756  1.00 20.00     0.210 HD
ENDBRANCH   7   9
ENDBRANCH   3   7
TORSDOF 3
ENDMDL
MODEL 8
REMARK VINA RESULT:      -3.7     10.550     11.940
REMARK  3 active torsions:
REMARK  status: ('A' for Active; 'I' for Inactive)
REMARK    1  A    between atoms: C5_5  and  C7_7 
REMARK    2  A    between atoms: C6_6  and  C7_7 
REMARK    3  A    between atoms: C6_6  and  O9_9 
ROOT
HETATM    1  C1  UNL     1     -42.034   8.586   0.245  1.00 20.00     0.071 C 
HETATM    2  C4  UNL     1     -41.254   6.264   0.101  1.00 20.00     0.034 C 
HETATM    3  C7  UNL     1     -42.498   7.176   0.178  1.00 20.00     0.070 C 
HETATM    4  N8  UNL     1     -41.672   9.687   0.297  1.00 20.00    -0.196 NA
ENDROOT
BRANCH   3   5
HETATM    5  C5  UNL     1     -43.342   6.847   1.443  1.00 20.00     0.022 C 
HETATM    6  C2  UNL     1     -43.417   5.371   1.826  1.00 20.00     0.007 C 
ENDBRANCH   3   5
BRANCH   3   7
HETATM    7  C6  UNL     1     -43.364   6.961  -1.106  1.00 20.00     0.136 C 
HETATM    8  C3  UNL     1     -43.164   5.624  -1.818  1.00 20.00     0.041 C 
BRANCH   7   9
HETATM    9  O9  UNL     1     -43.106   8.008  -2.046  1.00 20.00    -0.394 OA
HETATM   10  H22 UNL     1     -43.957   8.217  -2.458  1.00 20.00     0.210 HD
ENDBRANCH   7   9
ENDBRANCH   3   7
TORSDOF 3
ENDMDL
MODEL 9
REMARK VINA RESULT:      -3.7      2.385      3.312
REMARK  3 active torsions:
REMARK  status: ('A' for Active; 'I' for Inactive)
REMARK    1  A    between atoms: C5_5  and  C7_7 
REMARK    2  A    between atoms: C6_6  and  C7_7 
REMARK    3  A    between atoms: C6_6  and  O9_9 
ROOT
HETATM    1  C1  UNL     1     -34.220  15.152  -6.551  1.00 20.00     0.071 C 
HETATM    2  C4  UNL     1     -35.390  16.545  -4.904  1.00 20.00     0.034 C 
HETATM    3  C7  UNL     1     -34.794  15.148  -5.181  1.00 20.00     0.070 C 
HETATM    4  N8  UNL     1     -33.771  15.157  -7.621  1.00 20.00    -0.196 NA
ENDROOT
BRANCH   3   5
HETATM    5  C5  UNL     1     -35.893  14.052  -5.084  1.00 20.00     0.022 C 
HETATM    6  C2  UNL     1     -37.165  14.452  -4.338  1.00 20.00     0.007 C 
ENDBRANCH   3   5
BRANCH   3   7
HETATM    7  C6  UNL     1     -33.668  14.861  -4.134  1.00 20.00     0.136 C 
HETATM    8  C3  UNL     1     -33.394  15.987  -3.137  1.00 20.00     0.041 C 
BRANCH   7   9
HETATM    9  O9  UNL     1     -32.443  14.557  -4.808  1.00 20.00    -0.394 OA
HETATM   10  H22 UNL     1     -31.951  13.966  -4.221  1.00 20.00     0.210 HD
ENDBRANCH   7   9
ENDBRANCH   3   7
TORSDOF 3
ENDMDL
