MODEL 1
REMARK VINA RESULT:      -4.2      0.000      0.000
REMARK  4 active torsions:
REMARK  status: ('A' for Active; 'I' for Inactive)
REMARK    1  A    between atoms: C5_5  and  C7_7 
REMARK    2  A    between atoms: C6_6  and  C8_8 
REMARK    3  A    between atoms: C7_7  and  C8_8 
REMARK    4  A    between atoms: C8_8  and  O10_10 
ROOT
HETATM    1  C1  UNL     1     -36.988  14.239  -4.751  1.00 20.00     0.067 C 
HETATM    2  C7  UNL     1     -35.649  14.592  -5.285  1.00 20.00     0.126 C 
HETATM    3  N9  UNL     1     -38.035  13.960  -4.338  1.00 20.00    -0.197 NA
ENDROOT
BRANCH   2   4
HETATM    4  C5  UNL     1     -35.672  16.029  -5.850  1.00 20.00     0.018 C 
HETATM    5  C2  UNL     1     -35.381  16.085  -7.348  1.00 20.00     0.006 C 
ENDBRANCH   2   4
BRANCH   2   6
HETATM    6  C8  UNL     1     -34.540  14.355  -4.204  1.00 20.00     0.070 C 
HETATM    7  C4  UNL     1     -33.128  14.656  -4.726  1.00 20.00     0.047 C 
BRANCH   6   8
HETATM    8  C6  UNL     1     -34.837  15.170  -2.918  1.00 20.00     0.034 C 
HETATM    9  C3  UNL     1     -33.794  16.229  -2.573  1.00 20.00     0.008 C 
ENDBRANCH   6   8
BRANCH   6  10
HETATM   10  O10 UNL     1     -34.565  12.964  -3.846  1.00 20.00    -0.389 OA
HETATM   11  H25 UNL     1     -34.856  12.933  -2.924  1.00 20.00     0.210 HD
ENDBRANCH   6  10
ENDBRANCH   2   6
TORSDOF 4
ENDMDL
MODEL 2
REMARK VINA RESULT:      -4.1      1.721      3.193
REMARK  4 active torsions:
REMARK  status: ('A' for Active; 'I' for Inactive)
REMARK    1  A    between atoms: C5_5  and  C7_7 
REMARK    2  A    between atoms: C6_6  and  C8_8 
REMARK    3  A    between atoms: C7_7  and  C8_8 
REMARK    4  A    between atoms: C8_8  and  O10_10 
ROOT
HETATM    1  C1  UNL     1     -35.562  13.734  -4.440  1.00 20.00     0.067 C 
HETATM    2  C7  UNL     1     -35.009  15.106  -4.567  1.00 20.00     0.126 C 
HETATM    3  N9  UNL     1     -35.999  12.664  -4.340  1.00 20.00    -0.197 NA
ENDROOT
BRANCH   2   4
HETATM    4  C5  UNL     1     -33.874  15.309  -3.541  1.00 20.00     0.018 C 
HETATM    5  C2  UNL     1     -34.298  16.157  -2.344  1.00 20.00     0.006 C 
ENDBRANCH   2   4
BRANCH   2   6
HETATM    6  C8  UNL     1     -34.584  15.399  -6.046  1.00 20.00     0.070 C 
HETATM    7  C4  UNL     1     -35.599  14.874  -7.071  1.00 20.00     0.047 C 
BRANCH   6   8
HETATM    8  C6  UNL     1     -34.319  16.912  -6.257  1.00 20.00     0.034 C 
HETATM    9  C3  UNL     1     -35.471  17.828  -5.853  1.00 20.00     0.008 C 
ENDBRANCH   6   8
BRANCH   6  10
HETATM   10  O10 UNL     1     -33.347  14.708  -6.292  1.00 20.00    -0.389 OA
HETATM   11  H25 UNL     1     -33.161  14.204  -5.488  1.00 20.00     0.210 HD
ENDBRANCH   6  10
ENDBRANCH   2   6
TORSDOF 4
ENDMDL
MODEL 3
REMARK VINA RESULT:      -4.1      1.446      3.265
REMARK  4 active torsions:
REMARK  status: ('A' for Active; 'I' for Inactive)
REMARK    1  A    between atoms: C5_5  and  C7_7 
REMARK    2  A    between atoms: C6_6  and  C8_8 
REMARK    3  A    between atoms: C7_7  and  C8_8 
REMARK    4  A    between atoms: C8_8  and  O10_10 
ROOT
HETATM    1  C1  UNL     1     -37.190  14.526  -4.439  1.00 20.00     0.067 C 
HETATM    2  C7  UNL     1     -35.904  15.186  -4.778  1.00 20.00     0.126 C 
HETATM    3  N9  UNL     1     -38.197  14.016  -4.172  1.00 20.00    -0.197 NA
ENDROOT
BRANCH   2   4
HETATM    4  C5  UNL     1     -34.794  14.692  -3.825  1.00 20.00     0.018 C 
HETATM    5  C2  UNL     1     -34.409  15.729  -2.772  1.00 20.00     0.006 C 
ENDBRANCH   2   4
BRANCH   2   6
HETATM    6  C8  UNL     1     -35.564  14.992  -6.295  1.00 20.00     0.070 C 
HETATM    7  C4  UNL     1     -36.368  15.930  -7.208  1.00 20.00     0.047 C 
BRANCH   6   8
HETATM    8  C6  UNL     1     -34.042  15.149  -6.547  1.00 20.00     0.034 C 
HETATM    9  C3  UNL     1     -33.672  15.710  -7.918  1.00 20.00     0.008 C 
ENDBRANCH   6   8
BRANCH   6  10
HETATM   10  O10 UNL     1     -35.924  13.649  -6.658  1.00 20.00    -0.389 OA
HETATM   11  H25 UNL     1     -35.202  13.087  -6.342  1.00 20.00     0.210 HD
ENDBRANCH   6  10
ENDBRANCH   2   6
TORSDOF 4
ENDMDL
MODEL 4
REMARK VINA RESULT:      -4.0      2.004      3.766
REMARK  4 active torsions:
REMARK  status: ('A' for Active; 'I' for Inactive)
REMARK    1  A    between atoms: C5_5  and  C7_7 
REMARK    2  A    between atoms: C6_6  and  C8_8 
REMARK    3  A    between atoms: C7_7  and  C8_8 
REMARK    4  A    between atoms: C8_8  and  O10_10 
ROOT
HETATM    1  C1  UNL     1     -33.656  14.576  -4.035  1.00 20.00     0.067 C 
HETATM    2  C7  UNL     1     -35.050  14.627  -3.526  1.00 20.00     0.126 C 
HETATM    3  N9  UNL     1     -32.566  14.532  -4.429  1.00 20.00    -0.197 NA
ENDROOT
BRANCH   2   4
HETATM    4  C5  UNL     1     -35.371  16.051  -3.020  1.00 20.00     0.018 C 
HETATM    5  C2  UNL     1     -34.366  16.557  -1.989  1.00 20.00     0.006 C 
ENDBRANCH   2   4
BRANCH   2   6
HETATM    6  C8  UNL     1     -36.055  14.099  -4.605  1.00 20.00     0.070 C 
HETATM    7  C4  UNL     1     -37.513  14.454  -4.282  1.00 20.00     0.047 C 
BRANCH   6   8
HETATM    8  C6  UNL     1     -35.665  14.600  -6.019  1.00 20.00     0.034 C 
HETATM    9  C3  UNL     1     -36.478  15.788  -6.527  1.00 20.00     0.008 C 
ENDBRANCH   6   8
BRANCH   6  10
HETATM   10  O10 UNL     1     -35.969  12.664  -4.619  1.00 20.00    -0.389 OA
HETATM   11  H25 UNL     1     -35.116  12.446  -4.219  1.00 20.00     0.210 HD
ENDBRANCH   6  10
ENDBRANCH   2   6
TORSDOF 4
ENDMDL
MODEL 5
REMARK VINA RESULT:      -4.0      2.666      4.180
REMARK  4 active torsions:
REMARK  status: ('A' for Active; 'I' for Inactive)
REMARK    1  A    between atoms: C5_5  and  C7_7 
REMARK    2  A    between atoms: C6_6  and  C8_8 
REMARK    3  A    between atoms: C7_7  and  C8_8 
REMARK    4  A    between atoms: C8_8  and  O10_10 
ROOT
HETATM    1  C1  UNL     1     -33.225  17.251  -3.414  1.00 20.00     0.067 C 
HETATM    2  C7  UNL     1     -33.685  15.893  -3.030  1.00 20.00     0.126 C 
HETATM    3  N9  UNL     1     -32.861  18.312  -3.712  1.00 20.00    -0.197 NA
ENDROOT
BRANCH   2   4
HETATM    4  C5  UNL     1     -35.002  15.993  -2.230  1.00 20.00     0.018 C 
HETATM    5  C2  UNL     1     -34.924  16.992  -1.077  1.00 20.00     0.006 C 
ENDBRANCH   2   4
BRANCH   2   6
HETATM    6  C8  UNL     1     -33.778  14.962  -4.286  1.00 20.00     0.070 C 
HETATM    7  C4  UNL     1     -34.598  13.691  -4.023  1.00 20.00     0.047 C 
BRANCH   6   8
HETATM    8  C6  UNL     1     -34.337  15.735  -5.508  1.00 20.00     0.034 C 
HETATM    9  C3  UNL     1     -33.987  15.130  -6.866  1.00 20.00     0.008 C 
ENDBRANCH   6   8
BRANCH   6  10
HETATM   10  O10 UNL     1     -32.446  14.538  -4.619  1.00 20.00    -0.389 OA
HETATM   11  H25 UNL     1     -32.456  13.572  -4.573  1.00 20.00     0.210 HD
ENDBRANCH   6  10
ENDBRANCH   2   6
TORSDOF 4
ENDMDL
MODEL 6
REMARK VINA RESULT:      -4.0      1.736      3.235
REMARK  4 active torsions:
REMARK  status: ('A' for Active; 'I' for Inactive)
REMARK    1  A    between atoms: C5_5  and  C7_7 
REMARK    2  A    between atoms: C6_6  and  C8_8 
REMARK    3  A    between atoms: C7_7  and  C8_8 
REMARK    4  A    between atoms: C8_8  and  O10_10 
ROOT
HETATM    1  C1  UNL     1     -36.520  14.563  -4.208  1.00 20.00     0.067 C 
HETATM    2  C7  UNL     1     -35.494  15.600  -3.935  1.00 20.00     0.126 C 
HETATM    3  N9  UNL     1     -37.325  13.755  -4.423  1.00 20.00    -0.197 NA
ENDROOT
BRANCH   2   4
HETATM    4  C5  UNL     1     -35.034  15.507  -2.464  1.00 20.00     0.018 C 
HETATM    5  C2  UNL     1     -35.096  16.847  -1.734  1.00 20.00     0.006 C 
ENDBRANCH   2   4
BRANCH   2   6
HETATM    6  C8  UNL     1     -34.322  15.510  -4.970  1.00 20.00     0.070 C 
HETATM    7  C4  UNL     1     -33.218  14.537  -4.533  1.00 20.00     0.047 C 
BRANCH   6   8
HETATM    8  C6  UNL     1     -34.855  15.142  -6.379  1.00 20.00     0.034 C 
HETATM    9  C3  UNL     1     -33.800  15.136  -7.483  1.00 20.00     0.008 C 
ENDBRANCH   6   8
BRANCH   6  10
HETATM   10  O10 UNL     1     -33.718  16.811  -5.065  1.00 20.00    -0.389 OA
HETATM   11  H25 UNL     1     -34.440  17.446  -4.958  1.00 20.00     0.210 HD
ENDBRANCH   6  10
ENDBRANCH   2   6
TORSDOF 4
ENDMDL
MODEL 7
REMARK VINA RESULT:      -3.9      1.956      2.778
REMARK  4 active torsions:
REMARK  status: ('A' for Active; 'I' for Inactive)
REMARK    1  A    between atoms: C5_5  and  C7_7 
REMARK    2  A    between atoms: C6_6  and  C8_8 
REMARK    3  A    between atoms: C7_7  and  C8_8 
REMARK    4  A    between atoms: C8_8  and  O10_10 
ROOT
HETATM    1  C1  UNL     1     -36.739  14.311  -4.129  1.00 20.00     0.067 C 
HETATM    2  C7  UNL     1     -35.439  14.871  -3.685  1.00 20.00     0.126 C 
HETATM    3  N9  UNL     1     -37.755  13.868  -4.473  1.00 20.00    -0.197 NA
ENDROOT
BRANCH   2   4
HETATM    4  C5  UNL     1     -34.426  14.833  -4.850  1.00 20.00     0.018 C 
HETATM    5  C2  UNL     1     -33.005  14.510  -4.393  1.00 20.00     0.006 C 
ENDBRANCH   2   4
BRANCH   2   6
HETATM    6  C8  UNL     1     -35.632  16.296  -3.063  1.00 20.00     0.070 C 
HETATM    7  C4  UNL     1     -34.884  16.470  -1.734  1.00 20.00     0.047 C 
BRANCH   6   8
HETATM    8  C6  UNL     1     -35.227  17.401  -4.072  1.00 20.00     0.034 C 
HETATM    9  C3  UNL     1     -34.114  18.331  -3.595  1.00 20.00     0.008 C 
ENDBRANCH   6   8
BRANCH   6  10
HETATM   10  O10 UNL     1     -37.031  16.466  -2.779  1.00 20.00    -0.389 OA
HETATM   11  H25 UNL     1     -37.097  16.553  -1.818  1.00 20.00     0.210 HD
ENDBRANCH   6  10
ENDBRANCH   2   6
TORSDOF 4
ENDMDL
MODEL 8
REMARK VINA RESULT:      -3.8      1.563      1.769
REMARK  4 active torsions:
REMARK  status: ('A' for Active; 'I' for Inactive)
REMARK    1  A    between atoms: C5_5  and  C7_7 
REMARK    2  A    between atoms: C6_6  and  C8_8 
REMARK    3  A    between atoms: C7_7  and  C8_8 
REMARK    4  A    between atoms: C8_8  and  O10_10 
ROOT
HETATM    1  C1  UNL     1     -36.268  14.181  -4.895  1.00 20.00     0.067 C 
HETATM    2  C7  UNL     1     -34.987  14.785  -5.339  1.00 20.00     0.126 C 
HETATM    3  N9  UNL     1     -37.267  13.704  -4.548  1.00 20.00    -0.197 NA
ENDROOT
BRANCH   2   4
HETATM    4  C5  UNL     1     -35.154  15.390  -6.750  1.00 20.00     0.018 C 
HETATM    5  C2  UNL     1     -33.920  15.200  -7.629  1.00 20.00     0.006 C 
ENDBRANCH   2   4
BRANCH   2   6
HETATM    6  C8  UNL     1     -34.454  15.804  -4.275  1.00 20.00     0.070 C 
HETATM    7  C4  UNL     1     -34.957  17.234  -4.518  1.00 20.00     0.047 C 
BRANCH   6   8
HETATM    8  C6  UNL     1     -34.800  15.335  -2.838  1.00 20.00     0.034 C 
HETATM    9  C3  UNL     1     -34.955  16.459  -1.815  1.00 20.00     0.008 C 
ENDBRANCH   6   8
BRANCH   6  10
HETATM   10  O10 UNL     1     -33.021  15.841  -4.381  1.00 20.00    -0.389 OA
HETATM   11  H25 UNL     1     -32.686  15.725  -3.481  1.00 20.00     0.210 HD
ENDBRANCH   6  10
ENDBRANCH   2   6
TORSDOF 4
ENDMDL
MODEL 9
REMARK VINA RESULT:      -3.8      1.679      2.321
REMARK  4 active torsions:
REMARK  status: ('A' for Active; 'I' for Inactive)
REMARK    1  A    between atoms: C5_5  and  C7_7 
REMARK    2  A    between atoms: C6_6  and  C8_8 
REMARK    3  A    between atoms: C7_7  and  C8_8 
REMARK    4  A    between atoms: C8_8  and  O10_10 
ROOT
HETATM    1  C1  UNL     1     -35.985  13.712  -4.890  1.00 20.00     0.067 C 
HETATM    2  C7  UNL     1     -35.991  15.038  -5.557  1.00 20.00     0.126 C 
HETATM    3  N9  UNL     1     -35.982  12.674  -4.372  1.00 20.00    -0.197 NA
ENDROOT
BRANCH   2   4
HETATM    4  C5  UNL     1     -36.879  16.020  -4.763  1.00 20.00     0.018 C 
HETATM    5  C2  UNL     1     -38.302  15.505  -4.560  1.00 20.00     0.006 C 
ENDBRANCH   2   4
BRANCH   2   6
HETATM    6  C8  UNL     1     -34.529  15.552  -5.786  1.00 20.00     0.070 C 
HETATM    7  C4  UNL     1     -34.346  16.235  -7.148  1.00 20.00     0.047 C 
BRANCH   6   8
HETATM    8  C6  UNL     1     -34.085  16.490  -4.634  1.00 20.00     0.034 C 
HETATM    9  C3  UNL     1     -33.269  15.815  -3.534  1.00 20.00     0.008 C 
ENDBRANCH   6   8
BRANCH   6  10
HETATM   10  O10 UNL     1     -33.655  14.411  -5.771  1.00 20.00    -0.389 OA
HETATM   11  H25 UNL     1     -32.835  14.700  -6.194  1.00 20.00     0.210 HD
ENDBRANCH   6  10
ENDBRANCH   2   6
TORSDOF 4
ENDMDL
