MODEL 1
REMARK VINA RESULT:      -4.4      0.000      0.000
REMARK  4 active torsions:
REMARK  status: ('A' for Active; 'I' for Inactive)
REMARK    1  A    between atoms: C4_4  and  C5_5 
REMARK    2  A    between atoms: C5_5  and  C7_7 
REMARK    3  A    between atoms: C6_6  and  C7_7 
REMARK    4  A    between atoms: C7_7  and  O9_9 
ROOT
HETATM    1  C1  UNL     1     -36.358  14.288  -4.806  1.00 20.00     0.066 C 
HETATM    2  C3  UNL     1     -35.054  15.027  -6.750  1.00 20.00     0.028 C 
HETATM    3  C6  UNL     1     -35.202  15.104  -5.228  1.00 20.00     0.117 C 
HETATM    4  N8  UNL     1     -37.268  13.648  -4.473  1.00 20.00    -0.197 NA
ENDROOT
BRANCH   3   5
HETATM    5  C7  UNL     1     -33.899  14.676  -4.519  1.00 20.00     0.135 C 
BRANCH   5   6
HETATM    6  C5  UNL     1     -33.358  15.758  -3.567  1.00 20.00     0.033 C 
BRANCH   6   7
HETATM    7  C4  UNL     1     -34.306  16.038  -2.396  1.00 20.00    -0.002 C 
HETATM    8  C2  UNL     1     -33.887  17.284  -1.630  1.00 20.00     0.005 C 
ENDBRANCH   6   7
ENDBRANCH   5   6
BRANCH   5   9
HETATM    9  O9  UNL     1     -32.913  14.341  -5.494  1.00 20.00    -0.394 OA
HETATM   10  H22 UNL     1     -33.382  14.246  -6.338  1.00 20.00     0.210 HD
ENDBRANCH   5   9
ENDBRANCH   3   5
TORSDOF 4
ENDMDL
MODEL 2
REMARK VINA RESULT:      -4.3     11.347     11.946
REMARK  4 active torsions:
REMARK  status: ('A' for Active; 'I' for Inactive)
REMARK    1  A    between atoms: C4_4  and  C5_5 
REMARK    2  A    between atoms: C5_5  and  C7_7 
REMARK    3  A    between atoms: C6_6  and  C7_7 
REMARK    4  A    between atoms: C7_7  and  O9_9 
ROOT
HETATM    1  C1  UNL     1     -33.993   6.677   5.295  1.00 20.00     0.066 C 
HETATM    2  C3  UNL     1     -34.809   4.596   4.281  1.00 20.00     0.028 C 
HETATM    3  C6  UNL     1     -34.267   6.003   4.011  1.00 20.00     0.117 C 
HETATM    4  N8  UNL     1     -33.777   7.210   6.304  1.00 20.00    -0.197 NA
ENDROOT
BRANCH   3   5
HETATM    5  C7  UNL     1     -33.021   5.954   3.101  1.00 20.00     0.135 C 
BRANCH   5   6
HETATM    6  C5  UNL     1     -32.523   7.353   2.701  1.00 20.00     0.033 C 
BRANCH   6   7
HETATM    7  C4  UNL     1     -32.465   7.544   1.181  1.00 20.00    -0.002 C 
HETATM    8  C2  UNL     1     -32.900   8.947   0.782  1.00 20.00     0.005 C 
ENDBRANCH   6   7
ENDBRANCH   5   6
BRANCH   5   9
HETATM    9  O9  UNL     1     -33.310   5.182   1.937  1.00 20.00    -0.394 OA
HETATM   10  H22 UNL     1     -34.085   5.590   1.521  1.00 20.00     0.210 HD
ENDBRANCH   5   9
ENDBRANCH   3   5
TORSDOF 4
ENDMDL
MODEL 3
REMARK VINA RESULT:      -4.2      2.303      2.633
REMARK  4 active torsions:
REMARK  status: ('A' for Active; 'I' for Inactive)
REMARK    1  A    between atoms: C4_4  and  C5_5 
REMARK    2  A    between atoms: C5_5  and  C7_7 
REMARK    3  A    between atoms: C6_6  and  C7_7 
REMARK    4  A    between atoms: C7_7  and  O9_9 
ROOT
HETATM    1  C1  UNL     1     -37.104  14.510  -4.295  1.00 20.00     0.066 C 
HETATM    2  C3  UNL     1     -34.704  14.263  -3.841  1.00 20.00     0.028 C 
HETATM    3  C6  UNL     1     -35.828  15.246  -4.181  1.00 20.00     0.117 C 
HETATM    4  N8  UNL     1     -38.107  13.933  -4.386  1.00 20.00    -0.197 NA
ENDROOT
BRANCH   3   5
HETATM    5  C7  UNL     1     -35.905  16.385  -3.142  1.00 20.00     0.135 C 
BRANCH   5   6
HETATM    6  C5  UNL     1     -35.047  16.110  -1.895  1.00 20.00     0.033 C 
BRANCH   6   7
HETATM    7  C4  UNL     1     -34.105  17.272  -1.561  1.00 20.00    -0.002 C 
HETATM    8  C2  UNL     1     -32.878  17.265  -2.462  1.00 20.00     0.005 C 
ENDBRANCH   6   7
ENDBRANCH   5   6
BRANCH   5   9
HETATM    9  O9  UNL     1     -37.265  16.599  -2.767  1.00 20.00    -0.394 OA
HETATM   10  H22 UNL     1     -37.258  16.830  -1.826  1.00 20.00     0.210 HD
ENDBRANCH   5   9
ENDBRANCH   3   5
TORSDOF 4
ENDMDL
MODEL 4
REMARK VINA RESULT:      -4.2      2.148      2.512
REMARK  4 active torsions:
REMARK  status: ('A' for Active; 'I' for Inactive)
REMARK    1  A    between atoms: C4_4  and  C5_5 
REMARK    2  A    between atoms: C5_5  and  C7_7 
REMARK    3  A    between atoms: C6_6  and  C7_7 
REMARK    4  A    between atoms: C7_7  and  O9_9 
ROOT
HETATM    1  C1  UNL     1     -34.730  14.883  -6.510  1.00 20.00     0.066 C 
HETATM    2  C3  UNL     1     -36.700  16.036  -5.607  1.00 20.00     0.028 C 
HETATM    3  C6  UNL     1     -35.993  14.687  -5.770  1.00 20.00     0.117 C 
HETATM    4  N8  UNL     1     -33.736  15.035  -7.091  1.00 20.00    -0.197 NA
ENDROOT
BRANCH   3   5
HETATM    5  C7  UNL     1     -35.767  14.007  -4.403  1.00 20.00     0.135 C 
BRANCH   5   6
HETATM    6  C5  UNL     1     -34.393  14.338  -3.795  1.00 20.00     0.033 C 
BRANCH   6   7
HETATM    7  C4  UNL     1     -34.452  15.514  -2.814  1.00 20.00    -0.002 C 
HETATM    8  C2  UNL     1     -33.296  16.479  -3.036  1.00 20.00     0.005 C 
ENDBRANCH   6   7
ENDBRANCH   5   6
BRANCH   5   9
HETATM    9  O9  UNL     1     -35.918  12.596  -4.541  1.00 20.00    -0.394 OA
HETATM   10  H22 UNL     1     -35.106  12.196  -4.192  1.00 20.00     0.210 HD
ENDBRANCH   5   9
ENDBRANCH   3   5
TORSDOF 4
ENDMDL
MODEL 5
REMARK VINA RESULT:      -4.2      1.262      3.300
REMARK  4 active torsions:
REMARK  status: ('A' for Active; 'I' for Inactive)
REMARK    1  A    between atoms: C4_4  and  C5_5 
REMARK    2  A    between atoms: C5_5  and  C7_7 
REMARK    3  A    between atoms: C6_6  and  C7_7 
REMARK    4  A    between atoms: C7_7  and  O9_9 
ROOT
HETATM    1  C1  UNL     1     -35.376  13.686  -4.109  1.00 20.00     0.066 C 
HETATM    2  C3  UNL     1     -35.031  15.663  -2.695  1.00 20.00     0.028 C 
HETATM    3  C6  UNL     1     -34.363  14.644  -3.623  1.00 20.00     0.117 C 
HETATM    4  N8  UNL     1     -36.171  12.931  -4.491  1.00 20.00    -0.197 NA
ENDROOT
BRANCH   3   5
HETATM    5  C7  UNL     1     -33.624  15.348  -4.782  1.00 20.00     0.135 C 
BRANCH   5   6
HETATM    6  C5  UNL     1     -34.574  16.143  -5.695  1.00 20.00     0.033 C 
BRANCH   6   7
HETATM    7  C4  UNL     1     -34.477  15.713  -7.163  1.00 20.00    -0.002 C 
HETATM    8  C2  UNL     1     -35.771  15.070  -7.638  1.00 20.00     0.005 C 
ENDBRANCH   6   7
ENDBRANCH   5   6
BRANCH   5   9
HETATM    9  O9  UNL     1     -32.903  14.381  -5.544  1.00 20.00    -0.394 OA
HETATM   10  H22 UNL     1     -32.125  14.141  -5.019  1.00 20.00     0.210 HD
ENDBRANCH   5   9
ENDBRANCH   3   5
TORSDOF 4
ENDMDL
MODEL 6
REMARK VINA RESULT:      -4.1     11.210     11.740
REMARK  4 active torsions:
REMARK  status: ('A' for Active; 'I' for Inactive)
REMARK    1  A    between atoms: C4_4  and  C5_5 
REMARK    2  A    between atoms: C5_5  and  C7_7 
REMARK    3  A    between atoms: C6_6  and  C7_7 
REMARK    4  A    between atoms: C7_7  and  O9_9 
ROOT
HETATM    1  C1  UNL     1     -34.542   5.335   4.610  1.00 20.00     0.066 C 
HETATM    2  C3  UNL     1     -33.277   4.618   2.633  1.00 20.00     0.028 C 
HETATM    3  C6  UNL     1     -34.132   5.730   3.248  1.00 20.00     0.117 C 
HETATM    4  N8  UNL     1     -34.866   5.027   5.682  1.00 20.00    -0.197 NA
ENDROOT
BRANCH   3   5
HETATM    5  C7  UNL     1     -33.384   7.080   3.233  1.00 20.00     0.135 C 
BRANCH   5   6
HETATM    6  C5  UNL     1     -32.462   7.235   2.011  1.00 20.00     0.033 C 
BRANCH   6   7
HETATM    7  C4  UNL     1     -32.606   8.603   1.335  1.00 20.00    -0.002 C 
HETATM    8  C2  UNL     1     -33.209   8.473  -0.056  1.00 20.00     0.005 C 
ENDBRANCH   6   7
ENDBRANCH   5   6
BRANCH   5   9
HETATM    9  O9  UNL     1     -32.634   7.223   4.438  1.00 20.00    -0.394 OA
HETATM   10  H22 UNL     1     -33.054   6.647   5.094  1.00 20.00     0.210 HD
ENDBRANCH   5   9
ENDBRANCH   3   5
TORSDOF 4
ENDMDL
MODEL 7
REMARK VINA RESULT:      -4.1     16.725     18.274
REMARK  4 active torsions:
REMARK  status: ('A' for Active; 'I' for Inactive)
REMARK    1  A    between atoms: C4_4  and  C5_5 
REMARK    2  A    between atoms: C5_5  and  C7_7 
REMARK    3  A    between atoms: C6_6  and  C7_7 
REMARK    4  A    between atoms: C7_7  and  O9_9 
ROOT
HETATM    1  C1  UNL     1     -25.223  18.015  11.430  1.00 20.00     0.066 C 
HETATM    2  C3  UNL     1     -24.485  15.690  11.704  1.00 20.00     0.028 C 
HETATM    3  C6  UNL     1     -24.564  16.883  10.748  1.00 20.00     0.117 C 
HETATM    4  N8  UNL     1     -25.741  18.906  11.964  1.00 20.00    -0.197 NA
ENDROOT
BRANCH   3   5
HETATM    5  C7  UNL     1     -23.166  17.261  10.212  1.00 20.00     0.135 C 
BRANCH   5   6
HETATM    6  C5  UNL     1     -23.163  18.599   9.453  1.00 20.00     0.033 C 
BRANCH   6   7
HETATM    7  C4  UNL     1     -23.594  18.446   7.990  1.00 20.00    -0.002 C 
HETATM    8  C2  UNL     1     -24.958  19.075   7.746  1.00 20.00     0.005 C 
ENDBRANCH   6   7
ENDBRANCH   5   6
BRANCH   5   9
HETATM    9  O9  UNL     1     -22.680  16.216   9.371  1.00 20.00    -0.394 OA
HETATM   10  H22 UNL     1     -23.442  15.656   9.158  1.00 20.00     0.210 HD
ENDBRANCH   5   9
ENDBRANCH   3   5
TORSDOF 4
ENDMDL
MODEL 8
REMARK VINA RESULT:      -4.1      1.436      1.916
REMARK  4 active torsions:
REMARK  status: ('A' for Active; 'I' for Inactive)
REMARK    1  A    between atoms: C4_4  and  C5_5 
REMARK    2  A    between atoms: C5_5  and  C7_7 
REMARK    3  A    between atoms: C6_6  and  C7_7 
REMARK    4  A    between atoms: C7_7  and  O9_9 
ROOT
HETATM    1  C1  UNL     1     -35.886  14.377  -6.133  1.00 20.00     0.066 C 
HETATM    2  C3  UNL     1     -36.989  14.754  -3.973  1.00 20.00     0.028 C 
HETATM    3  C6  UNL     1     -35.922  13.949  -4.721  1.00 20.00     0.117 C 
HETATM    4  N8  UNL     1     -35.857  14.712  -7.245  1.00 20.00    -0.197 NA
ENDROOT
BRANCH   3   5
HETATM    5  C7  UNL     1     -34.544  14.082  -4.037  1.00 20.00     0.135 C 
BRANCH   5   6
HETATM    6  C5  UNL     1     -34.453  15.313  -3.118  1.00 20.00     0.033 C 
BRANCH   6   7
HETATM    7  C4  UNL     1     -33.159  16.108  -3.327  1.00 20.00    -0.002 C 
HETATM    8  C2  UNL     1     -33.018  17.216  -2.294  1.00 20.00     0.005 C 
ENDBRANCH   6   7
ENDBRANCH   5   6
BRANCH   5   9
HETATM    9  O9  UNL     1     -33.521  14.133  -5.031  1.00 20.00    -0.394 OA
HETATM   10  H22 UNL     1     -33.331  15.071  -5.183  1.00 20.00     0.210 HD
ENDBRANCH   5   9
ENDBRANCH   3   5
TORSDOF 4
ENDMDL
MODEL 9
REMARK VINA RESULT:      -4.0     11.382     11.936
REMARK  4 active torsions:
REMARK  status: ('A' for Active; 'I' for Inactive)
REMARK    1  A    between atoms: C4_4  and  C5_5 
REMARK    2  A    between atoms: C5_5  and  C7_7 
REMARK    3  A    between atoms: C6_6  and  C7_7 
REMARK    4  A    between atoms: C7_7  and  O9_9 
ROOT
HETATM    1  C1  UNL     1     -32.635   7.616   1.701  1.00 20.00     0.066 C 
HETATM    2  C3  UNL     1     -33.371   5.339   2.248  1.00 20.00     0.028 C 
HETATM    3  C6  UNL     1     -32.394   6.466   2.596  1.00 20.00     0.117 C 
HETATM    4  N8  UNL     1     -32.822   8.520   0.998  1.00 20.00    -0.197 NA
ENDROOT
BRANCH   3   5
HETATM    5  C7  UNL     1     -32.502   6.856   4.086  1.00 20.00     0.135 C 
BRANCH   5   6
HETATM    6  C5  UNL     1     -33.958   7.038   4.549  1.00 20.00     0.033 C 
BRANCH   6   7
HETATM    7  C4  UNL     1     -34.201   6.485   5.957  1.00 20.00    -0.002 C 
HETATM    8  C2  UNL     1     -34.795   5.085   5.908  1.00 20.00     0.005 C 
ENDBRANCH   6   7
ENDBRANCH   5   6
BRANCH   5   9
HETATM    9  O9  UNL     1     -31.757   8.050   4.322  1.00 20.00    -0.394 OA
HETATM   10  H22 UNL     1     -30.885   7.914   3.921  1.00 20.00     0.210 HD
ENDBRANCH   5   9
ENDBRANCH   3   5
TORSDOF 4
ENDMDL
