MODEL 1
REMARK VINA RESULT:      -4.5      0.000      0.000
REMARK  4 active torsions:
REMARK  status: ('A' for Active; 'I' for Inactive)
REMARK    1  A    between atoms: C5_5  and  C7_7 
REMARK    2  A    between atoms: C6_6  and  C8_8 
REMARK    3  A    between atoms: C7_7  and  C8_8 
REMARK    4  A    between atoms: C8_8  and  O10_10 
ROOT
HETATM    1  C1  UNL     1     -22.721  16.984   9.073  1.00 20.00     0.067 C 
HETATM    2  C7  UNL     1     -23.999  17.387   9.712  1.00 20.00     0.126 C 
HETATM    3  N9  UNL     1     -21.723  16.666   8.572  1.00 20.00    -0.197 NA
ENDROOT
BRANCH   2   4
HETATM    4  C5  UNL     1     -24.298  18.868   9.397  1.00 20.00     0.018 C 
HETATM    5  C2  UNL     1     -24.834  19.080   7.983  1.00 20.00     0.006 C 
ENDBRANCH   2   4
BRANCH   2   6
HETATM    6  C8  UNL     1     -23.982  17.054  11.242  1.00 20.00     0.070 C 
HETATM    7  C4  UNL     1     -24.614  15.691  11.561  1.00 20.00     0.047 C 
BRANCH   6   8
HETATM    8  C6  UNL     1     -24.662  18.183  12.063  1.00 20.00     0.034 C 
HETATM    9  C3  UNL     1     -26.150  17.974  12.331  1.00 20.00     0.008 C 
ENDBRANCH   6   8
BRANCH   6  10
HETATM   10  O10 UNL     1     -22.609  16.986  11.663  1.00 20.00    -0.389 OA
HETATM   11  H25 UNL     1     -22.282  16.129  11.362  1.00 20.00     0.210 HD
ENDBRANCH   6  10
ENDBRANCH   2   6
TORSDOF 4
ENDMDL
MODEL 2
REMARK VINA RESULT:      -4.3     16.922     18.454
REMARK  4 active torsions:
REMARK  status: ('A' for Active; 'I' for Inactive)
REMARK    1  A    between atoms: C5_5  and  C7_7 
REMARK    2  A    between atoms: C6_6  and  C8_8 
REMARK    3  A    between atoms: C7_7  and  C8_8 
REMARK    4  A    between atoms: C8_8  and  O10_10 
ROOT
HETATM    1  C1  UNL     1     -36.959  14.464  -4.292  1.00 20.00     0.067 C 
HETATM    2  C7  UNL     1     -35.677  15.206  -4.190  1.00 20.00     0.126 C 
HETATM    3  N9  UNL     1     -37.962  13.886  -4.374  1.00 20.00    -0.197 NA
ENDROOT
BRANCH   2   4
HETATM    4  C5  UNL     1     -34.539  14.236  -3.804  1.00 20.00     0.018 C 
HETATM    5  C2  UNL     1     -33.223  14.549  -4.513  1.00 20.00     0.006 C 
ENDBRANCH   2   4
BRANCH   2   6
HETATM    6  C8  UNL     1     -35.821  16.431  -3.225  1.00 20.00     0.070 C 
HETATM    7  C4  UNL     1     -35.413  17.757  -3.883  1.00 20.00     0.047 C 
BRANCH   6   8
HETATM    8  C6  UNL     1     -35.026  16.200  -1.912  1.00 20.00     0.034 C 
HETATM    9  C3  UNL     1     -33.898  17.198  -1.660  1.00 20.00     0.008 C 
ENDBRANCH   6   8
BRANCH   6  10
HETATM   10  O10 UNL     1     -37.209  16.551  -2.870  1.00 20.00    -0.389 OA
HETATM   11  H25 UNL     1     -37.614  15.703  -3.095  1.00 20.00     0.210 HD
ENDBRANCH   6  10
ENDBRANCH   2   6
TORSDOF 4
ENDMDL
MODEL 3
REMARK VINA RESULT:      -4.2     17.535     19.157
REMARK  4 active torsions:
REMARK  status: ('A' for Active; 'I' for Inactive)
REMARK    1  A    between atoms: C5_5  and  C7_7 
REMARK    2  A    between atoms: C6_6  and  C8_8 
REMARK    3  A    between atoms: C7_7  and  C8_8 
REMARK    4  A    between atoms: C8_8  and  O10_10 
ROOT
HETATM    1  C1  UNL     1     -36.856  14.353  -4.136  1.00 20.00     0.067 C 
HETATM    2  C7  UNL     1     -35.545  14.893  -3.696  1.00 20.00     0.126 C 
HETATM    3  N9  UNL     1     -37.880  13.928  -4.478  1.00 20.00    -0.197 NA
ENDROOT
BRANCH   2   4
HETATM    4  C5  UNL     1     -35.749  16.246  -2.980  1.00 20.00     0.018 C 
HETATM    5  C2  UNL     1     -34.865  16.406  -1.746  1.00 20.00     0.006 C 
ENDBRANCH   2   4
BRANCH   2   6
HETATM    6  C8  UNL     1     -34.540  14.954  -4.896  1.00 20.00     0.070 C 
HETATM    7  C4  UNL     1     -33.125  14.500  -4.510  1.00 20.00     0.047 C 
BRANCH   6   8
HETATM    8  C6  UNL     1     -34.512  16.372  -5.524  1.00 20.00     0.034 C 
HETATM    9  C3  UNL     1     -34.485  16.397  -7.051  1.00 20.00     0.008 C 
ENDBRANCH   6   8
BRANCH   6  10
HETATM   10  O10 UNL     1     -35.009  14.047  -5.908  1.00 20.00    -0.389 OA
HETATM   11  H25 UNL     1     -35.888  14.358  -6.157  1.00 20.00     0.210 HD
ENDBRANCH   6  10
ENDBRANCH   2   6
TORSDOF 4
ENDMDL
MODEL 4
REMARK VINA RESULT:      -4.1     18.254     19.909
REMARK  4 active torsions:
REMARK  status: ('A' for Active; 'I' for Inactive)
REMARK    1  A    between atoms: C5_5  and  C7_7 
REMARK    2  A    between atoms: C6_6  and  C8_8 
REMARK    3  A    between atoms: C7_7  and  C8_8 
REMARK    4  A    between atoms: C8_8  and  O10_10 
ROOT
HETATM    1  C1  UNL     1     -37.086  14.297  -4.389  1.00 20.00     0.067 C 
HETATM    2  C7  UNL     1     -35.673  14.747  -4.467  1.00 20.00     0.126 C 
HETATM    3  N9  UNL     1     -38.189  13.941  -4.328  1.00 20.00    -0.197 NA
ENDROOT
BRANCH   2   4
HETATM    4  C5  UNL     1     -35.464  15.976  -3.556  1.00 20.00     0.018 C 
HETATM    5  C2  UNL     1     -34.260  15.832  -2.629  1.00 20.00     0.006 C 
ENDBRANCH   2   4
BRANCH   2   6
HETATM    6  C8  UNL     1     -35.247  14.980  -5.956  1.00 20.00     0.070 C 
HETATM    7  C4  UNL     1     -33.733  14.851  -6.169  1.00 20.00     0.047 C 
BRANCH   6   8
HETATM    8  C6  UNL     1     -35.763  16.350  -6.473  1.00 20.00     0.034 C 
HETATM    9  C3  UNL     1     -34.678  17.283  -7.007  1.00 20.00     0.008 C 
ENDBRANCH   6   8
BRANCH   6  10
HETATM   10  O10 UNL     1     -35.870  13.960  -6.756  1.00 20.00    -0.389 OA
HETATM   11  H25 UNL     1     -35.415  13.137  -6.537  1.00 20.00     0.210 HD
ENDBRANCH   6  10
ENDBRANCH   2   6
TORSDOF 4
ENDMDL
MODEL 5
REMARK VINA RESULT:      -4.0     17.119     18.588
REMARK  4 active torsions:
REMARK  status: ('A' for Active; 'I' for Inactive)
REMARK    1  A    between atoms: C5_5  and  C7_7 
REMARK    2  A    between atoms: C6_6  and  C8_8 
REMARK    3  A    between atoms: C7_7  and  C8_8 
REMARK    4  A    between atoms: C8_8  and  O10_10 
ROOT
HETATM    1  C1  UNL     1     -35.660  13.846  -4.427  1.00 20.00     0.067 C 
HETATM    2  C7  UNL     1     -35.467  15.318  -4.398  1.00 20.00     0.126 C 
HETATM    3  N9  UNL     1     -35.812  12.696  -4.447  1.00 20.00    -0.197 NA
ENDROOT
BRANCH   2   4
HETATM    4  C5  UNL     1     -35.989  15.942  -5.710  1.00 20.00     0.018 C 
HETATM    5  C2  UNL     1     -35.754  15.051  -6.928  1.00 20.00     0.006 C 
ENDBRANCH   2   4
BRANCH   2   6
HETATM    6  C8  UNL     1     -33.977  15.675  -4.074  1.00 20.00     0.070 C 
HETATM    7  C4  UNL     1     -33.005  14.536  -4.413  1.00 20.00     0.047 C 
BRANCH   6   8
HETATM    8  C6  UNL     1     -33.821  16.111  -2.593  1.00 20.00     0.034 C 
HETATM    9  C3  UNL     1     -35.135  16.313  -1.841  1.00 20.00     0.008 C 
ENDBRANCH   6   8
BRANCH   6  10
HETATM   10  O10 UNL     1     -33.606  16.798  -4.891  1.00 20.00    -0.389 OA
HETATM   11  H25 UNL     1     -33.967  17.578  -4.450  1.00 20.00     0.210 HD
ENDBRANCH   6  10
ENDBRANCH   2   6
TORSDOF 4
ENDMDL
MODEL 6
REMARK VINA RESULT:      -4.0     17.081     18.655
REMARK  4 active torsions:
REMARK  status: ('A' for Active; 'I' for Inactive)
REMARK    1  A    between atoms: C5_5  and  C7_7 
REMARK    2  A    between atoms: C6_6  and  C8_8 
REMARK    3  A    between atoms: C7_7  and  C8_8 
REMARK    4  A    between atoms: C8_8  and  O10_10 
ROOT
HETATM    1  C1  UNL     1     -36.629  14.506  -4.578  1.00 20.00     0.067 C 
HETATM    2  C7  UNL     1     -35.551  15.509  -4.767  1.00 20.00     0.126 C 
HETATM    3  N9  UNL     1     -37.474  13.724  -4.432  1.00 20.00    -0.197 NA
ENDROOT
BRANCH   2   4
HETATM    4  C5  UNL     1     -34.265  14.810  -5.258  1.00 20.00     0.018 C 
HETATM    5  C2  UNL     1     -33.975  15.065  -6.735  1.00 20.00     0.006 C 
ENDBRANCH   2   4
BRANCH   2   6
HETATM    6  C8  UNL     1     -35.354  16.363  -3.469  1.00 20.00     0.070 C 
HETATM    7  C4  UNL     1     -35.308  17.871  -3.750  1.00 20.00     0.047 C 
BRANCH   6   8
HETATM    8  C6  UNL     1     -34.090  15.907  -2.692  1.00 20.00     0.034 C 
HETATM    9  C3  UNL     1     -33.073  17.012  -2.416  1.00 20.00     0.008 C 
ENDBRANCH   6   8
BRANCH   6  10
HETATM   10  O10 UNL     1     -36.487  16.132  -2.615  1.00 20.00    -0.389 OA
HETATM   11  H25 UNL     1     -36.279  16.562  -1.776  1.00 20.00     0.210 HD
ENDBRANCH   6  10
ENDBRANCH   2   6
TORSDOF 4
ENDMDL
MODEL 7
REMARK VINA RESULT:      -3.9     17.373     19.093
REMARK  4 active torsions:
REMARK  status: ('A' for Active; 'I' for Inactive)
REMARK    1  A    between atoms: C5_5  and  C7_7 
REMARK    2  A    between atoms: C6_6  and  C8_8 
REMARK    3  A    between atoms: C7_7  and  C8_8 
REMARK    4  A    between atoms: C8_8  and  O10_10 
ROOT
HETATM    1  C1  UNL     1     -35.270  13.732  -4.232  1.00 20.00     0.067 C 
HETATM    2  C7  UNL     1     -34.636  15.054  -3.999  1.00 20.00     0.126 C 
HETATM    3  N9  UNL     1     -35.763  12.697  -4.415  1.00 20.00    -0.197 NA
ENDROOT
BRANCH   2   4
HETATM    4  C5  UNL     1     -35.344  15.778  -2.834  1.00 20.00     0.018 C 
HETATM    5  C2  UNL     1     -34.375  16.509  -1.909  1.00 20.00     0.006 C 
ENDBRANCH   2   4
BRANCH   2   6
HETATM    6  C8  UNL     1     -34.583  15.885  -5.326  1.00 20.00     0.070 C 
HETATM    7  C4  UNL     1     -35.928  16.541  -5.670  1.00 20.00     0.047 C 
BRANCH   6   8
HETATM    8  C6  UNL     1     -34.076  15.014  -6.506  1.00 20.00     0.034 C 
HETATM    9  C3  UNL     1     -34.017  15.731  -7.853  1.00 20.00     0.008 C 
ENDBRANCH   6   8
BRANCH   6  10
HETATM   10  O10 UNL     1     -33.635  16.949  -5.141  1.00 20.00    -0.389 OA
HETATM   11  H25 UNL     1     -33.815  17.317  -4.266  1.00 20.00     0.210 HD
ENDBRANCH   6  10
ENDBRANCH   2   6
TORSDOF 4
ENDMDL
MODEL 8
REMARK VINA RESULT:      -3.9     17.326     18.817
REMARK  4 active torsions:
REMARK  status: ('A' for Active; 'I' for Inactive)
REMARK    1  A    between atoms: C5_5  and  C7_7 
REMARK    2  A    between atoms: C6_6  and  C8_8 
REMARK    3  A    between atoms: C7_7  and  C8_8 
REMARK    4  A    between atoms: C8_8  and  O10_10 
ROOT
HETATM    1  C1  UNL     1     -36.282  14.427  -4.893  1.00 20.00     0.067 C 
HETATM    2  C7  UNL     1     -35.226  15.373  -5.334  1.00 20.00     0.126 C 
HETATM    3  N9  UNL     1     -37.110  13.690  -4.548  1.00 20.00    -0.197 NA
ENDROOT
BRANCH   2   4
HETATM    4  C5  UNL     1     -34.703  14.962  -6.727  1.00 20.00     0.018 C 
HETATM    5  C2  UNL     1     -34.540  16.148  -7.675  1.00 20.00     0.006 C 
ENDBRANCH   2   4
BRANCH   2   6
HETATM    6  C8  UNL     1     -34.106  15.498  -4.246  1.00 20.00     0.070 C 
HETATM    7  C4  UNL     1     -33.023  14.419  -4.380  1.00 20.00     0.047 C 
BRANCH   6   8
HETATM    8  C6  UNL     1     -34.716  15.493  -2.819  1.00 20.00     0.034 C 
HETATM    9  C3  UNL     1     -34.311  16.677  -1.944  1.00 20.00     0.008 C 
ENDBRANCH   6   8
BRANCH   6  10
HETATM   10  O10 UNL     1     -33.456  16.768  -4.428  1.00 20.00    -0.389 OA
HETATM   11  H25 UNL     1     -34.019  17.270  -5.031  1.00 20.00     0.210 HD
ENDBRANCH   6  10
ENDBRANCH   2   6
TORSDOF 4
ENDMDL
MODEL 9
REMARK VINA RESULT:      -3.9     17.461     18.978
REMARK  4 active torsions:
REMARK  status: ('A' for Active; 'I' for Inactive)
REMARK    1  A    between atoms: C5_5  and  C7_7 
REMARK    2  A    between atoms: C6_6  and  C8_8 
REMARK    3  A    between atoms: C7_7  and  C8_8 
REMARK    4  A    between atoms: C8_8  and  O10_10 
ROOT
HETATM    1  C1  UNL     1     -33.587  14.420  -4.350  1.00 20.00     0.067 C 
HETATM    2  C7  UNL     1     -34.911  15.075  -4.193  1.00 20.00     0.126 C 
HETATM    3  N9  UNL     1     -32.552  13.910  -4.474  1.00 20.00    -0.197 NA
ENDROOT
BRANCH   2   4
HETATM    4  C5  UNL     1     -35.168  15.387  -2.704  1.00 20.00     0.018 C 
HETATM    5  C2  UNL     1     -34.242  16.468  -2.152  1.00 20.00     0.006 C 
ENDBRANCH   2   4
BRANCH   2   6
HETATM    6  C8  UNL     1     -36.036  14.218  -4.867  1.00 20.00     0.070 C 
HETATM    7  C4  UNL     1     -36.038  14.338  -6.398  1.00 20.00     0.047 C 
BRANCH   6   8
HETATM    8  C6  UNL     1     -37.429  14.575  -4.283  1.00 20.00     0.034 C 
HETATM    9  C3  UNL     1     -38.092  15.800  -4.910  1.00 20.00     0.008 C 
ENDBRANCH   6   8
BRANCH   6  10
HETATM   10  O10 UNL     1     -35.783  12.838  -4.557  1.00 20.00    -0.389 OA
HETATM   11  H25 UNL     1     -36.066  12.336  -5.332  1.00 20.00     0.210 HD
ENDBRANCH   6  10
ENDBRANCH   2   6
TORSDOF 4
ENDMDL
