MODEL 1
REMARK VINA RESULT:      -4.4      0.000      0.000
REMARK  4 active torsions:
REMARK  status: ('A' for Active; 'I' for Inactive)
REMARK    1  A    between atoms: C4_4  and  C9_9 
REMARK    2  A    between atoms: C7_7  and  C8_8 
REMARK    3  A    between atoms: C8_8  and  C9_9 
REMARK    4  A    between atoms: C9_9  and  O11_11 
ROOT
HETATM    1  C1  UNL     1     -36.706  14.310  -4.135  1.00 20.00     0.067 C 
HETATM    2  C8  UNL     1     -35.391  14.823  -3.678  1.00 20.00     0.126 C 
HETATM    3  N10 UNL     1     -37.733  13.904  -4.493  1.00 20.00    -0.197 NA
ENDROOT
BRANCH   2   4
HETATM    4  C7  UNL     1     -34.400  14.792  -4.867  1.00 20.00     0.018 C 
HETATM    5  C5  UNL     1     -32.972  14.453  -4.448  1.00 20.00     0.006 C 
ENDBRANCH   2   4
BRANCH   2   6
HETATM    6  C9  UNL     1     -35.537  16.243  -3.038  1.00 20.00     0.074 C 
HETATM    7  C6  UNL     1     -35.184  17.333  -4.034  1.00 20.00     0.047 C 
BRANCH   6   8
HETATM    8  C4  UNL     1     -34.639  16.409  -1.797  1.00 20.00     0.021 A 
HETATM    9  C2  UNL     1     -33.496  17.385  -1.814  1.00 20.00     0.008 A 
HETATM   10  C3  UNL     1     -34.711  17.666  -0.974  1.00 20.00     0.008 A 
ENDBRANCH   6   8
BRANCH   6  11
HETATM   11  O11 UNL     1     -36.897  16.430  -2.631  1.00 20.00    -0.388 OA
HETATM   12  H26 UNL     1     -37.115  17.351  -2.835  1.00 20.00     0.210 HD
ENDBRANCH   6  11
ENDBRANCH   2   6
TORSDOF 4
ENDMDL
MODEL 2
REMARK VINA RESULT:      -4.4      2.110      3.804
REMARK  4 active torsions:
REMARK  status: ('A' for Active; 'I' for Inactive)
REMARK    1  A    between atoms: C4_4  and  C9_9 
REMARK    2  A    between atoms: C7_7  and  C8_8 
REMARK    3  A    between atoms: C8_8  and  C9_9 
REMARK    4  A    between atoms: C9_9  and  O11_11 
ROOT
HETATM    1  C1  UNL     1     -36.937  14.553  -4.290  1.00 20.00     0.067 C 
HETATM    2  C8  UNL     1     -35.723  15.401  -4.203  1.00 20.00     0.126 C 
HETATM    3  N10 UNL     1     -37.889  13.892  -4.355  1.00 20.00    -0.197 NA
ENDROOT
BRANCH   2   4
HETATM    4  C7  UNL     1     -35.088  15.225  -2.802  1.00 20.00     0.018 C 
HETATM    5  C5  UNL     1     -35.039  16.522  -1.999  1.00 20.00     0.006 C 
ENDBRANCH   2   4
BRANCH   2   6
HETATM    6  C9  UNL     1     -34.733  15.079  -5.371  1.00 20.00     0.074 C 
HETATM    7  C6  UNL     1     -33.390  14.613  -4.839  1.00 20.00     0.047 C 
BRANCH   6   8
HETATM    8  C4  UNL     1     -34.498  16.303  -6.279  1.00 20.00     0.021 A 
HETATM    9  C2  UNL     1     -34.177  16.114  -7.735  1.00 20.00     0.008 A 
HETATM   10  C3  UNL     1     -35.511  16.673  -7.326  1.00 20.00     0.008 A 
ENDBRANCH   6   8
BRANCH   6  11
HETATM   11  O11 UNL     1     -35.287  14.031  -6.173  1.00 20.00    -0.388 OA
HETATM   12  H26 UNL     1     -34.642  13.859  -6.875  1.00 20.00     0.210 HD
ENDBRANCH   6  11
ENDBRANCH   2   6
TORSDOF 4
ENDMDL
MODEL 3
REMARK VINA RESULT:      -4.3      1.028      1.130
REMARK  4 active torsions:
REMARK  status: ('A' for Active; 'I' for Inactive)
REMARK    1  A    between atoms: C4_4  and  C9_9 
REMARK    2  A    between atoms: C7_7  and  C8_8 
REMARK    3  A    between atoms: C8_8  and  C9_9 
REMARK    4  A    between atoms: C9_9  and  O11_11 
ROOT
HETATM    1  C1  UNL     1     -37.089  14.379  -4.437  1.00 20.00     0.067 C 
HETATM    2  C8  UNL     1     -35.727  14.961  -4.504  1.00 20.00     0.126 C 
HETATM    3  N10 UNL     1     -38.154  13.921  -4.387  1.00 20.00    -0.197 NA
ENDROOT
BRANCH   2   4
HETATM    4  C7  UNL     1     -35.429  15.372  -5.967  1.00 20.00     0.018 C 
HETATM    5  C5  UNL     1     -34.035  14.959  -6.433  1.00 20.00     0.006 C 
ENDBRANCH   2   4
BRANCH   2   6
HETATM    6  C9  UNL     1     -35.573  16.144  -3.491  1.00 20.00     0.074 C 
HETATM    7  C6  UNL     1     -35.427  17.470  -4.215  1.00 20.00     0.047 C 
BRANCH   6   8
HETATM    8  C4  UNL     1     -34.353  15.956  -2.569  1.00 20.00     0.021 A 
HETATM    9  C2  UNL     1     -33.046  16.621  -2.898  1.00 20.00     0.008 A 
HETATM   10  C3  UNL     1     -33.858  17.099  -1.726  1.00 20.00     0.008 A 
ENDBRANCH   6   8
BRANCH   6  11
HETATM   11  O11 UNL     1     -36.745  16.206  -2.671  1.00 20.00    -0.388 OA
HETATM   12  H26 UNL     1     -36.692  15.451  -2.068  1.00 20.00     0.210 HD
ENDBRANCH   6  11
ENDBRANCH   2   6
TORSDOF 4
ENDMDL
MODEL 4
REMARK VINA RESULT:      -4.3      2.183      3.686
REMARK  4 active torsions:
REMARK  status: ('A' for Active; 'I' for Inactive)
REMARK    1  A    between atoms: C4_4  and  C9_9 
REMARK    2  A    between atoms: C7_7  and  C8_8 
REMARK    3  A    between atoms: C8_8  and  C9_9 
REMARK    4  A    between atoms: C9_9  and  O11_11 
ROOT
HETATM    1  C1  UNL     1     -37.089  14.496  -4.463  1.00 20.00     0.067 C 
HETATM    2  C8  UNL     1     -35.838  15.275  -4.632  1.00 20.00     0.126 C 
HETATM    3  N10 UNL     1     -38.068  13.888  -4.328  1.00 20.00    -0.197 NA
ENDROOT
BRANCH   2   4
HETATM    4  C7  UNL     1     -34.850  14.889  -3.504  1.00 20.00     0.018 C 
HETATM    5  C5  UNL     1     -34.825  15.897  -2.358  1.00 20.00     0.006 C 
ENDBRANCH   2   4
BRANCH   2   6
HETATM    6  C9  UNL     1     -35.243  15.074  -6.065  1.00 20.00     0.074 C 
HETATM    7  C6  UNL     1     -33.748  14.816  -6.006  1.00 20.00     0.047 C 
BRANCH   6   8
HETATM    8  C4  UNL     1     -35.491  16.298  -6.967  1.00 20.00     0.021 A 
HETATM    9  C2  UNL     1     -36.188  17.513  -6.421  1.00 20.00     0.008 A 
HETATM   10  C3  UNL     1     -34.721  17.570  -6.745  1.00 20.00     0.008 A 
ENDBRANCH   6   8
BRANCH   6  11
HETATM   11  O11 UNL     1     -35.871  13.940  -6.672  1.00 20.00    -0.388 OA
HETATM   12  H26 UNL     1     -36.680  14.270  -7.088  1.00 20.00     0.210 HD
ENDBRANCH   6  11
ENDBRANCH   2   6
TORSDOF 4
ENDMDL
MODEL 5
REMARK VINA RESULT:      -4.2      2.630      3.434
REMARK  4 active torsions:
REMARK  status: ('A' for Active; 'I' for Inactive)
REMARK    1  A    between atoms: C4_4  and  C9_9 
REMARK    2  A    between atoms: C7_7  and  C8_8 
REMARK    3  A    between atoms: C8_8  and  C9_9 
REMARK    4  A    between atoms: C9_9  and  O11_11 
ROOT
HETATM    1  C1  UNL     1     -34.355  15.682  -6.808  1.00 20.00     0.067 C 
HETATM    2  C8  UNL     1     -34.752  15.873  -5.392  1.00 20.00     0.126 C 
HETATM    3  N10 UNL     1     -34.047  15.535  -7.918  1.00 20.00    -0.197 NA
ENDROOT
BRANCH   2   4
HETATM    4  C7  UNL     1     -36.279  15.653  -5.265  1.00 20.00     0.018 C 
HETATM    5  C5  UNL     1     -37.009  16.852  -4.665  1.00 20.00     0.006 C 
ENDBRANCH   2   4
BRANCH   2   6
HETATM    6  C9  UNL     1     -33.917  14.946  -4.448  1.00 20.00     0.074 C 
HETATM    7  C6  UNL     1     -34.785  13.860  -3.838  1.00 20.00     0.047 C 
BRANCH   6   8
HETATM    8  C4  UNL     1     -33.254  15.738  -3.304  1.00 20.00     0.021 A 
HETATM    9  C2  UNL     1     -33.327  17.239  -3.282  1.00 20.00     0.008 A 
HETATM   10  C3  UNL     1     -34.101  16.434  -2.275  1.00 20.00     0.008 A 
ENDBRANCH   6   8
BRANCH   6  11
HETATM   11  O11 UNL     1     -32.883  14.317  -5.211  1.00 20.00    -0.388 OA
HETATM   12  H26 UNL     1     -33.295  13.561  -5.653  1.00 20.00     0.210 HD
ENDBRANCH   6  11
ENDBRANCH   2   6
TORSDOF 4
ENDMDL
MODEL 6
REMARK VINA RESULT:      -4.1      1.661      2.724
REMARK  4 active torsions:
REMARK  status: ('A' for Active; 'I' for Inactive)
REMARK    1  A    between atoms: C4_4  and  C9_9 
REMARK    2  A    between atoms: C7_7  and  C8_8 
REMARK    3  A    between atoms: C8_8  and  C9_9 
REMARK    4  A    between atoms: C9_9  and  O11_11 
ROOT
HETATM    1  C1  UNL     1     -36.188  13.768  -4.629  1.00 20.00     0.067 C 
HETATM    2  C8  UNL     1     -36.460  15.192  -4.940  1.00 20.00     0.126 C 
HETATM    3  N10 UNL     1     -35.979  12.652  -4.387  1.00 20.00    -0.197 NA
ENDROOT
BRANCH   2   4
HETATM    4  C7  UNL     1     -37.645  15.678  -4.070  1.00 20.00     0.018 C 
HETATM    5  C5  UNL     1     -38.905  14.835  -4.249  1.00 20.00     0.006 C 
ENDBRANCH   2   4
BRANCH   2   6
HETATM    6  C9  UNL     1     -35.170  16.060  -4.760  1.00 20.00     0.074 C 
HETATM    7  C6  UNL     1     -34.328  16.059  -6.022  1.00 20.00     0.047 C 
BRANCH   6   8
HETATM    8  C4  UNL     1     -34.298  15.557  -3.592  1.00 20.00     0.021 A 
HETATM    9  C2  UNL     1     -33.280  16.465  -2.963  1.00 20.00     0.008 A 
HETATM   10  C3  UNL     1     -34.519  16.084  -2.202  1.00 20.00     0.008 A 
ENDBRANCH   6   8
BRANCH   6  11
HETATM   11  O11 UNL     1     -35.555  17.409  -4.477  1.00 20.00    -0.388 OA
HETATM   12  H26 UNL     1     -36.335  17.587  -5.021  1.00 20.00     0.210 HD
ENDBRANCH   6  11
ENDBRANCH   2   6
TORSDOF 4
ENDMDL
MODEL 7
REMARK VINA RESULT:      -4.1      2.199      3.970
REMARK  4 active torsions:
REMARK  status: ('A' for Active; 'I' for Inactive)
REMARK    1  A    between atoms: C4_4  and  C9_9 
REMARK    2  A    between atoms: C7_7  and  C8_8 
REMARK    3  A    between atoms: C8_8  and  C9_9 
REMARK    4  A    between atoms: C9_9  and  O11_11 
ROOT
HETATM    1  C1  UNL     1     -35.670  13.873  -4.314  1.00 20.00     0.067 C 
HETATM    2  C8  UNL     1     -35.439  15.320  -4.084  1.00 20.00     0.126 C 
HETATM    3  N10 UNL     1     -35.852  12.740  -4.491  1.00 20.00    -0.197 NA
ENDROOT
BRANCH   2   4
HETATM    4  C7  UNL     1     -34.452  15.489  -2.903  1.00 20.00     0.018 C 
HETATM    5  C5  UNL     1     -35.018  16.336  -1.766  1.00 20.00     0.006 C 
ENDBRANCH   2   4
BRANCH   2   6
HETATM    6  C9  UNL     1     -34.953  16.024  -5.394  1.00 20.00     0.074 C 
HETATM    7  C6  UNL     1     -35.953  17.068  -5.859  1.00 20.00     0.047 C 
BRANCH   6   8
HETATM    8  C4  UNL     1     -34.734  15.017  -6.540  1.00 20.00     0.021 A 
HETATM    9  C2  UNL     1     -35.420  15.214  -7.863  1.00 20.00     0.008 A 
HETATM   10  C3  UNL     1     -33.934  15.411  -7.751  1.00 20.00     0.008 A 
ENDBRANCH   6   8
BRANCH   6  11
HETATM   11  O11 UNL     1     -33.708  16.679  -5.134  1.00 20.00    -0.388 OA
HETATM   12  H26 UNL     1     -33.618  17.366  -5.810  1.00 20.00     0.210 HD
ENDBRANCH   6  11
ENDBRANCH   2   6
TORSDOF 4
ENDMDL
MODEL 8
REMARK VINA RESULT:      -4.0      2.630      4.442
REMARK  4 active torsions:
REMARK  status: ('A' for Active; 'I' for Inactive)
REMARK    1  A    between atoms: C4_4  and  C9_9 
REMARK    2  A    between atoms: C7_7  and  C8_8 
REMARK    3  A    between atoms: C8_8  and  C9_9 
REMARK    4  A    between atoms: C9_9  and  O11_11 
ROOT
HETATM    1  C1  UNL     1     -33.307  17.079  -3.349  1.00 20.00     0.067 C 
HETATM    2  C8  UNL     1     -33.852  15.748  -2.987  1.00 20.00     0.126 C 
HETATM    3  N10 UNL     1     -32.880  18.122  -3.628  1.00 20.00    -0.197 NA
ENDROOT
BRANCH   2   4
HETATM    4  C7  UNL     1     -35.252  15.935  -2.354  1.00 20.00     0.018 C 
HETATM    5  C5  UNL     1     -35.228  16.791  -1.090  1.00 20.00     0.006 C 
ENDBRANCH   2   4
BRANCH   2   6
HETATM    6  C9  UNL     1     -33.861  14.793  -4.226  1.00 20.00     0.074 C 
HETATM    7  C6  UNL     1     -32.461  14.306  -4.554  1.00 20.00     0.047 C 
BRANCH   6   8
HETATM    8  C4  UNL     1     -34.443  15.480  -5.477  1.00 20.00     0.021 A 
HETATM    9  C2  UNL     1     -34.005  15.050  -6.849  1.00 20.00     0.008 A 
HETATM   10  C3  UNL     1     -35.396  14.739  -6.373  1.00 20.00     0.008 A 
ENDBRANCH   6   8
BRANCH   6  11
HETATM   11  O11 UNL     1     -34.674  13.654  -3.926  1.00 20.00    -0.388 OA
HETATM   12  H26 UNL     1     -34.615  13.524  -2.969  1.00 20.00     0.210 HD
ENDBRANCH   6  11
ENDBRANCH   2   6
TORSDOF 4
ENDMDL
MODEL 9
REMARK VINA RESULT:      -4.0      2.351      3.031
REMARK  4 active torsions:
REMARK  status: ('A' for Active; 'I' for Inactive)
REMARK    1  A    between atoms: C4_4  and  C9_9 
REMARK    2  A    between atoms: C7_7  and  C8_8 
REMARK    3  A    between atoms: C8_8  and  C9_9 
REMARK    4  A    between atoms: C9_9  and  O11_11 
ROOT
HETATM    1  C1  UNL     1     -34.892  16.974  -6.035  1.00 20.00     0.067 C 
HETATM    2  C8  UNL     1     -35.084  16.012  -4.922  1.00 20.00     0.126 C 
HETATM    3  N10 UNL     1     -34.746  17.726  -6.907  1.00 20.00    -0.197 NA
ENDROOT
BRANCH   2   4
HETATM    4  C7  UNL     1     -35.550  14.656  -5.506  1.00 20.00     0.018 C 
HETATM    5  C5  UNL     1     -36.605  13.965  -4.646  1.00 20.00     0.006 C 
ENDBRANCH   2   4
BRANCH   2   6
HETATM    6  C9  UNL     1     -33.786  15.894  -4.056  1.00 20.00     0.074 C 
HETATM    7  C6  UNL     1     -33.010  14.635  -4.399  1.00 20.00     0.047 C 
BRANCH   6   8
HETATM    8  C4  UNL     1     -34.102  15.875  -2.547  1.00 20.00     0.021 A 
HETATM    9  C2  UNL     1     -34.010  17.139  -1.739  1.00 20.00     0.008 A 
HETATM   10  C3  UNL     1     -35.353  16.528  -2.028  1.00 20.00     0.008 A 
ENDBRANCH   6   8
BRANCH   6  11
HETATM   11  O11 UNL     1     -32.948  17.024  -4.320  1.00 20.00    -0.388 OA
HETATM   12  H26 UNL     1     -33.413  17.556  -4.982  1.00 20.00     0.210 HD
ENDBRANCH   6  11
ENDBRANCH   2   6
TORSDOF 4
ENDMDL
