MODEL 1
REMARK VINA RESULT:      -5.2      0.000      0.000
REMARK  1 active torsions:
REMARK  status: ('A' for Active; 'I' for Inactive)
REMARK    1  A    between atoms: C6_6  and  C10_10 
ROOT
HETATM    1  C1  UNL     1     -31.611   7.892   2.707  1.00 20.00    -0.025 A 
HETATM    2  C2  UNL     1     -32.060   7.203   3.767  1.00 20.00    -0.020 A 
HETATM    3  C3  UNL     1     -33.053   5.195   2.501  1.00 20.00     0.020 A 
HETATM    4  C4  UNL     1     -32.444   7.559   1.486  1.00 20.00     0.009 A 
HETATM    5  C5  UNL     1     -33.472   6.548   1.985  1.00 20.00     0.006 A 
HETATM    6  C6  UNL     1     -33.226   6.339   3.472  1.00 20.00    -0.015 A 
HETATM    7  C7  UNL     1     -33.111   8.806   0.917  1.00 20.00     0.014 C 
ENDROOT
BRANCH   6   8
HETATM    8  C10 UNL     1     -34.381   6.343   4.418  1.00 20.00    -0.010 C 
HETATM    9  C8  UNL     1     -35.032   4.953   4.529  1.00 20.00     0.010 C 
HETATM   10  C9  UNL     1     -33.968   6.824   5.821  1.00 20.00     0.010 C 
ENDBRANCH   6   8
TORSDOF 1
ENDMDL
MODEL 2
REMARK VINA RESULT:      -4.5     10.724     11.703
REMARK  1 active torsions:
REMARK  status: ('A' for Active; 'I' for Inactive)
REMARK    1  A    between atoms: C6_6  and  C10_10 
ROOT
HETATM    1  C1  UNL     1     -35.639  15.969  -5.395  1.00 20.00    -0.025 A 
HETATM    2  C2  UNL     1     -34.748  16.652  -4.659  1.00 20.00    -0.020 A 
HETATM    3  C3  UNL     1     -33.062  14.747  -4.269  1.00 20.00     0.020 A 
HETATM    4  C4  UNL     1     -35.578  14.497  -5.041  1.00 20.00     0.009 A 
HETATM    5  C5  UNL     1     -34.498  14.402  -3.967  1.00 20.00     0.006 A 
HETATM    6  C6  UNL     1     -33.980  15.810  -3.713  1.00 20.00    -0.015 A 
HETATM    7  C7  UNL     1     -36.924  13.998  -4.530  1.00 20.00     0.014 C 
ENDROOT
BRANCH   6   8
HETATM    8  C10 UNL     1     -33.800  16.287  -2.309  1.00 20.00    -0.010 C 
HETATM    9  C8  UNL     1     -32.856  17.501  -2.237  1.00 20.00     0.010 C 
HETATM   10  C9  UNL     1     -35.144  16.647  -1.653  1.00 20.00     0.010 C 
ENDBRANCH   6   8
TORSDOF 1
ENDMDL
MODEL 3
REMARK VINA RESULT:      -4.4     10.648     11.681
REMARK  1 active torsions:
REMARK  status: ('A' for Active; 'I' for Inactive)
REMARK    1  A    between atoms: C6_6  and  C10_10 
ROOT
HETATM    1  C1  UNL     1     -34.041  16.812  -1.777  1.00 20.00    -0.025 A 
HETATM    2  C2  UNL     1     -35.110  16.060  -2.087  1.00 20.00    -0.020 A 
HETATM    3  C3  UNL     1     -33.983  14.523  -3.815  1.00 20.00     0.020 A 
HETATM    4  C4  UNL     1     -33.084  16.853  -2.951  1.00 20.00     0.009 A 
HETATM    5  C5  UNL     1     -33.750  15.998  -4.023  1.00 20.00     0.006 A 
HETATM    6  C6  UNL     1     -35.075  15.504  -3.458  1.00 20.00    -0.015 A 
HETATM    7  C7  UNL     1     -32.862  18.283  -3.429  1.00 20.00     0.014 C 
ENDROOT
BRANCH   6   8
HETATM    8  C10 UNL     1     -36.308  15.580  -4.297  1.00 20.00    -0.010 C 
HETATM    9  C8  UNL     1     -36.992  14.208  -4.431  1.00 20.00     0.010 C 
HETATM   10  C9  UNL     1     -37.317  16.599  -3.736  1.00 20.00     0.010 C 
ENDBRANCH   6   8
TORSDOF 1
ENDMDL
MODEL 4
REMARK VINA RESULT:      -4.4     10.851     12.049
REMARK  1 active torsions:
REMARK  status: ('A' for Active; 'I' for Inactive)
REMARK    1  A    between atoms: C6_6  and  C10_10 
ROOT
HETATM    1  C1  UNL     1     -34.788  16.191  -1.965  1.00 20.00    -0.025 A 
HETATM    2  C2  UNL     1     -35.454  15.604  -2.973  1.00 20.00    -0.020 A 
HETATM    3  C3  UNL     1     -33.432  14.592  -4.202  1.00 20.00     0.020 A 
HETATM    4  C4  UNL     1     -33.381  16.534  -2.410  1.00 20.00     0.009 A 
HETATM    5  C5  UNL     1     -33.304  16.054  -3.856  1.00 20.00     0.006 A 
HETATM    6  C6  UNL     1     -34.662  15.469  -4.217  1.00 20.00    -0.015 A 
HETATM    7  C7  UNL     1     -33.119  18.031  -2.300  1.00 20.00     0.014 C 
ENDROOT
BRANCH   6   8
HETATM    8  C10 UNL     1     -35.299  15.834  -5.518  1.00 20.00    -0.010 C 
HETATM    9  C8  UNL     1     -35.649  14.588  -6.350  1.00 20.00     0.010 C 
HETATM   10  C9  UNL     1     -36.567  16.682  -5.313  1.00 20.00     0.010 C 
ENDBRANCH   6   8
TORSDOF 1
ENDMDL
MODEL 5
REMARK VINA RESULT:      -4.3     11.011     12.207
REMARK  1 active torsions:
REMARK  status: ('A' for Active; 'I' for Inactive)
REMARK    1  A    between atoms: C6_6  and  C10_10 
ROOT
HETATM    1  C1  UNL     1     -32.377  18.997  -2.488  1.00 20.00    -0.025 A 
HETATM    2  C2  UNL     1     -33.220  18.189  -3.150  1.00 20.00    -0.020 A 
HETATM    3  C3  UNL     1     -34.978  17.898  -1.294  1.00 20.00     0.020 A 
HETATM    4  C4  UNL     1     -32.494  18.751  -0.997  1.00 20.00     0.009 A 
HETATM    5  C5  UNL     1     -33.551  17.660  -0.867  1.00 20.00     0.006 A 
HETATM    6  C6  UNL     1     -34.002  17.289  -2.273  1.00 20.00    -0.015 A 
HETATM    7  C7  UNL     1     -31.159  18.315  -0.406  1.00 20.00     0.014 C 
ENDROOT
BRANCH   6   8
HETATM    8  C10 UNL     1     -34.129  15.849  -2.650  1.00 20.00    -0.010 C 
HETATM    9  C8  UNL     1     -35.560  15.501  -3.097  1.00 20.00     0.010 C 
HETATM   10  C9  UNL     1     -33.139  15.462  -3.764  1.00 20.00     0.010 C 
ENDBRANCH   6   8
TORSDOF 1
ENDMDL
MODEL 6
REMARK VINA RESULT:      -4.1     10.572     12.129
REMARK  1 active torsions:
REMARK  status: ('A' for Active; 'I' for Inactive)
REMARK    1  A    between atoms: C6_6  and  C10_10 
ROOT
HETATM    1  C1  UNL     1     -33.784  14.344  -4.124  1.00 20.00    -0.025 A 
HETATM    2  C2  UNL     1     -33.287  15.551  -3.809  1.00 20.00    -0.020 A 
HETATM    3  C3  UNL     1     -34.887  16.106  -1.871  1.00 20.00     0.020 A 
HETATM    4  C4  UNL     1     -35.248  14.275  -3.743  1.00 20.00     0.009 A 
HETATM    5  C5  UNL     1     -35.556  15.642  -3.140  1.00 20.00     0.006 A 
HETATM    6  C6  UNL     1     -34.280  16.470  -3.206  1.00 20.00    -0.015 A 
HETATM    7  C7  UNL     1     -36.120  13.987  -4.959  1.00 20.00     0.014 C 
ENDROOT
BRANCH   6   8
HETATM    8  C10 UNL     1     -34.341  17.881  -3.691  1.00 20.00    -0.010 C 
HETATM    9  C8  UNL     1     -33.283  18.764  -3.007  1.00 20.00     0.010 C 
HETATM   10  C9  UNL     1     -34.166  17.967  -5.218  1.00 20.00     0.010 C 
ENDBRANCH   6   8
TORSDOF 1
ENDMDL
MODEL 7
REMARK VINA RESULT:      -4.1     10.925     11.793
REMARK  1 active torsions:
REMARK  status: ('A' for Active; 'I' for Inactive)
REMARK    1  A    between atoms: C6_6  and  C10_10 
ROOT
HETATM    1  C1  UNL     1     -33.481  14.715  -5.248  1.00 20.00    -0.025 A 
HETATM    2  C2  UNL     1     -33.460  14.981  -3.932  1.00 20.00    -0.020 A 
HETATM    3  C3  UNL     1     -36.002  15.039  -3.534  1.00 20.00     0.020 A 
HETATM    4  C4  UNL     1     -34.762  15.244  -5.859  1.00 20.00     0.009 A 
HETATM    5  C5  UNL     1     -35.517  15.873  -4.692  1.00 20.00     0.006 A 
HETATM    6  C6  UNL     1     -34.653  15.714  -3.449  1.00 20.00    -0.015 A 
HETATM    7  C7  UNL     1     -34.469  16.263  -6.954  1.00 20.00     0.014 C 
ENDROOT
BRANCH   6   8
HETATM    8  C10 UNL     1     -34.460  16.876  -2.532  1.00 20.00    -0.010 C 
HETATM    9  C8  UNL     1     -35.179  16.667  -1.187  1.00 20.00     0.010 C 
HETATM   10  C9  UNL     1     -32.969  17.157  -2.273  1.00 20.00     0.010 C 
ENDBRANCH   6   8
TORSDOF 1
ENDMDL
MODEL 8
REMARK VINA RESULT:      -4.0      9.233     10.373
REMARK  1 active torsions:
REMARK  status: ('A' for Active; 'I' for Inactive)
REMARK    1  A    between atoms: C6_6  and  C10_10 
ROOT
HETATM    1  C1  UNL     1     -41.276   5.209  -1.168  1.00 20.00    -0.025 A 
HETATM    2  C2  UNL     1     -41.117   6.356  -0.489  1.00 20.00    -0.020 A 
HETATM    3  C3  UNL     1     -42.876   5.941   1.343  1.00 20.00     0.020 A 
HETATM    4  C4  UNL     1     -42.688   4.691  -0.979  1.00 20.00     0.009 A 
HETATM    5  C5  UNL     1     -43.357   5.716  -0.068  1.00 20.00     0.006 A 
HETATM    6  C6  UNL     1     -42.333   6.803   0.228  1.00 20.00    -0.015 A 
HETATM    7  C7  UNL     1     -43.412   4.567  -2.314  1.00 20.00     0.014 C 
ENDROOT
BRANCH   6   8
HETATM    8  C10 UNL     1     -42.735   8.239   0.136  1.00 20.00    -0.010 C 
HETATM    9  C8  UNL     1     -41.534   9.180   0.331  1.00 20.00     0.010 C 
HETATM   10  C9  UNL     1     -43.416   8.555  -1.208  1.00 20.00     0.010 C 
ENDBRANCH   6   8
TORSDOF 1
ENDMDL
MODEL 9
REMARK VINA RESULT:      -4.0     10.713     12.029
REMARK  1 active torsions:
REMARK  status: ('A' for Active; 'I' for Inactive)
REMARK    1  A    between atoms: C6_6  and  C10_10 
ROOT
HETATM    1  C1  UNL     1     -35.599  17.141  -1.378  1.00 20.00    -0.025 A 
HETATM    2  C2  UNL     1     -35.025  16.016  -1.832  1.00 20.00    -0.020 A 
HETATM    3  C3  UNL     1     -32.926  17.077  -2.877  1.00 20.00     0.020 A 
HETATM    4  C4  UNL     1     -35.167  18.319  -2.228  1.00 20.00     0.009 A 
HETATM    5  C5  UNL     1     -34.232  17.718  -3.273  1.00 20.00     0.006 A 
HETATM    6  C6  UNL     1     -34.162  16.219  -3.018  1.00 20.00    -0.015 A 
HETATM    7  C7  UNL     1     -36.368  19.001  -2.874  1.00 20.00     0.014 C 
ENDROOT
BRANCH   6   8
HETATM    8  C10 UNL     1     -34.281  15.271  -4.165  1.00 20.00    -0.010 C 
HETATM    9  C8  UNL     1     -32.994  14.450  -4.363  1.00 20.00     0.010 C 
HETATM   10  C9  UNL     1     -35.474  14.313  -3.992  1.00 20.00     0.010 C 
ENDBRANCH   6   8
TORSDOF 1
ENDMDL
