MODEL 1
REMARK VINA RESULT:      -4.4      0.000      0.000
REMARK  1 active torsions:
REMARK  status: ('A' for Active; 'I' for Inactive)
REMARK    1  A    between atoms: C6_6  and  C10_10 
ROOT
HETATM    1  C1  UNL     1     -33.020  17.553  -2.198  1.00 20.00    -0.025 A 
HETATM    2  C2  UNL     1     -33.331  16.845  -3.297  1.00 20.00    -0.020 A 
HETATM    3  C3  UNL     1     -35.870  16.655  -2.929  1.00 20.00     0.020 A 
HETATM    4  C4  UNL     1     -34.026  17.263  -1.103  1.00 20.00     0.009 A 
HETATM    5  C5  UNL     1     -35.023  16.295  -1.732  1.00 20.00     0.006 A 
HETATM    6  C6  UNL     1     -34.531  15.992  -3.142  1.00 20.00    -0.015 A 
HETATM    7  C7  UNL     1     -34.698  18.520  -0.574  1.00 20.00     0.014 C 
ENDROOT
BRANCH   6   8
HETATM    8  C10 UNL     1     -34.470  14.576  -3.615  1.00 20.00    -0.010 C 
HETATM    9  C8  UNL     1     -35.698  14.206  -4.466  1.00 20.00     0.010 C 
HETATM   10  C9  UNL     1     -33.189  14.298  -4.420  1.00 20.00     0.010 C 
ENDBRANCH   6   8
TORSDOF 1
ENDMDL
MODEL 2
REMARK VINA RESULT:      -4.3      1.083      4.166
REMARK  1 active torsions:
REMARK  status: ('A' for Active; 'I' for Inactive)
REMARK    1  A    between atoms: C6_6  and  C10_10 
ROOT
HETATM    1  C1  UNL     1     -35.230  15.547  -2.671  1.00 20.00    -0.025 A 
HETATM    2  C2  UNL     1     -35.045  16.731  -2.064  1.00 20.00    -0.020 A 
HETATM    3  C3  UNL     1     -33.325  17.735  -3.691  1.00 20.00     0.020 A 
HETATM    4  C4  UNL     1     -33.979  15.164  -3.434  1.00 20.00     0.009 A 
HETATM    5  C5  UNL     1     -33.020  16.332  -3.226  1.00 20.00     0.006 A 
HETATM    6  C6  UNL     1     -33.706  17.320  -2.292  1.00 20.00    -0.015 A 
HETATM    7  C7  UNL     1     -34.248  14.895  -4.906  1.00 20.00     0.014 C 
ENDROOT
BRANCH   6   8
HETATM    8  C10 UNL     1     -32.958  17.874  -1.122  1.00 20.00    -0.010 C 
HETATM    9  C8  UNL     1     -32.235  19.185  -1.478  1.00 20.00     0.010 C 
HETATM   10  C9  UNL     1     -33.881  18.111   0.085  1.00 20.00     0.010 C 
ENDBRANCH   6   8
TORSDOF 1
ENDMDL
MODEL 3
REMARK VINA RESULT:      -4.2      1.274      1.782
REMARK  1 active torsions:
REMARK  status: ('A' for Active; 'I' for Inactive)
REMARK    1  A    between atoms: C6_6  and  C10_10 
ROOT
HETATM    1  C1  UNL     1     -33.725  17.877  -4.098  1.00 20.00    -0.025 A 
HETATM    2  C2  UNL     1     -34.726  17.111  -4.564  1.00 20.00    -0.020 A 
HETATM    3  C3  UNL     1     -35.171  15.724  -2.445  1.00 20.00     0.020 A 
HETATM    4  C4  UNL     1     -32.981  17.136  -3.007  1.00 20.00     0.009 A 
HETATM    5  C5  UNL     1     -33.721  15.811  -2.858  1.00 20.00     0.006 A 
HETATM    6  C6  UNL     1     -34.822  15.787  -3.911  1.00 20.00    -0.015 A 
HETATM    7  C7  UNL     1     -32.923  17.915  -1.702  1.00 20.00     0.014 C 
ENDROOT
BRANCH   6   8
HETATM    8  C10 UNL     1     -34.998  14.575  -4.769  1.00 20.00    -0.010 C 
HETATM    9  C8  UNL     1     -36.331  13.862  -4.481  1.00 20.00     0.010 C 
HETATM   10  C9  UNL     1     -34.916  14.920  -6.266  1.00 20.00     0.010 C 
ENDBRANCH   6   8
TORSDOF 1
ENDMDL
MODEL 4
REMARK VINA RESULT:      -4.2     10.714     11.739
REMARK  1 active torsions:
REMARK  status: ('A' for Active; 'I' for Inactive)
REMARK    1  A    between atoms: C6_6  and  C10_10 
ROOT
HETATM    1  C1  UNL     1     -31.788   8.038   2.888  1.00 20.00    -0.025 A 
HETATM    2  C2  UNL     1     -32.138   7.178   3.859  1.00 20.00    -0.020 A 
HETATM    3  C3  UNL     1     -33.163   5.332   2.390  1.00 20.00     0.020 A 
HETATM    4  C4  UNL     1     -32.708   7.865   1.697  1.00 20.00     0.009 A 
HETATM    5  C5  UNL     1     -33.647   6.730   2.089  1.00 20.00     0.006 A 
HETATM    6  C6  UNL     1     -33.299   6.326   3.516  1.00 20.00    -0.015 A 
HETATM    7  C7  UNL     1     -31.954   7.572   0.409  1.00 20.00     0.014 C 
ENDROOT
BRANCH   6   8
HETATM    8  C10 UNL     1     -34.390   6.161   4.524  1.00 20.00    -0.010 C 
HETATM    9  C8  UNL     1     -34.826   4.691   4.657  1.00 20.00     0.010 C 
HETATM   10  C9  UNL     1     -33.976   6.697   5.905  1.00 20.00     0.010 C 
ENDBRANCH   6   8
TORSDOF 1
ENDMDL
MODEL 5
REMARK VINA RESULT:      -4.2      1.004      2.305
REMARK  1 active torsions:
REMARK  status: ('A' for Active; 'I' for Inactive)
REMARK    1  A    between atoms: C6_6  and  C10_10 
ROOT
HETATM    1  C1  UNL     1     -34.539  17.136  -1.287  1.00 20.00    -0.025 A 
HETATM    2  C2  UNL     1     -35.020  16.025  -1.870  1.00 20.00    -0.020 A 
HETATM    3  C3  UNL     1     -33.100  15.594  -3.526  1.00 20.00     0.020 A 
HETATM    4  C4  UNL     1     -33.645  17.875  -2.260  1.00 20.00     0.009 A 
HETATM    5  C5  UNL     1     -33.628  17.008  -3.514  1.00 20.00     0.006 A 
HETATM    6  C6  UNL     1     -34.566  15.834  -3.265  1.00 20.00    -0.015 A 
HETATM    7  C7  UNL     1     -32.248  18.118  -1.707  1.00 20.00     0.014 C 
ENDROOT
BRANCH   6   8
HETATM    8  C10 UNL     1     -35.575  15.462  -4.303  1.00 20.00    -0.010 C 
HETATM    9  C8  UNL     1     -35.781  13.939  -4.378  1.00 20.00     0.010 C 
HETATM   10  C9  UNL     1     -36.929  16.148  -4.053  1.00 20.00     0.010 C 
ENDBRANCH   6   8
TORSDOF 1
ENDMDL
MODEL 6
REMARK VINA RESULT:      -4.1      1.185      3.736
REMARK  1 active torsions:
REMARK  status: ('A' for Active; 'I' for Inactive)
REMARK    1  A    between atoms: C6_6  and  C10_10 
ROOT
HETATM    1  C1  UNL     1     -33.637  14.894  -4.474  1.00 20.00    -0.025 A 
HETATM    2  C2  UNL     1     -33.017  15.640  -3.544  1.00 20.00    -0.020 A 
HETATM    3  C3  UNL     1     -34.991  15.966  -1.929  1.00 20.00     0.020 A 
HETATM    4  C4  UNL     1     -35.117  15.219  -4.484  1.00 20.00     0.009 A 
HETATM    5  C5  UNL     1     -35.298  16.253  -3.378  1.00 20.00     0.006 A 
HETATM    6  C6  UNL     1     -33.918  16.555  -2.810  1.00 20.00    -0.015 A 
HETATM    7  C7  UNL     1     -35.990  13.991  -4.274  1.00 20.00     0.014 C 
ENDROOT
BRANCH   6   8
HETATM    8  C10 UNL     1     -33.494  17.975  -2.614  1.00 20.00    -0.010 C 
HETATM    9  C8  UNL     1     -32.458  18.110  -1.485  1.00 20.00     0.010 C 
HETATM   10  C9  UNL     1     -32.921  18.582  -3.907  1.00 20.00     0.010 C 
ENDBRANCH   6   8
TORSDOF 1
ENDMDL
MODEL 7
REMARK VINA RESULT:      -4.1      1.375      3.853
REMARK  1 active torsions:
REMARK  status: ('A' for Active; 'I' for Inactive)
REMARK    1  A    between atoms: C6_6  and  C10_10 
ROOT
HETATM    1  C1  UNL     1     -33.574  14.864  -5.173  1.00 20.00    -0.025 A 
HETATM    2  C2  UNL     1     -33.588  15.061  -3.844  1.00 20.00    -0.020 A 
HETATM    3  C3  UNL     1     -36.125  15.325  -3.518  1.00 20.00     0.020 A 
HETATM    4  C4  UNL     1     -34.770  15.547  -5.802  1.00 20.00     0.009 A 
HETATM    5  C5  UNL     1     -35.535  16.156  -4.632  1.00 20.00     0.006 A 
HETATM    6  C6  UNL     1     -34.728  15.876  -3.370  1.00 20.00    -0.015 A 
HETATM    7  C7  UNL     1     -35.629  14.594  -6.619  1.00 20.00     0.014 C 
ENDROOT
BRANCH   6   8
HETATM    8  C10 UNL     1     -34.465  16.983  -2.400  1.00 20.00    -0.010 C 
HETATM    9  C8  UNL     1     -35.155  16.732  -1.048  1.00 20.00     0.010 C 
HETATM   10  C9  UNL     1     -32.959  17.195  -2.173  1.00 20.00     0.010 C 
ENDBRANCH   6   8
TORSDOF 1
ENDMDL
MODEL 8
REMARK VINA RESULT:      -4.1      1.225      1.977
REMARK  1 active torsions:
REMARK  status: ('A' for Active; 'I' for Inactive)
REMARK    1  A    between atoms: C6_6  and  C10_10 
ROOT
HETATM    1  C1  UNL     1     -33.232  15.805  -3.633  1.00 20.00    -0.025 A 
HETATM    2  C2  UNL     1     -34.287  15.501  -4.408  1.00 20.00    -0.020 A 
HETATM    3  C3  UNL     1     -36.002  17.117  -3.376  1.00 20.00     0.020 A 
HETATM    4  C4  UNL     1     -33.714  16.295  -2.284  1.00 20.00     0.009 A 
HETATM    5  C5  UNL     1     -35.236  16.279  -2.381  1.00 20.00     0.006 A 
HETATM    6  C6  UNL     1     -35.596  15.713  -3.749  1.00 20.00    -0.015 A 
HETATM    7  C7  UNL     1     -33.173  17.672  -1.931  1.00 20.00     0.014 C 
ENDROOT
BRANCH   6   8
HETATM    8  C10 UNL     1     -36.634  14.643  -3.856  1.00 20.00    -0.010 C 
HETATM    9  C8  UNL     1     -37.939  15.176  -4.474  1.00 20.00     0.010 C 
HETATM   10  C9  UNL     1     -36.133  13.443  -4.678  1.00 20.00     0.010 C 
ENDBRANCH   6   8
TORSDOF 1
ENDMDL
MODEL 9
REMARK VINA RESULT:      -4.0      0.935      4.002
REMARK  1 active torsions:
REMARK  status: ('A' for Active; 'I' for Inactive)
REMARK    1  A    between atoms: C6_6  and  C10_10 
ROOT
HETATM    1  C1  UNL     1     -36.515  16.310  -4.189  1.00 20.00    -0.025 A 
HETATM    2  C2  UNL     1     -35.536  17.111  -3.737  1.00 20.00    -0.020 A 
HETATM    3  C3  UNL     1     -33.591  15.431  -3.821  1.00 20.00     0.020 A 
HETATM    4  C4  UNL     1     -36.196  14.870  -3.843  1.00 20.00     0.009 A 
HETATM    5  C5  UNL     1     -34.842  14.925  -3.144  1.00 20.00     0.006 A 
HETATM    6  C6  UNL     1     -34.448  16.393  -3.037  1.00 20.00    -0.015 A 
HETATM    7  C7  UNL     1     -36.179  13.962  -5.063  1.00 20.00     0.014 C 
ENDROOT
BRANCH   6   8
HETATM    8  C10 UNL     1     -33.955  16.932  -1.732  1.00 20.00    -0.010 C 
HETATM    9  C8  UNL     1     -32.656  17.739  -1.903  1.00 20.00     0.010 C 
HETATM   10  C9  UNL     1     -35.014  17.809  -1.043  1.00 20.00     0.010 C 
ENDBRANCH   6   8
TORSDOF 1
ENDMDL
