MODEL 1
REMARK VINA RESULT:      -5.9      0.000      0.000
REMARK  0 active torsions:
REMARK  status: ('A' for Active; 'I' for Inactive)
ROOT
HETATM    1  C1  UNL     1     -33.544   5.436   2.930  1.00 20.00    -0.058 C 
HETATM    2  C2  UNL     1     -32.885   6.738   3.037  1.00 20.00    -0.061 C 
HETATM    3  C3  UNL     1     -34.516   5.745   5.217  1.00 20.00    -0.085 C 
HETATM    4  C4  UNL     1     -33.086   4.453   2.138  1.00 20.00     0.020 C 
HETATM    5  C5  UNL     1     -32.530   7.469   1.968  1.00 20.00     0.019 C 
HETATM    6  C6  UNL     1     -34.772   5.002   6.304  1.00 20.00     0.014 C 
HETATM    7  C7  UNL     1     -34.759   5.248   3.812  1.00 20.00     0.071 C 
HETATM    8  C8  UNL     1     -32.663   7.230   4.451  1.00 20.00     0.042 C 
HETATM    9  C9  UNL     1     -33.934   7.134   5.302  1.00 20.00     0.038 C 
ENDROOT
TORSDOF 0
ENDMDL
MODEL 2
REMARK VINA RESULT:      -4.7     11.706     12.480
REMARK  0 active torsions:
REMARK  status: ('A' for Active; 'I' for Inactive)
ROOT
HETATM    1  C1  UNL     1     -34.195  14.996  -4.828  1.00 20.00    -0.058 C 
HETATM    2  C2  UNL     1     -35.509  14.726  -4.245  1.00 20.00    -0.061 C 
HETATM    3  C3  UNL     1     -33.568  16.313  -2.793  1.00 20.00    -0.085 C 
HETATM    4  C4  UNL     1     -33.973  14.994  -6.153  1.00 20.00     0.020 C 
HETATM    5  C5  UNL     1     -36.258  13.666  -4.587  1.00 20.00     0.019 C 
HETATM    6  C6  UNL     1     -32.889  17.431  -2.495  1.00 20.00     0.014 C 
HETATM    7  C7  UNL     1     -33.100  15.328  -3.838  1.00 20.00     0.071 C 
HETATM    8  C8  UNL     1     -35.956  15.712  -3.188  1.00 20.00     0.042 C 
HETATM    9  C9  UNL     1     -34.874  15.956  -2.130  1.00 20.00     0.038 C 
ENDROOT
TORSDOF 0
ENDMDL
MODEL 3
REMARK VINA RESULT:      -4.5      0.796      3.305
REMARK  0 active torsions:
REMARK  status: ('A' for Active; 'I' for Inactive)
ROOT
HETATM    1  C1  UNL     1     -34.447   5.717   3.986  1.00 20.00    -0.058 C 
HETATM    2  C2  UNL     1     -33.978   6.338   5.225  1.00 20.00    -0.061 C 
HETATM    3  C3  UNL     1     -32.656   6.915   2.711  1.00 20.00    -0.085 C 
HETATM    4  C4  UNL     1     -35.710   5.291   3.820  1.00 20.00     0.020 C 
HETATM    5  C5  UNL     1     -34.187   5.802   6.438  1.00 20.00     0.019 C 
HETATM    6  C6  UNL     1     -32.510   7.525   1.526  1.00 20.00     0.014 C 
HETATM    7  C7  UNL     1     -33.423   5.624   2.876  1.00 20.00     0.071 C 
HETATM    8  C8  UNL     1     -33.197   7.621   5.042  1.00 20.00     0.042 C 
HETATM    9  C9  UNL     1     -32.091   7.480   3.990  1.00 20.00     0.038 C 
ENDROOT
TORSDOF 0
ENDMDL
MODEL 4
REMARK VINA RESULT:      -4.5     15.961     17.169
REMARK  0 active torsions:
REMARK  status: ('A' for Active; 'I' for Inactive)
ROOT
HETATM    1  C1  UNL     1     -22.554  18.172   9.678  1.00 20.00    -0.058 C 
HETATM    2  C2  UNL     1     -23.151  17.842  10.972  1.00 20.00    -0.061 C 
HETATM    3  C3  UNL     1     -24.756  19.071   8.896  1.00 20.00    -0.085 C 
HETATM    4  C4  UNL     1     -21.479  17.531   9.189  1.00 20.00     0.020 C 
HETATM    5  C5  UNL     1     -22.434  17.729  12.101  1.00 20.00     0.019 C 
HETATM    6  C6  UNL     1     -25.489  19.085   7.773  1.00 20.00     0.014 C 
HETATM    7  C7  UNL     1     -23.257  19.259   8.895  1.00 20.00     0.071 C 
HETATM    8  C8  UNL     1     -24.654  17.674  10.960  1.00 20.00     0.042 C 
HETATM    9  C9  UNL     1     -25.361  18.838  10.257  1.00 20.00     0.038 C 
ENDROOT
TORSDOF 0
ENDMDL
MODEL 5
REMARK VINA RESULT:      -4.4      0.505      2.426
REMARK  0 active torsions:
REMARK  status: ('A' for Active; 'I' for Inactive)
ROOT
HETATM    1  C1  UNL     1     -32.982   6.580   3.121  1.00 20.00    -0.058 C 
HETATM    2  C2  UNL     1     -33.616   5.270   2.966  1.00 20.00    -0.061 C 
HETATM    3  C3  UNL     1     -33.772   6.678   5.495  1.00 20.00    -0.085 C 
HETATM    4  C4  UNL     1     -32.753   7.403   2.085  1.00 20.00     0.020 C 
HETATM    5  C5  UNL     1     -33.219   4.367   2.057  1.00 20.00     0.019 C 
HETATM    6  C6  UNL     1     -34.254   7.590   6.352  1.00 20.00     0.014 C 
HETATM    7  C7  UNL     1     -32.639   6.973   4.542  1.00 20.00     0.071 C 
HETATM    8  C8  UNL     1     -34.738   4.983   3.940  1.00 20.00     0.042 C 
HETATM    9  C9  UNL     1     -34.338   5.284   5.389  1.00 20.00     0.038 C 
ENDROOT
TORSDOF 0
ENDMDL
MODEL 6
REMARK VINA RESULT:      -4.3     11.730     12.899
REMARK  0 active torsions:
REMARK  status: ('A' for Active; 'I' for Inactive)
ROOT
HETATM    1  C1  UNL     1     -33.042  17.681  -1.835  1.00 20.00    -0.058 C 
HETATM    2  C2  UNL     1     -34.358  17.579  -1.204  1.00 20.00    -0.061 C 
HETATM    3  C3  UNL     1     -33.702  15.919  -3.487  1.00 20.00    -0.085 C 
HETATM    4  C4  UNL     1     -31.952  18.108  -1.177  1.00 20.00     0.020 C 
HETATM    5  C5  UNL     1     -34.910  18.578  -0.497  1.00 20.00     0.019 C 
HETATM    6  C6  UNL     1     -33.143  14.870  -4.107  1.00 20.00     0.014 C 
HETATM    7  C7  UNL     1     -32.974  17.226  -3.276  1.00 20.00     0.071 C 
HETATM    8  C8  UNL     1     -35.082  16.272  -1.439  1.00 20.00     0.042 C 
HETATM    9  C9  UNL     1     -35.099  15.877  -2.920  1.00 20.00     0.038 C 
ENDROOT
TORSDOF 0
ENDMDL
MODEL 7
REMARK VINA RESULT:      -4.3     11.779     12.787
REMARK  0 active torsions:
REMARK  status: ('A' for Active; 'I' for Inactive)
ROOT
HETATM    1  C1  UNL     1     -34.414  17.598  -1.329  1.00 20.00    -0.058 C 
HETATM    2  C2  UNL     1     -33.066  17.674  -1.892  1.00 20.00    -0.061 C 
HETATM    3  C3  UNL     1     -34.937  15.678  -2.848  1.00 20.00    -0.085 C 
HETATM    4  C4  UNL     1     -35.027  18.652  -0.766  1.00 20.00     0.020 C 
HETATM    5  C5  UNL     1     -32.024  18.200  -1.230  1.00 20.00     0.019 C 
HETATM    6  C6  UNL     1     -35.972  15.230  -3.574  1.00 20.00     0.014 C 
HETATM    7  C7  UNL     1     -35.101  16.256  -1.463  1.00 20.00     0.071 C 
HETATM    8  C8  UNL     1     -32.914  17.075  -3.273  1.00 20.00     0.042 C 
HETATM    9  C9  UNL     1     -33.520  15.670  -3.365  1.00 20.00     0.038 C 
ENDROOT
TORSDOF 0
ENDMDL
MODEL 8
REMARK VINA RESULT:      -4.2     11.644     12.279
REMARK  0 active torsions:
REMARK  status: ('A' for Active; 'I' for Inactive)
ROOT
HETATM    1  C1  UNL     1     -35.456  14.846  -4.215  1.00 20.00    -0.058 C 
HETATM    2  C2  UNL     1     -34.109  15.020  -4.758  1.00 20.00    -0.061 C 
HETATM    3  C3  UNL     1     -34.910  16.438  -2.361  1.00 20.00    -0.085 C 
HETATM    4  C4  UNL     1     -36.190  13.742  -4.433  1.00 20.00     0.020 C 
HETATM    5  C5  UNL     1     -33.807  14.810  -6.049  1.00 20.00     0.019 C 
HETATM    6  C6  UNL     1     -35.155  16.567  -1.049  1.00 20.00     0.014 C 
HETATM    7  C7  UNL     1     -35.958  15.979  -3.347  1.00 20.00     0.071 C 
HETATM    8  C8  UNL     1     -33.074  15.496  -3.763  1.00 20.00     0.042 C 
HETATM    9  C9  UNL     1     -33.556  16.713  -2.965  1.00 20.00     0.038 C 
ENDROOT
TORSDOF 0
ENDMDL
MODEL 9
REMARK VINA RESULT:      -4.1     11.792     12.345
REMARK  0 active torsions:
REMARK  status: ('A' for Active; 'I' for Inactive)
ROOT
HETATM    1  C1  UNL     1     -33.686  15.301  -4.043  1.00 20.00    -0.058 C 
HETATM    2  C2  UNL     1     -33.776  16.177  -2.875  1.00 20.00    -0.061 C 
HETATM    3  C3  UNL     1     -36.185  15.179  -4.141  1.00 20.00    -0.085 C 
HETATM    4  C4  UNL     1     -32.614  14.531  -4.292  1.00 20.00     0.020 C 
HETATM    5  C5  UNL     1     -32.807  17.038  -2.528  1.00 20.00     0.019 C 
HETATM    6  C6  UNL     1     -37.132  14.267  -4.404  1.00 20.00     0.014 C 
HETATM    7  C7  UNL     1     -34.906  15.282  -4.938  1.00 20.00     0.071 C 
HETATM    8  C8  UNL     1     -35.070  16.076  -2.097  1.00 20.00     0.042 C 
HETATM    9  C9  UNL     1     -36.301  16.166  -3.006  1.00 20.00     0.038 C 
ENDROOT
TORSDOF 0
ENDMDL
