MODEL 1
REMARK VINA RESULT:      -4.4      0.000      0.000
REMARK  3 active torsions:
REMARK  status: ('A' for Active; 'I' for Inactive)
REMARK    1  A    between atoms: C2_2  and  C7_7 
REMARK    2  A    between atoms: C5_5  and  C7_7 
REMARK    3  A    between atoms: C7_7  and  O8_8 
ROOT
HETATM    1  C7  UNL     1     -33.582   6.717   4.075  1.00 20.00     0.150 C 
ENDROOT
BRANCH   1   2
HETATM    2  C2  UNL     1     -32.973   6.436   2.719  1.00 20.00    -0.064 C 
HETATM    3  C1  UNL     1     -32.403   7.417   2.000  1.00 20.00     0.016 C 
HETATM    4  C6  UNL     1     -33.017   5.026   2.201  1.00 20.00     0.045 C 
ENDBRANCH   1   2
BRANCH   1   5
HETATM    5  C5  UNL     1     -34.019   5.448   4.798  1.00 20.00     0.019 A 
HETATM    6  C3  UNL     1     -34.786   5.537   6.088  1.00 20.00     0.008 A 
HETATM    7  C4  UNL     1     -35.472   5.061   4.837  1.00 20.00     0.008 A 
ENDBRANCH   1   5
BRANCH   1   8
HETATM    8  O8  UNL     1     -32.631   7.414   4.876  1.00 20.00    -0.391 OA
HETATM    9  H20 UNL     1     -33.028   7.509   5.756  1.00 20.00     0.210 HD
ENDBRANCH   1   8
TORSDOF 3
ENDMDL
MODEL 2
REMARK VINA RESULT:      -4.4      1.601      1.975
REMARK  3 active torsions:
REMARK  status: ('A' for Active; 'I' for Inactive)
REMARK    1  A    between atoms: C2_2  and  C7_7 
REMARK    2  A    between atoms: C5_5  and  C7_7 
REMARK    3  A    between atoms: C7_7  and  O8_8 
ROOT
HETATM    1  C7  UNL     1     -33.191   5.821   3.437  1.00 20.00     0.150 C 
ENDROOT
BRANCH   1   2
HETATM    2  C2  UNL     1     -32.473   7.067   2.968  1.00 20.00    -0.064 C 
HETATM    3  C1  UNL     1     -31.729   7.797   3.815  1.00 20.00     0.016 C 
HETATM    4  C6  UNL     1     -32.609   7.462   1.524  1.00 20.00     0.045 C 
ENDBRANCH   1   2
BRANCH   1   5
HETATM    5  C5  UNL     1     -34.415   6.133   4.291  1.00 20.00     0.019 A 
HETATM    6  C3  UNL     1     -35.128   5.031   5.023  1.00 20.00     0.008 A 
HETATM    7  C4  UNL     1     -34.333   6.050   5.790  1.00 20.00     0.008 A 
ENDBRANCH   1   5
BRANCH   1   8
HETATM    8  O8  UNL     1     -33.590   5.059   2.299  1.00 20.00    -0.391 OA
HETATM    9  H20 UNL     1     -33.900   5.695   1.636  1.00 20.00     0.210 HD
ENDBRANCH   1   8
TORSDOF 3
ENDMDL
MODEL 3
REMARK VINA RESULT:      -4.2      1.701      2.257
REMARK  3 active torsions:
REMARK  status: ('A' for Active; 'I' for Inactive)
REMARK    1  A    between atoms: C2_2  and  C7_7 
REMARK    2  A    between atoms: C5_5  and  C7_7 
REMARK    3  A    between atoms: C7_7  and  O8_8 
ROOT
HETATM    1  C7  UNL     1     -33.649   4.976   4.065  1.00 20.00     0.150 C 
ENDROOT
BRANCH   1   2
HETATM    2  C2  UNL     1     -33.191   5.463   2.708  1.00 20.00    -0.064 C 
HETATM    3  C1  UNL     1     -33.190   4.645   1.643  1.00 20.00     0.016 C 
HETATM    4  C6  UNL     1     -32.742   6.893   2.584  1.00 20.00     0.045 C 
ENDBRANCH   1   2
BRANCH   1   5
HETATM    5  C5  UNL     1     -34.483   6.011   4.811  1.00 20.00     0.019 A 
HETATM    6  C3  UNL     1     -34.974   5.728   6.204  1.00 20.00     0.008 A 
HETATM    7  C4  UNL     1     -33.898   6.754   5.981  1.00 20.00     0.008 A 
ENDBRANCH   1   5
BRANCH   1   8
HETATM    8  O8  UNL     1     -34.415   3.785   3.896  1.00 20.00    -0.391 OA
HETATM    9  H20 UNL     1     -35.335   4.019   4.092  1.00 20.00     0.210 HD
ENDBRANCH   1   8
TORSDOF 3
ENDMDL
MODEL 4
REMARK VINA RESULT:      -4.1     15.579     16.587
REMARK  3 active torsions:
REMARK  status: ('A' for Active; 'I' for Inactive)
REMARK    1  A    between atoms: C2_2  and  C7_7 
REMARK    2  A    between atoms: C5_5  and  C7_7 
REMARK    3  A    between atoms: C7_7  and  O8_8 
ROOT
HETATM    1  C7  UNL     1     -23.703  16.897   9.797  1.00 20.00     0.150 C 
ENDROOT
BRANCH   1   2
HETATM    2  C2  UNL     1     -23.729  16.675  11.293  1.00 20.00    -0.064 C 
HETATM    3  C1  UNL     1     -24.548  15.764  11.843  1.00 20.00     0.016 C 
HETATM    4  C6  UNL     1     -22.805  17.499  12.147  1.00 20.00     0.045 C 
ENDBRANCH   1   2
BRANCH   1   5
HETATM    5  C5  UNL     1     -23.684  18.375   9.421  1.00 20.00     0.019 A 
HETATM    6  C3  UNL     1     -23.964  18.800   8.007  1.00 20.00     0.008 A 
HETATM    7  C4  UNL     1     -24.966  19.088   9.090  1.00 20.00     0.008 A 
ENDBRANCH   1   5
BRANCH   1   8
HETATM    8  O8  UNL     1     -22.553  16.256   9.252  1.00 20.00    -0.391 OA
HETATM    9  H20 UNL     1     -22.340  16.725   8.430  1.00 20.00     0.210 HD
ENDBRANCH   1   8
TORSDOF 3
ENDMDL
MODEL 5
REMARK VINA RESULT:      -4.0      1.528      3.673
REMARK  3 active torsions:
REMARK  status: ('A' for Active; 'I' for Inactive)
REMARK    1  A    between atoms: C2_2  and  C7_7 
REMARK    2  A    between atoms: C5_5  and  C7_7 
REMARK    3  A    between atoms: C7_7  and  O8_8 
ROOT
HETATM    1  C7  UNL     1     -34.058   6.189   3.792  1.00 20.00     0.150 C 
ENDROOT
BRANCH   1   2
HETATM    2  C2  UNL     1     -34.163   6.196   5.300  1.00 20.00    -0.064 C 
HETATM    3  C1  UNL     1     -33.636   7.195   6.027  1.00 20.00     0.016 C 
HETATM    4  C6  UNL     1     -34.882   5.055   5.965  1.00 20.00     0.045 C 
ENDBRANCH   1   2
BRANCH   1   5
HETATM    5  C5  UNL     1     -32.779   6.850   3.288  1.00 20.00     0.019 A 
HETATM    6  C3  UNL     1     -32.291   6.587   1.891  1.00 20.00     0.008 A 
HETATM    7  C4  UNL     1     -32.848   7.936   2.249  1.00 20.00     0.008 A 
ENDBRANCH   1   5
BRANCH   1   8
HETATM    8  O8  UNL     1     -34.107   4.842   3.328  1.00 20.00    -0.391 OA
HETATM    9  H20 UNL     1     -33.656   4.303   3.997  1.00 20.00     0.210 HD
ENDBRANCH   1   8
TORSDOF 3
ENDMDL
MODEL 6
REMARK VINA RESULT:      -3.9      1.446      4.011
REMARK  3 active torsions:
REMARK  status: ('A' for Active; 'I' for Inactive)
REMARK    1  A    between atoms: C2_2  and  C7_7 
REMARK    2  A    between atoms: C5_5  and  C7_7 
REMARK    3  A    between atoms: C7_7  and  O8_8 
ROOT
HETATM    1  C7  UNL     1     -32.422   7.079   2.213  1.00 20.00     0.150 C 
ENDROOT
BRANCH   1   2
HETATM    2  C2  UNL     1     -33.247   6.033   2.927  1.00 20.00    -0.064 C 
HETATM    3  C1  UNL     1     -33.312   4.771   2.470  1.00 20.00     0.016 C 
HETATM    4  C6  UNL     1     -33.989   6.442   4.169  1.00 20.00     0.045 C 
ENDBRANCH   1   2
BRANCH   1   5
HETATM    5  C5  UNL     1     -33.276   8.058   1.414  1.00 20.00     0.019 A 
HETATM    6  C3  UNL     1     -32.690   9.356   0.933  1.00 20.00     0.008 A 
HETATM    7  C4  UNL     1     -33.013   8.268  -0.053  1.00 20.00     0.008 A 
ENDBRANCH   1   5
BRANCH   1   8
HETATM    8  O8  UNL     1     -31.652   7.799   3.173  1.00 20.00    -0.391 OA
HETATM    9  H20 UNL     1     -31.335   7.147   3.817  1.00 20.00     0.210 HD
ENDBRANCH   1   8
TORSDOF 3
ENDMDL
MODEL 7
REMARK VINA RESULT:      -3.9     11.832     13.018
REMARK  3 active torsions:
REMARK  status: ('A' for Active; 'I' for Inactive)
REMARK    1  A    between atoms: C2_2  and  C7_7 
REMARK    2  A    between atoms: C5_5  and  C7_7 
REMARK    3  A    between atoms: C7_7  and  O8_8 
ROOT
HETATM    1  C7  UNL     1     -33.716  14.943  -4.413  1.00 20.00     0.150 C 
ENDROOT
BRANCH   1   2
HETATM    2  C2  UNL     1     -33.846  15.841  -3.203  1.00 20.00    -0.064 C 
HETATM    3  C1  UNL     1     -32.879  16.716  -2.883  1.00 20.00     0.016 C 
HETATM    4  C6  UNL     1     -35.094  15.731  -2.371  1.00 20.00     0.045 C 
ENDBRANCH   1   2
BRANCH   1   5
HETATM    5  C5  UNL     1     -34.307  15.564  -5.673  1.00 20.00     0.019 A 
HETATM    6  C3  UNL     1     -33.923  15.038  -7.028  1.00 20.00     0.008 A 
HETATM    7  C4  UNL     1     -35.308  14.799  -6.495  1.00 20.00     0.008 A 
ENDBRANCH   1   5
BRANCH   1   8
HETATM    8  O8  UNL     1     -32.336  14.654  -4.631  1.00 20.00    -0.391 OA
HETATM    9  H20 UNL     1     -31.946  14.496  -3.757  1.00 20.00     0.210 HD
ENDBRANCH   1   8
TORSDOF 3
ENDMDL
MODEL 8
REMARK VINA RESULT:      -3.7     11.912     12.649
REMARK  3 active torsions:
REMARK  status: ('A' for Active; 'I' for Inactive)
REMARK    1  A    between atoms: C2_2  and  C7_7 
REMARK    2  A    between atoms: C5_5  and  C7_7 
REMARK    3  A    between atoms: C7_7  and  O8_8 
ROOT
HETATM    1  C7  UNL     1     -34.124  15.214  -5.051  1.00 20.00     0.150 C 
ENDROOT
BRANCH   1   2
HETATM    2  C2  UNL     1     -35.393  14.553  -5.539  1.00 20.00    -0.064 C 
HETATM    3  C1  UNL     1     -35.838  14.750  -6.791  1.00 20.00     0.016 C 
HETATM    4  C6  UNL     1     -36.140  13.662  -4.586  1.00 20.00     0.045 C 
ENDBRANCH   1   2
BRANCH   1   5
HETATM    5  C5  UNL     1     -34.037  15.271  -3.529  1.00 20.00     0.019 A 
HETATM    6  C3  UNL     1     -33.165  16.295  -2.858  1.00 20.00     0.008 A 
HETATM    7  C4  UNL     1     -34.662  16.414  -2.778  1.00 20.00     0.008 A 
ENDBRANCH   1   5
BRANCH   1   8
HETATM    8  O8  UNL     1     -33.000  14.500  -5.562  1.00 20.00    -0.391 OA
HETATM    9  H20 UNL     1     -32.339  14.484  -4.853  1.00 20.00     0.210 HD
ENDBRANCH   1   8
TORSDOF 3
ENDMDL
MODEL 9
REMARK VINA RESULT:      -3.7     11.848     12.408
REMARK  3 active torsions:
REMARK  status: ('A' for Active; 'I' for Inactive)
REMARK    1  A    between atoms: C2_2  and  C7_7 
REMARK    2  A    between atoms: C5_5  and  C7_7 
REMARK    3  A    between atoms: C7_7  and  O8_8 
ROOT
HETATM    1  C7  UNL     1     -34.123  15.054  -3.809  1.00 20.00     0.150 C 
ENDROOT
BRANCH   1   2
HETATM    2  C2  UNL     1     -33.995  16.104  -2.729  1.00 20.00    -0.064 C 
HETATM    3  C1  UNL     1     -32.915  16.899  -2.661  1.00 20.00     0.016 C 
HETATM    4  C6  UNL     1     -35.117  16.240  -1.737  1.00 20.00     0.045 C 
ENDBRANCH   1   2
BRANCH   1   5
HETATM    5  C5  UNL     1     -35.529  14.976  -4.392  1.00 20.00     0.019 A 
HETATM    6  C3  UNL     1     -35.749  14.409  -5.767  1.00 20.00     0.008 A 
HETATM    7  C4  UNL     1     -36.207  13.643  -4.557  1.00 20.00     0.008 A 
ENDBRANCH   1   5
BRANCH   1   8
HETATM    8  O8  UNL     1     -33.194  15.344  -4.852  1.00 20.00    -0.391 OA
HETATM    9  H20 UNL     1     -33.496  16.167  -5.267  1.00 20.00     0.210 HD
ENDBRANCH   1   8
TORSDOF 3
ENDMDL
