MODEL 1
REMARK VINA RESULT:      -4.1      0.000      0.000
REMARK  2 active torsions:
REMARK  status: ('A' for Active; 'I' for Inactive)
REMARK    1  A    between atoms: C2_2  and  C7_7 
REMARK    2  A    between atoms: C7_7  and  O11_11 
ROOT
HETATM    1  C3  UNL     1     -34.028  14.955  -5.688  1.00 20.00     0.073 C 
HETATM    2  C4  UNL     1     -36.351  14.851  -4.705  1.00 20.00     0.073 C 
HETATM    3  C5  UNL     1     -34.427  16.272  -6.361  1.00 20.00     0.275 C 
HETATM    4  C6  UNL     1     -36.657  16.172  -5.417  1.00 20.00     0.275 C 
HETATM    5  C7  UNL     1     -34.856  14.676  -4.434  1.00 20.00     0.083 C 
HETATM    6  C9  UNL     1     -36.295  15.547  -7.740  1.00 20.00     0.309 C 
HETATM    7  N10 UNL     1     -35.864  16.397  -6.632  1.00 20.00     0.084 N 
ENDROOT
BRANCH   5   8
HETATM    8  C2  UNL     1     -34.399  15.526  -3.281  1.00 20.00    -0.059 C 
HETATM    9  C1  UNL     1     -35.214  15.836  -2.262  1.00 20.00     0.017 C 
HETATM   10  C8  UNL     1     -32.980  16.008  -3.337  1.00 20.00     0.046 C 
ENDBRANCH   5   8
BRANCH   5  11
HETATM   11  O11 UNL     1     -34.592  13.346  -3.998  1.00 20.00    -0.385 OA
HETATM   12  H28 UNL     1     -34.100  12.919  -4.715  1.00 20.00     0.211 HD
ENDBRANCH   5  11
TORSDOF 2
ENDMDL
MODEL 2
REMARK VINA RESULT:      -4.1      1.272      1.381
REMARK  2 active torsions:
REMARK  status: ('A' for Active; 'I' for Inactive)
REMARK    1  A    between atoms: C2_2  and  C7_7 
REMARK    2  A    between atoms: C7_7  and  O11_11 
ROOT
HETATM    1  C3  UNL     1     -35.543  14.669  -6.225  1.00 20.00     0.073 C 
HETATM    2  C4  UNL     1     -37.108  15.068  -4.285  1.00 20.00     0.073 C 
HETATM    3  C5  UNL     1     -35.631  16.166  -6.538  1.00 20.00     0.275 C 
HETATM    4  C6  UNL     1     -37.134  16.549  -4.675  1.00 20.00     0.275 C 
HETATM    5  C7  UNL     1     -35.830  14.371  -4.754  1.00 20.00     0.083 C 
HETATM    6  C9  UNL     1     -38.016  16.423  -6.937  1.00 20.00     0.309 C 
HETATM    7  N10 UNL     1     -36.881  16.799  -6.099  1.00 20.00     0.084 N 
ENDROOT
BRANCH   5   8
HETATM    8  C2  UNL     1     -34.654  14.729  -3.889  1.00 20.00    -0.059 C 
HETATM    9  C1  UNL     1     -34.803  15.371  -2.720  1.00 20.00     0.017 C 
HETATM   10  C8  UNL     1     -33.305  14.326  -4.406  1.00 20.00     0.046 C 
ENDBRANCH   5   8
BRANCH   5  11
HETATM   11  O11 UNL     1     -35.955  12.962  -4.589  1.00 20.00    -0.385 OA
HETATM   12  H28 UNL     1     -36.441  12.829  -3.761  1.00 20.00     0.211 HD
ENDBRANCH   5  11
TORSDOF 2
ENDMDL
MODEL 3
REMARK VINA RESULT:      -4.0     18.212     19.431
REMARK  2 active torsions:
REMARK  status: ('A' for Active; 'I' for Inactive)
REMARK    1  A    between atoms: C2_2  and  C7_7 
REMARK    2  A    between atoms: C7_7  and  O11_11 
ROOT
HETATM    1  C3  UNL     1     -24.672  17.931   9.497  1.00 20.00     0.073 C 
HETATM    2  C4  UNL     1     -24.515  17.109  11.879  1.00 20.00     0.073 C 
HETATM    3  C5  UNL     1     -25.194  19.263  10.045  1.00 20.00     0.275 C 
HETATM    4  C6  UNL     1     -25.043  18.473  12.332  1.00 20.00     0.275 C 
HETATM    5  C7  UNL     1     -23.817  17.184  10.520  1.00 20.00     0.083 C 
HETATM    6  C9  UNL     1     -27.201  18.535  11.212  1.00 20.00     0.309 C 
HETATM    7  N10 UNL     1     -25.883  19.152  11.337  1.00 20.00     0.084 N 
ENDROOT
BRANCH   5   8
HETATM    8  C2  UNL     1     -22.448  17.796  10.634  1.00 20.00    -0.059 C 
HETATM    9  C1  UNL     1     -21.817  18.322   9.573  1.00 20.00     0.017 C 
HETATM   10  C8  UNL     1     -21.830  17.786  12.000  1.00 20.00     0.046 C 
ENDBRANCH   5   8
BRANCH   5  11
HETATM   11  O11 UNL     1     -23.561  15.872  10.031  1.00 20.00    -0.385 OA
HETATM   12  H28 UNL     1     -22.675  15.635  10.344  1.00 20.00     0.211 HD
ENDBRANCH   5  11
TORSDOF 2
ENDMDL
MODEL 4
REMARK VINA RESULT:      -3.9      1.915      3.537
REMARK  2 active torsions:
REMARK  status: ('A' for Active; 'I' for Inactive)
REMARK    1  A    between atoms: C2_2  and  C7_7 
REMARK    2  A    between atoms: C7_7  and  O11_11 
ROOT
HETATM    1  C3  UNL     1     -33.620  14.997  -3.807  1.00 20.00     0.073 C 
HETATM    2  C4  UNL     1     -34.143  16.772  -5.524  1.00 20.00     0.073 C 
HETATM    3  C5  UNL     1     -34.341  15.861  -2.768  1.00 20.00     0.275 C 
HETATM    4  C6  UNL     1     -34.843  17.565  -4.417  1.00 20.00     0.275 C 
HETATM    5  C7  UNL     1     -34.114  15.272  -5.227  1.00 20.00     0.083 C 
HETATM    6  C9  UNL     1     -33.014  17.898  -2.849  1.00 20.00     0.309 C 
HETATM    7  N10 UNL     1     -34.327  17.298  -3.068  1.00 20.00     0.084 N 
ENDROOT
BRANCH   5   8
HETATM    8  C2  UNL     1     -35.453  14.633  -5.469  1.00 20.00    -0.059 C 
HETATM    9  C1  UNL     1     -35.973  13.734  -4.620  1.00 20.00     0.017 C 
HETATM   10  C8  UNL     1     -36.174  15.059  -6.713  1.00 20.00     0.046 C 
ENDBRANCH   5   8
BRANCH   5  11
HETATM   11  O11 UNL     1     -33.252  14.610  -6.147  1.00 20.00    -0.385 OA
HETATM   12  H28 UNL     1     -32.924  15.294  -6.750  1.00 20.00     0.211 HD
ENDBRANCH   5  11
TORSDOF 2
ENDMDL
MODEL 5
REMARK VINA RESULT:      -3.9      1.704      3.742
REMARK  2 active torsions:
REMARK  status: ('A' for Active; 'I' for Inactive)
REMARK    1  A    between atoms: C2_2  and  C7_7 
REMARK    2  A    between atoms: C7_7  and  O11_11 
ROOT
HETATM    1  C3  UNL     1     -35.692  15.015  -3.399  1.00 20.00     0.073 C 
HETATM    2  C4  UNL     1     -33.229  15.397  -3.802  1.00 20.00     0.073 C 
HETATM    3  C5  UNL     1     -35.860  16.535  -3.302  1.00 20.00     0.275 C 
HETATM    4  C6  UNL     1     -33.495  16.901  -3.690  1.00 20.00     0.275 C 
HETATM    5  C7  UNL     1     -34.475  14.623  -4.236  1.00 20.00     0.083 C 
HETATM    6  C9  UNL     1     -34.390  17.051  -1.434  1.00 20.00     0.309 C 
HETATM    7  N10 UNL     1     -34.654  17.245  -2.857  1.00 20.00     0.084 N 
ENDROOT
BRANCH   5   8
HETATM    8  C2  UNL     1     -34.749  14.792  -5.705  1.00 20.00    -0.059 C 
HETATM    9  C1  UNL     1     -33.764  15.003  -6.590  1.00 20.00     0.017 C 
HETATM   10  C8  UNL     1     -36.187  14.710  -6.122  1.00 20.00     0.046 C 
ENDBRANCH   5   8
BRANCH   5  11
HETATM   11  O11 UNL     1     -34.253  13.223  -4.093  1.00 20.00    -0.385 OA
HETATM   12  H28 UNL     1     -33.416  13.035  -4.542  1.00 20.00     0.211 HD
ENDBRANCH   5  11
TORSDOF 2
ENDMDL
MODEL 6
REMARK VINA RESULT:      -3.9      1.519      1.815
REMARK  2 active torsions:
REMARK  status: ('A' for Active; 'I' for Inactive)
REMARK    1  A    between atoms: C2_2  and  C7_7 
REMARK    2  A    between atoms: C7_7  and  O11_11 
ROOT
HETATM    1  C3  UNL     1     -34.239  16.798  -5.979  1.00 20.00     0.073 C 
HETATM    2  C4  UNL     1     -35.652  14.742  -6.366  1.00 20.00     0.073 C 
HETATM    3  C5  UNL     1     -35.508  17.522  -5.520  1.00 20.00     0.275 C 
HETATM    4  C6  UNL     1     -36.865  15.548  -5.891  1.00 20.00     0.275 C 
HETATM    5  C7  UNL     1     -34.341  15.285  -5.795  1.00 20.00     0.083 C 
HETATM    6  C9  UNL     1     -36.890  17.358  -7.514  1.00 20.00     0.309 C 
HETATM    7  N10 UNL     1     -36.746  16.995  -6.107  1.00 20.00     0.084 N 
ENDROOT
BRANCH   5   8
HETATM    8  C2  UNL     1     -34.164  14.901  -4.352  1.00 20.00    -0.059 C 
HETATM    9  C1  UNL     1     -34.825  13.868  -3.807  1.00 20.00     0.017 C 
HETATM   10  C8  UNL     1     -33.208  15.739  -3.557  1.00 20.00     0.046 C 
ENDBRANCH   5   8
BRANCH   5  11
HETATM   11  O11 UNL     1     -33.234  14.669  -6.446  1.00 20.00    -0.385 OA
HETATM   12  H28 UNL     1     -33.597  13.926  -6.952  1.00 20.00     0.211 HD
ENDBRANCH   5  11
TORSDOF 2
ENDMDL
MODEL 7
REMARK VINA RESULT:      -3.8      1.401      1.815
REMARK  2 active torsions:
REMARK  status: ('A' for Active; 'I' for Inactive)
REMARK    1  A    between atoms: C2_2  and  C7_7 
REMARK    2  A    between atoms: C7_7  and  O11_11 
ROOT
HETATM    1  C3  UNL     1     -36.086  14.378  -5.695  1.00 20.00     0.073 C 
HETATM    2  C4  UNL     1     -36.655  16.591  -4.622  1.00 20.00     0.073 C 
HETATM    3  C5  UNL     1     -35.230  15.146  -6.706  1.00 20.00     0.275 C 
HETATM    4  C6  UNL     1     -35.777  17.271  -5.676  1.00 20.00     0.275 C 
HETATM    5  C7  UNL     1     -36.243  15.138  -4.378  1.00 20.00     0.083 C 
HETATM    6  C9  UNL     1     -36.897  16.595  -7.726  1.00 20.00     0.309 C 
HETATM    7  N10 UNL     1     -35.669  16.528  -6.938  1.00 20.00     0.084 N 
ENDROOT
BRANCH   5   8
HETATM    8  C2  UNL     1     -34.992  15.049  -3.548  1.00 20.00    -0.059 C 
HETATM    9  C1  UNL     1     -33.968  14.254  -3.893  1.00 20.00     0.017 C 
HETATM   10  C8  UNL     1     -34.956  15.900  -2.314  1.00 20.00     0.046 C 
ENDBRANCH   5   8
BRANCH   5  11
HETATM   11  O11 UNL     1     -37.224  14.480  -3.584  1.00 20.00    -0.385 OA
HETATM   12  H28 UNL     1     -36.764  13.758  -3.129  1.00 20.00     0.211 HD
ENDBRANCH   5  11
TORSDOF 2
ENDMDL
MODEL 8
REMARK VINA RESULT:      -3.8      1.536      1.853
REMARK  2 active torsions:
REMARK  status: ('A' for Active; 'I' for Inactive)
REMARK    1  A    between atoms: C2_2  and  C7_7 
REMARK    2  A    between atoms: C7_7  and  O11_11 
ROOT
HETATM    1  C3  UNL     1     -34.217  16.904  -4.869  1.00 20.00     0.073 C 
HETATM    2  C4  UNL     1     -34.866  14.684  -3.858  1.00 20.00     0.073 C 
HETATM    3  C5  UNL     1     -35.709  17.232  -4.981  1.00 20.00     0.275 C 
HETATM    4  C6  UNL     1     -36.332  15.100  -4.009  1.00 20.00     0.275 C 
HETATM    5  C7  UNL     1     -33.932  15.891  -3.761  1.00 20.00     0.083 C 
HETATM    6  C9  UNL     1     -36.481  15.426  -6.415  1.00 20.00     0.309 C 
HETATM    7  N10 UNL     1     -36.576  16.053  -5.100  1.00 20.00     0.084 N 
ENDROOT
BRANCH   5   8
HETATM    8  C2  UNL     1     -34.000  16.537  -2.405  1.00 20.00    -0.059 C 
HETATM    9  C1  UNL     1     -35.013  16.302  -1.558  1.00 20.00     0.017 C 
HETATM   10  C8  UNL     1     -32.870  17.458  -2.054  1.00 20.00     0.046 C 
ENDBRANCH   5   8
BRANCH   5  11
HETATM   11  O11 UNL     1     -32.577  15.467  -3.866  1.00 20.00    -0.385 OA
HETATM   12  H28 UNL     1     -32.600  14.581  -4.257  1.00 20.00     0.211 HD
ENDBRANCH   5  11
TORSDOF 2
ENDMDL
MODEL 9
REMARK VINA RESULT:      -3.7     16.768     18.645
REMARK  2 active torsions:
REMARK  status: ('A' for Active; 'I' for Inactive)
REMARK    1  A    between atoms: C2_2  and  C7_7 
REMARK    2  A    between atoms: C7_7  and  O11_11 
ROOT
HETATM    1  C3  UNL     1     -23.424  17.204   8.727  1.00 20.00     0.073 C 
HETATM    2  C4  UNL     1     -25.139  17.882  10.452  1.00 20.00     0.073 C 
HETATM    3  C5  UNL     1     -23.537  18.613   8.136  1.00 20.00     0.275 C 
HETATM    4  C6  UNL     1     -25.184  19.263   9.792  1.00 20.00     0.275 C 
HETATM    5  C7  UNL     1     -23.808  17.169  10.206  1.00 20.00     0.083 C 
HETATM    6  C9  UNL     1     -25.895  18.683   7.539  1.00 20.00     0.309 C 
HETATM    7  N10 UNL     1     -24.836  19.258   8.365  1.00 20.00     0.084 N 
ENDROOT
BRANCH   5   8
HETATM    8  C2  UNL     1     -22.711  17.733  11.065  1.00 20.00    -0.059 C 
HETATM    9  C1  UNL     1     -22.929  18.117  12.332  1.00 20.00     0.017 C 
HETATM   10  C8  UNL     1     -21.359  17.841  10.425  1.00 20.00     0.046 C 
ENDBRANCH   5   8
BRANCH   5  11
HETATM   11  O11 UNL     1     -23.899  15.811  10.623  1.00 20.00    -0.385 OA
HETATM   12  H28 UNL     1     -24.834  15.650  10.819  1.00 20.00     0.211 HD
ENDBRANCH   5  11
TORSDOF 2
ENDMDL
