MODEL 1
REMARK VINA RESULT:      -4.3      0.000      0.000
REMARK  2 active torsions:
REMARK  status: ('A' for Active; 'I' for Inactive)
REMARK    1  A    between atoms: C2_2  and  C9_9 
REMARK    2  A    between atoms: C6_6  and  C9_9 
ROOT
HETATM    1  C3  UNL     1     -35.312  15.270  -3.043  1.00 20.00     0.006 C 
HETATM    2  C4  UNL     1     -34.967  14.174  -4.044  1.00 20.00     0.020 C 
HETATM    3  C5  UNL     1     -32.984  15.495  -3.793  1.00 20.00     0.025 C 
HETATM    4  C6  UNL     1     -33.961  15.893  -2.671  1.00 20.00    -0.009 C 
HETATM    5  C7  UNL     1     -33.816  14.765  -4.846  1.00 20.00     0.082 C 
HETATM    6 CL10 UNL     1     -34.421  15.914  -6.075  1.00 20.00    -0.125 Cl
ENDROOT
BRANCH   4   7
HETATM    7  C9  UNL     1     -34.054  17.399  -2.473  1.00 20.00     0.037 C 
BRANCH   7   8
HETATM    8  C2  UNL     1     -33.443  17.856  -1.171  1.00 20.00    -0.093 C 
HETATM    9  C1  UNL     1     -34.191  18.034  -0.071  1.00 20.00     0.014 C 
HETATM   10  C8  UNL     1     -31.968  18.138  -1.168  1.00 20.00     0.042 C 
ENDBRANCH   7   8
ENDBRANCH   4   7
TORSDOF 2
ENDMDL
MODEL 2
REMARK VINA RESULT:      -4.1      1.291      2.069
REMARK  2 active torsions:
REMARK  status: ('A' for Active; 'I' for Inactive)
REMARK    1  A    between atoms: C2_2  and  C9_9 
REMARK    2  A    between atoms: C6_6  and  C9_9 
ROOT
HETATM    1  C3  UNL     1     -35.879  16.030  -3.561  1.00 20.00     0.006 C 
HETATM    2  C4  UNL     1     -36.909  14.997  -4.000  1.00 20.00     0.020 C 
HETATM    3  C5  UNL     1     -34.818  13.835  -3.867  1.00 20.00     0.025 C 
HETATM    4  C6  UNL     1     -34.641  15.205  -3.185  1.00 20.00    -0.009 C 
HETATM    5  C7  UNL     1     -36.081  13.942  -4.720  1.00 20.00     0.082 C 
HETATM    6 CL10 UNL     1     -35.675  14.473  -6.378  1.00 20.00    -0.125 Cl
ENDROOT
BRANCH   4   7
HETATM    7  C9  UNL     1     -33.344  15.898  -3.577  1.00 20.00     0.037 C 
BRANCH   7   8
HETATM    8  C2  UNL     1     -33.212  17.275  -2.973  1.00 20.00    -0.093 C 
HETATM    9  C1  UNL     1     -33.227  17.461  -1.644  1.00 20.00     0.014 C 
HETATM   10  C8  UNL     1     -33.100  18.432  -3.924  1.00 20.00     0.042 C 
ENDBRANCH   7   8
ENDBRANCH   4   7
TORSDOF 2
ENDMDL
MODEL 3
REMARK VINA RESULT:      -4.1     11.792     12.618
REMARK  2 active torsions:
REMARK  status: ('A' for Active; 'I' for Inactive)
REMARK    1  A    between atoms: C2_2  and  C9_9 
REMARK    2  A    between atoms: C6_6  and  C9_9 
ROOT
HETATM    1  C3  UNL     1     -34.052   4.252   4.249  1.00 20.00     0.006 C 
HETATM    2  C4  UNL     1     -35.010   4.733   5.332  1.00 20.00     0.020 C 
HETATM    3  C5  UNL     1     -34.687   6.592   3.855  1.00 20.00     0.025 C 
HETATM    4  C6  UNL     1     -34.114   5.339   3.168  1.00 20.00    -0.009 C 
HETATM    5  C7  UNL     1     -34.823   6.244   5.337  1.00 20.00     0.082 C 
HETATM    6 CL10 UNL     1     -33.340   6.699   6.226  1.00 20.00    -0.125 Cl
ENDROOT
BRANCH   4   7
HETATM    7  C9  UNL     1     -32.760   5.587   2.520  1.00 20.00     0.037 C 
BRANCH   7   8
HETATM    8  C2  UNL     1     -32.377   7.046   2.505  1.00 20.00    -0.093 C 
HETATM    9  C1  UNL     1     -31.729   7.611   3.536  1.00 20.00     0.014 C 
HETATM   10  C8  UNL     1     -32.785   7.849   1.303  1.00 20.00     0.042 C 
ENDBRANCH   7   8
ENDBRANCH   4   7
TORSDOF 2
ENDMDL
MODEL 4
REMARK VINA RESULT:      -4.0      1.374      2.144
REMARK  2 active torsions:
REMARK  status: ('A' for Active; 'I' for Inactive)
REMARK    1  A    between atoms: C2_2  and  C9_9 
REMARK    2  A    between atoms: C6_6  and  C9_9 
ROOT
HETATM    1  C3  UNL     1     -35.979  16.440  -4.279  1.00 20.00     0.006 C 
HETATM    2  C4  UNL     1     -36.707  15.600  -5.321  1.00 20.00     0.020 C 
HETATM    3  C5  UNL     1     -35.274  14.091  -4.133  1.00 20.00     0.025 C 
HETATM    4  C6  UNL     1     -35.322  15.414  -3.347  1.00 20.00    -0.009 C 
HETATM    5  C7  UNL     1     -35.782  14.410  -5.538  1.00 20.00     0.082 C 
HETATM    6 CL10 UNL     1     -34.423  14.848  -6.613  1.00 20.00    -0.125 Cl
ENDROOT
BRANCH   4   7
HETATM    7  C9  UNL     1     -33.951  15.867  -2.865  1.00 20.00     0.037 C 
BRANCH   7   8
HETATM    8  C2  UNL     1     -34.029  16.894  -1.762  1.00 20.00    -0.093 C 
HETATM    9  C1  UNL     1     -33.052  17.794  -1.573  1.00 20.00     0.014 C 
HETATM   10  C8  UNL     1     -35.230  16.841  -0.861  1.00 20.00     0.042 C 
ENDBRANCH   7   8
ENDBRANCH   4   7
TORSDOF 2
ENDMDL
MODEL 5
REMARK VINA RESULT:      -4.0      1.481      1.929
REMARK  2 active torsions:
REMARK  status: ('A' for Active; 'I' for Inactive)
REMARK    1  A    between atoms: C2_2  and  C9_9 
REMARK    2  A    between atoms: C6_6  and  C9_9 
ROOT
HETATM    1  C3  UNL     1     -33.404  14.813  -4.166  1.00 20.00     0.006 C 
HETATM    2  C4  UNL     1     -33.667  14.781  -5.666  1.00 20.00     0.020 C 
HETATM    3  C5  UNL     1     -35.207  16.374  -4.755  1.00 20.00     0.025 C 
HETATM    4  C6  UNL     1     -34.168  16.046  -3.667  1.00 20.00    -0.009 C 
HETATM    5  C7  UNL     1     -35.108  15.257  -5.793  1.00 20.00     0.082 C 
HETATM    6 CL10 UNL     1     -36.250  13.938  -5.404  1.00 20.00    -0.125 Cl
ENDROOT
BRANCH   4   7
HETATM    7  C9  UNL     1     -34.796  15.821  -2.298  1.00 20.00     0.037 C 
BRANCH   7   8
HETATM    8  C2  UNL     1     -34.532  16.958  -1.341  1.00 20.00    -0.093 C 
HETATM    9  C1  UNL     1     -35.411  17.284  -0.382  1.00 20.00     0.014 C 
HETATM   10  C8  UNL     1     -33.260  17.732  -1.532  1.00 20.00     0.042 C 
ENDBRANCH   7   8
ENDBRANCH   4   7
TORSDOF 2
ENDMDL
MODEL 6
REMARK VINA RESULT:      -3.8      2.217      4.481
REMARK  2 active torsions:
REMARK  status: ('A' for Active; 'I' for Inactive)
REMARK    1  A    between atoms: C2_2  and  C9_9 
REMARK    2  A    between atoms: C6_6  and  C9_9 
ROOT
HETATM    1  C3  UNL     1     -34.340  16.956  -1.588  1.00 20.00     0.006 C 
HETATM    2  C4  UNL     1     -34.136  18.363  -1.040  1.00 20.00     0.020 C 
HETATM    3  C5  UNL     1     -32.961  18.285  -3.127  1.00 20.00     0.025 C 
HETATM    4  C6  UNL     1     -33.855  17.034  -3.041  1.00 20.00    -0.009 C 
HETATM    5  C7  UNL     1     -32.846  18.827  -1.703  1.00 20.00     0.082 C 
HETATM    6 CL10 UNL     1     -31.421  18.129  -0.879  1.00 20.00    -0.125 Cl
ENDROOT
BRANCH   4   7
HETATM    7  C9  UNL     1     -33.140  15.763  -3.479  1.00 20.00     0.037 C 
BRANCH   7   8
HETATM    8  C2  UNL     1     -33.997  14.883  -4.355  1.00 20.00    -0.093 C 
HETATM    9  C1  UNL     1     -34.836  13.977  -3.830  1.00 20.00     0.014 C 
HETATM   10  C8  UNL     1     -33.844  15.039  -5.841  1.00 20.00     0.042 C 
ENDBRANCH   7   8
ENDBRANCH   4   7
TORSDOF 2
ENDMDL
MODEL 7
REMARK VINA RESULT:      -3.8      2.115      4.625
REMARK  2 active torsions:
REMARK  status: ('A' for Active; 'I' for Inactive)
REMARK    1  A    between atoms: C2_2  and  C9_9 
REMARK    2  A    between atoms: C6_6  and  C9_9 
ROOT
HETATM    1  C3  UNL     1     -33.326  16.625  -3.490  1.00 20.00     0.006 C 
HETATM    2  C4  UNL     1     -32.867  17.172  -2.145  1.00 20.00     0.020 C 
HETATM    3  C5  UNL     1     -35.062  16.282  -1.786  1.00 20.00     0.025 C 
HETATM    4  C6  UNL     1     -34.575  15.796  -3.164  1.00 20.00    -0.009 C 
HETATM    5  C7  UNL     1     -34.168  17.461  -1.407  1.00 20.00     0.082 C 
HETATM    6 CL10 UNL     1     -34.887  19.000  -1.964  1.00 20.00    -0.125 Cl
ENDROOT
BRANCH   4   7
HETATM    7  C9  UNL     1     -35.642  15.910  -4.244  1.00 20.00     0.037 C 
BRANCH   7   8
HETATM    8  C2  UNL     1     -35.773  14.654  -5.070  1.00 20.00    -0.093 C 
HETATM    9  C1  UNL     1     -36.101  13.479  -4.511  1.00 20.00     0.014 C 
HETATM   10  C8  UNL     1     -35.485  14.768  -6.539  1.00 20.00     0.042 C 
ENDBRANCH   7   8
ENDBRANCH   4   7
TORSDOF 2
ENDMDL
MODEL 8
REMARK VINA RESULT:      -3.7      2.148      4.708
REMARK  2 active torsions:
REMARK  status: ('A' for Active; 'I' for Inactive)
REMARK    1  A    between atoms: C2_2  and  C9_9 
REMARK    2  A    between atoms: C6_6  and  C9_9 
ROOT
HETATM    1  C3  UNL     1     -33.236  16.841  -3.417  1.00 20.00     0.006 C 
HETATM    2  C4  UNL     1     -32.891  17.285  -2.002  1.00 20.00     0.020 C 
HETATM    3  C5  UNL     1     -35.041  16.237  -1.864  1.00 20.00     0.025 C 
HETATM    4  C6  UNL     1     -34.445  15.912  -3.246  1.00 20.00    -0.009 C 
HETATM    5  C7  UNL     1     -34.247  17.426  -1.324  1.00 20.00     0.082 C 
HETATM    6 CL10 UNL     1     -35.032  18.965  -1.785  1.00 20.00    -0.125 Cl
ENDROOT
BRANCH   4   7
HETATM    7  C9  UNL     1     -35.454  16.063  -4.376  1.00 20.00     0.037 C 
BRANCH   7   8
HETATM    8  C2  UNL     1     -35.606  14.805  -5.195  1.00 20.00    -0.093 C 
HETATM    9  C1  UNL     1     -35.340  14.789  -6.510  1.00 20.00     0.014 C 
HETATM   10  C8  UNL     1     -36.104  13.580  -4.483  1.00 20.00     0.042 C 
ENDBRANCH   7   8
ENDBRANCH   4   7
TORSDOF 2
ENDMDL
MODEL 9
REMARK VINA RESULT:      -3.7      1.485      1.796
REMARK  2 active torsions:
REMARK  status: ('A' for Active; 'I' for Inactive)
REMARK    1  A    between atoms: C2_2  and  C9_9 
REMARK    2  A    between atoms: C6_6  and  C9_9 
ROOT
HETATM    1  C3  UNL     1     -34.360  16.019  -2.235  1.00 20.00     0.006 C 
HETATM    2  C4  UNL     1     -34.363  15.588  -3.696  1.00 20.00     0.020 C 
HETATM    3  C5  UNL     1     -33.028  17.575  -3.591  1.00 20.00     0.025 C 
HETATM    4  C6  UNL     1     -33.263  17.087  -2.150  1.00 20.00    -0.009 C 
HETATM    5  C7  UNL     1     -34.077  16.876  -4.455  1.00 20.00     0.082 C 
HETATM    6 CL10 UNL     1     -35.551  17.879  -4.586  1.00 20.00    -0.125 Cl
ENDROOT
BRANCH   4   7
HETATM    7  C9  UNL     1     -33.627  18.216  -1.195  1.00 20.00     0.037 C 
BRANCH   7   8
HETATM    8  C2  UNL     1     -32.637  18.369  -0.067  1.00 20.00    -0.093 C 
HETATM    9  C1  UNL     1     -33.040  18.578   1.196  1.00 20.00     0.014 C 
HETATM   10  C8  UNL     1     -31.179  18.315  -0.424  1.00 20.00     0.042 C 
ENDBRANCH   7   8
ENDBRANCH   4   7
TORSDOF 2
ENDMDL
