MODEL 1
REMARK VINA RESULT:      -4.9      0.000      0.000
REMARK  2 active torsions:
REMARK  status: ('A' for Active; 'I' for Inactive)
REMARK    1  A    between atoms: C1_1  and  C7_7 
REMARK    2  A    between atoms: C7_7  and  O11_11 
ROOT
HETATM    1  C3  UNL     1     -35.878  13.476  -4.522  1.00 20.00     0.029 C 
HETATM    2  C4  UNL     1     -35.016  14.312  -3.578  1.00 20.00     0.046 C 
HETATM    3  C5  UNL     1     -36.147  14.239  -5.811  1.00 20.00     0.167 C 
HETATM    4  C6  UNL     1     -34.141  15.495  -5.628  1.00 20.00     0.209 C 
HETATM    5  C7  UNL     1     -33.765  14.844  -4.292  1.00 20.00     0.097 C 
HETATM    6  O10 UNL     1     -34.922  14.611  -6.437  1.00 20.00    -0.388 OA
ENDROOT
BRANCH   5   7
HETATM    7  C1  UNL     1     -33.016  15.814  -3.430  1.00 20.00     0.015 C 
HETATM    8  C2  UNL     1     -33.525  16.777  -2.639  1.00 20.00    -0.088 C 
HETATM    9  C8  UNL     1     -32.631  17.674  -1.829  1.00 20.00     0.042 C 
HETATM   10  C9  UNL     1     -34.997  17.045  -2.489  1.00 20.00     0.042 C 
ENDBRANCH   5   7
BRANCH   5  11
HETATM   11  O11 UNL     1     -32.897  13.743  -4.581  1.00 20.00    -0.384 OA
HETATM   12  H27 UNL     1     -32.288  13.670  -3.831  1.00 20.00     0.211 HD
ENDBRANCH   5  11
TORSDOF 2
ENDMDL
MODEL 2
REMARK VINA RESULT:      -4.5      1.324      1.389
REMARK  2 active torsions:
REMARK  status: ('A' for Active; 'I' for Inactive)
REMARK    1  A    between atoms: C1_1  and  C7_7 
REMARK    2  A    between atoms: C7_7  and  O11_11 
ROOT
HETATM    1  C3  UNL     1     -35.803  13.764  -4.434  1.00 20.00     0.029 C 
HETATM    2  C4  UNL     1     -34.679  14.469  -3.676  1.00 20.00     0.046 C 
HETATM    3  C5  UNL     1     -36.979  14.708  -4.638  1.00 20.00     0.167 C 
HETATM    4  C6  UNL     1     -35.596  16.637  -4.585  1.00 20.00     0.209 C 
HETATM    5  C7  UNL     1     -34.329  15.815  -4.326  1.00 20.00     0.097 C 
HETATM    6  O10 UNL     1     -36.563  15.885  -5.325  1.00 20.00    -0.388 OA
ENDROOT
BRANCH   5   7
HETATM    7  C1  UNL     1     -33.363  16.592  -3.484  1.00 20.00     0.015 C 
HETATM    8  C2  UNL     1     -33.538  17.031  -2.223  1.00 20.00    -0.088 C 
HETATM    9  C8  UNL     1     -32.462  17.803  -1.511  1.00 20.00     0.042 C 
HETATM   10  C9  UNL     1     -34.789  16.800  -1.423  1.00 20.00     0.042 C 
ENDBRANCH   5   7
BRANCH   5  11
HETATM   11  O11 UNL     1     -33.713  15.566  -5.595  1.00 20.00    -0.384 OA
HETATM   12  H27 UNL     1     -34.272  15.996  -6.260  1.00 20.00     0.211 HD
ENDBRANCH   5  11
TORSDOF 2
ENDMDL
MODEL 3
REMARK VINA RESULT:      -4.5      1.388      2.035
REMARK  2 active torsions:
REMARK  status: ('A' for Active; 'I' for Inactive)
REMARK    1  A    between atoms: C1_1  and  C7_7 
REMARK    2  A    between atoms: C7_7  and  O11_11 
ROOT
HETATM    1  C3  UNL     1     -35.673  14.883  -6.630  1.00 20.00     0.029 C 
HETATM    2  C4  UNL     1     -35.990  15.280  -5.189  1.00 20.00     0.046 C 
HETATM    3  C5  UNL     1     -34.203  15.129  -6.937  1.00 20.00     0.167 C 
HETATM    4  C6  UNL     1     -33.558  14.852  -4.669  1.00 20.00     0.209 C 
HETATM    5  C7  UNL     1     -35.003  14.636  -4.205  1.00 20.00     0.097 C 
HETATM    6  O10 UNL     1     -33.375  14.419  -6.020  1.00 20.00    -0.388 OA
ENDROOT
BRANCH   5   7
HETATM    7  C1  UNL     1     -35.193  15.168  -2.817  1.00 20.00     0.015 C 
HETATM    8  C2  UNL     1     -34.938  16.412  -2.370  1.00 20.00    -0.088 C 
HETATM    9  C8  UNL     1     -35.186  16.789  -0.935  1.00 20.00     0.042 C 
HETATM   10  C9  UNL     1     -34.397  17.516  -3.233  1.00 20.00     0.042 C 
ENDBRANCH   5   7
BRANCH   5  11
HETATM   11  O11 UNL     1     -35.238  13.224  -4.177  1.00 20.00    -0.384 OA
HETATM   12  H27 UNL     1     -35.792  13.023  -4.946  1.00 20.00     0.211 HD
ENDBRANCH   5  11
TORSDOF 2
ENDMDL
MODEL 4
REMARK VINA RESULT:      -4.5     17.105     18.462
REMARK  2 active torsions:
REMARK  status: ('A' for Active; 'I' for Inactive)
REMARK    1  A    between atoms: C1_1  and  C7_7 
REMARK    2  A    between atoms: C7_7  and  O11_11 
ROOT
HETATM    1  C3  UNL     1     -25.365  18.513  12.240  1.00 20.00     0.029 C 
HETATM    2  C4  UNL     1     -24.308  18.474  11.137  1.00 20.00     0.046 C 
HETATM    3  C5  UNL     1     -26.233  17.264  12.188  1.00 20.00     0.167 C 
HETATM    4  C6  UNL     1     -24.508  15.959  11.209  1.00 20.00     0.209 C 
HETATM    5  C7  UNL     1     -23.539  17.145  11.151  1.00 20.00     0.097 C 
HETATM    6  O10 UNL     1     -25.430  16.091  12.295  1.00 20.00    -0.388 OA
ENDROOT
BRANCH   5   7
HETATM    7  C1  UNL     1     -22.635  17.026   9.962  1.00 20.00     0.015 C 
HETATM    8  C2  UNL     1     -22.792  17.588   8.749  1.00 20.00    -0.088 C 
HETATM    9  C8  UNL     1     -21.785  17.369   7.654  1.00 20.00     0.042 C 
HETATM   10  C9  UNL     1     -23.954  18.465   8.378  1.00 20.00     0.042 C 
ENDBRANCH   5   7
BRANCH   5  11
HETATM   11  O11 UNL     1     -22.730  17.095  12.332  1.00 20.00    -0.384 OA
HETATM   12  H27 UNL     1     -23.343  17.064  13.082  1.00 20.00     0.211 HD
ENDBRANCH   5  11
TORSDOF 2
ENDMDL
MODEL 5
REMARK VINA RESULT:      -4.4      1.747      2.441
REMARK  2 active torsions:
REMARK  status: ('A' for Active; 'I' for Inactive)
REMARK    1  A    between atoms: C1_1  and  C7_7 
REMARK    2  A    between atoms: C7_7  and  O11_11 
ROOT
HETATM    1  C3  UNL     1     -36.549  15.649  -6.172  1.00 20.00     0.029 C 
HETATM    2  C4  UNL     1     -36.197  16.390  -4.882  1.00 20.00     0.046 C 
HETATM    3  C5  UNL     1     -35.565  14.517  -6.420  1.00 20.00     0.167 C 
HETATM    4  C6  UNL     1     -35.097  14.255  -4.107  1.00 20.00     0.209 C 
HETATM    5  C7  UNL     1     -36.021  15.413  -3.711  1.00 20.00     0.097 C 
HETATM    6  O10 UNL     1     -35.541  13.622  -5.310  1.00 20.00    -0.388 OA
ENDROOT
BRANCH   5   7
HETATM    7  C1  UNL     1     -35.494  16.110  -2.494  1.00 20.00     0.015 C 
HETATM    8  C2  UNL     1     -34.280  16.667  -2.324  1.00 20.00    -0.088 C 
HETATM    9  C8  UNL     1     -33.904  17.335  -1.031  1.00 20.00     0.042 C 
HETATM   10  C9  UNL     1     -33.210  16.676  -3.379  1.00 20.00     0.042 C 
ENDBRANCH   5   7
BRANCH   5  11
HETATM   11  O11 UNL     1     -37.297  14.850  -3.385  1.00 20.00    -0.384 OA
HETATM   12  H27 UNL     1     -37.335  13.986  -3.822  1.00 20.00     0.211 HD
ENDBRANCH   5  11
TORSDOF 2
ENDMDL
MODEL 6
REMARK VINA RESULT:      -4.2      2.043      3.232
REMARK  2 active torsions:
REMARK  status: ('A' for Active; 'I' for Inactive)
REMARK    1  A    between atoms: C1_1  and  C7_7 
REMARK    2  A    between atoms: C7_7  and  O11_11 
ROOT
HETATM    1  C3  UNL     1     -34.607  14.353  -3.953  1.00 20.00     0.029 C 
HETATM    2  C4  UNL     1     -34.267  15.628  -4.724  1.00 20.00     0.046 C 
HETATM    3  C5  UNL     1     -35.943  13.793  -4.415  1.00 20.00     0.167 C 
HETATM    4  C6  UNL     1     -35.730  14.743  -6.580  1.00 20.00     0.209 C 
HETATM    5  C7  UNL     1     -34.393  15.411  -6.239  1.00 20.00     0.097 C 
HETATM    6  O10 UNL     1     -35.924  13.548  -5.819  1.00 20.00    -0.388 OA
ENDROOT
BRANCH   5   7
HETATM    7  C1  UNL     1     -34.245  16.700  -6.988  1.00 20.00     0.015 C 
HETATM    8  C2  UNL     1     -34.984  17.818  -6.858  1.00 20.00    -0.088 C 
HETATM    9  C8  UNL     1     -34.704  19.038  -7.691  1.00 20.00     0.042 C 
HETATM   10  C9  UNL     1     -36.129  17.956  -5.894  1.00 20.00     0.042 C 
ENDBRANCH   5   7
BRANCH   5  11
HETATM   11  O11 UNL     1     -33.351  14.526  -6.665  1.00 20.00    -0.384 OA
HETATM   12  H27 UNL     1     -33.605  14.206  -7.544  1.00 20.00     0.211 HD
ENDBRANCH   5  11
TORSDOF 2
ENDMDL
MODEL 7
REMARK VINA RESULT:      -4.0      1.282      1.696
REMARK  2 active torsions:
REMARK  status: ('A' for Active; 'I' for Inactive)
REMARK    1  A    between atoms: C1_1  and  C7_7 
REMARK    2  A    between atoms: C7_7  and  O11_11 
ROOT
HETATM    1  C3  UNL     1     -35.920  14.013  -5.644  1.00 20.00     0.029 C 
HETATM    2  C4  UNL     1     -36.068  14.456  -4.190  1.00 20.00     0.046 C 
HETATM    3  C5  UNL     1     -35.769  15.222  -6.555  1.00 20.00     0.167 C 
HETATM    4  C6  UNL     1     -34.818  16.552  -4.833  1.00 20.00     0.209 C 
HETATM    5  C7  UNL     1     -34.955  15.436  -3.791  1.00 20.00     0.097 C 
HETATM    6  O10 UNL     1     -34.657  16.017  -6.150  1.00 20.00    -0.388 OA
ENDROOT
BRANCH   5   7
HETATM    7  C1  UNL     1     -35.201  16.017  -2.432  1.00 20.00     0.015 C 
HETATM    8  C2  UNL     1     -34.391  16.826  -1.723  1.00 20.00    -0.088 C 
HETATM    9  C8  UNL     1     -34.789  17.327  -0.362  1.00 20.00     0.042 C 
HETATM   10  C9  UNL     1     -33.048  17.296  -2.206  1.00 20.00     0.042 C 
ENDBRANCH   5   7
BRANCH   5  11
HETATM   11  O11 UNL     1     -33.711  14.728  -3.755  1.00 20.00    -0.384 OA
HETATM   12  H27 UNL     1     -33.087  15.295  -3.277  1.00 20.00     0.211 HD
ENDBRANCH   5  11
TORSDOF 2
ENDMDL
MODEL 8
REMARK VINA RESULT:      -4.0      2.983      4.899
REMARK  2 active torsions:
REMARK  status: ('A' for Active; 'I' for Inactive)
REMARK    1  A    between atoms: C1_1  and  C7_7 
REMARK    2  A    between atoms: C7_7  and  O11_11 
ROOT
HETATM    1  C3  UNL     1     -35.656  17.648  -0.066  1.00 20.00     0.029 C 
HETATM    2  C4  UNL     1     -35.071  16.680  -1.093  1.00 20.00     0.046 C 
HETATM    3  C5  UNL     1     -34.543  18.379   0.670  1.00 20.00     0.167 C 
HETATM    4  C6  UNL     1     -33.037  18.173  -1.154  1.00 20.00     0.209 C 
HETATM    5  C7  UNL     1     -34.044  17.380  -1.995  1.00 20.00     0.097 C 
HETATM    6  O10 UNL     1     -33.699  19.064  -0.252  1.00 20.00    -0.388 OA
ENDROOT
BRANCH   5   7
HETATM    7  C1  UNL     1     -33.333  16.398  -2.875  1.00 20.00     0.015 C 
HETATM    8  C2  UNL     1     -33.866  15.368  -3.559  1.00 20.00    -0.088 C 
HETATM    9  C8  UNL     1     -33.009  14.468  -4.406  1.00 20.00     0.042 C 
HETATM   10  C9  UNL     1     -35.329  15.024  -3.547  1.00 20.00     0.042 C 
ENDBRANCH   5   7
BRANCH   5  11
HETATM   11  O11 UNL     1     -34.731  18.314  -2.834  1.00 20.00    -0.384 OA
HETATM   12  H27 UNL     1     -35.572  18.510  -2.395  1.00 20.00     0.211 HD
ENDBRANCH   5  11
TORSDOF 2
ENDMDL
MODEL 9
REMARK VINA RESULT:      -4.0     10.944     12.559
REMARK  2 active torsions:
REMARK  status: ('A' for Active; 'I' for Inactive)
REMARK    1  A    between atoms: C1_1  and  C7_7 
REMARK    2  A    between atoms: C7_7  and  O11_11 
ROOT
HETATM    1  C3  UNL     1     -43.417   4.236  -1.324  1.00 20.00     0.029 C 
HETATM    2  C4  UNL     1     -43.251   5.585  -0.625  1.00 20.00     0.046 C 
HETATM    3  C5  UNL     1     -42.300   4.020  -2.333  1.00 20.00     0.167 C 
HETATM    4  C6  UNL     1     -40.786   5.403  -1.135  1.00 20.00     0.209 C 
HETATM    5  C7  UNL     1     -41.830   5.750  -0.067  1.00 20.00     0.097 C 
HETATM    6  O10 UNL     1     -41.027   4.109  -1.697  1.00 20.00    -0.388 OA
ENDROOT
BRANCH   5   7
HETATM    7  C1  UNL     1     -41.606   7.138   0.451  1.00 20.00     0.015 C 
HETATM    8  C2  UNL     1     -41.768   8.300  -0.210  1.00 20.00    -0.088 C 
HETATM    9  C8  UNL     1     -41.500   9.620   0.459  1.00 20.00     0.042 C 
HETATM   10  C9  UNL     1     -42.219   8.393  -1.640  1.00 20.00     0.042 C 
ENDBRANCH   5   7
BRANCH   5  11
HETATM   11  O11 UNL     1     -41.653   4.835   1.019  1.00 20.00    -0.384 OA
HETATM   12  H27 UNL     1     -41.695   5.362   1.831  1.00 20.00     0.211 HD
ENDBRANCH   5  11
TORSDOF 2
ENDMDL
