MODEL 1
REMARK VINA RESULT:      -4.2      0.000      0.000
REMARK  2 active torsions:
REMARK  status: ('A' for Active; 'I' for Inactive)
REMARK    1  A    between atoms: C7_7  and  C8_8 
REMARK    2  A    between atoms: C7_7  and  N9_9 
ROOT
HETATM    1  C1  UNL     1     -33.020   5.623   2.755  1.00 20.00     0.277 C 
HETATM    2  C2  UNL     1     -32.611   7.313   4.280  1.00 20.00     0.277 C 
HETATM    3  C3  UNL     1     -34.261   5.638   3.656  1.00 20.00     0.015 C 
HETATM    4  C4  UNL     1     -33.987   6.765   4.673  1.00 20.00     0.015 C 
HETATM    5  C5  UNL     1     -34.574   4.256   4.214  1.00 20.00     0.012 C 
HETATM    6  C6  UNL     1     -34.053   6.400   6.151  1.00 20.00     0.012 C 
HETATM    7  N9  UNL     1     -32.419   6.958   2.868  1.00 20.00     0.090 N 
ENDROOT
BRANCH   7   8
HETATM    8  C7  UNL     1     -33.056   7.922   1.970  1.00 20.00     0.287 C 
BRANCH   8   9
HETATM    9  C8  UNL     1     -32.297   8.096   0.666  1.00 20.00     0.144 C 
HETATM   10 CL10 UNL     1     -33.369   8.671  -0.636  1.00 20.00    -0.129 Cl
ENDBRANCH   8   9
ENDBRANCH   7   8
TORSDOF 2
ENDMDL
MODEL 2
REMARK VINA RESULT:      -3.9     11.312     11.985
REMARK  2 active torsions:
REMARK  status: ('A' for Active; 'I' for Inactive)
REMARK    1  A    between atoms: C7_7  and  C8_8 
REMARK    2  A    between atoms: C7_7  and  N9_9 
ROOT
HETATM    1  C1  UNL     1     -33.921  16.938  -4.154  1.00 20.00     0.277 C 
HETATM    2  C2  UNL     1     -35.948  16.385  -3.187  1.00 20.00     0.277 C 
HETATM    3  C3  UNL     1     -33.564  16.510  -2.726  1.00 20.00     0.015 C 
HETATM    4  C4  UNL     1     -34.916  16.142  -2.081  1.00 20.00     0.015 C 
HETATM    5  C5  UNL     1     -32.715  17.556  -2.015  1.00 20.00     0.012 C 
HETATM    6  C6  UNL     1     -35.290  16.856  -0.789  1.00 20.00     0.012 C 
HETATM    7  N9  UNL     1     -35.212  16.308  -4.456  1.00 20.00     0.090 N 
ENDROOT
BRANCH   7   8
HETATM    8  C7  UNL     1     -35.053  14.927  -4.913  1.00 20.00     0.287 C 
BRANCH   8   9
HETATM    9  C8  UNL     1     -35.270  14.777  -6.409  1.00 20.00     0.144 C 
HETATM   10 CL10 UNL     1     -33.765  15.075  -7.315  1.00 20.00    -0.129 Cl
ENDBRANCH   8   9
ENDBRANCH   7   8
TORSDOF 2
ENDMDL
MODEL 3
REMARK VINA RESULT:      -3.7     11.283     11.890
REMARK  2 active torsions:
REMARK  status: ('A' for Active; 'I' for Inactive)
REMARK    1  A    between atoms: C7_7  and  C8_8 
REMARK    2  A    between atoms: C7_7  and  N9_9 
ROOT
HETATM    1  C1  UNL     1     -35.355  14.819  -5.243  1.00 20.00     0.277 C 
HETATM    2  C2  UNL     1     -36.110  16.272  -3.609  1.00 20.00     0.277 C 
HETATM    3  C3  UNL     1     -34.482  14.513  -4.020  1.00 20.00     0.015 C 
HETATM    4  C4  UNL     1     -34.985  15.483  -2.931  1.00 20.00     0.015 C 
HETATM    5  C5  UNL     1     -32.997  14.555  -4.358  1.00 20.00     0.012 C 
HETATM    6  C6  UNL     1     -33.956  16.402  -2.286  1.00 20.00     0.012 C 
HETATM    7  N9  UNL     1     -36.581  15.437  -4.722  1.00 20.00     0.090 N 
ENDROOT
BRANCH   7   8
HETATM    8  C7  UNL     1     -37.553  14.436  -4.281  1.00 20.00     0.287 C 
BRANCH   8   9
HETATM    9  C8  UNL     1     -38.968  14.986  -4.213  1.00 20.00     0.144 C 
HETATM   10 CL10 UNL     1     -39.250  16.205  -5.481  1.00 20.00    -0.129 Cl
ENDBRANCH   8   9
ENDBRANCH   7   8
TORSDOF 2
ENDMDL
MODEL 4
REMARK VINA RESULT:      -3.7     11.420     12.229
REMARK  2 active torsions:
REMARK  status: ('A' for Active; 'I' for Inactive)
REMARK    1  A    between atoms: C7_7  and  C8_8 
REMARK    2  A    between atoms: C7_7  and  N9_9 
ROOT
HETATM    1  C1  UNL     1     -35.261  17.498  -2.726  1.00 20.00     0.277 C 
HETATM    2  C2  UNL     1     -33.042  17.445  -3.378  1.00 20.00     0.277 C 
HETATM    3  C3  UNL     1     -34.858  16.024  -2.605  1.00 20.00     0.015 C 
HETATM    4  C4  UNL     1     -33.379  15.989  -3.041  1.00 20.00     0.015 C 
HETATM    5  C5  UNL     1     -35.825  15.108  -3.345  1.00 20.00     0.012 C 
HETATM    6  C6  UNL     1     -33.009  15.043  -4.176  1.00 20.00     0.012 C 
HETATM    7  N9  UNL     1     -34.013  18.268  -2.645  1.00 20.00     0.090 N 
ENDROOT
BRANCH   7   8
HETATM    8  C7  UNL     1     -33.600  18.497  -1.260  1.00 20.00     0.287 C 
BRANCH   8   9
HETATM    9  C8  UNL     1     -32.268  19.220  -1.160  1.00 20.00     0.144 C 
HETATM   10 CL10 UNL     1     -31.028  18.190  -0.402  1.00 20.00    -0.129 Cl
ENDBRANCH   8   9
ENDBRANCH   7   8
TORSDOF 2
ENDMDL
MODEL 5
REMARK VINA RESULT:      -3.6     10.863     11.686
REMARK  2 active torsions:
REMARK  status: ('A' for Active; 'I' for Inactive)
REMARK    1  A    between atoms: C7_7  and  C8_8 
REMARK    2  A    between atoms: C7_7  and  N9_9 
ROOT
HETATM    1  C1  UNL     1     -35.083  15.836  -2.160  1.00 20.00     0.277 C 
HETATM    2  C2  UNL     1     -33.032  16.231  -3.153  1.00 20.00     0.277 C 
HETATM    3  C3  UNL     1     -34.753  17.289  -1.799  1.00 20.00     0.015 C 
HETATM    4  C4  UNL     1     -33.384  17.552  -2.460  1.00 20.00     0.015 C 
HETATM    5  C5  UNL     1     -34.862  17.540  -0.300  1.00 20.00     0.012 C 
HETATM    6  C6  UNL     1     -32.257  18.039  -1.560  1.00 20.00     0.012 C 
HETATM    7  N9  UNL     1     -34.305  15.531  -3.368  1.00 20.00     0.090 N 
ENDROOT
BRANCH   7   8
HETATM    8  C7  UNL     1     -34.981  15.984  -4.583  1.00 20.00     0.287 C 
BRANCH   8   9
HETATM    9  C8  UNL     1     -35.314  14.842  -5.527  1.00 20.00     0.144 C 
HETATM   10 CL10 UNL     1     -36.255  13.574  -4.702  1.00 20.00    -0.129 Cl
ENDBRANCH   8   9
ENDBRANCH   7   8
TORSDOF 2
ENDMDL
MODEL 6
REMARK VINA RESULT:      -3.6     10.888     12.042
REMARK  2 active torsions:
REMARK  status: ('A' for Active; 'I' for Inactive)
REMARK    1  A    between atoms: C7_7  and  C8_8 
REMARK    2  A    between atoms: C7_7  and  N9_9 
ROOT
HETATM    1  C1  UNL     1     -35.039  16.818  -4.299  1.00 20.00     0.277 C 
HETATM    2  C2  UNL     1     -34.926  16.135  -2.092  1.00 20.00     0.277 C 
HETATM    3  C3  UNL     1     -33.606  17.149  -3.866  1.00 20.00     0.015 C 
HETATM    4  C4  UNL     1     -33.531  16.695  -2.394  1.00 20.00     0.015 C 
HETATM    5  C5  UNL     1     -33.243  18.598  -4.167  1.00 20.00     0.012 C 
HETATM    6  C6  UNL     1     -33.101  17.732  -1.365  1.00 20.00     0.012 C 
HETATM    7  N9  UNL     1     -35.505  15.763  -3.390  1.00 20.00     0.090 N 
ENDROOT
BRANCH   7   8
HETATM    8  C7  UNL     1     -35.070  14.435  -3.823  1.00 20.00     0.287 C 
BRANCH   8   9
HETATM    9  C8  UNL     1     -36.150  13.686  -4.583  1.00 20.00     0.144 C 
HETATM   10 CL10 UNL     1     -37.757  14.402  -4.301  1.00 20.00    -0.129 Cl
ENDBRANCH   8   9
ENDBRANCH   7   8
TORSDOF 2
ENDMDL
MODEL 7
REMARK VINA RESULT:      -3.5     11.277     11.939
REMARK  2 active torsions:
REMARK  status: ('A' for Active; 'I' for Inactive)
REMARK    1  A    between atoms: C7_7  and  C8_8 
REMARK    2  A    between atoms: C7_7  and  N9_9 
ROOT
HETATM    1  C1  UNL     1     -35.466  17.147  -2.883  1.00 20.00     0.277 C 
HETATM    2  C2  UNL     1     -33.220  17.056  -3.431  1.00 20.00     0.277 C 
HETATM    3  C3  UNL     1     -35.123  15.653  -2.859  1.00 20.00     0.015 C 
HETATM    4  C4  UNL     1     -33.626  15.593  -3.226  1.00 20.00     0.015 C 
HETATM    5  C5  UNL     1     -36.083  14.836  -3.714  1.00 20.00     0.012 C 
HETATM    6  C6  UNL     1     -33.233  14.723  -4.412  1.00 20.00     0.012 C 
HETATM    7  N9  UNL     1     -34.197  17.859  -2.683  1.00 20.00     0.090 N 
ENDROOT
BRANCH   7   8
HETATM    8  C7  UNL     1     -33.847  17.964  -1.266  1.00 20.00     0.287 C 
BRANCH   8   9
HETATM    9  C8  UNL     1     -35.017  18.411  -0.407  1.00 20.00     0.144 C 
HETATM   10 CL10 UNL     1     -35.533  17.120   0.707  1.00 20.00    -0.129 Cl
ENDBRANCH   8   9
ENDBRANCH   7   8
TORSDOF 2
ENDMDL
MODEL 8
REMARK VINA RESULT:      -3.3      9.834     10.499
REMARK  2 active torsions:
REMARK  status: ('A' for Active; 'I' for Inactive)
REMARK    1  A    between atoms: C7_7  and  C8_8 
REMARK    2  A    between atoms: C7_7  and  N9_9 
ROOT
HETATM    1  C1  UNL     1     -43.417   6.144  -1.530  1.00 20.00     0.277 C 
HETATM    2  C2  UNL     1     -41.889   5.592   0.117  1.00 20.00     0.277 C 
HETATM    3  C3  UNL     1     -42.463   7.343  -1.471  1.00 20.00     0.015 C 
HETATM    4  C4  UNL     1     -41.445   6.974  -0.372  1.00 20.00     0.015 C 
HETATM    5  C5  UNL     1     -43.213   8.659  -1.313  1.00 20.00     0.012 C 
HETATM    6  C6  UNL     1     -41.276   7.957   0.779  1.00 20.00     0.012 C 
HETATM    7  N9  UNL     1     -42.673   5.005  -0.978  1.00 20.00     0.090 N 
ENDROOT
BRANCH   7   8
HETATM    8  C7  UNL     1     -41.819   4.371  -1.983  1.00 20.00     0.287 C 
BRANCH   8   9
HETATM    9  C8  UNL     1     -42.548   3.301  -2.778  1.00 20.00     0.144 C 
HETATM   10 CL10 UNL     1     -41.575   2.747  -4.163  1.00 20.00    -0.129 Cl
ENDBRANCH   8   9
ENDBRANCH   7   8
TORSDOF 2
ENDMDL
MODEL 9
REMARK VINA RESULT:      -3.3     11.190     12.074
REMARK  2 active torsions:
REMARK  status: ('A' for Active; 'I' for Inactive)
REMARK    1  A    between atoms: C7_7  and  C8_8 
REMARK    2  A    between atoms: C7_7  and  N9_9 
ROOT
HETATM    1  C1  UNL     1     -35.120  17.076  -4.196  1.00 20.00     0.277 C 
HETATM    2  C2  UNL     1     -34.084  15.036  -4.538  1.00 20.00     0.277 C 
HETATM    3  C3  UNL     1     -36.071  16.050  -3.568  1.00 20.00     0.015 C 
HETATM    4  C4  UNL     1     -35.381  14.690  -3.798  1.00 20.00     0.015 C 
HETATM    5  C5  UNL     1     -37.495  16.205  -4.087  1.00 20.00     0.012 C 
HETATM    6  C6  UNL     1     -36.180  13.616  -4.524  1.00 20.00     0.012 C 
HETATM    7  N9  UNL     1     -33.796  16.441  -4.220  1.00 20.00     0.090 N 
ENDROOT
BRANCH   7   8
HETATM    8  C7  UNL     1     -33.099  16.580  -2.941  1.00 20.00     0.287 C 
BRANCH   8   9
HETATM    9  C8  UNL     1     -32.807  18.029  -2.590  1.00 20.00     0.144 C 
HETATM   10 CL10 UNL     1     -31.830  18.151  -1.105  1.00 20.00    -0.129 Cl
ENDBRANCH   8   9
ENDBRANCH   7   8
TORSDOF 2
ENDMDL
