MODEL 1
REMARK VINA RESULT:      -3.8      0.000      0.000
REMARK  4 active torsions:
REMARK  status: ('A' for Active; 'I' for Inactive)
REMARK    1  A    between atoms: C2_2  and  C7_7 
REMARK    2  A    between atoms: C6_6  and  C7_7 
REMARK    3  A    between atoms: C6_6  and  S9_9 
REMARK    4  A    between atoms: C7_7  and  N8_8 
ROOT
HETATM    1  C7  UNL     1     -23.436  17.204   9.818  1.00 20.00     0.257 C 
ENDROOT
BRANCH   1   2
HETATM    2  C2  UNL     1     -23.609  16.930  11.306  1.00 20.00    -0.060 C 
HETATM    3  C1  UNL     1     -22.834  17.544  12.217  1.00 20.00     0.016 C 
HETATM    4  C3  UNL     1     -24.669  15.954  11.741  1.00 20.00     0.044 C 
ENDBRANCH   1   2
BRANCH   1   5
HETATM    5  C6  UNL     1     -23.509  18.694   9.439  1.00 20.00     0.113 C 
BRANCH   5   6
HETATM    6  S9  UNL     1     -25.217  19.263   9.154  1.00 20.00    -0.171 SA
HETATM    7  C5  UNL     1     -25.241  19.112   7.355  1.00 20.00     0.089 C 
ENDBRANCH   5   6
ENDBRANCH   1   5
BRANCH   1   8
HETATM    8  N8  UNL     1     -22.162  16.650   9.334  1.00 20.00     0.088 N 
HETATM    9  C4  UNL     1     -21.637  17.459   8.250  1.00 20.00     0.307 C 
HETATM   10  H24 UNL     1     -21.503  16.638  10.106  1.00 20.00     0.316 HD
ENDBRANCH   1   8
TORSDOF 4
ENDMDL
MODEL 2
REMARK VINA RESULT:      -3.6      1.819      3.602
REMARK  4 active torsions:
REMARK  status: ('A' for Active; 'I' for Inactive)
REMARK    1  A    between atoms: C2_2  and  C7_7 
REMARK    2  A    between atoms: C6_6  and  C7_7 
REMARK    3  A    between atoms: C6_6  and  S9_9 
REMARK    4  A    between atoms: C7_7  and  N8_8 
ROOT
HETATM    1  C7  UNL     1     -23.467  18.460   9.617  1.00 20.00     0.257 C 
ENDROOT
BRANCH   1   2
HETATM    2  C2  UNL     1     -24.796  18.888   9.009  1.00 20.00    -0.060 C 
HETATM    3  C1  UNL     1     -25.824  19.263   9.789  1.00 20.00     0.016 C 
HETATM    4  C3  UNL     1     -24.938  18.882   7.510  1.00 20.00     0.044 C 
ENDBRANCH   1   2
BRANCH   1   5
HETATM    5  C6  UNL     1     -23.426  16.988  10.067  1.00 20.00     0.113 C 
BRANCH   5   6
HETATM    6  S9  UNL     1     -23.539  16.804  11.877  1.00 20.00    -0.171 SA
HETATM    7  C5  UNL     1     -22.154  17.871  12.331  1.00 20.00     0.089 C 
ENDBRANCH   5   6
ENDBRANCH   1   5
BRANCH   1   8
HETATM    8  N8  UNL     1     -22.364  18.702   8.675  1.00 20.00     0.088 N 
HETATM    9  C4  UNL     1     -21.459  17.568   8.651  1.00 20.00     0.307 C 
HETATM   10  H24 UNL     1     -22.757  18.850   7.751  1.00 20.00     0.316 HD
ENDBRANCH   1   8
TORSDOF 4
ENDMDL
MODEL 3
REMARK VINA RESULT:      -3.4      2.218      3.258
REMARK  4 active torsions:
REMARK  status: ('A' for Active; 'I' for Inactive)
REMARK    1  A    between atoms: C2_2  and  C7_7 
REMARK    2  A    between atoms: C6_6  and  C7_7 
REMARK    3  A    between atoms: C6_6  and  S9_9 
REMARK    4  A    between atoms: C7_7  and  N8_8 
ROOT
HETATM    1  C7  UNL     1     -24.210  17.829  10.409  1.00 20.00     0.257 C 
ENDROOT
BRANCH   1   2
HETATM    2  C2  UNL     1     -22.725  17.806  10.750  1.00 20.00    -0.060 C 
HETATM    3  C1  UNL     1     -21.794  17.871   9.785  1.00 20.00     0.016 C 
HETATM    4  C3  UNL     1     -22.320  17.708  12.197  1.00 20.00     0.044 C 
ENDBRANCH   1   2
BRANCH   1   5
HETATM    5  C6  UNL     1     -25.134  17.521  11.601  1.00 20.00     0.113 C 
BRANCH   5   6
HETATM    6  S9  UNL     1     -26.387  18.817  11.872  1.00 20.00    -0.171 SA
HETATM    7  C5  UNL     1     -27.768  17.747  12.332  1.00 20.00     0.089 C 
ENDBRANCH   5   6
ENDBRANCH   1   5
BRANCH   1   8
HETATM    8  N8  UNL     1     -24.589  19.128   9.833  1.00 20.00     0.088 N 
HETATM    9  C4  UNL     1     -24.974  18.973   8.442  1.00 20.00     0.307 C 
HETATM   10  H24 UNL     1     -25.368  19.501  10.367  1.00 20.00     0.316 HD
ENDBRANCH   1   8
TORSDOF 4
ENDMDL
MODEL 4
REMARK VINA RESULT:      -3.3      2.193      3.357
REMARK  4 active torsions:
REMARK  status: ('A' for Active; 'I' for Inactive)
REMARK    1  A    between atoms: C2_2  and  C7_7 
REMARK    2  A    between atoms: C6_6  and  C7_7 
REMARK    3  A    between atoms: C6_6  and  S9_9 
REMARK    4  A    between atoms: C7_7  and  N8_8 
ROOT
HETATM    1  C7  UNL     1     -24.145  17.484  10.153  1.00 20.00     0.257 C 
ENDROOT
BRANCH   1   2
HETATM    2  C2  UNL     1     -25.158  18.620  10.102  1.00 20.00    -0.060 C 
HETATM    3  C1  UNL     1     -25.417  19.263   8.951  1.00 20.00     0.016 C 
HETATM    4  C3  UNL     1     -25.865  19.011  11.372  1.00 20.00     0.044 C 
ENDBRANCH   1   2
BRANCH   1   5
HETATM    5  C6  UNL     1     -22.830  17.844  10.869  1.00 20.00     0.113 C 
BRANCH   5   6
HETATM    6  S9  UNL     1     -21.436  18.053   9.715  1.00 20.00    -0.171 SA
HETATM    7  C5  UNL     1     -22.226  17.388   8.233  1.00 20.00     0.089 C 
ENDBRANCH   5   6
ENDBRANCH   1   5
BRANCH   1   8
HETATM    8  N8  UNL     1     -24.729  16.296  10.794  1.00 20.00     0.088 N 
HETATM    9  C4  UNL     1     -23.992  15.956  11.997  1.00 20.00     0.307 C 
HETATM   10  H24 UNL     1     -25.695  16.499  11.027  1.00 20.00     0.316 HD
ENDBRANCH   1   8
TORSDOF 4
ENDMDL
MODEL 5
REMARK VINA RESULT:      -3.3     16.889     18.381
REMARK  4 active torsions:
REMARK  status: ('A' for Active; 'I' for Inactive)
REMARK    1  A    between atoms: C2_2  and  C7_7 
REMARK    2  A    between atoms: C6_6  and  C7_7 
REMARK    3  A    between atoms: C6_6  and  S9_9 
REMARK    4  A    between atoms: C7_7  and  N8_8 
ROOT
HETATM    1  C7  UNL     1     -35.448  15.706  -3.834  1.00 20.00     0.257 C 
ENDROOT
BRANCH   1   2
HETATM    2  C2  UNL     1     -34.582  16.205  -2.685  1.00 20.00    -0.060 C 
HETATM    3  C1  UNL     1     -35.113  16.449  -1.475  1.00 20.00     0.016 C 
HETATM    4  C3  UNL     1     -33.113  16.421  -2.931  1.00 20.00     0.044 C 
ENDBRANCH   1   2
BRANCH   1   5
HETATM    5  C6  UNL     1     -34.810  14.572  -4.657  1.00 20.00     0.113 C 
BRANCH   5   6
HETATM    6  S9  UNL     1     -34.263  15.123  -6.306  1.00 20.00    -0.171 SA
HETATM    7  C5  UNL     1     -35.116  16.715  -6.341  1.00 20.00     0.089 C 
ENDBRANCH   5   6
ENDBRANCH   1   5
BRANCH   1   8
HETATM    8  N8  UNL     1     -36.759  15.258  -3.339  1.00 20.00     0.088 N 
HETATM    9  C4  UNL     1     -37.435  14.461  -4.346  1.00 20.00     0.307 C 
HETATM   10  H24 UNL     1     -36.614  14.705  -2.501  1.00 20.00     0.316 HD
ENDBRANCH   1   8
TORSDOF 4
ENDMDL
MODEL 6
REMARK VINA RESULT:      -3.3     16.916     18.373
REMARK  4 active torsions:
REMARK  status: ('A' for Active; 'I' for Inactive)
REMARK    1  A    between atoms: C2_2  and  C7_7 
REMARK    2  A    between atoms: C6_6  and  C7_7 
REMARK    3  A    between atoms: C6_6  and  S9_9 
REMARK    4  A    between atoms: C7_7  and  N8_8 
ROOT
HETATM    1  C7  UNL     1     -35.396  15.710  -3.877  1.00 20.00     0.257 C 
ENDROOT
BRANCH   1   2
HETATM    2  C2  UNL     1     -34.488  16.201  -2.757  1.00 20.00    -0.060 C 
HETATM    3  C1  UNL     1     -33.167  16.346  -2.953  1.00 20.00     0.016 C 
HETATM    4  C3  UNL     1     -35.101  16.520  -1.420  1.00 20.00     0.044 C 
ENDBRANCH   1   2
BRANCH   1   5
HETATM    5  C6  UNL     1     -34.792  14.577  -4.727  1.00 20.00     0.113 C 
BRANCH   5   6
HETATM    6  S9  UNL     1     -34.271  15.139  -6.380  1.00 20.00    -0.171 SA
HETATM    7  C5  UNL     1     -35.138  16.724  -6.397  1.00 20.00     0.089 C 
ENDBRANCH   5   6
ENDBRANCH   1   5
BRANCH   1   8
HETATM    8  N8  UNL     1     -36.691  15.265  -3.338  1.00 20.00     0.088 N 
HETATM    9  C4  UNL     1     -37.420  14.505  -4.336  1.00 20.00     0.307 C 
HETATM   10  H24 UNL     1     -36.518  14.687  -2.522  1.00 20.00     0.316 HD
ENDBRANCH   1   8
TORSDOF 4
ENDMDL
MODEL 7
REMARK VINA RESULT:      -3.3     16.765     18.305
REMARK  4 active torsions:
REMARK  status: ('A' for Active; 'I' for Inactive)
REMARK    1  A    between atoms: C2_2  and  C7_7 
REMARK    2  A    between atoms: C6_6  and  C7_7 
REMARK    3  A    between atoms: C6_6  and  S9_9 
REMARK    4  A    between atoms: C7_7  and  N8_8 
ROOT
HETATM    1  C7  UNL     1     -34.498  15.051  -4.149  1.00 20.00     0.257 C 
ENDROOT
BRANCH   1   2
HETATM    2  C2  UNL     1     -34.101  15.962  -2.995  1.00 20.00    -0.060 C 
HETATM    3  C1  UNL     1     -32.914  16.590  -2.988  1.00 20.00     0.016 C 
HETATM    4  C3  UNL     1     -35.068  16.145  -1.856  1.00 20.00     0.044 C 
ENDBRANCH   1   2
BRANCH   1   5
HETATM    5  C6  UNL     1     -35.794  15.472  -4.867  1.00 20.00     0.113 C 
BRANCH   5   6
HETATM    6  S9  UNL     1     -37.205  14.394  -4.458  1.00 20.00    -0.171 SA
HETATM    7  C5  UNL     1     -38.442  15.682  -4.187  1.00 20.00     0.089 C 
ENDBRANCH   5   6
ENDBRANCH   1   5
BRANCH   1   8
HETATM    8  N8  UNL     1     -33.412  14.961  -5.137  1.00 20.00     0.088 N 
HETATM    9  C4  UNL     1     -33.947  15.018  -6.485  1.00 20.00     0.307 C 
HETATM   10  H24 UNL     1     -32.775  15.737  -4.985  1.00 20.00     0.316 HD
ENDBRANCH   1   8
TORSDOF 4
ENDMDL
MODEL 8
REMARK VINA RESULT:      -3.2      2.223      3.242
REMARK  4 active torsions:
REMARK  status: ('A' for Active; 'I' for Inactive)
REMARK    1  A    between atoms: C2_2  and  C7_7 
REMARK    2  A    between atoms: C6_6  and  C7_7 
REMARK    3  A    between atoms: C6_6  and  S9_9 
REMARK    4  A    between atoms: C7_7  and  N8_8 
ROOT
HETATM    1  C7  UNL     1     -23.466  17.982  10.918  1.00 20.00     0.257 C 
ENDROOT
BRANCH   1   2
HETATM    2  C2  UNL     1     -22.634  18.023   9.643  1.00 20.00    -0.060 C 
HETATM    3  C1  UNL     1     -21.293  17.953   9.691  1.00 20.00     0.016 C 
HETATM    4  C3  UNL     1     -23.345  18.146   8.322  1.00 20.00     0.044 C 
ENDBRANCH   1   2
BRANCH   1   5
HETATM    5  C6  UNL     1     -24.976  18.184  10.691  1.00 20.00     0.113 C 
BRANCH   5   6
HETATM    6  S9  UNL     1     -25.797  18.988  12.105  1.00 20.00    -0.171 SA
HETATM    7  C5  UNL     1     -27.435  19.191  11.369  1.00 20.00     0.089 C 
ENDBRANCH   5   6
ENDBRANCH   1   5
BRANCH   1   8
HETATM    8  N8  UNL     1     -23.256  16.715  11.634  1.00 20.00     0.088 N 
HETATM    9  C4  UNL     1     -24.375  15.817  11.414  1.00 20.00     0.307 C 
HETATM   10  H24 UNL     1     -22.400  16.290  11.291  1.00 20.00     0.316 HD
ENDBRANCH   1   8
TORSDOF 4
ENDMDL
MODEL 9
REMARK VINA RESULT:      -3.1     14.735     16.755
REMARK  4 active torsions:
REMARK  status: ('A' for Active; 'I' for Inactive)
REMARK    1  A    between atoms: C2_2  and  C7_7 
REMARK    2  A    between atoms: C6_6  and  C7_7 
REMARK    3  A    between atoms: C6_6  and  S9_9 
REMARK    4  A    between atoms: C7_7  and  N8_8 
ROOT
HETATM    1  C7  UNL     1     -35.139  16.061  -2.094  1.00 20.00     0.257 C 
ENDROOT
BRANCH   1   2
HETATM    2  C2  UNL     1     -33.816  16.116  -2.845  1.00 20.00    -0.060 C 
HETATM    3  C1  UNL     1     -32.912  17.075  -2.582  1.00 20.00     0.016 C 
HETATM    4  C3  UNL     1     -33.539  15.073  -3.895  1.00 20.00     0.044 C 
ENDBRANCH   1   2
BRANCH   1   5
HETATM    5  C6  UNL     1     -35.534  17.385  -1.415  1.00 20.00     0.113 C 
BRANCH   5   6
HETATM    6  S9  UNL     1     -35.511  17.276   0.404  1.00 20.00    -0.171 SA
HETATM    7  C5  UNL     1     -34.056  18.304   0.705  1.00 20.00     0.089 C 
ENDBRANCH   5   6
ENDBRANCH   1   5
BRANCH   1   8
HETATM    8  N8  UNL     1     -36.228  15.641  -2.990  1.00 20.00     0.088 N 
HETATM    9  C4  UNL     1     -36.892  16.799  -3.557  1.00 20.00     0.307 C 
HETATM   10  H24 UNL     1     -35.832  15.072  -3.731  1.00 20.00     0.316 HD
ENDBRANCH   1   8
TORSDOF 4
ENDMDL
