MODEL 1
REMARK VINA RESULT:      -3.5      0.000      0.000
REMARK  4 active torsions:
REMARK  status: ('A' for Active; 'I' for Inactive)
REMARK    1  A    between atoms: C2_2  and  C7_7 
REMARK    2  A    between atoms: C6_6  and  C7_7 
REMARK    3  A    between atoms: C6_6  and  S9_9 
REMARK    4  A    between atoms: C7_7  and  N8_8 
ROOT
HETATM    1  C7  UNL     1     -24.508  17.480  10.181  1.00 20.00     0.257 C 
ENDROOT
BRANCH   1   2
HETATM    2  C2  UNL     1     -23.604  18.240   9.219  1.00 20.00    -0.060 C 
HETATM    3  C1  UNL     1     -22.293  18.385   9.472  1.00 20.00     0.016 C 
HETATM    4  C3  UNL     1     -24.211  18.828   7.973  1.00 20.00     0.044 C 
ENDBRANCH   1   2
BRANCH   1   5
HETATM    5  C6  UNL     1     -24.752  18.197  11.520  1.00 20.00     0.113 C 
BRANCH   5   6
HETATM    6  S9  UNL     1     -26.305  19.149  11.534  1.00 20.00    -0.171 SA
HETATM    7  C5  UNL     1     -27.359  17.910  12.321  1.00 20.00     0.089 C 
ENDBRANCH   5   6
ENDBRANCH   1   5
BRANCH   1   8
HETATM    8  N8  UNL     1     -23.963  16.141  10.460  1.00 20.00     0.088 N 
HETATM    9  C4  UNL     1     -24.483  15.636  11.717  1.00 20.00     0.307 C 
HETATM   10  H24 UNL     1     -22.952  16.211  10.508  1.00 20.00     0.316 HD
ENDBRANCH   1   8
TORSDOF 4
ENDMDL
MODEL 2
REMARK VINA RESULT:      -3.3     17.043     18.290
REMARK  4 active torsions:
REMARK  status: ('A' for Active; 'I' for Inactive)
REMARK    1  A    between atoms: C2_2  and  C7_7 
REMARK    2  A    between atoms: C6_6  and  C7_7 
REMARK    3  A    between atoms: C6_6  and  S9_9 
REMARK    4  A    between atoms: C7_7  and  N8_8 
ROOT
HETATM    1  C7  UNL     1     -34.622  15.475  -4.335  1.00 20.00     0.257 C 
ENDROOT
BRANCH   1   2
HETATM    2  C2  UNL     1     -34.124  16.116  -3.046  1.00 20.00    -0.060 C 
HETATM    3  C1  UNL     1     -32.891  16.644  -2.968  1.00 20.00     0.016 C 
HETATM    4  C3  UNL     1     -35.044  16.146  -1.855  1.00 20.00     0.044 C 
ENDBRANCH   1   2
BRANCH   1   5
HETATM    5  C6  UNL     1     -35.441  14.189  -4.127  1.00 20.00     0.113 C 
BRANCH   5   6
HETATM    6  S9  UNL     1     -37.220  14.432  -4.434  1.00 20.00    -0.171 SA
HETATM    7  C5  UNL     1     -37.142  16.122  -5.069  1.00 20.00     0.089 C 
ENDBRANCH   5   6
ENDBRANCH   1   5
BRANCH   1   8
HETATM    8  N8  UNL     1     -33.497  15.172  -5.234  1.00 20.00     0.088 N 
HETATM    9  C4  UNL     1     -33.966  15.029  -6.600  1.00 20.00     0.307 C 
HETATM   10  H24 UNL     1     -33.064  14.308  -4.926  1.00 20.00     0.316 HD
ENDBRANCH   1   8
TORSDOF 4
ENDMDL
MODEL 3
REMARK VINA RESULT:      -3.3     17.408     18.684
REMARK  4 active torsions:
REMARK  status: ('A' for Active; 'I' for Inactive)
REMARK    1  A    between atoms: C2_2  and  C7_7 
REMARK    2  A    between atoms: C6_6  and  C7_7 
REMARK    3  A    between atoms: C6_6  and  S9_9 
REMARK    4  A    between atoms: C7_7  and  N8_8 
ROOT
HETATM    1  C7  UNL     1     -35.380  15.369  -3.789  1.00 20.00     0.257 C 
ENDROOT
BRANCH   1   2
HETATM    2  C2  UNL     1     -34.549  16.061  -2.717  1.00 20.00    -0.060 C 
HETATM    3  C1  UNL     1     -35.092  16.401  -1.536  1.00 20.00     0.016 C 
HETATM    4  C3  UNL     1     -33.102  16.359  -3.006  1.00 20.00     0.044 C 
ENDBRANCH   1   2
BRANCH   1   5
HETATM    5  C6  UNL     1     -35.362  16.075  -5.157  1.00 20.00     0.113 C 
BRANCH   5   6
HETATM    6  S9  UNL     1     -34.410  15.156  -6.409  1.00 20.00    -0.171 SA
HETATM    7  C5  UNL     1     -35.668  15.109  -7.705  1.00 20.00     0.089 C 
ENDBRANCH   5   6
ENDBRANCH   1   5
BRANCH   1   8
HETATM    8  N8  UNL     1     -36.779  15.227  -3.355  1.00 20.00     0.088 N 
HETATM    9  C4  UNL     1     -37.542  14.486  -4.342  1.00 20.00     0.307 C 
HETATM   10  H24 UNL     1     -37.173  16.154  -3.239  1.00 20.00     0.316 HD
ENDBRANCH   1   8
TORSDOF 4
ENDMDL
MODEL 4
REMARK VINA RESULT:      -3.3      2.376      4.390
REMARK  4 active torsions:
REMARK  status: ('A' for Active; 'I' for Inactive)
REMARK    1  A    between atoms: C2_2  and  C7_7 
REMARK    2  A    between atoms: C6_6  and  C7_7 
REMARK    3  A    between atoms: C6_6  and  S9_9 
REMARK    4  A    between atoms: C7_7  and  N8_8 
ROOT
HETATM    1  C7  UNL     1     -24.728  18.270   9.796  1.00 20.00     0.257 C 
ENDROOT
BRANCH   1   2
HETATM    2  C2  UNL     1     -25.129  18.499  11.248  1.00 20.00    -0.060 C 
HETATM    3  C1  UNL     1     -26.190  19.262  11.558  1.00 20.00     0.016 C 
HETATM    4  C3  UNL     1     -24.309  17.852  12.332  1.00 20.00     0.044 C 
ENDBRANCH   1   2
BRANCH   1   5
HETATM    5  C6  UNL     1     -23.351  18.847   9.421  1.00 20.00     0.113 C 
BRANCH   5   6
HETATM    6  S9  UNL     1     -22.017  17.611   9.534  1.00 20.00    -0.171 SA
HETATM    7  C5  UNL     1     -21.752  17.358   7.765  1.00 20.00     0.089 C 
ENDBRANCH   5   6
ENDBRANCH   1   5
BRANCH   1   8
HETATM    8  N8  UNL     1     -25.734  18.833   8.882  1.00 20.00     0.088 N 
HETATM    9  C4  UNL     1     -25.189  18.955   7.543  1.00 20.00     0.307 C 
HETATM   10  H24 UNL     1     -26.007  19.746   9.229  1.00 20.00     0.316 HD
ENDBRANCH   1   8
TORSDOF 4
ENDMDL
MODEL 5
REMARK VINA RESULT:      -3.3     16.281     17.560
REMARK  4 active torsions:
REMARK  status: ('A' for Active; 'I' for Inactive)
REMARK    1  A    between atoms: C2_2  and  C7_7 
REMARK    2  A    between atoms: C6_6  and  C7_7 
REMARK    3  A    between atoms: C6_6  and  S9_9 
REMARK    4  A    between atoms: C7_7  and  N8_8 
ROOT
HETATM    1  C7  UNL     1     -34.239  15.926  -3.634  1.00 20.00     0.257 C 
ENDROOT
BRANCH   1   2
HETATM    2  C2  UNL     1     -34.154  16.627  -2.285  1.00 20.00    -0.060 C 
HETATM    3  C1  UNL     1     -35.146  16.516  -1.386  1.00 20.00     0.016 C 
HETATM    4  C3  UNL     1     -32.932  17.449  -1.976  1.00 20.00     0.044 C 
ENDBRANCH   1   2
BRANCH   1   5
HETATM    5  C6  UNL     1     -34.929  14.550  -3.591  1.00 20.00     0.113 C 
BRANCH   5   6
HETATM    6  S9  UNL     1     -36.506  14.526  -4.502  1.00 20.00    -0.171 SA
HETATM    7  C5  UNL     1     -35.834  14.548  -6.179  1.00 20.00     0.089 C 
ENDBRANCH   5   6
ENDBRANCH   1   5
BRANCH   1   8
HETATM    8  N8  UNL     1     -32.900  15.758  -4.221  1.00 20.00     0.088 N 
HETATM    9  C4  UNL     1     -32.615  14.352  -4.439  1.00 20.00     0.307 C 
HETATM   10  H24 UNL     1     -32.219  16.153  -3.581  1.00 20.00     0.316 HD
ENDBRANCH   1   8
TORSDOF 4
ENDMDL
MODEL 6
REMARK VINA RESULT:      -3.3     17.104     18.409
REMARK  4 active torsions:
REMARK  status: ('A' for Active; 'I' for Inactive)
REMARK    1  A    between atoms: C2_2  and  C7_7 
REMARK    2  A    between atoms: C6_6  and  C7_7 
REMARK    3  A    between atoms: C6_6  and  S9_9 
REMARK    4  A    between atoms: C7_7  and  N8_8 
ROOT
HETATM    1  C7  UNL     1     -34.495  15.279  -4.232  1.00 20.00     0.257 C 
ENDROOT
BRANCH   1   2
HETATM    2  C2  UNL     1     -34.119  16.063  -2.981  1.00 20.00    -0.060 C 
HETATM    3  C1  UNL     1     -32.933  16.686  -2.887  1.00 20.00     0.016 C 
HETATM    4  C3  UNL     1     -35.107  16.125  -1.846  1.00 20.00     0.044 C 
ENDBRANCH   1   2
BRANCH   1   5
HETATM    5  C6  UNL     1     -35.532  15.979  -5.129  1.00 20.00     0.113 C 
BRANCH   5   6
HETATM    6  S9  UNL     1     -34.784  16.736  -6.608  1.00 20.00    -0.171 SA
HETATM    7  C5  UNL     1     -34.012  15.252  -7.292  1.00 20.00     0.089 C 
ENDBRANCH   5   6
ENDBRANCH   1   5
BRANCH   1   8
HETATM    8  N8  UNL     1     -35.009  13.947  -3.878  1.00 20.00     0.088 N 
HETATM    9  C4  UNL     1     -36.220  13.656  -4.622  1.00 20.00     0.307 C 
HETATM   10  H24 UNL     1     -35.204  13.932  -2.882  1.00 20.00     0.316 HD
ENDBRANCH   1   8
TORSDOF 4
ENDMDL
MODEL 7
REMARK VINA RESULT:      -3.3     14.304     15.697
REMARK  4 active torsions:
REMARK  status: ('A' for Active; 'I' for Inactive)
REMARK    1  A    between atoms: C2_2  and  C7_7 
REMARK    2  A    between atoms: C6_6  and  C7_7 
REMARK    3  A    between atoms: C6_6  and  S9_9 
REMARK    4  A    between atoms: C7_7  and  N8_8 
ROOT
HETATM    1  C7  UNL     1     -33.038  17.128  -2.578  1.00 20.00     0.257 C 
ENDROOT
BRANCH   1   2
HETATM    2  C2  UNL     1     -34.304  16.334  -2.283  1.00 20.00    -0.060 C 
HETATM    3  C1  UNL     1     -35.097  16.658  -1.248  1.00 20.00     0.016 C 
HETATM    4  C3  UNL     1     -34.652  15.174  -3.177  1.00 20.00     0.044 C 
ENDBRANCH   1   2
BRANCH   1   5
HETATM    5  C6  UNL     1     -32.907  18.432  -1.770  1.00 20.00     0.113 C 
BRANCH   5   6
HETATM    6  S9  UNL     1     -31.533  18.381  -0.575  1.00 20.00    -0.171 SA
HETATM    7  C5  UNL     1     -32.502  18.567   0.938  1.00 20.00     0.089 C 
ENDBRANCH   5   6
ENDBRANCH   1   5
BRANCH   1   8
HETATM    8  N8  UNL     1     -32.949  17.455  -4.010  1.00 20.00     0.088 N 
HETATM    9  C4  UNL     1     -33.013  18.891  -4.206  1.00 20.00     0.307 C 
HETATM   10  H24 UNL     1     -33.723  17.006  -4.489  1.00 20.00     0.316 HD
ENDBRANCH   1   8
TORSDOF 4
ENDMDL
MODEL 8
REMARK VINA RESULT:      -3.2      2.172      3.646
REMARK  4 active torsions:
REMARK  status: ('A' for Active; 'I' for Inactive)
REMARK    1  A    between atoms: C2_2  and  C7_7 
REMARK    2  A    between atoms: C6_6  and  C7_7 
REMARK    3  A    between atoms: C6_6  and  S9_9 
REMARK    4  A    between atoms: C7_7  and  N8_8 
ROOT
HETATM    1  C7  UNL     1     -24.692  18.185  10.562  1.00 20.00     0.257 C 
ENDROOT
BRANCH   1   2
HETATM    2  C2  UNL     1     -24.012  17.184  11.486  1.00 20.00    -0.060 C 
HETATM    3  C1  UNL     1     -24.431  15.909  11.550  1.00 20.00     0.016 C 
HETATM    4  C3  UNL     1     -22.857  17.652  12.330  1.00 20.00     0.044 C 
ENDBRANCH   1   2
BRANCH   1   5
HETATM    5  C6  UNL     1     -23.735  18.902   9.592  1.00 20.00     0.113 C 
BRANCH   5   6
HETATM    6  S9  UNL     1     -24.099  18.532   7.845  1.00 20.00    -0.171 SA
HETATM    7  C5  UNL     1     -25.749  19.263   7.766  1.00 20.00     0.089 C 
ENDBRANCH   5   6
ENDBRANCH   1   5
BRANCH   1   8
HETATM    8  N8  UNL     1     -25.418  19.203  11.339  1.00 20.00     0.088 N 
HETATM    9  C4  UNL     1     -26.649  18.650  11.873  1.00 20.00     0.307 C 
HETATM   10  H24 UNL     1     -25.628  19.984  10.726  1.00 20.00     0.316 HD
ENDBRANCH   1   8
TORSDOF 4
ENDMDL
MODEL 9
REMARK VINA RESULT:      -3.2     17.883     19.159
REMARK  4 active torsions:
REMARK  status: ('A' for Active; 'I' for Inactive)
REMARK    1  A    between atoms: C2_2  and  C7_7 
REMARK    2  A    between atoms: C6_6  and  C7_7 
REMARK    3  A    between atoms: C6_6  and  S9_9 
REMARK    4  A    between atoms: C7_7  and  N8_8 
ROOT
HETATM    1  C7  UNL     1     -35.744  14.358  -4.245  1.00 20.00     0.257 C 
ENDROOT
BRANCH   1   2
HETATM    2  C2  UNL     1     -34.438  14.904  -3.682  1.00 20.00    -0.060 C 
HETATM    3  C1  UNL     1     -34.437  15.760  -2.647  1.00 20.00     0.016 C 
HETATM    4  C3  UNL     1     -33.143  14.464  -4.311  1.00 20.00     0.044 C 
ENDBRANCH   1   2
BRANCH   1   5
HETATM    5  C6  UNL     1     -35.864  14.458  -5.776  1.00 20.00     0.113 C 
BRANCH   5   6
HETATM    6  S9  UNL     1     -35.576  16.148  -6.394  1.00 20.00    -0.171 SA
HETATM    7  C5  UNL     1     -34.313  15.760  -7.626  1.00 20.00     0.089 C 
ENDBRANCH   5   6
ENDBRANCH   1   5
BRANCH   1   8
HETATM    8  N8  UNL     1     -36.899  15.041  -3.641  1.00 20.00     0.088 N 
HETATM    9  C4  UNL     1     -38.134  14.577  -4.245  1.00 20.00     0.307 C 
HETATM   10  H24 UNL     1     -36.794  16.039  -3.790  1.00 20.00     0.316 HD
ENDBRANCH   1   8
TORSDOF 4
ENDMDL
