MODEL 1
REMARK VINA RESULT:      -3.6      0.000      0.000
REMARK  2 active torsions:
REMARK  status: ('A' for Active; 'I' for Inactive)
REMARK    1  A    between atoms: C7_7  and  C8_8 
REMARK    2  A    between atoms: C7_7  and  N9_9 
ROOT
HETATM    1  C1  UNL     1     -33.037  16.808  -3.287  1.00 20.00     0.277 C 
HETATM    2  C2  UNL     1     -34.988  15.882  -2.387  1.00 20.00     0.277 C 
HETATM    3  C3  UNL     1     -33.472  17.724  -2.132  1.00 20.00     0.015 C 
HETATM    4  C4  UNL     1     -34.513  16.900  -1.357  1.00 20.00     0.015 C 
HETATM    5  C5  UNL     1     -32.307  18.156  -1.250  1.00 20.00     0.012 C 
HETATM    6  C6  UNL     1     -35.648  17.738  -0.787  1.00 20.00     0.012 C 
HETATM    7  N9  UNL     1     -33.725  15.536  -3.040  1.00 20.00     0.090 N 
ENDROOT
BRANCH   7   8
HETATM    8  C7  UNL     1     -33.919  14.758  -4.255  1.00 20.00     0.287 C 
BRANCH   8   9
HETATM    9  C8  UNL     1     -35.279  14.996  -4.889  1.00 20.00     0.144 C 
HETATM   10 CL10 UNL     1     -36.320  13.558  -4.749  1.00 20.00    -0.129 Cl
ENDBRANCH   8   9
ENDBRANCH   7   8
TORSDOF 2
ENDMDL
MODEL 2
REMARK VINA RESULT:      -3.6      2.826      4.706
REMARK  2 active torsions:
REMARK  status: ('A' for Active; 'I' for Inactive)
REMARK    1  A    between atoms: C7_7  and  C8_8 
REMARK    2  A    between atoms: C7_7  and  N9_9 
ROOT
HETATM    1  C1  UNL     1     -36.286  16.117  -3.319  1.00 20.00     0.277 C 
HETATM    2  C2  UNL     1     -34.071  15.955  -2.586  1.00 20.00     0.277 C 
HETATM    3  C3  UNL     1     -35.578  15.129  -4.260  1.00 20.00     0.015 C 
HETATM    4  C4  UNL     1     -34.267  14.780  -3.537  1.00 20.00     0.015 C 
HETATM    5  C5  UNL     1     -36.417  13.893  -4.560  1.00 20.00     0.012 C 
HETATM    6  C6  UNL     1     -33.089  14.578  -4.479  1.00 20.00     0.012 C 
HETATM    7  N9  UNL     1     -35.442  16.169  -2.121  1.00 20.00     0.090 N 
ENDROOT
BRANCH   7   8
HETATM    8  C7  UNL     1     -35.593  17.414  -1.383  1.00 20.00     0.287 C 
BRANCH   8   9
HETATM    9  C8  UNL     1     -35.410  17.231   0.114  1.00 20.00     0.144 C 
HETATM   10 CL10 UNL     1     -33.987  18.123   0.708  1.00 20.00    -0.129 Cl
ENDBRANCH   8   9
ENDBRANCH   7   8
TORSDOF 2
ENDMDL
MODEL 3
REMARK VINA RESULT:      -3.5      0.388      1.998
REMARK  2 active torsions:
REMARK  status: ('A' for Active; 'I' for Inactive)
REMARK    1  A    between atoms: C7_7  and  C8_8 
REMARK    2  A    between atoms: C7_7  and  N9_9 
ROOT
HETATM    1  C1  UNL     1     -35.051  15.868  -2.250  1.00 20.00     0.277 C 
HETATM    2  C2  UNL     1     -32.958  16.683  -2.903  1.00 20.00     0.277 C 
HETATM    3  C3  UNL     1     -34.672  16.971  -1.250  1.00 20.00     0.015 C 
HETATM    4  C4  UNL     1     -33.499  17.709  -1.915  1.00 20.00     0.015 C 
HETATM    5  C5  UNL     1     -35.834  17.904  -0.931  1.00 20.00     0.012 C 
HETATM    6  C6  UNL     1     -32.447  18.192  -0.929  1.00 20.00     0.012 C 
HETATM    7  N9  UNL     1     -34.201  16.111  -3.421  1.00 20.00     0.090 N 
ENDROOT
BRANCH   7   8
HETATM    8  C7  UNL     1     -33.978  14.910  -4.211  1.00 20.00     0.287 C 
BRANCH   8   9
HETATM    9  C8  UNL     1     -35.061  14.685  -5.252  1.00 20.00     0.144 C 
HETATM   10 CL10 UNL     1     -36.288  13.532  -4.673  1.00 20.00    -0.129 Cl
ENDBRANCH   8   9
ENDBRANCH   7   8
TORSDOF 2
ENDMDL
MODEL 4
REMARK VINA RESULT:      -3.5     10.893     11.581
REMARK  2 active torsions:
REMARK  status: ('A' for Active; 'I' for Inactive)
REMARK    1  A    between atoms: C7_7  and  C8_8 
REMARK    2  A    between atoms: C7_7  and  N9_9 
ROOT
HETATM    1  C1  UNL     1     -33.480   5.547   2.771  1.00 20.00     0.277 C 
HETATM    2  C2  UNL     1     -32.900   7.460   3.985  1.00 20.00     0.277 C 
HETATM    3  C3  UNL     1     -34.044   5.361   4.189  1.00 20.00     0.015 C 
HETATM    4  C4  UNL     1     -33.965   6.760   4.822  1.00 20.00     0.015 C 
HETATM    5  C5  UNL     1     -35.463   4.807   4.192  1.00 20.00     0.012 C 
HETATM    6  C6  UNL     1     -33.630   6.737   6.305  1.00 20.00     0.012 C 
HETATM    7  N9  UNL     1     -33.245   6.989   2.644  1.00 20.00     0.090 N 
ENDROOT
BRANCH   7   8
HETATM    8  C7  UNL     1     -32.220   7.305   1.660  1.00 20.00     0.287 C 
BRANCH   8   9
HETATM    9  C8  UNL     1     -32.431   8.664   1.013  1.00 20.00     0.144 C 
HETATM   10 CL10 UNL     1     -33.470   8.540  -0.428  1.00 20.00    -0.129 Cl
ENDBRANCH   8   9
ENDBRANCH   7   8
TORSDOF 2
ENDMDL
MODEL 5
REMARK VINA RESULT:      -3.5     10.879     11.511
REMARK  2 active torsions:
REMARK  status: ('A' for Active; 'I' for Inactive)
REMARK    1  A    between atoms: C7_7  and  C8_8 
REMARK    2  A    between atoms: C7_7  and  N9_9 
ROOT
HETATM    1  C1  UNL     1     -33.294   7.615   3.599  1.00 20.00     0.277 C 
HETATM    2  C2  UNL     1     -33.341   5.483   2.639  1.00 20.00     0.277 C 
HETATM    3  C3  UNL     1     -34.081   6.712   4.562  1.00 20.00     0.015 C 
HETATM    4  C4  UNL     1     -33.775   5.282   4.086  1.00 20.00     0.015 C 
HETATM    5  C5  UNL     1     -33.698   6.928   6.021  1.00 20.00     0.012 C 
HETATM    6  C6  UNL     1     -34.954   4.331   4.224  1.00 20.00     0.012 C 
HETATM    7  N9  UNL     1     -32.526   6.692   2.757  1.00 20.00     0.090 N 
ENDROOT
BRANCH   7   8
HETATM    8  C7  UNL     1     -32.185   7.264   1.463  1.00 20.00     0.287 C 
BRANCH   8   9
HETATM    9  C8  UNL     1     -32.835   8.619   1.235  1.00 20.00     0.144 C 
HETATM   10 CL10 UNL     1     -33.497   8.750  -0.413  1.00 20.00    -0.129 Cl
ENDBRANCH   8   9
ENDBRANCH   7   8
TORSDOF 2
ENDMDL
MODEL 6
REMARK VINA RESULT:      -3.5      2.029      3.208
REMARK  2 active torsions:
REMARK  status: ('A' for Active; 'I' for Inactive)
REMARK    1  A    between atoms: C7_7  and  C8_8 
REMARK    2  A    between atoms: C7_7  and  N9_9 
ROOT
HETATM    1  C1  UNL     1     -35.113  14.726  -4.979  1.00 20.00     0.277 C 
HETATM    2  C2  UNL     1     -35.770  15.723  -2.968  1.00 20.00     0.277 C 
HETATM    3  C3  UNL     1     -33.844  15.310  -4.337  1.00 20.00     0.015 C 
HETATM    4  C4  UNL     1     -34.251  15.617  -2.887  1.00 20.00     0.015 C 
HETATM    5  C5  UNL     1     -32.653  14.362  -4.413  1.00 20.00     0.012 C 
HETATM    6  C6  UNL     1     -33.600  16.873  -2.327  1.00 20.00     0.012 C 
HETATM    7  N9  UNL     1     -36.078  14.621  -3.880  1.00 20.00     0.090 N 
ENDROOT
BRANCH   7   8
HETATM    8  C7  UNL     1     -37.458  14.648  -4.341  1.00 20.00     0.287 C 
BRANCH   8   9
HETATM    9  C8  UNL     1     -38.070  16.037  -4.272  1.00 20.00     0.144 C 
HETATM   10 CL10 UNL     1     -37.937  16.883  -5.834  1.00 20.00    -0.129 Cl
ENDBRANCH   8   9
ENDBRANCH   7   8
TORSDOF 2
ENDMDL
MODEL 7
REMARK VINA RESULT:      -3.5      2.486      4.140
REMARK  2 active torsions:
REMARK  status: ('A' for Active; 'I' for Inactive)
REMARK    1  A    between atoms: C7_7  and  C8_8 
REMARK    2  A    between atoms: C7_7  and  N9_9 
ROOT
HETATM    1  C1  UNL     1     -34.068  16.062  -2.610  1.00 20.00     0.277 C 
HETATM    2  C2  UNL     1     -36.268  16.205  -3.391  1.00 20.00     0.277 C 
HETATM    3  C3  UNL     1     -34.305  14.831  -3.500  1.00 20.00     0.015 C 
HETATM    4  C4  UNL     1     -35.599  15.152  -4.265  1.00 20.00     0.015 C 
HETATM    5  C5  UNL     1     -33.137  14.545  -4.436  1.00 20.00     0.012 C 
HETATM    6  C6  UNL     1     -36.480  13.935  -4.504  1.00 20.00     0.012 C 
HETATM    7  N9  UNL     1     -35.114  17.014  -2.996  1.00 20.00     0.090 N 
ENDROOT
BRANCH   7   8
HETATM    8  C7  UNL     1     -35.431  17.959  -1.935  1.00 20.00     0.287 C 
BRANCH   8   9
HETATM    9  C8  UNL     1     -34.562  17.767  -0.704  1.00 20.00     0.144 C 
HETATM   10 CL10 UNL     1     -35.500  17.093   0.652  1.00 20.00    -0.129 Cl
ENDBRANCH   8   9
ENDBRANCH   7   8
TORSDOF 2
ENDMDL
MODEL 8
REMARK VINA RESULT:      -3.4     14.934     16.721
REMARK  2 active torsions:
REMARK  status: ('A' for Active; 'I' for Inactive)
REMARK    1  A    between atoms: C7_7  and  C8_8 
REMARK    2  A    between atoms: C7_7  and  N9_9 
ROOT
HETATM    1  C1  UNL     1     -24.286  16.960   9.672  1.00 20.00     0.277 C 
HETATM    2  C2  UNL     1     -22.654  18.567  10.148  1.00 20.00     0.277 C 
HETATM    3  C3  UNL     1     -23.768  16.661  11.087  1.00 20.00     0.015 C 
HETATM    4  C4  UNL     1     -22.990  17.925  11.489  1.00 20.00     0.015 C 
HETATM    5  C5  UNL     1     -24.886  16.336  12.070  1.00 20.00     0.012 C 
HETATM    6  C6  UNL     1     -21.757  17.637  12.332  1.00 20.00     0.012 C 
HETATM    7  N9  UNL     1     -23.902  18.352   9.415  1.00 20.00     0.090 N 
ENDROOT
BRANCH   7   8
HETATM    8  C7  UNL     1     -23.775  18.646   7.995  1.00 20.00     0.287 C 
BRANCH   8   9
HETATM    9  C8  UNL     1     -25.115  18.907   7.330  1.00 20.00     0.144 C 
HETATM   10 CL10 UNL     1     -24.920  19.262   5.596  1.00 20.00    -0.129 Cl
ENDBRANCH   8   9
ENDBRANCH   7   8
TORSDOF 2
ENDMDL
MODEL 9
REMARK VINA RESULT:      -3.4      3.544      4.864
REMARK  2 active torsions:
REMARK  status: ('A' for Active; 'I' for Inactive)
REMARK    1  A    between atoms: C7_7  and  C8_8 
REMARK    2  A    between atoms: C7_7  and  N9_9 
ROOT
HETATM    1  C1  UNL     1     -33.008  18.052  -0.892  1.00 20.00     0.277 C 
HETATM    2  C2  UNL     1     -35.066  16.966  -0.663  1.00 20.00     0.277 C 
HETATM    3  C3  UNL     1     -33.235  17.254  -2.186  1.00 20.00     0.015 C 
HETATM    4  C4  UNL     1     -34.723  16.869  -2.144  1.00 20.00     0.015 C 
HETATM    5  C5  UNL     1     -32.879  18.045  -3.438  1.00 20.00     0.012 C 
HETATM    6  C6  UNL     1     -35.010  15.494  -2.729  1.00 20.00     0.012 C 
HETATM    7  N9  UNL     1     -34.337  18.178  -0.286  1.00 20.00     0.090 N 
ENDROOT
BRANCH   7   8
HETATM    8  C7  UNL     1     -34.281  18.371   1.155  1.00 20.00     0.287 C 
BRANCH   8   9
HETATM    9  C8  UNL     1     -32.857  18.470   1.675  1.00 20.00     0.144 C 
HETATM   10 CL10 UNL     1     -32.636  17.496   3.150  1.00 20.00    -0.129 Cl
ENDBRANCH   8   9
ENDBRANCH   7   8
TORSDOF 2
ENDMDL
