MODEL 1
REMARK VINA RESULT:      -5.2      0.000      0.000
REMARK  0 active torsions:
REMARK  status: ('A' for Active; 'I' for Inactive)
ROOT
HETATM    1  C1  UNL     1     -22.315  17.235   9.604  1.00 20.00     0.063 A 
HETATM    2  C2  UNL     1     -23.551  18.239   7.757  1.00 20.00     0.098 A 
HETATM    3  C3  UNL     1     -24.447  18.278   9.953  1.00 20.00     0.055 A 
HETATM    4  C4  UNL     1     -23.343  17.603  10.457  1.00 20.00    -0.037 A 
HETATM    5  C5  UNL     1     -22.423  17.556   8.247  1.00 20.00     0.175 A 
HETATM    6  C6  UNL     1     -24.584  18.610   8.618  1.00 20.00     0.134 A 
HETATM    7  C7  UNL     1     -25.361  18.540  11.053  1.00 20.00     0.163 A 
HETATM    8  C8  UNL     1     -23.432  17.363  11.929  1.00 20.00     0.047 A 
HETATM    9  C9  UNL     1     -24.780  17.986  12.332  1.00 20.00     0.088 A 
HETATM   10  O10 UNL     1     -21.484  17.226   7.440  1.00 20.00    -0.288 OA
HETATM   11  O11 UNL     1     -26.426  19.118  10.939  1.00 20.00    -0.292 OA
HETATM   12  F12 UNL     1     -25.659  19.262   8.160  1.00 20.00    -0.205 F 
ENDROOT
TORSDOF 0
ENDMDL
MODEL 2
REMARK VINA RESULT:      -5.1      1.585      2.021
REMARK  0 active torsions:
REMARK  status: ('A' for Active; 'I' for Inactive)
ROOT
HETATM    1  C1  UNL     1     -22.933  18.422   8.042  1.00 20.00     0.063 A 
HETATM    2  C2  UNL     1     -25.252  19.177   8.036  1.00 20.00     0.098 A 
HETATM    3  C3  UNL     1     -24.217  18.522  10.066  1.00 20.00     0.055 A 
HETATM    4  C4  UNL     1     -23.025  18.236   9.412  1.00 20.00    -0.037 A 
HETATM    5  C5  UNL     1     -24.055  18.895   7.353  1.00 20.00     0.175 A 
HETATM    6  C6  UNL     1     -25.342  18.991   9.415  1.00 20.00     0.134 A 
HETATM    7  C7  UNL     1     -24.035  18.242  11.482  1.00 20.00     0.163 A 
HETATM    8  C8  UNL     1     -21.959  17.745  10.336  1.00 20.00     0.047 A 
HETATM    9  C9  UNL     1     -22.629  17.745  11.720  1.00 20.00     0.088 A 
HETATM   10  O10 UNL     1     -23.993  19.074   6.086  1.00 20.00    -0.288 OA
HETATM   11  O11 UNL     1     -24.898  18.391  12.327  1.00 20.00    -0.292 OA
HETATM   12  F12 UNL     1     -26.477  19.259  10.072  1.00 20.00    -0.205 F 
ENDROOT
TORSDOF 0
ENDMDL
MODEL 3
REMARK VINA RESULT:      -5.1     16.778     17.973
REMARK  0 active torsions:
REMARK  status: ('A' for Active; 'I' for Inactive)
ROOT
HETATM    1  C1  UNL     1     -35.066  17.151  -3.353  1.00 20.00     0.063 A 
HETATM    2  C2  UNL     1     -33.029  15.823  -3.536  1.00 20.00     0.098 A 
HETATM    3  C3  UNL     1     -35.138  14.843  -4.001  1.00 20.00     0.055 A 
HETATM    4  C4  UNL     1     -35.796  16.035  -3.729  1.00 20.00    -0.037 A 
HETATM    5  C5  UNL     1     -33.675  17.040  -3.256  1.00 20.00     0.175 A 
HETATM    6  C6  UNL     1     -33.765  14.701  -3.916  1.00 20.00     0.134 A 
HETATM    7  C7  UNL     1     -36.134  13.849  -4.369  1.00 20.00     0.163 A 
HETATM    8  C8  UNL     1     -37.277  15.932  -3.893  1.00 20.00     0.047 A 
HETATM    9  C9  UNL     1     -37.508  14.472  -4.320  1.00 20.00     0.088 A 
HETATM   10  O10 UNL     1     -32.979  18.059  -2.910  1.00 20.00    -0.288 OA
HETATM   11  O11 UNL     1     -35.877  12.697  -4.667  1.00 20.00    -0.292 OA
HETATM   12  F12 UNL     1     -33.158  13.539  -4.185  1.00 20.00    -0.205 F 
ENDROOT
TORSDOF 0
ENDMDL
MODEL 4
REMARK VINA RESULT:      -5.1     16.689     17.787
REMARK  0 active torsions:
REMARK  status: ('A' for Active; 'I' for Inactive)
ROOT
HETATM    1  C1  UNL     1     -34.496  14.243  -3.840  1.00 20.00     0.063 A 
HETATM    2  C2  UNL     1     -36.885  14.613  -4.160  1.00 20.00     0.098 A 
HETATM    3  C3  UNL     1     -35.507  16.360  -3.340  1.00 20.00     0.055 A 
HETATM    4  C4  UNL     1     -34.381  15.550  -3.395  1.00 20.00    -0.037 A 
HETATM    5  C5  UNL     1     -35.757  13.775  -4.223  1.00 20.00     0.175 A 
HETATM    6  C6  UNL     1     -36.767  15.928  -3.713  1.00 20.00     0.134 A 
HETATM    7  C7  UNL     1     -35.104  17.667  -2.844  1.00 20.00     0.163 A 
HETATM    8  C8  UNL     1     -33.141  16.249  -2.940  1.00 20.00     0.047 A 
HETATM    9  C9  UNL     1     -33.619  17.663  -2.570  1.00 20.00     0.088 A 
HETATM   10  O10 UNL     1     -35.888  12.570  -4.639  1.00 20.00    -0.288 OA
HETATM   11  O11 UNL     1     -35.863  18.604  -2.681  1.00 20.00    -0.292 OA
HETATM   12  F12 UNL     1     -37.835  16.732  -3.651  1.00 20.00    -0.205 F 
ENDROOT
TORSDOF 0
ENDMDL
MODEL 5
REMARK VINA RESULT:      -4.9     15.960     17.114
REMARK  0 active torsions:
REMARK  status: ('A' for Active; 'I' for Inactive)
ROOT
HETATM    1  C1  UNL     1     -36.183  14.884  -3.445  1.00 20.00     0.063 A 
HETATM    2  C2  UNL     1     -34.093  14.013  -4.350  1.00 20.00     0.098 A 
HETATM    3  C3  UNL     1     -34.091  15.984  -3.031  1.00 20.00     0.055 A 
HETATM    4  C4  UNL     1     -35.468  15.919  -2.863  1.00 20.00    -0.037 A 
HETATM    5  C5  UNL     1     -35.487  13.928  -4.192  1.00 20.00     0.175 A 
HETATM    6  C6  UNL     1     -33.375  15.055  -3.763  1.00 20.00     0.134 A 
HETATM    7  C7  UNL     1     -33.602  17.155  -2.321  1.00 20.00     0.163 A 
HETATM    8  C8  UNL     1     -36.005  17.038  -2.031  1.00 20.00     0.047 A 
HETATM    9  C9  UNL     1     -34.761  17.868  -1.667  1.00 20.00     0.088 A 
HETATM   10  O10 UNL     1     -36.127  12.962  -4.740  1.00 20.00    -0.288 OA
HETATM   11  O11 UNL     1     -32.433  17.492  -2.275  1.00 20.00    -0.292 OA
HETATM   12  F12 UNL     1     -32.048  15.142  -3.907  1.00 20.00    -0.205 F 
ENDROOT
TORSDOF 0
ENDMDL
MODEL 6
REMARK VINA RESULT:      -4.9      2.210      2.800
REMARK  0 active torsions:
REMARK  status: ('A' for Active; 'I' for Inactive)
ROOT
HETATM    1  C1  UNL     1     -25.185  19.057   8.625  1.00 20.00     0.063 A 
HETATM    2  C2  UNL     1     -22.949  18.272   8.047  1.00 20.00     0.098 A 
HETATM    3  C3  UNL     1     -23.713  18.151  10.289  1.00 20.00     0.055 A 
HETATM    4  C4  UNL     1     -24.938  18.708   9.943  1.00 20.00    -0.037 A 
HETATM    5  C5  UNL     1     -24.182  18.837   7.675  1.00 20.00     0.175 A 
HETATM    6  C6  UNL     1     -22.703  17.920   9.374  1.00 20.00     0.134 A 
HETATM    7  C7  UNL     1     -23.725  17.882  11.718  1.00 20.00     0.163 A 
HETATM    8  C8  UNL     1     -25.860  18.855  11.109  1.00 20.00     0.047 A 
HETATM    9  C9  UNL     1     -25.053  18.305  12.299  1.00 20.00     0.088 A 
HETATM   10  O10 UNL     1     -24.388  19.152   6.449  1.00 20.00    -0.288 OA
HETATM   11  O11 UNL     1     -22.795  17.392  12.332  1.00 20.00    -0.292 OA
HETATM   12  F12 UNL     1     -21.533  17.381   9.736  1.00 20.00    -0.205 F 
ENDROOT
TORSDOF 0
ENDMDL
MODEL 7
REMARK VINA RESULT:      -4.9     17.133     18.268
REMARK  0 active torsions:
REMARK  status: ('A' for Active; 'I' for Inactive)
ROOT
HETATM    1  C1  UNL     1     -34.562  14.365  -3.721  1.00 20.00     0.063 A 
HETATM    2  C2  UNL     1     -36.239  14.806  -5.436  1.00 20.00     0.098 A 
HETATM    3  C3  UNL     1     -34.838  16.555  -4.661  1.00 20.00     0.055 A 
HETATM    4  C4  UNL     1     -34.188  15.698  -3.782  1.00 20.00    -0.037 A 
HETATM    5  C5  UNL     1     -35.594  13.920  -4.554  1.00 20.00     0.175 A 
HETATM    6  C6  UNL     1     -35.860  16.146  -5.497  1.00 20.00     0.134 A 
HETATM    7  C7  UNL     1     -34.251  17.879  -4.521  1.00 20.00     0.163 A 
HETATM    8  C8  UNL     1     -33.120  16.379  -2.989  1.00 20.00     0.047 A 
HETATM    9  C9  UNL     1     -33.160  17.837  -3.479  1.00 20.00     0.088 A 
HETATM   10  O10 UNL     1     -35.957  12.692  -4.515  1.00 20.00    -0.288 OA
HETATM   11  O11 UNL     1     -34.602  18.856  -5.156  1.00 20.00    -0.292 OA
HETATM   12  F12 UNL     1     -36.468  16.995  -6.335  1.00 20.00    -0.205 F 
ENDROOT
TORSDOF 0
ENDMDL
MODEL 8
REMARK VINA RESULT:      -4.9      2.070      3.269
REMARK  0 active torsions:
REMARK  status: ('A' for Active; 'I' for Inactive)
ROOT
HETATM    1  C1  UNL     1     -22.399  17.962  10.278  1.00 20.00     0.063 A 
HETATM    2  C2  UNL     1     -23.713  18.027  12.331  1.00 20.00     0.098 A 
HETATM    3  C3  UNL     1     -24.715  18.587  10.256  1.00 20.00     0.055 A 
HETATM    4  C4  UNL     1     -23.524  18.363   9.576  1.00 20.00    -0.037 A 
HETATM    5  C5  UNL     1     -22.498  17.794  11.663  1.00 20.00     0.175 A 
HETATM    6  C6  UNL     1     -24.845  18.430  11.624  1.00 20.00     0.134 A 
HETATM    7  C7  UNL     1     -25.722  18.993   9.288  1.00 20.00     0.163 A 
HETATM    8  C8  UNL     1     -23.642  18.601   8.106  1.00 20.00     0.047 A 
HETATM    9  C9  UNL     1     -25.108  19.023   7.908  1.00 20.00     0.088 A 
HETATM   10  O10 UNL     1     -21.469  17.423  12.332  1.00 20.00    -0.288 OA
HETATM   11  O11 UNL     1     -26.875  19.263   9.568  1.00 20.00    -0.292 OA
HETATM   12  F12 UNL     1     -26.005  18.652  12.252  1.00 20.00    -0.205 F 
ENDROOT
TORSDOF 0
ENDMDL
MODEL 9
REMARK VINA RESULT:      -4.6     13.762     14.911
REMARK  0 active torsions:
REMARK  status: ('A' for Active; 'I' for Inactive)
ROOT
HETATM    1  C1  UNL     1     -32.921  16.839  -2.663  1.00 20.00     0.063 A 
HETATM    2  C2  UNL     1     -35.165  16.154  -1.998  1.00 20.00     0.098 A 
HETATM    3  C3  UNL     1     -33.973  17.747  -0.708  1.00 20.00     0.055 A 
HETATM    4  C4  UNL     1     -32.881  17.681  -1.564  1.00 20.00    -0.037 A 
HETATM    5  C5  UNL     1     -34.071  16.072  -2.878  1.00 20.00     0.175 A 
HETATM    6  C6  UNL     1     -35.124  17.003  -0.893  1.00 20.00     0.134 A 
HETATM    7  C7  UNL     1     -33.666  18.700   0.348  1.00 20.00     0.163 A 
HETATM    8  C8  UNL     1     -31.763  18.581  -1.149  1.00 20.00     0.047 A 
HETATM    9  C9  UNL     1     -32.282  19.263   0.129  1.00 20.00     0.088 A 
HETATM   10  O10 UNL     1     -34.131  15.286  -3.889  1.00 20.00    -0.288 OA
HETATM   11  O11 UNL     1     -34.422  18.983   1.258  1.00 20.00    -0.292 OA
HETATM   12  F12 UNL     1     -36.161  17.088  -0.052  1.00 20.00    -0.205 F 
ENDROOT
TORSDOF 0
ENDMDL
