MODEL 1
REMARK VINA RESULT:      -4.6      0.000      0.000
REMARK  2 active torsions:
REMARK  status: ('A' for Active; 'I' for Inactive)
REMARK    1  A    between atoms: C9_9  and  C10_10 
REMARK    2  A    between atoms: C9_9  and  N12_12 
ROOT
HETATM    1  C1  UNL     1     -36.011  14.007  -4.798  1.00 20.00     0.065 C 
HETATM    2  C8  UNL     1     -36.925  15.873  -6.129  1.00 20.00     0.027 C 
HETATM    3  C10 UNL     1     -35.834  15.428  -5.156  1.00 20.00     0.114 C 
HETATM    4  N11 UNL     1     -36.150  12.890  -4.515  1.00 20.00    -0.197 NA
ENDROOT
BRANCH   3   5
HETATM    5  C9  UNL     1     -34.422  15.703  -5.682  1.00 20.00     0.253 C 
BRANCH   5   6
HETATM    6  N12 UNL     1     -33.638  16.571  -4.750  1.00 20.00    -0.069 N 
HETATM    7  C2  UNL     1     -34.357  17.840  -4.348  1.00 20.00     0.239 C 
HETATM    8  C4  UNL     1     -33.840  18.135  -2.947  1.00 20.00     0.012 C 
HETATM    9  C5  UNL     1     -33.693  16.738  -2.331  1.00 20.00     0.012 C 
HETATM   10  C6  UNL     1     -32.509  18.888  -2.982  1.00 20.00     0.012 C 
HETATM   11  C3  UNL     1     -33.181  15.871  -3.481  1.00 20.00     0.239 C 
HETATM   12  C7  UNL     1     -35.021  16.208  -1.784  1.00 20.00     0.012 C 
HETATM   13  H31 UNL     1     -32.786  16.861  -5.256  1.00 20.00     0.280 HD
ENDBRANCH   5   6
ENDBRANCH   3   5
TORSDOF 2
ENDMDL
MODEL 2
REMARK VINA RESULT:      -4.6      1.390      2.152
REMARK  2 active torsions:
REMARK  status: ('A' for Active; 'I' for Inactive)
REMARK    1  A    between atoms: C9_9  and  C10_10 
REMARK    2  A    between atoms: C9_9  and  N12_12 
ROOT
HETATM    1  C1  UNL     1     -36.550  13.830  -4.487  1.00 20.00     0.065 C 
HETATM    2  C8  UNL     1     -38.775  14.872  -4.250  1.00 20.00     0.027 C 
HETATM    3  C10 UNL     1     -37.272  15.031  -4.023  1.00 20.00     0.114 C 
HETATM    4  N11 UNL     1     -35.982  12.886  -4.850  1.00 20.00    -0.197 NA
ENDROOT
BRANCH   3   5
HETATM    5  C9  UNL     1     -36.709  16.306  -4.659  1.00 20.00     0.253 C 
BRANCH   5   6
HETATM    6  N12 UNL     1     -35.617  16.908  -3.831  1.00 20.00    -0.069 N 
HETATM    7  C2  UNL     1     -35.380  16.188  -2.522  1.00 20.00     0.239 C 
HETATM    8  C4  UNL     1     -33.896  16.393  -2.248  1.00 20.00     0.012 C 
HETATM    9  C5  UNL     1     -33.272  16.320  -3.648  1.00 20.00     0.012 C 
HETATM   10  C6  UNL     1     -33.626  17.738  -1.570  1.00 20.00     0.012 C 
HETATM   11  C3  UNL     1     -34.284  17.028  -4.548  1.00 20.00     0.239 C 
HETATM   12  C7  UNL     1     -33.041  14.875  -4.099  1.00 20.00     0.012 C 
HETATM   13  H31 UNL     1     -35.918  17.866  -3.592  1.00 20.00     0.280 HD
ENDBRANCH   5   6
ENDBRANCH   3   5
TORSDOF 2
ENDMDL
MODEL 3
REMARK VINA RESULT:      -4.5      1.927      2.690
REMARK  2 active torsions:
REMARK  status: ('A' for Active; 'I' for Inactive)
REMARK    1  A    between atoms: C9_9  and  C10_10 
REMARK    2  A    between atoms: C9_9  and  N12_12 
ROOT
HETATM    1  C1  UNL     1     -38.172  15.094  -4.186  1.00 20.00     0.065 C 
HETATM    2  C8  UNL     1     -38.833  17.243  -5.203  1.00 20.00     0.027 C 
HETATM    3  C10 UNL     1     -38.298  16.546  -3.953  1.00 20.00     0.114 C 
HETATM    4  N11 UNL     1     -38.073  13.952  -4.368  1.00 20.00    -0.197 NA
ENDROOT
BRANCH   3   5
HETATM    5  C9  UNL     1     -36.981  17.152  -3.454  1.00 20.00     0.253 C 
BRANCH   5   6
HETATM    6  N12 UNL     1     -35.849  16.179  -3.544  1.00 20.00    -0.069 N 
HETATM    7  C2  UNL     1     -34.808  16.549  -4.577  1.00 20.00     0.239 C 
HETATM    8  C4  UNL     1     -33.510  15.985  -4.017  1.00 20.00     0.012 C 
HETATM    9  C5  UNL     1     -33.658  16.210  -2.506  1.00 20.00     0.012 C 
HETATM   10  C6  UNL     1     -33.341  14.504  -4.360  1.00 20.00     0.012 C 
HETATM   11  C3  UNL     1     -35.134  15.930  -2.227  1.00 20.00     0.239 C 
HETATM   12  C7  UNL     1     -33.275  17.635  -2.098  1.00 20.00     0.012 C 
HETATM   13  H31 UNL     1     -36.255  15.277  -3.841  1.00 20.00     0.280 HD
ENDBRANCH   5   6
ENDBRANCH   3   5
TORSDOF 2
ENDMDL
MODEL 4
REMARK VINA RESULT:      -4.4      1.469      1.880
REMARK  2 active torsions:
REMARK  status: ('A' for Active; 'I' for Inactive)
REMARK    1  A    between atoms: C9_9  and  C10_10 
REMARK    2  A    between atoms: C9_9  and  N12_12 
ROOT
HETATM    1  C1  UNL     1     -37.050  14.407  -4.496  1.00 20.00     0.065 C 
HETATM    2  C8  UNL     1     -35.317  14.806  -6.206  1.00 20.00     0.027 C 
HETATM    3  C10 UNL     1     -35.710  14.975  -4.740  1.00 20.00     0.114 C 
HETATM    4  N11 UNL     1     -38.104  13.960  -4.304  1.00 20.00    -0.197 NA
ENDROOT
BRANCH   3   5
HETATM    5  C9  UNL     1     -34.669  14.396  -3.776  1.00 20.00     0.253 C 
BRANCH   5   6
HETATM    6  N12 UNL     1     -34.084  15.447  -2.888  1.00 20.00    -0.069 N 
HETATM    7  C2  UNL     1     -33.323  16.520  -3.635  1.00 20.00     0.239 C 
HETATM    8  C4  UNL     1     -33.499  17.767  -2.778  1.00 20.00     0.012 C 
HETATM    9  C5  UNL     1     -34.935  17.628  -2.255  1.00 20.00     0.012 C 
HETATM   10  C6  UNL     1     -32.478  17.820  -1.639  1.00 20.00     0.012 C 
HETATM   11  C3  UNL     1     -35.094  16.133  -1.983  1.00 20.00     0.239 C 
HETATM   12  C7  UNL     1     -35.966  18.120  -3.273  1.00 20.00     0.012 C 
HETATM   13  H31 UNL     1     -33.403  14.973  -2.274  1.00 20.00     0.280 HD
ENDBRANCH   5   6
ENDBRANCH   3   5
TORSDOF 2
ENDMDL
MODEL 5
REMARK VINA RESULT:      -4.4     16.451     18.125
REMARK  2 active torsions:
REMARK  status: ('A' for Active; 'I' for Inactive)
REMARK    1  A    between atoms: C9_9  and  C10_10 
REMARK    2  A    between atoms: C9_9  and  N12_12 
ROOT
HETATM    1  C1  UNL     1     -22.099  17.301   7.496  1.00 20.00     0.065 C 
HETATM    2  C8  UNL     1     -23.862  19.027   7.553  1.00 20.00     0.027 C 
HETATM    3  C10 UNL     1     -23.125  17.944   8.340  1.00 20.00     0.114 C 
HETATM    4  N11 UNL     1     -21.293  16.794   6.833  1.00 20.00    -0.197 NA
ENDROOT
BRANCH   3   5
HETATM    5  C9  UNL     1     -22.528  18.467   9.651  1.00 20.00     0.253 C 
BRANCH   5   6
HETATM    6  N12 UNL     1     -23.577  18.685  10.695  1.00 20.00    -0.069 N 
HETATM    7  C2  UNL     1     -24.980  18.379  10.220  1.00 20.00     0.239 C 
HETATM    8  C4  UNL     1     -25.705  17.913  11.476  1.00 20.00     0.012 C 
HETATM    9  C5  UNL     1     -24.624  17.125  12.227  1.00 20.00     0.012 C 
HETATM   10  C6  UNL     1     -26.228  19.093  12.298  1.00 20.00     0.012 C 
HETATM   11  C3  UNL     1     -23.341  17.920  11.986  1.00 20.00     0.239 C 
HETATM   12  C7  UNL     1     -24.494  15.691  11.709  1.00 20.00     0.012 C 
HETATM   13  H31 UNL     1     -23.556  19.690  10.932  1.00 20.00     0.280 HD
ENDBRANCH   5   6
ENDBRANCH   3   5
TORSDOF 2
ENDMDL
MODEL 6
REMARK VINA RESULT:      -4.2      1.485      1.956
REMARK  2 active torsions:
REMARK  status: ('A' for Active; 'I' for Inactive)
REMARK    1  A    between atoms: C9_9  and  C10_10 
REMARK    2  A    between atoms: C9_9  and  N12_12 
ROOT
HETATM    1  C1  UNL     1     -35.695  13.879  -4.313  1.00 20.00     0.065 C 
HETATM    2  C8  UNL     1     -35.471  16.059  -5.446  1.00 20.00     0.027 C 
HETATM    3  C10 UNL     1     -35.240  15.274  -4.156  1.00 20.00     0.114 C 
HETATM    4  N11 UNL     1     -36.053  12.781  -4.436  1.00 20.00    -0.197 NA
ENDROOT
BRANCH   3   5
HETATM    5  C9  UNL     1     -33.787  15.340  -3.673  1.00 20.00     0.253 C 
BRANCH   5   6
HETATM    6  N12 UNL     1     -33.644  16.190  -2.450  1.00 20.00    -0.069 N 
HETATM    7  C2  UNL     1     -32.991  17.529  -2.712  1.00 20.00     0.239 C 
HETATM    8  C4  UNL     1     -33.608  18.454  -1.673  1.00 20.00     0.012 C 
HETATM    9  C5  UNL     1     -35.058  17.959  -1.585  1.00 20.00     0.012 C 
HETATM   10  C6  UNL     1     -32.887  18.355  -0.327  1.00 20.00     0.012 C 
HETATM   11  C3  UNL     1     -34.945  16.440  -1.707  1.00 20.00     0.239 C 
HETATM   12  C7  UNL     1     -35.932  18.543  -2.698  1.00 20.00     0.012 C 
HETATM   13  H31 UNL     1     -33.022  15.679  -1.803  1.00 20.00     0.280 HD
ENDBRANCH   5   6
ENDBRANCH   3   5
TORSDOF 2
ENDMDL
MODEL 7
REMARK VINA RESULT:      -4.1      1.637      4.566
REMARK  2 active torsions:
REMARK  status: ('A' for Active; 'I' for Inactive)
REMARK    1  A    between atoms: C9_9  and  C10_10 
REMARK    2  A    between atoms: C9_9  and  N12_12 
ROOT
HETATM    1  C1  UNL     1     -32.651  17.866  -2.015  1.00 20.00     0.065 C 
HETATM    2  C8  UNL     1     -34.755  16.659  -1.563  1.00 20.00     0.027 C 
HETATM    3  C10 UNL     1     -33.736  17.072  -2.624  1.00 20.00     0.114 C 
HETATM    4  N11 UNL     1     -31.798  18.492  -1.538  1.00 20.00    -0.197 NA
ENDROOT
BRANCH   3   5
HETATM    5  C9  UNL     1     -33.185  15.879  -3.413  1.00 20.00     0.253 C 
BRANCH   5   6
HETATM    6  N12 UNL     1     -33.444  16.012  -4.880  1.00 20.00    -0.069 N 
HETATM    7  C2  UNL     1     -33.962  14.745  -5.524  1.00 20.00     0.239 C 
HETATM    8  C4  UNL     1     -34.839  15.239  -6.666  1.00 20.00     0.012 C 
HETATM    9  C5  UNL     1     -35.495  16.497  -6.081  1.00 20.00     0.012 C 
HETATM   10  C6  UNL     1     -34.016  15.553  -7.918  1.00 20.00     0.012 C 
HETATM   11  C3  UNL     1     -34.390  17.144  -5.247  1.00 20.00     0.239 C 
HETATM   12  C7  UNL     1     -36.716  16.160  -5.220  1.00 20.00     0.012 C 
HETATM   13  H31 UNL     1     -32.537  16.222  -5.325  1.00 20.00     0.280 HD
ENDBRANCH   5   6
ENDBRANCH   3   5
TORSDOF 2
ENDMDL
MODEL 8
REMARK VINA RESULT:      -4.1      1.954      4.884
REMARK  2 active torsions:
REMARK  status: ('A' for Active; 'I' for Inactive)
REMARK    1  A    between atoms: C9_9  and  C10_10 
REMARK    2  A    between atoms: C9_9  and  N12_12 
ROOT
HETATM    1  C1  UNL     1     -31.827  18.265  -1.399  1.00 20.00     0.065 C 
HETATM    2  C8  UNL     1     -33.612  19.263  -2.779  1.00 20.00     0.027 C 
HETATM    3  C10 UNL     1     -32.955  17.968  -2.304  1.00 20.00     0.114 C 
HETATM    4  N11 UNL     1     -30.940  18.497  -0.688  1.00 20.00    -0.197 NA
ENDROOT
BRANCH   3   5
HETATM    5  C9  UNL     1     -33.952  16.998  -1.662  1.00 20.00     0.253 C 
BRANCH   5   6
HETATM    6  N12 UNL     1     -34.246  15.830  -2.549  1.00 20.00    -0.069 N 
HETATM    7  C2  UNL     1     -35.680  15.774  -3.026  1.00 20.00     0.239 C 
HETATM    8  C4  UNL     1     -35.594  15.103  -4.390  1.00 20.00     0.012 C 
HETATM    9  C5  UNL     1     -34.286  15.660  -4.968  1.00 20.00     0.012 C 
HETATM   10  C6  UNL     1     -35.563  13.578  -4.270  1.00 20.00     0.012 C 
HETATM   11  C3  UNL     1     -33.343  15.729  -3.767  1.00 20.00     0.239 C 
HETATM   12  C7  UNL     1     -34.480  17.039  -5.602  1.00 20.00     0.012 C 
HETATM   13  H31 UNL     1     -34.087  14.980  -1.986  1.00 20.00     0.280 HD
ENDBRANCH   5   6
ENDBRANCH   3   5
TORSDOF 2
ENDMDL
MODEL 9
REMARK VINA RESULT:      -4.0      2.153      4.362
REMARK  2 active torsions:
REMARK  status: ('A' for Active; 'I' for Inactive)
REMARK    1  A    between atoms: C9_9  and  C10_10 
REMARK    2  A    between atoms: C9_9  and  N12_12 
ROOT
HETATM    1  C1  UNL     1     -35.204  17.051  -0.532  1.00 20.00     0.065 C 
HETATM    2  C8  UNL     1     -33.142  17.480  -1.817  1.00 20.00     0.027 C 
HETATM    3  C10 UNL     1     -34.540  16.863  -1.836  1.00 20.00     0.114 C 
HETATM    4  N11 UNL     1     -35.727  17.198   0.494  1.00 20.00    -0.197 NA
ENDROOT
BRANCH   3   5
HETATM    5  C9  UNL     1     -35.404  17.387  -2.988  1.00 20.00     0.253 C 
BRANCH   5   6
HETATM    6  N12 UNL     1     -35.590  16.359  -4.059  1.00 20.00    -0.069 N 
HETATM    7  C2  UNL     1     -34.880  16.693  -5.353  1.00 20.00     0.239 C 
HETATM    8  C4  UNL     1     -34.534  15.335  -5.948  1.00 20.00     0.012 C 
HETATM    9  C5  UNL     1     -34.187  14.493  -4.713  1.00 20.00     0.012 C 
HETATM   10  C6  UNL     1     -35.708  14.744  -6.731  1.00 20.00     0.012 C 
HETATM   11  C3  UNL     1     -35.185  14.953  -3.651  1.00 20.00     0.239 C 
HETATM   12  C7  UNL     1     -32.744  14.716  -4.253  1.00 20.00     0.012 C 
HETATM   13  H31 UNL     1     -36.599  16.332  -4.273  1.00 20.00     0.280 HD
ENDBRANCH   5   6
ENDBRANCH   3   5
TORSDOF 2
ENDMDL
