MODEL 1
REMARK VINA RESULT:      -4.7      0.000      0.000
REMARK  5 active torsions:
REMARK  status: ('A' for Active; 'I' for Inactive)
REMARK    1  A    between atoms: C2_2  and  C5_5 
REMARK    2  A    between atoms: C5_5  and  C7_7 
REMARK    3  A    between atoms: C6_6  and  C9_9 
REMARK    4  A    between atoms: C7_7  and  C8_8 
REMARK    5  A    between atoms: C8_8  and  C9_9 
ROOT
HETATM    1  C7  UNL     1     -32.219   7.253   2.713  1.00 20.00     0.006 C 
ENDROOT
BRANCH   1   2
HETATM    2  C5  UNL     1     -32.094   7.539   1.211  1.00 20.00     0.033 C 
BRANCH   2   3
HETATM    3  C2  UNL     1     -32.886   8.733   0.729  1.00 20.00    -0.093 C 
HETATM    4  C1  UNL     1     -33.083   9.805   1.512  1.00 20.00     0.014 C 
HETATM    5  C3  UNL     1     -33.470   8.655  -0.651  1.00 20.00     0.042 C 
ENDBRANCH   2   3
ENDBRANCH   1   2
BRANCH   1   6
HETATM    6  C8  UNL     1     -33.164   6.084   3.024  1.00 20.00     0.020 C 
BRANCH   6   7
HETATM    7  C9  UNL     1     -34.179   6.401   4.135  1.00 20.00     0.082 C 
HETATM    8 CL10 UNL     1     -33.362   7.222   5.504  1.00 20.00    -0.125 Cl
BRANCH   7   9
HETATM    9  C6  UNL     1     -34.871   5.117   4.618  1.00 20.00     0.016 C 
HETATM   10  C4  UNL     1     -34.831   4.933   6.129  1.00 20.00     0.006 C 
ENDBRANCH   7   9
ENDBRANCH   6   7
ENDBRANCH   1   6
TORSDOF 5
ENDMDL
MODEL 2
REMARK VINA RESULT:      -4.6      1.264      5.027
REMARK  5 active torsions:
REMARK  status: ('A' for Active; 'I' for Inactive)
REMARK    1  A    between atoms: C2_2  and  C5_5 
REMARK    2  A    between atoms: C5_5  and  C7_7 
REMARK    3  A    between atoms: C6_6  and  C9_9 
REMARK    4  A    between atoms: C7_7  and  C8_8 
REMARK    5  A    between atoms: C8_8  and  C9_9 
ROOT
HETATM    1  C7  UNL     1     -33.362   5.451   3.113  1.00 20.00     0.006 C 
ENDROOT
BRANCH   1   2
HETATM    2  C5  UNL     1     -34.651   5.748   3.891  1.00 20.00     0.033 C 
BRANCH   2   3
HETATM    3  C2  UNL     1     -34.481   5.804   5.392  1.00 20.00    -0.093 C 
HETATM    4  C1  UNL     1     -34.881   4.795   6.181  1.00 20.00     0.014 C 
HETATM    5  C3  UNL     1     -33.875   7.052   5.966  1.00 20.00     0.042 C 
ENDBRANCH   2   3
ENDBRANCH   1   2
BRANCH   1   6
HETATM    6  C8  UNL     1     -33.267   6.228   1.793  1.00 20.00     0.020 C 
BRANCH   6   7
HETATM    7  C9  UNL     1     -32.257   7.387   1.841  1.00 20.00     0.082 C 
HETATM    8 CL10 UNL     1     -31.648   7.608   3.513  1.00 20.00    -0.125 Cl
BRANCH   7   9
HETATM    9  C6  UNL     1     -32.900   8.686   1.330  1.00 20.00     0.016 C 
HETATM   10  C4  UNL     1     -33.267   8.645  -0.147  1.00 20.00     0.006 C 
ENDBRANCH   7   9
ENDBRANCH   6   7
ENDBRANCH   1   6
TORSDOF 5
ENDMDL
MODEL 3
REMARK VINA RESULT:      -4.3      1.632      2.424
REMARK  5 active torsions:
REMARK  status: ('A' for Active; 'I' for Inactive)
REMARK    1  A    between atoms: C2_2  and  C5_5 
REMARK    2  A    between atoms: C5_5  and  C7_7 
REMARK    3  A    between atoms: C6_6  and  C9_9 
REMARK    4  A    between atoms: C7_7  and  C8_8 
REMARK    5  A    between atoms: C8_8  and  C9_9 
ROOT
HETATM    1  C7  UNL     1     -33.868   5.092   2.517  1.00 20.00     0.006 C 
ENDROOT
BRANCH   1   2
HETATM    2  C5  UNL     1     -32.474   5.660   2.224  1.00 20.00     0.033 C 
BRANCH   2   3
HETATM    3  C2  UNL     1     -32.348   7.154   2.423  1.00 20.00    -0.093 C 
HETATM    4  C1  UNL     1     -31.885   7.671   3.571  1.00 20.00     0.014 C 
HETATM    5  C3  UNL     1     -32.796   8.035   1.293  1.00 20.00     0.042 C 
ENDBRANCH   2   3
ENDBRANCH   1   2
BRANCH   1   6
HETATM    6  C8  UNL     1     -33.931   4.307   3.834  1.00 20.00     0.020 C 
BRANCH   6   7
HETATM    7  C9  UNL     1     -35.114   4.714   4.729  1.00 20.00     0.082 C 
HETATM    8 CL10 UNL     1     -36.121   5.945   3.902  1.00 20.00    -0.125 Cl
BRANCH   7   9
HETATM    9  C6  UNL     1     -34.611   5.253   6.078  1.00 20.00     0.016 C 
HETATM   10  C4  UNL     1     -34.104   6.687   6.012  1.00 20.00     0.006 C 
ENDBRANCH   7   9
ENDBRANCH   6   7
ENDBRANCH   1   6
TORSDOF 5
ENDMDL
MODEL 4
REMARK VINA RESULT:      -4.2     10.870     11.534
REMARK  5 active torsions:
REMARK  status: ('A' for Active; 'I' for Inactive)
REMARK    1  A    between atoms: C2_2  and  C5_5 
REMARK    2  A    between atoms: C5_5  and  C7_7 
REMARK    3  A    between atoms: C6_6  and  C9_9 
REMARK    4  A    between atoms: C7_7  and  C8_8 
REMARK    5  A    between atoms: C8_8  and  C9_9 
ROOT
HETATM    1  C7  UNL     1     -33.600  14.720  -4.134  1.00 20.00     0.006 C 
ENDROOT
BRANCH   1   2
HETATM    2  C5  UNL     1     -33.053  16.015  -3.521  1.00 20.00     0.033 C 
BRANCH   2   3
HETATM    3  C2  UNL     1     -33.844  16.539  -2.344  1.00 20.00    -0.093 C 
HETATM    4  C1  UNL     1     -35.052  16.042  -2.036  1.00 20.00     0.014 C 
HETATM    5  C3  UNL     1     -33.236  17.663  -1.556  1.00 20.00     0.042 C 
ENDBRANCH   2   3
ENDBRANCH   1   2
BRANCH   1   6
HETATM    6  C8  UNL     1     -33.965  14.866  -5.617  1.00 20.00     0.020 C 
BRANCH   6   7
HETATM    7  C9  UNL     1     -35.482  14.888  -5.870  1.00 20.00     0.082 C 
HETATM    8 CL10 UNL     1     -36.124  16.545  -5.640  1.00 20.00    -0.125 Cl
BRANCH   7   9
HETATM    9  C6  UNL     1     -36.201  13.901  -4.937  1.00 20.00     0.016 C 
HETATM   10  C4  UNL     1     -37.465  14.468  -4.306  1.00 20.00     0.006 C 
ENDBRANCH   7   9
ENDBRANCH   6   7
ENDBRANCH   1   6
TORSDOF 5
ENDMDL
MODEL 5
REMARK VINA RESULT:      -4.0     10.411     11.688
REMARK  5 active torsions:
REMARK  status: ('A' for Active; 'I' for Inactive)
REMARK    1  A    between atoms: C2_2  and  C5_5 
REMARK    2  A    between atoms: C5_5  and  C7_7 
REMARK    3  A    between atoms: C6_6  and  C9_9 
REMARK    4  A    between atoms: C7_7  and  C8_8 
REMARK    5  A    between atoms: C8_8  and  C9_9 
ROOT
HETATM    1  C7  UNL     1     -33.120  17.864  -3.409  1.00 20.00     0.006 C 
ENDROOT
BRANCH   1   2
HETATM    2  C5  UNL     1     -33.003  16.373  -3.066  1.00 20.00     0.033 C 
BRANCH   2   3
HETATM    3  C2  UNL     1     -34.326  15.661  -2.899  1.00 20.00    -0.093 C 
HETATM    4  C1  UNL     1     -35.233  16.070  -1.999  1.00 20.00     0.014 C 
HETATM    5  C3  UNL     1     -34.568  14.454  -3.760  1.00 20.00     0.042 C 
ENDBRANCH   2   3
ENDBRANCH   1   2
BRANCH   1   6
HETATM    6  C8  UNL     1     -32.415  18.770  -2.390  1.00 20.00     0.020 C 
BRANCH   6   7
HETATM    7  C9  UNL     1     -32.344  18.159  -0.980  1.00 20.00     0.082 C 
HETATM    8 CL10 UNL     1     -33.724  18.730   0.012  1.00 20.00    -0.125 Cl
BRANCH   7   9
HETATM    9  C6  UNL     1     -31.013  18.518  -0.302  1.00 20.00     0.016 C 
HETATM   10  C4  UNL     1     -30.962  18.149   1.174  1.00 20.00     0.006 C 
ENDBRANCH   7   9
ENDBRANCH   6   7
ENDBRANCH   1   6
TORSDOF 5
ENDMDL
MODEL 6
REMARK VINA RESULT:      -4.0     10.554     11.977
REMARK  5 active torsions:
REMARK  status: ('A' for Active; 'I' for Inactive)
REMARK    1  A    between atoms: C2_2  and  C5_5 
REMARK    2  A    between atoms: C5_5  and  C7_7 
REMARK    3  A    between atoms: C6_6  and  C9_9 
REMARK    4  A    between atoms: C7_7  and  C8_8 
REMARK    5  A    between atoms: C8_8  and  C9_9 
ROOT
HETATM    1  C7  UNL     1     -34.815  14.307  -3.793  1.00 20.00     0.006 C 
ENDROOT
BRANCH   1   2
HETATM    2  C5  UNL     1     -35.267  15.365  -2.779  1.00 20.00     0.033 C 
BRANCH   2   3
HETATM    3  C2  UNL     1     -34.197  16.359  -2.387  1.00 20.00    -0.093 C 
HETATM    4  C1  UNL     1     -34.352  17.177  -1.334  1.00 20.00     0.014 C 
HETATM    5  C3  UNL     1     -32.967  16.415  -3.246  1.00 20.00     0.042 C 
ENDBRANCH   2   3
ENDBRANCH   1   2
BRANCH   1   6
HETATM    6  C8  UNL     1     -35.899  13.962  -4.823  1.00 20.00     0.020 C 
BRANCH   6   7
HETATM    7  C9  UNL     1     -35.665  14.615  -6.196  1.00 20.00     0.082 C 
HETATM    8 CL10 UNL     1     -33.916  14.922  -6.444  1.00 20.00    -0.125 Cl
BRANCH   7   9
HETATM    9  C6  UNL     1     -36.460  15.924  -6.315  1.00 20.00     0.016 C 
HETATM   10  C4  UNL     1     -35.625  17.171  -6.058  1.00 20.00     0.006 C 
ENDBRANCH   7   9
ENDBRANCH   6   7
ENDBRANCH   1   6
TORSDOF 5
ENDMDL
MODEL 7
REMARK VINA RESULT:      -4.0     10.553     11.359
REMARK  5 active torsions:
REMARK  status: ('A' for Active; 'I' for Inactive)
REMARK    1  A    between atoms: C2_2  and  C5_5 
REMARK    2  A    between atoms: C5_5  and  C7_7 
REMARK    3  A    between atoms: C6_6  and  C9_9 
REMARK    4  A    between atoms: C7_7  and  C8_8 
REMARK    5  A    between atoms: C8_8  and  C9_9 
ROOT
HETATM    1  C7  UNL     1     -33.087  17.739  -1.499  1.00 20.00     0.006 C 
ENDROOT
BRANCH   1   2
HETATM    2  C5  UNL     1     -32.890  16.930  -2.788  1.00 20.00     0.033 C 
BRANCH   2   3
HETATM    3  C2  UNL     1     -33.921  15.848  -3.016  1.00 20.00    -0.093 C 
HETATM    4  C1  UNL     1     -33.742  14.893  -3.942  1.00 20.00     0.014 C 
HETATM    5  C3  UNL     1     -35.170  15.906  -2.185  1.00 20.00     0.042 C 
ENDBRANCH   2   3
ENDBRANCH   1   2
BRANCH   1   6
HETATM    6  C8  UNL     1     -31.804  18.436  -1.027  1.00 20.00     0.020 C 
BRANCH   6   7
HETATM    7  C9  UNL     1     -31.884  18.936   0.425  1.00 20.00     0.082 C 
HETATM    8 CL10 UNL     1     -30.406  18.464   1.324  1.00 20.00    -0.125 Cl
BRANCH   7   9
HETATM    9  C6  UNL     1     -33.135  18.379   1.122  1.00 20.00     0.016 C 
HETATM   10  C4  UNL     1     -32.900  17.982   2.573  1.00 20.00     0.006 C 
ENDBRANCH   7   9
ENDBRANCH   6   7
ENDBRANCH   1   6
TORSDOF 5
ENDMDL
MODEL 8
REMARK VINA RESULT:      -3.9     10.561     11.257
REMARK  5 active torsions:
REMARK  status: ('A' for Active; 'I' for Inactive)
REMARK    1  A    between atoms: C2_2  and  C5_5 
REMARK    2  A    between atoms: C5_5  and  C7_7 
REMARK    3  A    between atoms: C6_6  and  C9_9 
REMARK    4  A    between atoms: C7_7  and  C8_8 
REMARK    5  A    between atoms: C8_8  and  C9_9 
ROOT
HETATM    1  C7  UNL     1     -33.865  17.892  -1.196  1.00 20.00     0.006 C 
ENDROOT
BRANCH   1   2
HETATM    2  C5  UNL     1     -34.813  16.714  -1.454  1.00 20.00     0.033 C 
BRANCH   2   3
HETATM    3  C2  UNL     1     -34.482  15.898  -2.683  1.00 20.00    -0.093 C 
HETATM    4  C1  UNL     1     -35.367  15.039  -3.212  1.00 20.00     0.014 C 
HETATM    5  C3  UNL     1     -33.109  16.065  -3.267  1.00 20.00     0.042 C 
ENDBRANCH   2   3
ENDBRANCH   1   2
BRANCH   1   6
HETATM    6  C8  UNL     1     -33.661  18.181   0.298  1.00 20.00     0.020 C 
BRANCH   6   7
HETATM    7  C9  UNL     1     -32.272  18.755   0.622  1.00 20.00     0.082 C 
HETATM    8 CL10 UNL     1     -31.079  18.220  -0.604  1.00 20.00    -0.125 Cl
BRANCH   7   9
HETATM    9  C6  UNL     1     -31.823  18.327   2.028  1.00 20.00     0.016 C 
HETATM   10  C4  UNL     1     -32.948  17.753   2.879  1.00 20.00     0.006 C 
ENDBRANCH   7   9
ENDBRANCH   6   7
ENDBRANCH   1   6
TORSDOF 5
ENDMDL
MODEL 9
REMARK VINA RESULT:      -3.9     10.651     11.715
REMARK  5 active torsions:
REMARK  status: ('A' for Active; 'I' for Inactive)
REMARK    1  A    between atoms: C2_2  and  C5_5 
REMARK    2  A    between atoms: C5_5  and  C7_7 
REMARK    3  A    between atoms: C6_6  and  C9_9 
REMARK    4  A    between atoms: C7_7  and  C8_8 
REMARK    5  A    between atoms: C8_8  and  C9_9 
ROOT
HETATM    1  C7  UNL     1     -33.373  15.658  -3.489  1.00 20.00     0.006 C 
ENDROOT
BRANCH   1   2
HETATM    2  C5  UNL     1     -34.544  15.862  -2.520  1.00 20.00     0.033 C 
BRANCH   2   3
HETATM    3  C2  UNL     1     -34.335  16.958  -1.500  1.00 20.00    -0.093 C 
HETATM    4  C1  UNL     1     -33.274  17.777  -1.561  1.00 20.00     0.014 C 
HETATM    5  C3  UNL     1     -35.347  17.069  -0.397  1.00 20.00     0.042 C 
ENDBRANCH   2   3
ENDBRANCH   1   2
BRANCH   1   6
HETATM    6  C8  UNL     1     -33.728  14.755  -4.678  1.00 20.00     0.020 C 
BRANCH   6   7
HETATM    7  C9  UNL     1     -35.204  14.855  -5.098  1.00 20.00     0.082 C 
HETATM    8 CL10 UNL     1     -36.102  13.402  -4.555  1.00 20.00    -0.125 Cl
BRANCH   7   9
HETATM    9  C6  UNL     1     -35.323  15.019  -6.622  1.00 20.00     0.016 C 
HETATM   10  C4  UNL     1     -33.981  15.177  -7.325  1.00 20.00     0.006 C 
ENDBRANCH   7   9
ENDBRANCH   6   7
ENDBRANCH   1   6
TORSDOF 5
ENDMDL
