MODEL 1
REMARK VINA RESULT:      -4.7      0.000      0.000
REMARK  3 active torsions:
REMARK  status: ('A' for Active; 'I' for Inactive)
REMARK    1  A    between atoms: C2_2  and  C3_3 
REMARK    2  A    between atoms: C3_3  and  C7_7 
REMARK    3  A    between atoms: C8_8  and  C11_11 
ROOT
HETATM    1  C4  UNL     1     -35.536  14.915  -3.021  1.00 20.00     0.013 C 
HETATM    2  C5  UNL     1     -35.068  16.324  -2.685  1.00 20.00     0.005 C 
HETATM    3  C6  UNL     1     -33.320  15.328  -3.989  1.00 20.00     0.017 C 
HETATM    4  C7  UNL     1     -34.550  14.417  -4.082  1.00 20.00     0.060 C 
HETATM    5  C8  UNL     1     -33.549  16.202  -2.753  1.00 20.00    -0.014 C 
ENDROOT
BRANCH   4   6
HETATM    6  C3  UNL     1     -35.158  14.503  -5.448  1.00 20.00     0.158 C 
HETATM    7  O12 UNL     1     -36.066  13.737  -5.774  1.00 20.00    -0.292 OA
BRANCH   6   8
HETATM    8  C2  UNL     1     -34.655  15.526  -6.423  1.00 20.00    -0.025 C 
HETATM    9  C1  UNL     1     -33.769  15.208  -7.376  1.00 20.00     0.022 C 
HETATM   10  C9  UNL     1     -35.196  16.918  -6.273  1.00 20.00     0.051 C 
ENDBRANCH   6   8
ENDBRANCH   4   6
BRANCH   5  11
HETATM   11  C11 UNL     1     -32.844  17.545  -2.829  1.00 20.00     0.000 C 
HETATM   12  C10 UNL     1     -32.366  18.003  -1.487  1.00 20.00     0.005 C 
ENDBRANCH   5  11
TORSDOF 3
ENDMDL
MODEL 2
REMARK VINA RESULT:      -4.7      0.055      1.015
REMARK  3 active torsions:
REMARK  status: ('A' for Active; 'I' for Inactive)
REMARK    1  A    between atoms: C2_2  and  C3_3 
REMARK    2  A    between atoms: C3_3  and  C7_7 
REMARK    3  A    between atoms: C8_8  and  C11_11 
ROOT
HETATM    1  C4  UNL     1     -35.525  14.918  -3.002  1.00 20.00     0.013 C 
HETATM    2  C5  UNL     1     -35.058  16.325  -2.654  1.00 20.00     0.005 C 
HETATM    3  C6  UNL     1     -33.323  15.352  -3.993  1.00 20.00     0.017 C 
HETATM    4  C7  UNL     1     -34.552  14.438  -4.082  1.00 20.00     0.060 C 
HETATM    5  C8  UNL     1     -33.540  16.209  -2.743  1.00 20.00    -0.014 C 
ENDROOT
BRANCH   4   6
HETATM    6  C3  UNL     1     -35.177  14.540  -5.440  1.00 20.00     0.158 C 
HETATM    7  O12 UNL     1     -36.047  13.739  -5.784  1.00 20.00    -0.292 OA
BRANCH   6   8
HETATM    8  C2  UNL     1     -34.740  15.623  -6.381  1.00 20.00    -0.025 C 
HETATM    9  C1  UNL     1     -35.179  16.882  -6.250  1.00 20.00     0.022 C 
HETATM   10  C9  UNL     1     -33.789  15.221  -7.470  1.00 20.00     0.051 C 
ENDBRANCH   6   8
ENDBRANCH   4   6
BRANCH   5  11
HETATM   11  C11 UNL     1     -32.840  17.555  -2.810  1.00 20.00     0.000 C 
HETATM   12  C10 UNL     1     -32.345  17.997  -1.469  1.00 20.00     0.005 C 
ENDBRANCH   5  11
TORSDOF 3
ENDMDL
MODEL 3
REMARK VINA RESULT:      -4.6      1.598      2.073
REMARK  3 active torsions:
REMARK  status: ('A' for Active; 'I' for Inactive)
REMARK    1  A    between atoms: C2_2  and  C3_3 
REMARK    2  A    between atoms: C3_3  and  C7_7 
REMARK    3  A    between atoms: C8_8  and  C11_11 
ROOT
HETATM    1  C4  UNL     1     -35.125  16.013  -2.065  1.00 20.00     0.013 C 
HETATM    2  C5  UNL     1     -34.540  17.348  -1.624  1.00 20.00     0.005 C 
HETATM    3  C6  UNL     1     -33.007  16.439  -3.228  1.00 20.00     0.017 C 
HETATM    4  C7  UNL     1     -34.293  15.603  -3.283  1.00 20.00     0.060 C 
HETATM    5  C8  UNL     1     -33.048  17.166  -1.881  1.00 20.00    -0.014 C 
ENDROOT
BRANCH   4   6
HETATM    6  C3  UNL     1     -35.040  15.883  -4.550  1.00 20.00     0.158 C 
HETATM    7  O12 UNL     1     -35.181  17.042  -4.945  1.00 20.00    -0.292 OA
BRANCH   6   8
HETATM    8  C2  UNL     1     -35.618  14.747  -5.340  1.00 20.00    -0.025 C 
HETATM    9  C1  UNL     1     -35.609  14.751  -6.680  1.00 20.00     0.022 C 
HETATM   10  C9  UNL     1     -36.202  13.611  -4.552  1.00 20.00     0.051 C 
ENDBRANCH   6   8
ENDBRANCH   4   6
BRANCH   5  11
HETATM   11  C11 UNL     1     -32.276  18.474  -1.882  1.00 20.00     0.000 C 
HETATM   12  C10 UNL     1     -31.436  18.630  -0.653  1.00 20.00     0.005 C 
ENDBRANCH   5  11
TORSDOF 3
ENDMDL
MODEL 4
REMARK VINA RESULT:      -4.6      2.029      4.455
REMARK  3 active torsions:
REMARK  status: ('A' for Active; 'I' for Inactive)
REMARK    1  A    between atoms: C2_2  and  C3_3 
REMARK    2  A    between atoms: C3_3  and  C7_7 
REMARK    3  A    between atoms: C8_8  and  C11_11 
ROOT
HETATM    1  C4  UNL     1     -32.958  15.402  -3.784  1.00 20.00     0.013 C 
HETATM    2  C5  UNL     1     -33.893  14.719  -4.773  1.00 20.00     0.005 C 
HETATM    3  C6  UNL     1     -35.230  15.281  -2.864  1.00 20.00     0.017 C 
HETATM    4  C7  UNL     1     -33.883  16.003  -2.722  1.00 20.00     0.060 C 
HETATM    5  C8  UNL     1     -34.986  14.155  -3.872  1.00 20.00    -0.014 C 
ENDROOT
BRANCH   4   6
HETATM    6  C3  UNL     1     -34.058  17.474  -2.945  1.00 20.00     0.158 C 
HETATM    7  O12 UNL     1     -35.155  17.926  -3.278  1.00 20.00    -0.292 OA
BRANCH   6   8
HETATM    8  C2  UNL     1     -32.890  18.398  -2.762  1.00 20.00    -0.025 C 
HETATM    9  C1  UNL     1     -32.524  19.259  -3.721  1.00 20.00     0.022 C 
HETATM   10  C9  UNL     1     -32.160  18.306  -1.454  1.00 20.00     0.051 C 
ENDBRANCH   6   8
ENDBRANCH   4   6
BRANCH   5  11
HETATM   11  C11 UNL     1     -36.237  13.749  -4.632  1.00 20.00     0.000 C 
HETATM   12  C10 UNL     1     -37.394  14.648  -4.326  1.00 20.00     0.005 C 
ENDBRANCH   5  11
TORSDOF 3
ENDMDL
MODEL 5
REMARK VINA RESULT:      -4.3      1.620      2.696
REMARK  3 active torsions:
REMARK  status: ('A' for Active; 'I' for Inactive)
REMARK    1  A    between atoms: C2_2  and  C3_3 
REMARK    2  A    between atoms: C3_3  and  C7_7 
REMARK    3  A    between atoms: C8_8  and  C11_11 
ROOT
HETATM    1  C4  UNL     1     -33.713  14.728  -5.720  1.00 20.00     0.013 C 
HETATM    2  C5  UNL     1     -33.534  14.729  -4.208  1.00 20.00     0.005 C 
HETATM    3  C6  UNL     1     -34.610  16.800  -4.760  1.00 20.00     0.017 C 
HETATM    4  C7  UNL     1     -34.650  15.905  -6.005  1.00 20.00     0.060 C 
HETATM    5  C8  UNL     1     -33.507  16.216  -3.872  1.00 20.00    -0.014 C 
ENDROOT
BRANCH   4   6
HETATM    6  C3  UNL     1     -36.046  15.421  -6.251  1.00 20.00     0.158 C 
HETATM    7  O12 UNL     1     -36.380  15.030  -7.371  1.00 20.00    -0.292 OA
BRANCH   6   8
HETATM    8  C2  UNL     1     -37.039  15.413  -5.127  1.00 20.00    -0.025 C 
HETATM    9  C1  UNL     1     -37.171  14.353  -4.318  1.00 20.00     0.022 C 
HETATM   10  C9  UNL     1     -37.872  16.650  -4.959  1.00 20.00     0.051 C 
ENDBRANCH   6   8
ENDBRANCH   4   6
BRANCH   5  11
HETATM   11  C11 UNL     1     -33.716  16.499  -2.394  1.00 20.00     0.000 C 
HETATM   12  C10 UNL     1     -35.103  16.158  -1.948  1.00 20.00     0.005 C 
ENDBRANCH   5  11
TORSDOF 3
ENDMDL
MODEL 6
REMARK VINA RESULT:      -4.3      1.657      3.596
REMARK  3 active torsions:
REMARK  status: ('A' for Active; 'I' for Inactive)
REMARK    1  A    between atoms: C2_2  and  C3_3 
REMARK    2  A    between atoms: C3_3  and  C7_7 
REMARK    3  A    between atoms: C8_8  and  C11_11 
ROOT
HETATM    1  C4  UNL     1     -35.607  14.760  -7.064  1.00 20.00     0.013 C 
HETATM    2  C5  UNL     1     -34.808  16.049  -7.205  1.00 20.00     0.005 C 
HETATM    3  C6  UNL     1     -36.280  16.372  -5.340  1.00 20.00     0.017 C 
HETATM    4  C7  UNL     1     -36.312  14.883  -5.710  1.00 20.00     0.060 C 
HETATM    5  C8  UNL     1     -35.729  17.089  -6.575  1.00 20.00    -0.014 C 
ENDROOT
BRANCH   4   6
HETATM    6  C3  UNL     1     -35.601  14.074  -4.669  1.00 20.00     0.158 C 
HETATM    7  O12 UNL     1     -35.896  12.891  -4.493  1.00 20.00    -0.292 OA
BRANCH   6   8
HETATM    8  C2  UNL     1     -34.526  14.710  -3.839  1.00 20.00    -0.025 C 
HETATM    9  C1  UNL     1     -34.816  15.389  -2.721  1.00 20.00     0.022 C 
HETATM   10  C9  UNL     1     -33.116  14.545  -4.325  1.00 20.00     0.051 C 
ENDBRANCH   6   8
ENDBRANCH   4   6
BRANCH   5  11
HETATM   11  C11 UNL     1     -35.022  18.393  -6.245  1.00 20.00     0.000 C 
HETATM   12  C10 UNL     1     -34.083  18.244  -5.090  1.00 20.00     0.005 C 
ENDBRANCH   5  11
TORSDOF 3
ENDMDL
MODEL 7
REMARK VINA RESULT:      -4.3      1.655      1.937
REMARK  3 active torsions:
REMARK  status: ('A' for Active; 'I' for Inactive)
REMARK    1  A    between atoms: C2_2  and  C3_3 
REMARK    2  A    between atoms: C3_3  and  C7_7 
REMARK    3  A    between atoms: C8_8  and  C11_11 
ROOT
HETATM    1  C4  UNL     1     -34.632  14.929  -3.400  1.00 20.00     0.013 C 
HETATM    2  C5  UNL     1     -35.011  15.873  -2.267  1.00 20.00     0.005 C 
HETATM    3  C6  UNL     1     -33.199  16.920  -3.438  1.00 20.00     0.017 C 
HETATM    4  C7  UNL     1     -33.690  15.743  -4.291  1.00 20.00     0.060 C 
HETATM    5  C8  UNL     1     -33.719  16.645  -2.024  1.00 20.00    -0.014 C 
ENDROOT
BRANCH   4   6
HETATM    6  C3  UNL     1     -34.413  16.247  -5.502  1.00 20.00     0.158 C 
HETATM    7  O12 UNL     1     -34.834  17.405  -5.537  1.00 20.00    -0.292 OA
BRANCH   6   8
HETATM    8  C2  UNL     1     -34.625  15.337  -6.675  1.00 20.00    -0.025 C 
HETATM    9  C1  UNL     1     -33.691  15.191  -7.624  1.00 20.00     0.022 C 
HETATM   10  C9  UNL     1     -35.933  14.602  -6.727  1.00 20.00     0.051 C 
ENDBRANCH   6   8
ENDBRANCH   4   6
BRANCH   5  11
HETATM   11  C11 UNL     1     -33.922  17.908  -1.205  1.00 20.00     0.000 C 
HETATM   12  C10 UNL     1     -34.991  17.740  -0.171  1.00 20.00     0.005 C 
ENDBRANCH   5  11
TORSDOF 3
ENDMDL
MODEL 8
REMARK VINA RESULT:      -4.3      2.322      4.233
REMARK  3 active torsions:
REMARK  status: ('A' for Active; 'I' for Inactive)
REMARK    1  A    between atoms: C2_2  and  C3_3 
REMARK    2  A    between atoms: C3_3  and  C7_7 
REMARK    3  A    between atoms: C8_8  and  C11_11 
ROOT
HETATM    1  C4  UNL     1     -32.923  15.530  -3.749  1.00 20.00     0.013 C 
HETATM    2  C5  UNL     1     -33.824  14.756  -4.702  1.00 20.00     0.005 C 
HETATM    3  C6  UNL     1     -35.193  15.367  -2.832  1.00 20.00     0.017 C 
HETATM    4  C7  UNL     1     -33.878  16.150  -2.725  1.00 20.00     0.060 C 
HETATM    5  C8  UNL     1     -34.898  14.198  -3.776  1.00 20.00    -0.014 C 
ENDROOT
BRANCH   4   6
HETATM    6  C3  UNL     1     -34.111  17.598  -3.029  1.00 20.00     0.158 C 
HETATM    7  O12 UNL     1     -33.249  18.436  -2.759  1.00 20.00    -0.292 OA
BRANCH   6   8
HETATM    8  C2  UNL     1     -35.400  18.027  -3.664  1.00 20.00    -0.025 C 
HETATM    9  C1  UNL     1     -36.443  18.430  -2.926  1.00 20.00     0.022 C 
HETATM   10  C9  UNL     1     -35.458  17.982  -5.163  1.00 20.00     0.051 C 
ENDBRANCH   6   8
ENDBRANCH   4   6
BRANCH   5  11
HETATM   11  C11 UNL     1     -36.127  13.700  -4.516  1.00 20.00     0.000 C 
HETATM   12  C10 UNL     1     -37.308  14.596  -4.307  1.00 20.00     0.005 C 
ENDBRANCH   5  11
TORSDOF 3
ENDMDL
MODEL 9
REMARK VINA RESULT:      -4.2      1.884      4.797
REMARK  3 active torsions:
REMARK  status: ('A' for Active; 'I' for Inactive)
REMARK    1  A    between atoms: C2_2  and  C3_3 
REMARK    2  A    between atoms: C3_3  and  C7_7 
REMARK    3  A    between atoms: C8_8  and  C11_11 
ROOT
HETATM    1  C4  UNL     1     -33.841  17.490  -4.307  1.00 20.00     0.013 C 
HETATM    2  C5  UNL     1     -34.930  16.840  -5.149  1.00 20.00     0.005 C 
HETATM    3  C6  UNL     1     -34.001  15.096  -3.791  1.00 20.00     0.017 C 
HETATM    4  C7  UNL     1     -33.475  16.435  -3.259  1.00 20.00     0.060 C 
HETATM    5  C8  UNL     1     -34.484  15.383  -5.216  1.00 20.00    -0.014 C 
ENDROOT
BRANCH   4   6
HETATM    6  C3  UNL     1     -34.113  16.757  -1.943  1.00 20.00     0.158 C 
HETATM    7  O12 UNL     1     -35.103  16.130  -1.563  1.00 20.00    -0.292 OA
BRANCH   6   8
HETATM    8  C2  UNL     1     -33.542  17.847  -1.085  1.00 20.00    -0.025 C 
HETATM    9  C1  UNL     1     -34.312  18.548  -0.241  1.00 20.00     0.022 C 
HETATM   10  C9  UNL     1     -32.071  18.109  -1.223  1.00 20.00     0.051 C 
ENDBRANCH   6   8
ENDBRANCH   4   6
BRANCH   5  11
HETATM   11  C11 UNL     1     -35.583  14.442  -5.677  1.00 20.00     0.000 C 
HETATM   12  C10 UNL     1     -36.283  13.790  -4.526  1.00 20.00     0.005 C 
ENDBRANCH   5  11
TORSDOF 3
ENDMDL
