MODEL 1
REMARK VINA RESULT:      -4.7      0.000      0.000
REMARK  3 active torsions:
REMARK  status: ('A' for Active; 'I' for Inactive)
REMARK    1  A    between atoms: C2_2  and  C10_10 
REMARK    2  A    between atoms: C5_5  and  C10_10 
REMARK    3  A    between atoms: C7_7  and  O11_11 
ROOT
HETATM    1  C3  UNL     1     -36.309  15.904  -3.098  1.00 20.00     0.008 C 
HETATM    2  C4  UNL     1     -36.857  14.837  -4.047  1.00 20.00     0.032 C 
HETATM    3  C5  UNL     1     -34.801  15.953  -3.358  1.00 20.00    -0.004 C 
HETATM    4  C6  UNL     1     -34.477  14.497  -3.708  1.00 20.00     0.015 C 
HETATM    5  C7  UNL     1     -35.638  14.121  -4.632  1.00 20.00     0.122 C 
HETATM    6  C9  UNL     1     -33.117  14.316  -4.371  1.00 20.00     0.013 C 
ENDROOT
BRANCH   3   7
HETATM    7  C10 UNL     1     -34.023  16.493  -2.169  1.00 20.00     0.038 C 
BRANCH   7   8
HETATM    8  C2  UNL     1     -33.105  17.632  -2.539  1.00 20.00    -0.093 C 
HETATM    9  C1  UNL     1     -33.095  18.151  -3.777  1.00 20.00     0.014 C 
HETATM   10  C8  UNL     1     -32.177  18.138  -1.472  1.00 20.00     0.042 C 
ENDBRANCH   7   8
ENDBRANCH   3   7
BRANCH   5  11
HETATM   11  O11 UNL     1     -35.855  12.722  -4.660  1.00 20.00    -0.395 OA
HETATM   12  H29 UNL     1     -36.353  12.495  -3.856  1.00 20.00     0.210 HD
ENDBRANCH   5  11
TORSDOF 3
ENDMDL
MODEL 2
REMARK VINA RESULT:      -4.6      1.601      2.207
REMARK  3 active torsions:
REMARK  status: ('A' for Active; 'I' for Inactive)
REMARK    1  A    between atoms: C2_2  and  C10_10 
REMARK    2  A    between atoms: C5_5  and  C10_10 
REMARK    3  A    between atoms: C7_7  and  O11_11 
ROOT
HETATM    1  C3  UNL     1     -35.040  13.935  -3.741  1.00 20.00     0.008 C 
HETATM    2  C4  UNL     1     -35.985  13.518  -4.870  1.00 20.00     0.032 C 
HETATM    3  C5  UNL     1     -34.726  15.412  -3.991  1.00 20.00    -0.004 C 
HETATM    4  C6  UNL     1     -34.747  15.503  -5.521  1.00 20.00     0.015 C 
HETATM    5  C7  UNL     1     -35.982  14.671  -5.875  1.00 20.00     0.122 C 
HETATM    6  C9  UNL     1     -34.829  16.929  -6.048  1.00 20.00     0.013 C 
ENDROOT
BRANCH   3   7
HETATM    7  C10 UNL     1     -33.409  15.840  -3.362  1.00 20.00     0.038 C 
BRANCH   7   8
HETATM    8  C2  UNL     1     -33.593  16.827  -2.235  1.00 20.00    -0.093 C 
HETATM    9  C1  UNL     1     -32.630  17.702  -1.906  1.00 20.00     0.014 C 
HETATM   10  C8  UNL     1     -34.886  16.765  -1.475  1.00 20.00     0.042 C 
ENDBRANCH   7   8
ENDBRANCH   3   7
BRANCH   5  11
HETATM   11  O11 UNL     1     -35.915  14.170  -7.199  1.00 20.00    -0.395 OA
HETATM   12  H29 UNL     1     -35.624  14.903  -7.766  1.00 20.00     0.210 HD
ENDBRANCH   5  11
TORSDOF 3
ENDMDL
MODEL 3
REMARK VINA RESULT:      -4.5      1.257      1.456
REMARK  3 active torsions:
REMARK  status: ('A' for Active; 'I' for Inactive)
REMARK    1  A    between atoms: C2_2  and  C10_10 
REMARK    2  A    between atoms: C5_5  and  C10_10 
REMARK    3  A    between atoms: C7_7  and  O11_11 
ROOT
HETATM    1  C3  UNL     1     -36.681  16.234  -3.949  1.00 20.00     0.008 C 
HETATM    2  C4  UNL     1     -36.852  15.692  -5.369  1.00 20.00     0.032 C 
HETATM    3  C5  UNL     1     -35.204  16.028  -3.604  1.00 20.00    -0.004 C 
HETATM    4  C6  UNL     1     -34.863  14.737  -4.354  1.00 20.00     0.015 C 
HETATM    5  C7  UNL     1     -35.552  14.957  -5.703  1.00 20.00     0.122 C 
HETATM    6  C9  UNL     1     -33.367  14.487  -4.493  1.00 20.00     0.013 C 
ENDROOT
BRANCH   3   7
HETATM    7  C10 UNL     1     -34.962  15.957  -2.104  1.00 20.00     0.038 C 
BRANCH   7   8
HETATM    8  C2  UNL     1     -34.075  17.069  -1.601  1.00 20.00    -0.093 C 
HETATM    9  C1  UNL     1     -32.931  17.390  -2.224  1.00 20.00     0.014 C 
HETATM   10  C8  UNL     1     -34.511  17.781  -0.353  1.00 20.00     0.042 C 
ENDBRANCH   7   8
ENDBRANCH   3   7
BRANCH   5  11
HETATM   11  O11 UNL     1     -35.833  13.731  -6.356  1.00 20.00    -0.395 OA
HETATM   12  H29 UNL     1     -34.999  13.419  -6.745  1.00 20.00     0.210 HD
ENDBRANCH   5  11
TORSDOF 3
ENDMDL
MODEL 4
REMARK VINA RESULT:      -4.3      1.132      1.341
REMARK  3 active torsions:
REMARK  status: ('A' for Active; 'I' for Inactive)
REMARK    1  A    between atoms: C2_2  and  C10_10 
REMARK    2  A    between atoms: C5_5  and  C10_10 
REMARK    3  A    between atoms: C7_7  and  O11_11 
ROOT
HETATM    1  C3  UNL     1     -36.941  16.878  -3.037  1.00 20.00     0.008 C 
HETATM    2  C4  UNL     1     -37.814  16.114  -4.034  1.00 20.00     0.032 C 
HETATM    3  C5  UNL     1     -35.553  16.240  -3.130  1.00 20.00    -0.004 C 
HETATM    4  C6  UNL     1     -35.880  14.774  -3.432  1.00 20.00     0.015 C 
HETATM    5  C7  UNL     1     -36.993  14.901  -4.476  1.00 20.00     0.122 C 
HETATM    6  C9  UNL     1     -34.688  13.973  -3.940  1.00 20.00     0.013 C 
ENDROOT
BRANCH   3   7
HETATM    7  C10 UNL     1     -34.733  16.445  -1.866  1.00 20.00     0.038 C 
BRANCH   7   8
HETATM    8  C2  UNL     1     -33.505  17.291  -2.096  1.00 20.00    -0.093 C 
HETATM    9  C1  UNL     1     -32.897  17.334  -3.291  1.00 20.00     0.014 C 
HETATM   10  C8  UNL     1     -32.971  18.057  -0.920  1.00 20.00     0.042 C 
ENDBRANCH   7   8
ENDBRANCH   3   7
BRANCH   5  11
HETATM   11  O11 UNL     1     -37.808  13.743  -4.518  1.00 20.00    -0.395 OA
HETATM   12  H29 UNL     1     -37.883  13.482  -5.451  1.00 20.00     0.210 HD
ENDBRANCH   5  11
TORSDOF 3
ENDMDL
MODEL 5
REMARK VINA RESULT:      -4.2     10.625     11.508
REMARK  3 active torsions:
REMARK  status: ('A' for Active; 'I' for Inactive)
REMARK    1  A    between atoms: C2_2  and  C10_10 
REMARK    2  A    between atoms: C5_5  and  C10_10 
REMARK    3  A    between atoms: C7_7  and  O11_11 
ROOT
HETATM    1  C3  UNL     1     -33.667   7.048   4.495  1.00 20.00     0.008 C 
HETATM    2  C4  UNL     1     -34.473   5.854   5.011  1.00 20.00     0.032 C 
HETATM    3  C5  UNL     1     -33.394   6.753   3.018  1.00 20.00    -0.004 C 
HETATM    4  C6  UNL     1     -33.263   5.227   3.002  1.00 20.00     0.015 C 
HETATM    5  C7  UNL     1     -34.418   4.795   3.908  1.00 20.00     0.122 C 
HETATM    6  C9  UNL     1     -33.352   4.620   1.608  1.00 20.00     0.013 C 
ENDROOT
BRANCH   3   7
HETATM    7  C10 UNL     1     -32.168   7.487   2.497  1.00 20.00     0.038 C 
BRANCH   7   8
HETATM    8  C2  UNL     1     -32.393   8.114   1.143  1.00 20.00    -0.093 C 
HETATM    9  C1  UNL     1     -31.792   7.638   0.042  1.00 20.00     0.014 C 
HETATM   10  C8  UNL     1     -33.292   9.315   1.086  1.00 20.00     0.042 C 
ENDBRANCH   7   8
ENDBRANCH   3   7
BRANCH   5  11
HETATM   11  O11 UNL     1     -34.194   3.513   4.469  1.00 20.00    -0.395 OA
HETATM   12  H29 UNL     1     -34.456   2.860   3.798  1.00 20.00     0.210 HD
ENDBRANCH   5  11
TORSDOF 3
ENDMDL
MODEL 6
REMARK VINA RESULT:      -4.2     16.787     17.721
REMARK  3 active torsions:
REMARK  status: ('A' for Active; 'I' for Inactive)
REMARK    1  A    between atoms: C2_2  and  C10_10 
REMARK    2  A    between atoms: C5_5  and  C10_10 
REMARK    3  A    between atoms: C7_7  and  O11_11 
ROOT
HETATM    1  C3  UNL     1     -24.019  16.263  10.627  1.00 20.00     0.008 C 
HETATM    2  C4  UNL     1     -24.962  15.611  11.640  1.00 20.00     0.032 C 
HETATM    3  C5  UNL     1     -24.151  17.771  10.851  1.00 20.00    -0.004 C 
HETATM    4  C6  UNL     1     -25.619  17.919  11.264  1.00 20.00     0.015 C 
HETATM    5  C7  UNL     1     -25.801  16.746  12.231  1.00 20.00     0.122 C 
HETATM    6  C9  UNL     1     -25.943  19.263  11.904  1.00 20.00     0.013 C 
ENDROOT
BRANCH   3   7
HETATM    7  C10 UNL     1     -23.769  18.577   9.619  1.00 20.00     0.038 C 
BRANCH   7   8
HETATM    8  C2  UNL     1     -22.483  18.105   8.987  1.00 20.00    -0.093 C 
HETATM    9  C1  UNL     1     -22.412  17.809   7.680  1.00 20.00     0.014 C 
HETATM   10  C8  UNL     1     -21.294  17.948   9.890  1.00 20.00     0.042 C 
ENDBRANCH   7   8
ENDBRANCH   3   7
BRANCH   5  11
HETATM   11  O11 UNL     1     -27.159  16.355  12.332  1.00 20.00    -0.395 OA
HETATM   12  H29 UNL     1     -27.697  17.130  12.102  1.00 20.00     0.210 HD
ENDBRANCH   5  11
TORSDOF 3
ENDMDL
MODEL 7
REMARK VINA RESULT:      -4.1      1.391      2.344
REMARK  3 active torsions:
REMARK  status: ('A' for Active; 'I' for Inactive)
REMARK    1  A    between atoms: C2_2  and  C10_10 
REMARK    2  A    between atoms: C5_5  and  C10_10 
REMARK    3  A    between atoms: C7_7  and  O11_11 
ROOT
HETATM    1  C3  UNL     1     -34.636  14.215  -3.723  1.00 20.00     0.008 C 
HETATM    2  C4  UNL     1     -35.901  13.812  -4.482  1.00 20.00     0.032 C 
HETATM    3  C5  UNL     1     -34.819  15.694  -3.374  1.00 20.00    -0.004 C 
HETATM    4  C6  UNL     1     -35.620  16.222  -4.568  1.00 20.00     0.015 C 
HETATM    5  C7  UNL     1     -36.652  15.111  -4.779  1.00 20.00     0.122 C 
HETATM    6  C9  UNL     1     -36.263  17.581  -4.321  1.00 20.00     0.013 C 
ENDROOT
BRANCH   3   7
HETATM    7  C10 UNL     1     -33.494  16.407  -3.152  1.00 20.00     0.038 C 
BRANCH   7   8
HETATM    8  C2  UNL     1     -33.474  17.224  -1.883  1.00 20.00    -0.093 C 
HETATM    9  C1  UNL     1     -32.393  17.932  -1.522  1.00 20.00     0.014 C 
HETATM   10  C8  UNL     1     -34.705  17.184  -1.024  1.00 20.00     0.042 C 
ENDBRANCH   7   8
ENDBRANCH   3   7
BRANCH   5  11
HETATM   11  O11 UNL     1     -37.148  15.101  -6.106  1.00 20.00    -0.395 OA
HETATM   12  H29 UNL     1     -37.893  15.724  -6.137  1.00 20.00     0.210 HD
ENDBRANCH   5  11
TORSDOF 3
ENDMDL
MODEL 8
REMARK VINA RESULT:      -4.1      2.137      2.912
REMARK  3 active torsions:
REMARK  status: ('A' for Active; 'I' for Inactive)
REMARK    1  A    between atoms: C2_2  and  C10_10 
REMARK    2  A    between atoms: C5_5  and  C10_10 
REMARK    3  A    between atoms: C7_7  and  O11_11 
ROOT
HETATM    1  C3  UNL     1     -35.441  14.809  -3.052  1.00 20.00     0.008 C 
HETATM    2  C4  UNL     1     -34.556  14.341  -4.208  1.00 20.00     0.032 C 
HETATM    3  C5  UNL     1     -34.936  16.208  -2.687  1.00 20.00    -0.004 C 
HETATM    4  C6  UNL     1     -33.435  16.105  -2.973  1.00 20.00     0.015 C 
HETATM    5  C7  UNL     1     -33.411  15.352  -4.305  1.00 20.00     0.122 C 
HETATM    6  C9  UNL     1     -32.733  17.455  -3.050  1.00 20.00     0.013 C 
ENDROOT
BRANCH   3   7
HETATM    7  C10 UNL     1     -35.270  16.590  -1.254  1.00 20.00     0.038 C 
BRANCH   7   8
HETATM    8  C2  UNL     1     -35.991  17.912  -1.153  1.00 20.00    -0.093 C 
HETATM    9  C1  UNL     1     -37.194  18.099  -1.716  1.00 20.00     0.014 C 
HETATM   10  C8  UNL     1     -35.287  19.021  -0.426  1.00 20.00     0.042 C 
ENDBRANCH   7   8
ENDBRANCH   3   7
BRANCH   5  11
HETATM   11  O11 UNL     1     -32.179  14.683  -4.508  1.00 20.00    -0.395 OA
HETATM   12  H29 UNL     1     -31.473  15.312  -4.284  1.00 20.00     0.210 HD
ENDBRANCH   5  11
TORSDOF 3
ENDMDL
MODEL 9
REMARK VINA RESULT:      -4.1     15.458     17.405
REMARK  3 active torsions:
REMARK  status: ('A' for Active; 'I' for Inactive)
REMARK    1  A    between atoms: C2_2  and  C10_10 
REMARK    2  A    between atoms: C5_5  and  C10_10 
REMARK    3  A    between atoms: C7_7  and  O11_11 
ROOT
HETATM    1  C3  UNL     1     -22.592  17.457  10.599  1.00 20.00     0.008 C 
HETATM    2  C4  UNL     1     -21.912  17.060   9.288  1.00 20.00     0.032 C 
HETATM    3  C5  UNL     1     -24.011  17.881  10.216  1.00 20.00    -0.004 C 
HETATM    4  C6  UNL     1     -23.810  18.502   8.829  1.00 20.00     0.015 C 
HETATM    5  C7  UNL     1     -22.852  17.509   8.168  1.00 20.00     0.122 C 
HETATM    6  C9  UNL     1     -25.104  18.681   8.046  1.00 20.00     0.013 C 
ENDROOT
BRANCH   3   7
HETATM    7  C10 UNL     1     -24.631  18.825  11.234  1.00 20.00     0.038 C 
BRANCH   7   8
HETATM    8  C2  UNL     1     -26.015  18.399  11.661  1.00 20.00    -0.093 C 
HETATM    9  C1  UNL     1     -27.080  19.194  11.477  1.00 20.00     0.014 C 
HETATM   10  C8  UNL     1     -26.143  17.061  12.330  1.00 20.00     0.042 C 
ENDBRANCH   7   8
ENDBRANCH   3   7
BRANCH   5  11
HETATM   11  O11 UNL     1     -22.115  18.110   7.118  1.00 20.00    -0.395 OA
HETATM   12  H29 UNL     1     -21.274  17.629   7.048  1.00 20.00     0.210 HD
ENDBRANCH   5  11
TORSDOF 3
ENDMDL
