MODEL 1
REMARK VINA RESULT:      -4.9      0.000      0.000
REMARK  3 active torsions:
REMARK  status: ('A' for Active; 'I' for Inactive)
REMARK    1  A    between atoms: C2_2  and  C9_9 
REMARK    2  A    between atoms: C3_3  and  C5_5 
REMARK    3  A    between atoms: C3_3  and  C9_9 
ROOT
HETATM    1  C3  UNL     1     -33.588   5.205   3.096  1.00 20.00     0.135 C 
HETATM    2  O10 UNL     1     -32.740   4.540   2.503  1.00 20.00    -0.297 OA
ENDROOT
BRANCH   1   3
HETATM    3  C5  UNL     1     -34.496   4.567   4.116  1.00 20.00     0.060 A 
HETATM    4  C4  UNL     1     -35.771   5.260   4.449  1.00 20.00     0.017 A 
HETATM    5  C6  UNL     1     -34.657   5.198   5.456  1.00 20.00    -0.007 A 
HETATM    6  C8  UNL     1     -33.954   6.447   5.867  1.00 20.00     0.011 C 
ENDBRANCH   1   3
BRANCH   1   7
HETATM    7  C9  UNL     1     -33.823   6.685   2.828  1.00 20.00     0.111 C 
BRANCH   7   8
HETATM    8  C2  UNL     1     -32.545   7.403   2.486  1.00 20.00    -0.086 C 
HETATM    9  C1  UNL     1     -31.561   7.553   3.386  1.00 20.00     0.014 C 
HETATM   10  C7  UNL     1     -32.411   7.914   1.080  1.00 20.00     0.043 C 
ENDBRANCH   7   8
ENDBRANCH   1   7
TORSDOF 3
ENDMDL
MODEL 2
REMARK VINA RESULT:      -4.7     11.203     12.755
REMARK  3 active torsions:
REMARK  status: ('A' for Active; 'I' for Inactive)
REMARK    1  A    between atoms: C2_2  and  C9_9 
REMARK    2  A    between atoms: C3_3  and  C5_5 
REMARK    3  A    between atoms: C3_3  and  C9_9 
ROOT
HETATM    1  C3  UNL     1     -36.008  14.056  -4.670  1.00 20.00     0.135 C 
HETATM    2  O10 UNL     1     -37.115  13.858  -4.170  1.00 20.00    -0.297 OA
ENDROOT
BRANCH   1   3
HETATM    3  C5  UNL     1     -35.863  14.314  -6.148  1.00 20.00     0.060 A 
HETATM    4  C4  UNL     1     -34.663  15.063  -6.613  1.00 20.00     0.017 A 
HETATM    5  C6  UNL     1     -36.023  15.700  -6.673  1.00 20.00    -0.007 A 
HETATM    6  C8  UNL     1     -36.333  16.875  -5.811  1.00 20.00     0.011 C 
ENDBRANCH   1   3
BRANCH   1   7
HETATM    7  C9  UNL     1     -34.713  14.016  -3.870  1.00 20.00     0.111 C 
BRANCH   7   8
HETATM    8  C2  UNL     1     -34.441  15.323  -3.177  1.00 20.00    -0.086 C 
HETATM    9  C1  UNL     1     -35.328  15.869  -2.331  1.00 20.00     0.014 C 
HETATM   10  C7  UNL     1     -33.114  15.973  -3.453  1.00 20.00     0.043 C 
ENDBRANCH   7   8
ENDBRANCH   1   7
TORSDOF 3
ENDMDL
MODEL 3
REMARK VINA RESULT:      -4.5      0.938      3.925
REMARK  3 active torsions:
REMARK  status: ('A' for Active; 'I' for Inactive)
REMARK    1  A    between atoms: C2_2  and  C9_9 
REMARK    2  A    between atoms: C3_3  and  C5_5 
REMARK    3  A    between atoms: C3_3  and  C9_9 
ROOT
HETATM    1  C3  UNL     1     -33.451   5.772   2.830  1.00 20.00     0.135 C 
HETATM    2  O10 UNL     1     -33.665   4.672   2.321  1.00 20.00    -0.297 OA
ENDROOT
BRANCH   1   3
HETATM    3  C5  UNL     1     -32.126   6.465   2.643  1.00 20.00     0.060 A 
HETATM    4  C4  UNL     1     -31.948   7.812   3.253  1.00 20.00     0.017 A 
HETATM    5  C6  UNL     1     -32.039   7.662   1.760  1.00 20.00    -0.007 A 
HETATM    6  C8  UNL     1     -33.206   8.228   1.024  1.00 20.00     0.011 C 
ENDBRANCH   1   3
BRANCH   1   7
HETATM    7  C9  UNL     1     -34.462   6.493   3.711  1.00 20.00     0.111 C 
BRANCH   7   8
HETATM    8  C2  UNL     1     -34.408   6.012   5.136  1.00 20.00    -0.086 C 
HETATM    9  C1  UNL     1     -34.833   4.788   5.482  1.00 20.00     0.014 C 
HETATM   10  C7  UNL     1     -33.824   6.957   6.148  1.00 20.00     0.043 C 
ENDBRANCH   7   8
ENDBRANCH   1   7
TORSDOF 3
ENDMDL
MODEL 4
REMARK VINA RESULT:      -4.5     11.341     12.952
REMARK  3 active torsions:
REMARK  status: ('A' for Active; 'I' for Inactive)
REMARK    1  A    between atoms: C2_2  and  C9_9 
REMARK    2  A    between atoms: C3_3  and  C5_5 
REMARK    3  A    between atoms: C3_3  and  C9_9 
ROOT
HETATM    1  C3  UNL     1     -35.867  14.505  -4.727  1.00 20.00     0.135 C 
HETATM    2  O10 UNL     1     -36.727  13.650  -4.935  1.00 20.00    -0.297 OA
ENDROOT
BRANCH   1   3
HETATM    3  C5  UNL     1     -35.907  15.831  -5.443  1.00 20.00     0.060 A 
HETATM    4  C4  UNL     1     -36.454  15.863  -6.827  1.00 20.00     0.017 A 
HETATM    5  C6  UNL     1     -34.986  16.078  -6.588  1.00 20.00    -0.007 A 
HETATM    6  C8  UNL     1     -33.997  15.076  -7.080  1.00 20.00     0.011 C 
ENDBRANCH   1   3
BRANCH   1   7
HETATM    7  C9  UNL     1     -34.689  14.290  -3.787  1.00 20.00     0.111 C 
BRANCH   7   8
HETATM    8  C2  UNL     1     -34.359  15.534  -3.008  1.00 20.00    -0.086 C 
HETATM    9  C1  UNL     1     -35.178  16.007  -2.057  1.00 20.00     0.014 C 
HETATM   10  C7  UNL     1     -33.051  16.204  -3.324  1.00 20.00     0.043 C 
ENDBRANCH   7   8
ENDBRANCH   1   7
TORSDOF 3
ENDMDL
MODEL 5
REMARK VINA RESULT:      -4.4     11.362     12.748
REMARK  3 active torsions:
REMARK  status: ('A' for Active; 'I' for Inactive)
REMARK    1  A    between atoms: C2_2  and  C9_9 
REMARK    2  A    between atoms: C3_3  and  C5_5 
REMARK    3  A    between atoms: C3_3  and  C9_9 
ROOT
HETATM    1  C3  UNL     1     -34.382  14.578  -4.489  1.00 20.00     0.135 C 
HETATM    2  O10 UNL     1     -33.336  13.945  -4.628  1.00 20.00    -0.297 OA
ENDROOT
BRANCH   1   3
HETATM    3  C5  UNL     1     -34.879  14.959  -3.118  1.00 20.00     0.060 A 
HETATM    4  C4  UNL     1     -35.612  16.247  -2.971  1.00 20.00     0.017 A 
HETATM    5  C6  UNL     1     -34.236  16.088  -2.388  1.00 20.00    -0.007 A 
HETATM    6  C8  UNL     1     -33.098  16.880  -2.937  1.00 20.00     0.011 C 
ENDBRANCH   1   3
BRANCH   1   7
HETATM    7  C9  UNL     1     -35.271  14.986  -5.657  1.00 20.00     0.111 C 
BRANCH   7   8
HETATM    8  C2  UNL     1     -34.568  15.931  -6.593  1.00 20.00    -0.086 C 
HETATM    9  C1  UNL     1     -34.525  17.251  -6.358  1.00 20.00     0.014 C 
HETATM   10  C7  UNL     1     -33.888  15.321  -7.787  1.00 20.00     0.043 C 
ENDBRANCH   7   8
ENDBRANCH   1   7
TORSDOF 3
ENDMDL
MODEL 6
REMARK VINA RESULT:      -4.4     11.242     12.344
REMARK  3 active torsions:
REMARK  status: ('A' for Active; 'I' for Inactive)
REMARK    1  A    between atoms: C2_2  and  C9_9 
REMARK    2  A    between atoms: C3_3  and  C5_5 
REMARK    3  A    between atoms: C3_3  and  C9_9 
ROOT
HETATM    1  C3  UNL     1     -35.905  14.126  -4.400  1.00 20.00     0.135 C 
HETATM    2  O10 UNL     1     -35.993  12.916  -4.604  1.00 20.00    -0.297 OA
ENDROOT
BRANCH   1   3
HETATM    3  C5  UNL     1     -36.510  15.117  -5.361  1.00 20.00     0.060 A 
HETATM    4  C4  UNL     1     -36.844  16.474  -4.848  1.00 20.00     0.017 A 
HETATM    5  C6  UNL     1     -37.939  15.511  -5.212  1.00 20.00    -0.007 A 
HETATM    6  C8  UNL     1     -38.835  14.967  -4.151  1.00 20.00     0.011 C 
ENDBRANCH   1   3
BRANCH   1   7
HETATM    7  C9  UNL     1     -35.158  14.719  -3.213  1.00 20.00     0.111 C 
BRANCH   7   8
HETATM    8  C2  UNL     1     -33.783  15.194  -3.596  1.00 20.00    -0.086 C 
HETATM    9  C1  UNL     1     -33.015  14.506  -4.454  1.00 20.00     0.014 C 
HETATM   10  C7  UNL     1     -33.324  16.494  -2.998  1.00 20.00     0.043 C 
ENDBRANCH   7   8
ENDBRANCH   1   7
TORSDOF 3
ENDMDL
MODEL 7
REMARK VINA RESULT:      -4.4      0.949      2.007
REMARK  3 active torsions:
REMARK  status: ('A' for Active; 'I' for Inactive)
REMARK    1  A    between atoms: C2_2  and  C9_9 
REMARK    2  A    between atoms: C3_3  and  C5_5 
REMARK    3  A    between atoms: C3_3  and  C9_9 
ROOT
HETATM    1  C3  UNL     1     -33.190   6.433   3.039  1.00 20.00     0.135 C 
HETATM    2  O10 UNL     1     -33.285   5.333   2.495  1.00 20.00    -0.297 OA
ENDROOT
BRANCH   1   3
HETATM    3  C5  UNL     1     -34.168   6.854   4.106  1.00 20.00     0.060 A 
HETATM    4  C4  UNL     1     -33.732   6.768   5.527  1.00 20.00     0.017 A 
HETATM    5  C6  UNL     1     -34.775   5.825   4.997  1.00 20.00    -0.007 A 
HETATM    6  C8  UNL     1     -34.476   4.368   4.893  1.00 20.00     0.011 C 
ENDBRANCH   1   3
BRANCH   1   7
HETATM    7  C9  UNL     1     -32.131   7.460   2.662  1.00 20.00     0.111 C 
BRANCH   7   8
HETATM    8  C2  UNL     1     -32.419   8.100   1.331  1.00 20.00    -0.086 C 
HETATM    9  C1  UNL     1     -31.970   7.568   0.184  1.00 20.00     0.014 C 
HETATM   10  C7  UNL     1     -33.261   9.344   1.345  1.00 20.00     0.043 C 
ENDBRANCH   7   8
ENDBRANCH   1   7
TORSDOF 3
ENDMDL
MODEL 8
REMARK VINA RESULT:      -4.3     11.577     12.521
REMARK  3 active torsions:
REMARK  status: ('A' for Active; 'I' for Inactive)
REMARK    1  A    between atoms: C2_2  and  C9_9 
REMARK    2  A    between atoms: C3_3  and  C5_5 
REMARK    3  A    between atoms: C3_3  and  C9_9 
ROOT
HETATM    1  C3  UNL     1     -36.067  15.985  -3.563  1.00 20.00     0.135 C 
HETATM    2  O10 UNL     1     -36.350  17.102  -3.993  1.00 20.00    -0.297 OA
ENDROOT
BRANCH   1   3
HETATM    3  C5  UNL     1     -36.646  14.745  -4.195  1.00 20.00     0.060 A 
HETATM    4  C4  UNL     1     -35.780  13.537  -4.285  1.00 20.00     0.017 A 
HETATM    5  C6  UNL     1     -36.151  14.297  -5.527  1.00 20.00    -0.007 A 
HETATM    6  C8  UNL     1     -35.100  15.020  -6.300  1.00 20.00     0.011 C 
ENDBRANCH   1   3
BRANCH   1   7
HETATM    7  C9  UNL     1     -35.167  15.760  -2.356  1.00 20.00     0.111 C 
BRANCH   7   8
HETATM    8  C2  UNL     1     -33.797  16.346  -2.562  1.00 20.00    -0.086 C 
HETATM    9  C1  UNL     1     -32.966  15.877  -3.505  1.00 20.00     0.014 C 
HETATM   10  C7  UNL     1     -33.415  17.503  -1.682  1.00 20.00     0.043 C 
ENDBRANCH   7   8
ENDBRANCH   1   7
TORSDOF 3
ENDMDL
MODEL 9
REMARK VINA RESULT:      -4.3     11.989     12.832
REMARK  3 active torsions:
REMARK  status: ('A' for Active; 'I' for Inactive)
REMARK    1  A    between atoms: C2_2  and  C9_9 
REMARK    2  A    between atoms: C3_3  and  C5_5 
REMARK    3  A    between atoms: C3_3  and  C9_9 
ROOT
HETATM    1  C3  UNL     1     -34.246  15.960  -4.879  1.00 20.00     0.135 C 
HETATM    2  O10 UNL     1     -34.577  17.114  -5.146  1.00 20.00    -0.297 OA
ENDROOT
BRANCH   1   3
HETATM    3  C5  UNL     1     -34.655  14.814  -5.768  1.00 20.00     0.060 A 
HETATM    4  C4  UNL     1     -35.790  15.027  -6.708  1.00 20.00     0.017 A 
HETATM    5  C6  UNL     1     -35.948  14.115  -5.524  1.00 20.00    -0.007 A 
HETATM    6  C8  UNL     1     -36.885  14.481  -4.423  1.00 20.00     0.011 C 
ENDBRANCH   1   3
BRANCH   1   7
HETATM    7  C9  UNL     1     -33.453  15.587  -3.634  1.00 20.00     0.111 C 
BRANCH   7   8
HETATM    8  C2  UNL     1     -33.845  16.425  -2.447  1.00 20.00    -0.086 C 
HETATM    9  C1  UNL     1     -34.994  16.215  -1.787  1.00 20.00     0.014 C 
HETATM   10  C7  UNL     1     -32.874  17.488  -2.017  1.00 20.00     0.043 C 
ENDBRANCH   7   8
ENDBRANCH   1   7
TORSDOF 3
ENDMDL
