MODEL 1
REMARK VINA RESULT:      -4.6      0.000      0.000
REMARK  3 active torsions:
REMARK  status: ('A' for Active; 'I' for Inactive)
REMARK    1  A    between atoms: C2_2  and  C9_9 
REMARK    2  A    between atoms: C7_7  and  C9_9 
REMARK    3  A    between atoms: C9_9  and  O11_11 
ROOT
HETATM    1  C3  UNL     1     -34.882  13.981  -3.858  1.00 20.00     0.034 C 
HETATM    2  C4  UNL     1     -34.873  15.963  -5.395  1.00 20.00     0.034 C 
HETATM    3  C5  UNL     1     -36.076  13.461  -4.649  1.00 20.00     0.168 C 
HETATM    4  C6  UNL     1     -36.067  15.332  -6.102  1.00 20.00     0.168 C 
HETATM    5  C7  UNL     1     -34.807  15.510  -3.932  1.00 20.00     0.023 C 
HETATM    6  O10 UNL     1     -36.019  13.909  -6.004  1.00 20.00    -0.391 OA
ENDROOT
BRANCH   5   7
HETATM    7  C9  UNL     1     -33.546  16.034  -3.250  1.00 20.00     0.150 C 
BRANCH   7   8
HETATM    8  C2  UNL     1     -33.850  16.851  -2.015  1.00 20.00    -0.064 C 
HETATM    9  C1  UNL     1     -32.973  17.758  -1.553  1.00 20.00     0.016 C 
HETATM   10  C8  UNL     1     -35.166  16.628  -1.323  1.00 20.00     0.045 C 
ENDBRANCH   7   8
BRANCH   7  11
HETATM   11  O11 UNL     1     -32.812  16.836  -4.171  1.00 20.00    -0.391 OA
HETATM   12  H27 UNL     1     -32.451  17.579  -3.663  1.00 20.00     0.210 HD
ENDBRANCH   7  11
ENDBRANCH   5   7
TORSDOF 3
ENDMDL
MODEL 2
REMARK VINA RESULT:      -4.3      1.834      2.723
REMARK  3 active torsions:
REMARK  status: ('A' for Active; 'I' for Inactive)
REMARK    1  A    between atoms: C2_2  and  C9_9 
REMARK    2  A    between atoms: C7_7  and  C9_9 
REMARK    3  A    between atoms: C9_9  and  O11_11 
ROOT
HETATM    1  C3  UNL     1     -33.454  16.083  -3.543  1.00 20.00     0.034 C 
HETATM    2  C4  UNL     1     -35.736  15.051  -3.415  1.00 20.00     0.034 C 
HETATM    3  C5  UNL     1     -32.982  14.788  -4.192  1.00 20.00     0.168 C 
HETATM    4  C6  UNL     1     -35.137  13.813  -4.071  1.00 20.00     0.168 C 
HETATM    5  C7  UNL     1     -34.665  15.826  -2.640  1.00 20.00     0.023 C 
HETATM    6  O10 UNL     1     -34.044  14.168  -4.918  1.00 20.00    -0.391 OA
ENDROOT
BRANCH   5   7
HETATM    7  C9  UNL     1     -35.225  17.133  -2.084  1.00 20.00     0.150 C 
BRANCH   7   8
HETATM    8  C2  UNL     1     -34.718  17.438  -0.693  1.00 20.00    -0.064 C 
HETATM    9  C1  UNL     1     -35.437  17.110   0.393  1.00 20.00     0.016 C 
HETATM   10  C8  UNL     1     -33.380  18.112  -0.559  1.00 20.00     0.045 C 
ENDBRANCH   7   8
BRANCH   7  11
HETATM   11  O11 UNL     1     -36.648  17.060  -2.056  1.00 20.00    -0.391 OA
HETATM   12  H27 UNL     1     -36.904  17.028  -1.121  1.00 20.00     0.210 HD
ENDBRANCH   7  11
ENDBRANCH   5   7
TORSDOF 3
ENDMDL
MODEL 3
REMARK VINA RESULT:      -4.2      1.645      4.433
REMARK  3 active torsions:
REMARK  status: ('A' for Active; 'I' for Inactive)
REMARK    1  A    between atoms: C2_2  and  C9_9 
REMARK    2  A    between atoms: C7_7  and  C9_9 
REMARK    3  A    between atoms: C9_9  and  O11_11 
ROOT
HETATM    1  C3  UNL     1     -32.873  16.512  -3.184  1.00 20.00     0.034 C 
HETATM    2  C4  UNL     1     -35.103  15.548  -2.559  1.00 20.00     0.034 C 
HETATM    3  C5  UNL     1     -33.154  17.628  -2.185  1.00 20.00     0.168 C 
HETATM    4  C6  UNL     1     -35.260  16.718  -1.594  1.00 20.00     0.168 C 
HETATM    5  C7  UNL     1     -34.183  15.926  -3.724  1.00 20.00     0.023 C 
HETATM    6  O10 UNL     1     -33.986  17.159  -1.124  1.00 20.00    -0.391 OA
ENDROOT
BRANCH   5   7
HETATM    7  C9  UNL     1     -33.917  14.726  -4.629  1.00 20.00     0.150 C 
BRANCH   7   8
HETATM    8  C2  UNL     1     -34.508  14.895  -6.010  1.00 20.00    -0.064 C 
HETATM    9  C1  UNL     1     -33.720  15.073  -7.083  1.00 20.00     0.016 C 
HETATM   10  C8  UNL     1     -36.005  14.849  -6.151  1.00 20.00     0.045 C 
ENDBRANCH   7   8
BRANCH   7  11
HETATM   11  O11 UNL     1     -34.464  13.555  -4.028  1.00 20.00    -0.391 OA
HETATM   12  H27 UNL     1     -34.436  13.697  -3.070  1.00 20.00     0.210 HD
ENDBRANCH   7  11
ENDBRANCH   5   7
TORSDOF 3
ENDMDL
MODEL 4
REMARK VINA RESULT:      -4.1      1.452      1.968
REMARK  3 active torsions:
REMARK  status: ('A' for Active; 'I' for Inactive)
REMARK    1  A    between atoms: C2_2  and  C9_9 
REMARK    2  A    between atoms: C7_7  and  C9_9 
REMARK    3  A    between atoms: C9_9  and  O11_11 
ROOT
HETATM    1  C3  UNL     1     -36.108  15.414  -5.332  1.00 20.00     0.034 C 
HETATM    2  C4  UNL     1     -34.046  15.019  -6.705  1.00 20.00     0.034 C 
HETATM    3  C5  UNL     1     -36.797  15.848  -6.620  1.00 20.00     0.168 C 
HETATM    4  C6  UNL     1     -34.850  15.476  -7.916  1.00 20.00     0.168 C 
HETATM    5  C7  UNL     1     -34.596  15.649  -5.420  1.00 20.00     0.023 C 
HETATM    6  O10 UNL     1     -36.235  15.175  -7.747  1.00 20.00    -0.391 OA
ENDROOT
BRANCH   5   7
HETATM    7  C9  UNL     1     -33.880  15.102  -4.188  1.00 20.00     0.150 C 
BRANCH   7   8
HETATM    8  C2  UNL     1     -33.820  16.104  -3.057  1.00 20.00    -0.064 C 
HETATM    9  C1  UNL     1     -32.861  17.042  -3.014  1.00 20.00     0.016 C 
HETATM   10  C8  UNL     1     -34.872  16.026  -1.986  1.00 20.00     0.045 C 
ENDBRANCH   7   8
BRANCH   7  11
HETATM   11  O11 UNL     1     -32.553  14.723  -4.545  1.00 20.00    -0.391 OA
HETATM   12  H27 UNL     1     -32.001  15.512  -4.434  1.00 20.00     0.210 HD
ENDBRANCH   7  11
ENDBRANCH   5   7
TORSDOF 3
ENDMDL
MODEL 5
REMARK VINA RESULT:      -4.1      1.807      4.534
REMARK  3 active torsions:
REMARK  status: ('A' for Active; 'I' for Inactive)
REMARK    1  A    between atoms: C2_2  and  C9_9 
REMARK    2  A    between atoms: C7_7  and  C9_9 
REMARK    3  A    between atoms: C9_9  and  O11_11 
ROOT
HETATM    1  C3  UNL     1     -35.353  16.879  -1.505  1.00 20.00     0.034 C 
HETATM    2  C4  UNL     1     -33.050  17.799  -1.882  1.00 20.00     0.034 C 
HETATM    3  C5  UNL     1     -35.184  17.247  -0.036  1.00 20.00     0.168 C 
HETATM    4  C6  UNL     1     -33.009  18.116  -0.392  1.00 20.00     0.168 C 
HETATM    5  C7  UNL     1     -33.992  16.622  -2.160  1.00 20.00     0.023 C 
HETATM    6  O10 UNL     1     -34.321  18.376   0.106  1.00 20.00    -0.391 OA
ENDROOT
BRANCH   5   7
HETATM    7  C9  UNL     1     -34.139  16.376  -3.659  1.00 20.00     0.150 C 
BRANCH   7   8
HETATM    8  C2  UNL     1     -33.972  14.921  -4.030  1.00 20.00    -0.064 C 
HETATM    9  C1  UNL     1     -32.771  14.428  -4.376  1.00 20.00     0.016 C 
HETATM   10  C8  UNL     1     -35.186  14.036  -3.991  1.00 20.00     0.045 C 
ENDBRANCH   7   8
BRANCH   7  11
HETATM   11  O11 UNL     1     -33.168  17.150  -4.360  1.00 20.00    -0.391 OA
HETATM   12  H27 UNL     1     -32.983  17.926  -3.809  1.00 20.00     0.210 HD
ENDBRANCH   7  11
ENDBRANCH   5   7
TORSDOF 3
ENDMDL
MODEL 6
REMARK VINA RESULT:      -4.0      2.131      3.254
REMARK  3 active torsions:
REMARK  status: ('A' for Active; 'I' for Inactive)
REMARK    1  A    between atoms: C2_2  and  C9_9 
REMARK    2  A    between atoms: C7_7  and  C9_9 
REMARK    3  A    between atoms: C9_9  and  O11_11 
ROOT
HETATM    1  C3  UNL     1     -38.352  14.765  -4.231  1.00 20.00     0.034 C 
HETATM    2  C4  UNL     1     -36.698  15.684  -5.877  1.00 20.00     0.034 C 
HETATM    3  C5  UNL     1     -39.371  15.730  -4.824  1.00 20.00     0.168 C 
HETATM    4  C6  UNL     1     -37.809  16.599  -6.378  1.00 20.00     0.168 C 
HETATM    5  C7  UNL     1     -36.928  15.303  -4.411  1.00 20.00     0.023 C 
HETATM    6  O10 UNL     1     -39.086  15.987  -6.199  1.00 20.00    -0.391 OA
ENDROOT
BRANCH   5   7
HETATM    7  C9  UNL     1     -35.892  14.289  -3.935  1.00 20.00     0.150 C 
BRANCH   7   8
HETATM    8  C2  UNL     1     -34.573  14.931  -3.571  1.00 20.00    -0.064 C 
HETATM    9  C1  UNL     1     -34.486  15.805  -2.555  1.00 20.00     0.016 C 
HETATM   10  C8  UNL     1     -33.357  14.555  -4.372  1.00 20.00     0.045 C 
ENDBRANCH   7   8
BRANCH   7  11
HETATM   11  O11 UNL     1     -35.673  13.324  -4.962  1.00 20.00    -0.391 OA
HETATM   12  H27 UNL     1     -35.682  12.456  -4.531  1.00 20.00     0.210 HD
ENDBRANCH   7  11
ENDBRANCH   5   7
TORSDOF 3
ENDMDL
MODEL 7
REMARK VINA RESULT:      -4.0      1.599      4.260
REMARK  3 active torsions:
REMARK  status: ('A' for Active; 'I' for Inactive)
REMARK    1  A    between atoms: C2_2  and  C9_9 
REMARK    2  A    between atoms: C7_7  and  C9_9 
REMARK    3  A    between atoms: C9_9  and  O11_11 
ROOT
HETATM    1  C3  UNL     1     -35.191  16.146  -2.491  1.00 20.00     0.034 C 
HETATM    2  C4  UNL     1     -32.929  17.181  -2.814  1.00 20.00     0.034 C 
HETATM    3  C5  UNL     1     -35.206  16.781  -1.106  1.00 20.00     0.168 C 
HETATM    4  C6  UNL     1     -33.070  17.759  -1.412  1.00 20.00     0.168 C 
HETATM    5  C7  UNL     1     -33.752  15.896  -2.957  1.00 20.00     0.023 C 
HETATM    6  O10 UNL     1     -34.443  17.989  -1.095  1.00 20.00    -0.391 OA
ENDROOT
BRANCH   5   7
HETATM    7  C9  UNL     1     -33.719  15.376  -4.392  1.00 20.00     0.150 C 
BRANCH   7   8
HETATM    8  C2  UNL     1     -34.854  14.425  -4.693  1.00 20.00    -0.064 C 
HETATM    9  C1  UNL     1     -34.999  13.281  -4.004  1.00 20.00     0.016 C 
HETATM   10  C8  UNL     1     -35.824  14.800  -5.778  1.00 20.00     0.045 C 
ENDBRANCH   7   8
BRANCH   7  11
HETATM   11  O11 UNL     1     -32.480  14.711  -4.623  1.00 20.00    -0.391 OA
HETATM   12  H27 UNL     1     -32.544  14.305  -5.500  1.00 20.00     0.210 HD
ENDBRANCH   7  11
ENDBRANCH   5   7
TORSDOF 3
ENDMDL
MODEL 8
REMARK VINA RESULT:      -3.9      1.654      2.156
REMARK  3 active torsions:
REMARK  status: ('A' for Active; 'I' for Inactive)
REMARK    1  A    between atoms: C2_2  and  C9_9 
REMARK    2  A    between atoms: C7_7  and  C9_9 
REMARK    3  A    between atoms: C9_9  and  O11_11 
ROOT
HETATM    1  C3  UNL     1     -34.865  16.049  -5.235  1.00 20.00     0.034 C 
HETATM    2  C4  UNL     1     -36.496  14.709  -3.880  1.00 20.00     0.034 C 
HETATM    3  C5  UNL     1     -34.676  14.811  -6.102  1.00 20.00     0.168 C 
HETATM    4  C6  UNL     1     -36.216  13.545  -4.823  1.00 20.00     0.168 C 
HETATM    5  C7  UNL     1     -35.294  15.657  -3.816  1.00 20.00     0.023 C 
HETATM    6  O10 UNL     1     -35.865  14.020  -6.122  1.00 20.00    -0.391 OA
ENDROOT
BRANCH   5   7
HETATM    7  C9  UNL     1     -35.608  16.891  -2.975  1.00 20.00     0.150 C 
BRANCH   7   8
HETATM    8  C2  UNL     1     -34.683  17.038  -1.788  1.00 20.00    -0.064 C 
HETATM    9  C1  UNL     1     -33.359  17.188  -1.958  1.00 20.00     0.016 C 
HETATM   10  C8  UNL     1     -35.288  17.021  -0.412  1.00 20.00     0.045 C 
ENDBRANCH   7   8
BRANCH   7  11
HETATM   11  O11 UNL     1     -36.953  16.812  -2.510  1.00 20.00    -0.391 OA
HETATM   12  H27 UNL     1     -37.214  15.880  -2.575  1.00 20.00     0.210 HD
ENDBRANCH   7  11
ENDBRANCH   5   7
TORSDOF 3
ENDMDL
MODEL 9
REMARK VINA RESULT:      -3.9      1.962      4.818
REMARK  3 active torsions:
REMARK  status: ('A' for Active; 'I' for Inactive)
REMARK    1  A    between atoms: C2_2  and  C9_9 
REMARK    2  A    between atoms: C7_7  and  C9_9 
REMARK    3  A    between atoms: C9_9  and  O11_11 
ROOT
HETATM    1  C3  UNL     1     -32.944  17.062  -2.236  1.00 20.00     0.034 C 
HETATM    2  C4  UNL     1     -35.060  16.939  -0.894  1.00 20.00     0.034 C 
HETATM    3  C5  UNL     1     -32.632  18.356  -1.494  1.00 20.00     0.168 C 
HETATM    4  C6  UNL     1     -34.630  18.240  -0.226  1.00 20.00     0.168 C 
HETATM    5  C7  UNL     1     -34.458  16.825  -2.299  1.00 20.00     0.023 C 
HETATM    6  O10 UNL     1     -33.206  18.341  -0.187  1.00 20.00    -0.391 OA
ENDROOT
BRANCH   5   7
HETATM    7  C9  UNL     1     -34.778  15.472  -2.928  1.00 20.00     0.150 C 
BRANCH   7   8
HETATM    8  C2  UNL     1     -34.118  15.285  -4.275  1.00 20.00    -0.064 C 
HETATM    9  C1  UNL     1     -33.129  14.393  -4.442  1.00 20.00     0.016 C 
HETATM   10  C8  UNL     1     -34.608  16.119  -5.426  1.00 20.00     0.045 C 
ENDBRANCH   7   8
BRANCH   7  11
HETATM   11  O11 UNL     1     -36.190  15.347  -3.079  1.00 20.00    -0.391 OA
HETATM   12  H27 UNL     1     -36.437  15.900  -3.836  1.00 20.00     0.210 HD
ENDBRANCH   7  11
ENDBRANCH   5   7
TORSDOF 3
ENDMDL
