MODEL 1
REMARK VINA RESULT:      -5.3      0.000      0.000
REMARK  2 active torsions:
REMARK  status: ('A' for Active; 'I' for Inactive)
REMARK    1  A    between atoms: C3_3  and  C11_11 
REMARK    2  A    between atoms: C9_9  and  C11_11 
ROOT
HETATM    1  C1  UNL     1     -35.801  13.750  -4.272  1.00 20.00     0.127 C 
HETATM    2  C4  UNL     1     -37.039  14.619  -4.226  1.00 20.00     0.078 C 
HETATM    3  C5  UNL     1     -34.463  14.354  -3.879  1.00 20.00     0.083 C 
HETATM    4  C6  UNL     1     -37.087  15.676  -5.327  1.00 20.00     0.007 C 
HETATM    5  C7  UNL     1     -35.752  16.053  -5.969  1.00 20.00     0.001 C 
HETATM    6  C8  UNL     1     -34.706  16.640  -5.022  1.00 20.00     0.005 C 
HETATM    7  C9  UNL     1     -34.465  15.879  -3.707  1.00 20.00    -0.004 C 
HETATM    8  O12 UNL     1     -35.877  12.564  -4.600  1.00 20.00    -0.298 OA
ENDROOT
BRANCH   7   9
HETATM    9  C11 UNL     1     -33.145  16.338  -3.079  1.00 20.00     0.037 C 
BRANCH   9  10
HETATM   10  C3  UNL     1     -33.358  17.243  -1.896  1.00 20.00    -0.093 C 
HETATM   11  C2  UNL     1     -32.393  18.072  -1.469  1.00 20.00     0.014 C 
HETATM   12  C10 UNL     1     -34.679  17.146  -1.186  1.00 20.00     0.042 C 
ENDBRANCH   9  10
ENDBRANCH   7   9
TORSDOF 2
ENDMDL
MODEL 2
REMARK VINA RESULT:      -5.3      0.075      1.016
REMARK  2 active torsions:
REMARK  status: ('A' for Active; 'I' for Inactive)
REMARK    1  A    between atoms: C3_3  and  C11_11 
REMARK    2  A    between atoms: C9_9  and  C11_11 
ROOT
HETATM    1  C1  UNL     1     -35.802  13.747  -4.271  1.00 20.00     0.127 C 
HETATM    2  C4  UNL     1     -37.044  14.609  -4.226  1.00 20.00     0.078 C 
HETATM    3  C5  UNL     1     -34.469  14.355  -3.867  1.00 20.00     0.083 C 
HETATM    4  C6  UNL     1     -37.092  15.672  -5.320  1.00 20.00     0.007 C 
HETATM    5  C7  UNL     1     -35.756  16.060  -5.953  1.00 20.00     0.001 C 
HETATM    6  C8  UNL     1     -34.718  16.647  -4.997  1.00 20.00     0.005 C 
HETATM    7  C9  UNL     1     -34.480  15.879  -3.685  1.00 20.00    -0.004 C 
HETATM    8  O12 UNL     1     -35.869  12.562  -4.606  1.00 20.00    -0.298 OA
ENDROOT
BRANCH   7   9
HETATM    9  C11 UNL     1     -33.166  16.342  -3.046  1.00 20.00     0.037 C 
BRANCH   9  10
HETATM   10  C3  UNL     1     -33.390  17.259  -1.875  1.00 20.00    -0.093 C 
HETATM   11  C2  UNL     1     -34.563  17.282  -1.222  1.00 20.00     0.014 C 
HETATM   12  C10 UNL     1     -32.264  18.177  -1.495  1.00 20.00     0.042 C 
ENDBRANCH   9  10
ENDBRANCH   7   9
TORSDOF 2
ENDMDL
MODEL 3
REMARK VINA RESULT:      -5.3     10.500     11.800
REMARK  2 active torsions:
REMARK  status: ('A' for Active; 'I' for Inactive)
REMARK    1  A    between atoms: C3_3  and  C11_11 
REMARK    2  A    between atoms: C9_9  and  C11_11 
ROOT
HETATM    1  C1  UNL     1     -33.800   6.712   5.103  1.00 20.00     0.127 C 
HETATM    2  C4  UNL     1     -35.139   6.171   4.652  1.00 20.00     0.078 C 
HETATM    3  C5  UNL     1     -32.790   7.144   4.052  1.00 20.00     0.083 C 
HETATM    4  C6  UNL     1     -35.059   4.782   4.024  1.00 20.00     0.007 C 
HETATM    5  C7  UNL     1     -33.694   4.356   3.483  1.00 20.00     0.001 C 
HETATM    6  C8  UNL     1     -33.121   5.233   2.370  1.00 20.00     0.005 C 
HETATM    7  C9  UNL     1     -33.144   6.753   2.611  1.00 20.00    -0.004 C 
HETATM    8  O12 UNL     1     -33.537   6.824   6.302  1.00 20.00    -0.298 OA
ENDROOT
BRANCH   7   9
HETATM    9  C11 UNL     1     -32.195   7.446   1.630  1.00 20.00     0.037 C 
BRANCH   9  10
HETATM   10  C3  UNL     1     -32.892   8.485   0.795  1.00 20.00    -0.093 C 
HETATM   11  C2  UNL     1     -33.281   8.225  -0.463  1.00 20.00     0.014 C 
HETATM   12  C10 UNL     1     -33.095   9.840   1.413  1.00 20.00     0.042 C 
ENDBRANCH   9  10
ENDBRANCH   7   9
TORSDOF 2
ENDMDL
MODEL 4
REMARK VINA RESULT:      -4.8      1.036      1.248
REMARK  2 active torsions:
REMARK  status: ('A' for Active; 'I' for Inactive)
REMARK    1  A    between atoms: C3_3  and  C11_11 
REMARK    2  A    between atoms: C9_9  and  C11_11 
ROOT
HETATM    1  C1  UNL     1     -37.153  14.630  -4.448  1.00 20.00     0.127 C 
HETATM    2  C4  UNL     1     -37.531  15.872  -5.224  1.00 20.00     0.078 C 
HETATM    3  C5  UNL     1     -35.813  14.590  -3.731  1.00 20.00     0.083 C 
HETATM    4  C6  UNL     1     -36.732  16.057  -6.511  1.00 20.00     0.007 C 
HETATM    5  C7  UNL     1     -35.395  15.323  -6.595  1.00 20.00     0.001 C 
HETATM    6  C8  UNL     1     -34.363  15.704  -5.534  1.00 20.00     0.005 C 
HETATM    7  C9  UNL     1     -34.858  15.740  -4.077  1.00 20.00    -0.004 C 
HETATM    8  O12 UNL     1     -37.927  13.673  -4.375  1.00 20.00    -0.298 OA
ENDROOT
BRANCH   7   9
HETATM    9  C11 UNL     1     -33.658  15.731  -3.124  1.00 20.00     0.037 C 
BRANCH   9  10
HETATM   10  C3  UNL     1     -33.709  16.857  -2.128  1.00 20.00    -0.093 C 
HETATM   11  C2  UNL     1     -32.694  17.727  -2.005  1.00 20.00     0.014 C 
HETATM   12  C10 UNL     1     -34.923  16.941  -1.247  1.00 20.00     0.042 C 
ENDBRANCH   9  10
ENDBRANCH   7   9
TORSDOF 2
ENDMDL
MODEL 5
REMARK VINA RESULT:      -4.8      1.277      1.961
REMARK  2 active torsions:
REMARK  status: ('A' for Active; 'I' for Inactive)
REMARK    1  A    between atoms: C3_3  and  C11_11 
REMARK    2  A    between atoms: C9_9  and  C11_11 
ROOT
HETATM    1  C1  UNL     1     -36.082  14.575  -4.295  1.00 20.00     0.127 C 
HETATM    2  C4  UNL     1     -35.647  15.216  -5.594  1.00 20.00     0.078 C 
HETATM    3  C5  UNL     1     -35.560  15.141  -2.984  1.00 20.00     0.083 C 
HETATM    4  C6  UNL     1     -34.188  14.947  -5.951  1.00 20.00     0.007 C 
HETATM    5  C7  UNL     1     -33.267  14.545  -4.800  1.00 20.00     0.001 C 
HETATM    6  C8  UNL     1     -33.126  15.571  -3.677  1.00 20.00     0.005 C 
HETATM    7  C9  UNL     1     -34.432  16.171  -3.126  1.00 20.00    -0.004 C 
HETATM    8  O12 UNL     1     -36.867  13.624  -4.294  1.00 20.00    -0.298 OA
ENDROOT
BRANCH   7   9
HETATM    9  C11 UNL     1     -34.162  16.844  -1.776  1.00 20.00     0.037 C 
BRANCH   9  10
HETATM   10  C3  UNL     1     -33.273  18.051  -1.906  1.00 20.00    -0.093 C 
HETATM   11  C2  UNL     1     -32.139  18.162  -1.196  1.00 20.00     0.014 C 
HETATM   12  C10 UNL     1     -33.730  19.146  -2.828  1.00 20.00     0.042 C 
ENDBRANCH   9  10
ENDBRANCH   7   9
TORSDOF 2
ENDMDL
MODEL 6
REMARK VINA RESULT:      -4.8      1.038      1.604
REMARK  2 active torsions:
REMARK  status: ('A' for Active; 'I' for Inactive)
REMARK    1  A    between atoms: C3_3  and  C11_11 
REMARK    2  A    between atoms: C9_9  and  C11_11 
ROOT
HETATM    1  C1  UNL     1     -37.172  14.634  -4.430  1.00 20.00     0.127 C 
HETATM    2  C4  UNL     1     -37.541  15.867  -5.223  1.00 20.00     0.078 C 
HETATM    3  C5  UNL     1     -35.844  14.605  -3.691  1.00 20.00     0.083 C 
HETATM    4  C6  UNL     1     -36.722  16.044  -6.499  1.00 20.00     0.007 C 
HETATM    5  C7  UNL     1     -35.381  15.313  -6.554  1.00 20.00     0.001 C 
HETATM    6  C8  UNL     1     -34.368  15.708  -5.479  1.00 20.00     0.005 C 
HETATM    7  C9  UNL     1     -34.887  15.755  -4.031  1.00 20.00    -0.004 C 
HETATM    8  O12 UNL     1     -37.944  13.675  -4.361  1.00 20.00    -0.298 OA
ENDROOT
BRANCH   7   9
HETATM    9  C11 UNL     1     -33.703  15.759  -3.059  1.00 20.00     0.037 C 
BRANCH   9  10
HETATM   10  C3  UNL     1     -33.819  16.840  -2.019  1.00 20.00    -0.093 C 
HETATM   11  C2  UNL     1     -34.917  16.959  -1.256  1.00 20.00     0.014 C 
HETATM   12  C10 UNL     1     -32.675  17.807  -1.902  1.00 20.00     0.042 C 
ENDBRANCH   9  10
ENDBRANCH   7   9
TORSDOF 2
ENDMDL
MODEL 7
REMARK VINA RESULT:      -4.7      1.500      2.396
REMARK  2 active torsions:
REMARK  status: ('A' for Active; 'I' for Inactive)
REMARK    1  A    between atoms: C3_3  and  C11_11 
REMARK    2  A    between atoms: C9_9  and  C11_11 
ROOT
HETATM    1  C1  UNL     1     -35.680  13.966  -4.508  1.00 20.00     0.127 C 
HETATM    2  C4  UNL     1     -35.291  14.765  -5.732  1.00 20.00     0.078 C 
HETATM    3  C5  UNL     1     -35.500  14.591  -3.134  1.00 20.00     0.083 C 
HETATM    4  C6  UNL     1     -33.784  14.931  -5.902  1.00 20.00     0.007 C 
HETATM    5  C7  UNL     1     -32.932  14.745  -4.648  1.00 20.00     0.001 C 
HETATM    6  C8  UNL     1     -33.221  15.714  -3.502  1.00 20.00     0.005 C 
HETATM    7  C9  UNL     1     -34.699  15.900  -3.116  1.00 20.00    -0.004 C 
HETATM    8  O12 UNL     1     -36.158  12.835  -4.620  1.00 20.00    -0.298 OA
ENDROOT
BRANCH   7   9
HETATM    9  C11 UNL     1     -34.794  16.555  -1.735  1.00 20.00     0.037 C 
BRANCH   9  10
HETATM   10  C3  UNL     1     -35.891  17.582  -1.662  1.00 20.00    -0.093 C 
HETATM   11  C2  UNL     1     -36.293  18.252  -2.753  1.00 20.00     0.014 C 
HETATM   12  C10 UNL     1     -36.486  17.858  -0.310  1.00 20.00     0.042 C 
ENDBRANCH   9  10
ENDBRANCH   7   9
TORSDOF 2
ENDMDL
MODEL 8
REMARK VINA RESULT:      -4.6      2.952      4.507
REMARK  2 active torsions:
REMARK  status: ('A' for Active; 'I' for Inactive)
REMARK    1  A    between atoms: C3_3  and  C11_11 
REMARK    2  A    between atoms: C9_9  and  C11_11 
ROOT
HETATM    1  C1  UNL     1     -33.156  17.894  -3.155  1.00 20.00     0.127 C 
HETATM    2  C4  UNL     1     -33.113  16.385  -3.048  1.00 20.00     0.078 C 
HETATM    3  C5  UNL     1     -33.219  18.720  -1.881  1.00 20.00     0.083 C 
HETATM    4  C6  UNL     1     -34.433  15.765  -2.602  1.00 20.00     0.007 C 
HETATM    5  C7  UNL     1     -35.405  16.686  -1.865  1.00 20.00     0.001 C 
HETATM    6  C8  UNL     1     -34.887  17.284  -0.558  1.00 20.00     0.005 C 
HETATM    7  C9  UNL     1     -33.485  17.917  -0.600  1.00 20.00    -0.004 C 
HETATM    8  O12 UNL     1     -33.115  18.448  -4.255  1.00 20.00    -0.298 OA
ENDROOT
BRANCH   7   9
HETATM    9  C11 UNL     1     -33.284  18.808   0.630  1.00 20.00     0.037 C 
BRANCH   9  10
HETATM   10  C3  UNL     1     -32.156  18.332   1.504  1.00 20.00    -0.093 C 
HETATM   11  C2  UNL     1     -30.888  18.321   1.064  1.00 20.00     0.014 C 
HETATM   12  C10 UNL     1     -32.514  17.826   2.873  1.00 20.00     0.042 C 
ENDBRANCH   9  10
ENDBRANCH   7   9
TORSDOF 2
ENDMDL
MODEL 9
REMARK VINA RESULT:      -4.5      2.558      4.949
REMARK  2 active torsions:
REMARK  status: ('A' for Active; 'I' for Inactive)
REMARK    1  A    between atoms: C3_3  and  C11_11 
REMARK    2  A    between atoms: C9_9  and  C11_11 
ROOT
HETATM    1  C1  UNL     1     -32.871  18.270  -2.469  1.00 20.00     0.127 C 
HETATM    2  C4  UNL     1     -34.163  19.045  -2.600  1.00 20.00     0.078 C 
HETATM    3  C5  UNL     1     -32.857  16.795  -2.838  1.00 20.00     0.083 C 
HETATM    4  C6  UNL     1     -35.208  18.677  -1.551  1.00 20.00     0.007 C 
HETATM    5  C7  UNL     1     -35.047  17.315  -0.877  1.00 20.00     0.001 C 
HETATM    6  C8  UNL     1     -35.105  16.105  -1.808  1.00 20.00     0.005 C 
HETATM    7  C9  UNL     1     -34.239  16.173  -3.078  1.00 20.00    -0.004 C 
HETATM    8  O12 UNL     1     -31.838  18.827  -2.091  1.00 20.00    -0.298 OA
ENDROOT
BRANCH   7   9
HETATM    9  C11 UNL     1     -34.087  14.771  -3.676  1.00 20.00     0.037 C 
BRANCH   9  10
HETATM   10  C3  UNL     1     -35.099  14.496  -4.755  1.00 20.00    -0.093 C 
HETATM   11  C2  UNL     1     -36.192  13.755  -4.514  1.00 20.00     0.014 C 
HETATM   12  C10 UNL     1     -34.812  15.046  -6.123  1.00 20.00     0.042 C 
ENDBRANCH   9  10
ENDBRANCH   7   9
TORSDOF 2
ENDMDL
