MODEL 1
REMARK VINA RESULT:      -4.6      0.000      0.000
REMARK  4 active torsions:
REMARK  status: ('A' for Active; 'I' for Inactive)
REMARK    1  A    between atoms: C2_2  and  C5_5 
REMARK    2  A    between atoms: C5_5  and  C6_6 
REMARK    3  A    between atoms: C6_6  and  C7_7 
REMARK    4  A    between atoms: C7_7  and  C8_8 
ROOT
HETATM    1  C6  UNL     1     -33.730   4.935   3.179  1.00 20.00     0.006 C 
ENDROOT
BRANCH   1   2
HETATM    2  C5  UNL     1     -34.715   5.815   3.960  1.00 20.00     0.033 C 
BRANCH   2   3
HETATM    3  C2  UNL     1     -34.501   5.831   5.456  1.00 20.00    -0.093 C 
HETATM    4  C1  UNL     1     -34.893   4.809   6.231  1.00 20.00     0.014 C 
HETATM    5  C3  UNL     1     -33.864   7.058   6.042  1.00 20.00     0.042 C 
ENDBRANCH   2   3
ENDBRANCH   1   2
BRANCH   1   6
HETATM    6  C7  UNL     1     -32.933   5.716   2.124  1.00 20.00     0.020 C 
BRANCH   6   7
HETATM    7  C8  UNL     1     -32.815   7.214   2.439  1.00 20.00     0.078 C 
HETATM    8  C4  UNL     1     -31.599   7.497   3.314  1.00 20.00     0.026 C 
HETATM    9 CL9  UNL     1     -32.682   8.180   0.938  1.00 20.00    -0.125 Cl
ENDBRANCH   6   7
ENDBRANCH   1   6
TORSDOF 4
ENDMDL
MODEL 2
REMARK VINA RESULT:      -4.5      2.469      4.729
REMARK  4 active torsions:
REMARK  status: ('A' for Active; 'I' for Inactive)
REMARK    1  A    between atoms: C2_2  and  C5_5 
REMARK    2  A    between atoms: C5_5  and  C6_6 
REMARK    3  A    between atoms: C6_6  and  C7_7 
REMARK    4  A    between atoms: C7_7  and  C8_8 
ROOT
HETATM    1  C6  UNL     1     -32.524   7.328   2.883  1.00 20.00     0.006 C 
ENDROOT
BRANCH   1   2
HETATM    2  C5  UNL     1     -32.189   7.506   1.396  1.00 20.00     0.033 C 
BRANCH   2   3
HETATM    3  C2  UNL     1     -32.903   8.653   0.719  1.00 20.00    -0.093 C 
HETATM    4  C1  UNL     1     -33.400   8.535  -0.521  1.00 20.00     0.014 C 
HETATM    5  C3  UNL     1     -32.998   9.944   1.480  1.00 20.00     0.042 C 
ENDBRANCH   2   3
ENDBRANCH   1   2
BRANCH   1   6
HETATM    6  C7  UNL     1     -33.233   6.000   3.183  1.00 20.00     0.020 C 
BRANCH   6   7
HETATM    7  C8  UNL     1     -34.337   6.127   4.244  1.00 20.00     0.078 C 
HETATM    8  C4  UNL     1     -34.895   4.760   4.622  1.00 20.00     0.026 C 
HETATM    9 CL9  UNL     1     -33.721   6.926   5.722  1.00 20.00    -0.125 Cl
ENDBRANCH   6   7
ENDBRANCH   1   6
TORSDOF 4
ENDMDL
MODEL 3
REMARK VINA RESULT:      -4.3      1.465      2.106
REMARK  4 active torsions:
REMARK  status: ('A' for Active; 'I' for Inactive)
REMARK    1  A    between atoms: C2_2  and  C5_5 
REMARK    2  A    between atoms: C5_5  and  C6_6 
REMARK    3  A    between atoms: C6_6  and  C7_7 
REMARK    4  A    between atoms: C7_7  and  C8_8 
ROOT
HETATM    1  C6  UNL     1     -32.967   6.362   2.916  1.00 20.00     0.006 C 
ENDROOT
BRANCH   1   2
HETATM    2  C5  UNL     1     -33.833   6.655   4.149  1.00 20.00     0.033 C 
BRANCH   2   3
HETATM    3  C2  UNL     1     -34.420   5.433   4.815  1.00 20.00    -0.093 C 
HETATM    4  C1  UNL     1     -34.893   5.478   6.070  1.00 20.00     0.014 C 
HETATM    5  C3  UNL     1     -34.418   4.155   4.025  1.00 20.00     0.042 C 
ENDBRANCH   2   3
ENDBRANCH   1   2
BRANCH   1   6
HETATM    6  C7  UNL     1     -32.250   7.608   2.376  1.00 20.00     0.020 C 
BRANCH   6   7
HETATM    7  C8  UNL     1     -32.735   8.031   0.982  1.00 20.00     0.078 C 
HETATM    8  C4  UNL     1     -33.072   9.517   0.946  1.00 20.00     0.026 C 
HETATM    9 CL9  UNL     1     -31.494   7.692  -0.262  1.00 20.00    -0.125 Cl
ENDBRANCH   6   7
ENDBRANCH   1   6
TORSDOF 4
ENDMDL
MODEL 4
REMARK VINA RESULT:      -4.1      1.883      4.051
REMARK  4 active torsions:
REMARK  status: ('A' for Active; 'I' for Inactive)
REMARK    1  A    between atoms: C2_2  and  C5_5 
REMARK    2  A    between atoms: C5_5  and  C6_6 
REMARK    3  A    between atoms: C6_6  and  C7_7 
REMARK    4  A    between atoms: C7_7  and  C8_8 
ROOT
HETATM    1  C6  UNL     1     -33.638   5.104   3.269  1.00 20.00     0.006 C 
ENDROOT
BRANCH   1   2
HETATM    2  C5  UNL     1     -32.991   5.746   2.035  1.00 20.00     0.033 C 
BRANCH   2   3
HETATM    3  C2  UNL     1     -32.479   7.152   2.246  1.00 20.00    -0.093 C 
HETATM    4  C1  UNL     1     -31.782   7.486   3.343  1.00 20.00     0.014 C 
HETATM    5  C3  UNL     1     -32.817   8.168   1.194  1.00 20.00     0.042 C 
ENDBRANCH   2   3
ENDBRANCH   1   2
BRANCH   1   6
HETATM    6  C7  UNL     1     -34.831   5.907   3.808  1.00 20.00     0.020 C 
BRANCH   6   7
HETATM    7  C8  UNL     1     -34.911   5.922   5.341  1.00 20.00     0.078 C 
HETATM    8  C4  UNL     1     -34.604   4.545   5.920  1.00 20.00     0.026 C 
HETATM    9 CL9  UNL     1     -33.763   7.108   6.034  1.00 20.00    -0.125 Cl
ENDBRANCH   6   7
ENDBRANCH   1   6
TORSDOF 4
ENDMDL
MODEL 5
REMARK VINA RESULT:      -3.9     11.713     12.332
REMARK  4 active torsions:
REMARK  status: ('A' for Active; 'I' for Inactive)
REMARK    1  A    between atoms: C2_2  and  C5_5 
REMARK    2  A    between atoms: C5_5  and  C6_6 
REMARK    3  A    between atoms: C6_6  and  C7_7 
REMARK    4  A    between atoms: C7_7  and  C8_8 
ROOT
HETATM    1  C6  UNL     1     -33.689  14.660  -4.151  1.00 20.00     0.006 C 
ENDROOT
BRANCH   1   2
HETATM    2  C5  UNL     1     -33.084  15.935  -3.547  1.00 20.00     0.033 C 
BRANCH   2   3
HETATM    3  C2  UNL     1     -33.846  16.503  -2.373  1.00 20.00    -0.093 C 
HETATM    4  C1  UNL     1     -35.059  16.040  -2.034  1.00 20.00     0.014 C 
HETATM    5  C3  UNL     1     -33.204  17.635  -1.623  1.00 20.00     0.042 C 
ENDBRANCH   2   3
ENDBRANCH   1   2
BRANCH   1   6
HETATM    6  C7  UNL     1     -34.233  14.868  -5.571  1.00 20.00     0.020 C 
BRANCH   6   7
HETATM    7  C8  UNL     1     -35.748  14.638  -5.681  1.00 20.00     0.078 C 
HETATM    8  C4  UNL     1     -36.233  13.663  -4.615  1.00 20.00     0.026 C 
HETATM    9 CL9  UNL     1     -36.647  16.176  -5.507  1.00 20.00    -0.125 Cl
ENDBRANCH   6   7
ENDBRANCH   1   6
TORSDOF 4
ENDMDL
MODEL 6
REMARK VINA RESULT:      -3.7     11.438     12.385
REMARK  4 active torsions:
REMARK  status: ('A' for Active; 'I' for Inactive)
REMARK    1  A    between atoms: C2_2  and  C5_5 
REMARK    2  A    between atoms: C5_5  and  C6_6 
REMARK    3  A    between atoms: C6_6  and  C7_7 
REMARK    4  A    between atoms: C7_7  and  C8_8 
ROOT
HETATM    1  C6  UNL     1     -34.818  14.301  -3.757  1.00 20.00     0.006 C 
ENDROOT
BRANCH   1   2
HETATM    2  C5  UNL     1     -35.233  15.407  -2.777  1.00 20.00     0.033 C 
BRANCH   2   3
HETATM    3  C2  UNL     1     -34.136  16.383  -2.422  1.00 20.00    -0.093 C 
HETATM    4  C1  UNL     1     -32.999  16.448  -3.131  1.00 20.00     0.014 C 
HETATM    5  C3  UNL     1     -34.358  17.253  -1.219  1.00 20.00     0.042 C 
ENDBRANCH   2   3
ENDBRANCH   1   2
BRANCH   1   6
HETATM    6  C7  UNL     1     -35.921  13.944  -4.763  1.00 20.00     0.020 C 
BRANCH   6   7
HETATM    7  C8  UNL     1     -35.707  14.576  -6.147  1.00 20.00     0.078 C 
HETATM    8  C4  UNL     1     -36.526  15.852  -6.299  1.00 20.00     0.026 C 
HETATM    9 CL9  UNL     1     -33.981  14.962  -6.420  1.00 20.00    -0.125 Cl
ENDBRANCH   6   7
ENDBRANCH   1   6
TORSDOF 4
ENDMDL
MODEL 7
REMARK VINA RESULT:      -3.7     11.690     12.615
REMARK  4 active torsions:
REMARK  status: ('A' for Active; 'I' for Inactive)
REMARK    1  A    between atoms: C2_2  and  C5_5 
REMARK    2  A    between atoms: C5_5  and  C6_6 
REMARK    3  A    between atoms: C6_6  and  C7_7 
REMARK    4  A    between atoms: C7_7  and  C8_8 
ROOT
HETATM    1  C6  UNL     1     -33.112  17.722  -1.600  1.00 20.00     0.006 C 
ENDROOT
BRANCH   1   2
HETATM    2  C5  UNL     1     -32.940  16.788  -2.806  1.00 20.00     0.033 C 
BRANCH   2   3
HETATM    3  C2  UNL     1     -34.059  15.792  -3.000  1.00 20.00    -0.093 C 
HETATM    4  C1  UNL     1     -35.178  15.842  -2.261  1.00 20.00     0.014 C 
HETATM    5  C3  UNL     1     -33.848  14.719  -4.029  1.00 20.00     0.042 C 
ENDBRANCH   2   3
ENDBRANCH   1   2
BRANCH   1   6
HETATM    6  C7  UNL     1     -31.787  18.328  -1.115  1.00 20.00     0.020 C 
BRANCH   6   7
HETATM    7  C8  UNL     1     -31.869  18.914   0.301  1.00 20.00     0.078 C 
HETATM    8  C4  UNL     1     -33.125  18.437   1.021  1.00 20.00     0.026 C 
HETATM    9 CL9  UNL     1     -30.438  18.455   1.274  1.00 20.00    -0.125 Cl
ENDBRANCH   6   7
ENDBRANCH   1   6
TORSDOF 4
ENDMDL
MODEL 8
REMARK VINA RESULT:      -3.7     11.695     12.473
REMARK  4 active torsions:
REMARK  status: ('A' for Active; 'I' for Inactive)
REMARK    1  A    between atoms: C2_2  and  C5_5 
REMARK    2  A    between atoms: C5_5  and  C6_6 
REMARK    3  A    between atoms: C6_6  and  C7_7 
REMARK    4  A    between atoms: C7_7  and  C8_8 
ROOT
HETATM    1  C6  UNL     1     -34.570  14.428  -3.980  1.00 20.00     0.006 C 
ENDROOT
BRANCH   1   2
HETATM    2  C5  UNL     1     -33.452  15.435  -3.675  1.00 20.00     0.033 C 
BRANCH   2   3
HETATM    3  C2  UNL     1     -33.757  16.401  -2.554  1.00 20.00    -0.093 C 
HETATM    4  C1  UNL     1     -32.900  17.376  -2.217  1.00 20.00     0.014 C 
HETATM    5  C3  UNL     1     -35.045  16.198  -1.808  1.00 20.00     0.042 C 
ENDBRANCH   2   3
ENDBRANCH   1   2
BRANCH   1   6
HETATM    6  C7  UNL     1     -35.176  14.608  -5.379  1.00 20.00     0.020 C 
BRANCH   6   7
HETATM    7  C8  UNL     1     -36.582  15.225  -5.357  1.00 20.00     0.078 C 
HETATM    8  C4  UNL     1     -37.452  14.568  -4.291  1.00 20.00     0.026 C 
HETATM    9 CL9  UNL     1     -36.509  16.985  -5.038  1.00 20.00    -0.125 Cl
ENDBRANCH   6   7
ENDBRANCH   1   6
TORSDOF 4
ENDMDL
MODEL 9
REMARK VINA RESULT:      -3.6     11.454     12.725
REMARK  4 active torsions:
REMARK  status: ('A' for Active; 'I' for Inactive)
REMARK    1  A    between atoms: C2_2  and  C5_5 
REMARK    2  A    between atoms: C5_5  and  C6_6 
REMARK    3  A    between atoms: C6_6  and  C7_7 
REMARK    4  A    between atoms: C7_7  and  C8_8 
ROOT
HETATM    1  C6  UNL     1     -36.012  14.015  -4.741  1.00 20.00     0.006 C 
ENDROOT
BRANCH   1   2
HETATM    2  C5  UNL     1     -34.779  13.962  -3.829  1.00 20.00     0.033 C 
BRANCH   2   3
HETATM    3  C2  UNL     1     -34.406  15.280  -3.191  1.00 20.00    -0.093 C 
HETATM    4  C1  UNL     1     -35.239  15.913  -2.351  1.00 20.00     0.014 C 
HETATM    5  C3  UNL     1     -33.078  15.871  -3.569  1.00 20.00     0.042 C 
ENDBRANCH   2   3
ENDBRANCH   1   2
BRANCH   1   6
HETATM    6  C7  UNL     1     -35.715  14.628  -6.117  1.00 20.00     0.020 C 
BRANCH   6   7
HETATM    7  C8  UNL     1     -36.390  15.991  -6.333  1.00 20.00     0.078 C 
HETATM    8  C4  UNL     1     -37.536  16.197  -5.350  1.00 20.00     0.026 C 
HETATM    9 CL9  UNL     1     -35.216  17.328  -6.139  1.00 20.00    -0.125 Cl
ENDBRANCH   6   7
ENDBRANCH   1   6
TORSDOF 4
ENDMDL
