MODEL 1
REMARK VINA RESULT:      -4.3      0.000      0.000
REMARK  2 active torsions:
REMARK  status: ('A' for Active; 'I' for Inactive)
REMARK    1  A    between atoms: C2_2  and  C10_10 
REMARK    2  A    between atoms: C7_7  and  C10_10 
ROOT
HETATM    1  C3  UNL     1     -35.905  13.828  -4.561  1.00 20.00     0.002 C 
HETATM    2  C4  UNL     1     -34.639  14.253  -3.823  1.00 20.00     0.005 C 
HETATM    3  C5  UNL     1     -35.935  14.363  -5.992  1.00 20.00     0.016 C 
HETATM    4  C6  UNL     1     -34.480  16.327  -5.265  1.00 20.00     0.020 C 
HETATM    5  C7  UNL     1     -34.468  15.777  -3.829  1.00 20.00    -0.010 C 
HETATM    6  C8  UNL     1     -35.685  15.865  -6.084  1.00 20.00     0.058 C 
HETATM    7 BR11 UNL     1     -37.289  16.849  -5.532  1.00 20.00    -0.091 Br
ENDROOT
BRANCH   5   8
HETATM    8  C10 UNL     1     -33.175  16.174  -3.116  1.00 20.00     0.037 C 
BRANCH   8   9
HETATM    9  C2  UNL     1     -33.412  17.132  -1.978  1.00 20.00    -0.093 C 
HETATM   10  C1  UNL     1     -32.467  18.000  -1.585  1.00 20.00     0.014 C 
HETATM   11  C9  UNL     1     -34.737  17.046  -1.275  1.00 20.00     0.042 C 
ENDBRANCH   8   9
ENDBRANCH   5   8
TORSDOF 2
ENDMDL
MODEL 2
REMARK VINA RESULT:      -4.3      1.547      4.616
REMARK  2 active torsions:
REMARK  status: ('A' for Active; 'I' for Inactive)
REMARK    1  A    between atoms: C2_2  and  C10_10 
REMARK    2  A    between atoms: C7_7  and  C10_10 
ROOT
HETATM    1  C3  UNL     1     -32.812  17.703  -2.385  1.00 20.00     0.002 C 
HETATM    2  C4  UNL     1     -32.928  16.332  -3.043  1.00 20.00     0.005 C 
HETATM    3  C5  UNL     1     -33.572  17.763  -1.060  1.00 20.00     0.016 C 
HETATM    4  C6  UNL     1     -35.166  15.967  -1.919  1.00 20.00     0.020 C 
HETATM    5  C7  UNL     1     -34.393  15.926  -3.247  1.00 20.00    -0.010 C 
HETATM    6  C8  UNL     1     -35.019  17.290  -1.169  1.00 20.00     0.058 C 
HETATM    7 BR11 UNL     1     -36.116  18.672  -2.024  1.00 20.00    -0.091 Br
ENDROOT
BRANCH   5   8
HETATM    8  C10 UNL     1     -34.481  14.534  -3.874  1.00 20.00     0.037 C 
BRANCH   8   9
HETATM    9  C2  UNL     1     -35.589  14.427  -4.890  1.00 20.00    -0.093 C 
HETATM   10  C1  UNL     1     -36.818  14.013  -4.543  1.00 20.00     0.014 C 
HETATM   11  C9  UNL     1     -35.250  14.763  -6.313  1.00 20.00     0.042 C 
ENDBRANCH   8   9
ENDBRANCH   5   8
TORSDOF 2
ENDMDL
MODEL 3
REMARK VINA RESULT:      -4.2      2.801      5.200
REMARK  2 active torsions:
REMARK  status: ('A' for Active; 'I' for Inactive)
REMARK    1  A    between atoms: C2_2  and  C10_10 
REMARK    2  A    between atoms: C7_7  and  C10_10 
ROOT
HETATM    1  C3  UNL     1     -34.652  17.680   0.853  1.00 20.00     0.002 C 
HETATM    2  C4  UNL     1     -35.358  16.974  -0.301  1.00 20.00     0.005 C 
HETATM    3  C5  UNL     1     -34.193  19.085   0.462  1.00 20.00     0.016 C 
HETATM    4  C6  UNL     1     -34.019  18.329  -1.967  1.00 20.00     0.020 C 
HETATM    5  C7  UNL     1     -34.475  16.920  -1.554  1.00 20.00    -0.010 C 
HETATM    6  C8  UNL     1     -33.378  19.120  -0.827  1.00 20.00     0.058 C 
HETATM    7 BR11 UNL     1     -31.561  18.465  -0.493  1.00 20.00    -0.091 Br
ENDROOT
BRANCH   5   8
HETATM    8  C10 UNL     1     -35.218  16.240  -2.704  1.00 20.00     0.037 C 
BRANCH   8   9
HETATM    9  C2  UNL     1     -34.358  15.247  -3.441  1.00 20.00    -0.093 C 
HETATM   10  C1  UNL     1     -33.065  15.499  -3.704  1.00 20.00     0.014 C 
HETATM   11  C9  UNL     1     -35.017  13.980  -3.905  1.00 20.00     0.042 C 
ENDBRANCH   8   9
ENDBRANCH   5   8
TORSDOF 2
ENDMDL
MODEL 4
REMARK VINA RESULT:      -4.2      1.795      2.166
REMARK  2 active torsions:
REMARK  status: ('A' for Active; 'I' for Inactive)
REMARK    1  A    between atoms: C2_2  and  C10_10 
REMARK    2  A    between atoms: C7_7  and  C10_10 
ROOT
HETATM    1  C3  UNL     1     -35.849  15.072  -3.383  1.00 20.00     0.002 C 
HETATM    2  C4  UNL     1     -34.966  15.877  -2.435  1.00 20.00     0.005 C 
HETATM    3  C5  UNL     1     -35.064  13.967  -4.090  1.00 20.00     0.016 C 
HETATM    4  C6  UNL     1     -32.941  15.362  -3.864  1.00 20.00     0.020 C 
HETATM    5  C7  UNL     1     -33.749  16.465  -3.160  1.00 20.00    -0.010 C 
HETATM    6  C8  UNL     1     -33.789  14.466  -4.765  1.00 20.00     0.058 C 
HETATM    7 BR11 UNL     1     -34.233  15.410  -6.425  1.00 20.00    -0.091 Br
ENDROOT
BRANCH   5   8
HETATM    8  C10 UNL     1     -32.863  17.236  -2.182  1.00 20.00     0.037 C 
BRANCH   8   9
HETATM    9  C2  UNL     1     -33.637  18.238  -1.365  1.00 20.00    -0.093 C 
HETATM   10  C1  UNL     1     -33.637  18.196  -0.023  1.00 20.00     0.014 C 
HETATM   11  C9  UNL     1     -34.441  19.260  -2.116  1.00 20.00     0.042 C 
ENDBRANCH   8   9
ENDBRANCH   5   8
TORSDOF 2
ENDMDL
MODEL 5
REMARK VINA RESULT:      -4.1      2.380      4.557
REMARK  2 active torsions:
REMARK  status: ('A' for Active; 'I' for Inactive)
REMARK    1  A    between atoms: C2_2  and  C10_10 
REMARK    2  A    between atoms: C7_7  and  C10_10 
ROOT
HETATM    1  C3  UNL     1     -35.087  16.960  -1.041  1.00 20.00     0.002 C 
HETATM    2  C4  UNL     1     -35.013  15.957  -2.189  1.00 20.00     0.005 C 
HETATM    3  C5  UNL     1     -34.717  18.372  -1.496  1.00 20.00     0.016 C 
HETATM    4  C6  UNL     1     -33.252  17.373  -3.329  1.00 20.00     0.020 C 
HETATM    5  C7  UNL     1     -33.630  15.961  -2.852  1.00 20.00    -0.010 C 
HETATM    6  C8  UNL     1     -33.388  18.439  -2.242  1.00 20.00     0.058 C 
HETATM    7 BR11 UNL     1     -31.897  18.303  -0.977  1.00 20.00    -0.091 Br
ENDROOT
BRANCH   5   8
HETATM    8  C10 UNL     1     -33.594  14.975  -4.020  1.00 20.00     0.037 C 
BRANCH   8   9
HETATM    9  C2  UNL     1     -34.940  14.802  -4.674  1.00 20.00    -0.093 C 
HETATM   10  C1  UNL     1     -35.749  13.780  -4.350  1.00 20.00     0.014 C 
HETATM   11  C9  UNL     1     -35.322  15.798  -5.731  1.00 20.00     0.042 C 
ENDBRANCH   8   9
ENDBRANCH   5   8
TORSDOF 2
ENDMDL
MODEL 6
REMARK VINA RESULT:      -4.0      1.548      2.271
REMARK  2 active torsions:
REMARK  status: ('A' for Active; 'I' for Inactive)
REMARK    1  A    between atoms: C2_2  and  C10_10 
REMARK    2  A    between atoms: C7_7  and  C10_10 
ROOT
HETATM    1  C3  UNL     1     -33.155  14.791  -4.173  1.00 20.00     0.002 C 
HETATM    2  C4  UNL     1     -33.179  16.091  -3.375  1.00 20.00     0.005 C 
HETATM    3  C5  UNL     1     -33.946  14.910  -5.475  1.00 20.00     0.016 C 
HETATM    4  C6  UNL     1     -35.417  16.690  -4.393  1.00 20.00     0.020 C 
HETATM    5  C7  UNL     1     -34.614  16.552  -3.089  1.00 20.00    -0.010 C 
HETATM    6  C8  UNL     1     -35.362  15.446  -5.278  1.00 20.00     0.058 C 
HETATM    7 BR11 UNL     1     -36.515  14.043  -4.539  1.00 20.00    -0.091 Br
ENDROOT
BRANCH   5   8
HETATM    8  C10 UNL     1     -34.610  17.873  -2.321  1.00 20.00     0.037 C 
BRANCH   8   9
HETATM    9  C2  UNL     1     -34.408  17.681  -0.841  1.00 20.00    -0.093 C 
HETATM   10  C1  UNL     1     -35.330  17.066  -0.082  1.00 20.00     0.014 C 
HETATM   11  C9  UNL     1     -33.151  18.244  -0.241  1.00 20.00     0.042 C 
ENDBRANCH   8   9
ENDBRANCH   5   8
TORSDOF 2
ENDMDL
MODEL 7
REMARK VINA RESULT:      -4.0      1.456      1.814
REMARK  2 active torsions:
REMARK  status: ('A' for Active; 'I' for Inactive)
REMARK    1  A    between atoms: C2_2  and  C10_10 
REMARK    2  A    between atoms: C7_7  and  C10_10 
ROOT
HETATM    1  C3  UNL     1     -33.448  14.523  -4.351  1.00 20.00     0.002 C 
HETATM    2  C4  UNL     1     -32.994  15.730  -3.537  1.00 20.00     0.005 C 
HETATM    3  C5  UNL     1     -34.354  14.930  -5.513  1.00 20.00     0.016 C 
HETATM    4  C6  UNL     1     -35.099  16.976  -4.185  1.00 20.00     0.020 C 
HETATM    5  C7  UNL     1     -34.187  16.546  -3.024  1.00 20.00    -0.010 C 
HETATM    6  C8  UNL     1     -35.520  15.819  -5.090  1.00 20.00     0.058 C 
HETATM    7 BR11 UNL     1     -36.900  14.743  -4.205  1.00 20.00    -0.091 Br
ENDROOT
BRANCH   5   8
HETATM    8  C10 UNL     1     -33.704  17.769  -2.243  1.00 20.00     0.037 C 
BRANCH   8   9
HETATM    9  C2  UNL     1     -34.129  17.736  -0.798  1.00 20.00    -0.093 C 
HETATM   10  C1  UNL     1     -33.401  18.334   0.159  1.00 20.00     0.014 C 
HETATM   11  C9  UNL     1     -35.379  16.972  -0.468  1.00 20.00     0.042 C 
ENDBRANCH   8   9
ENDBRANCH   5   8
TORSDOF 2
ENDMDL
MODEL 8
REMARK VINA RESULT:      -3.9      1.642      2.223
REMARK  2 active torsions:
REMARK  status: ('A' for Active; 'I' for Inactive)
REMARK    1  A    between atoms: C2_2  and  C10_10 
REMARK    2  A    between atoms: C7_7  and  C10_10 
ROOT
HETATM    1  C3  UNL     1     -37.281  16.173  -3.912  1.00 20.00     0.002 C 
HETATM    2  C4  UNL     1     -36.164  16.459  -2.913  1.00 20.00     0.005 C 
HETATM    3  C5  UNL     1     -37.338  14.693  -4.290  1.00 20.00     0.016 C 
HETATM    4  C6  UNL     1     -34.842  14.496  -3.808  1.00 20.00     0.020 C 
HETATM    5  C7  UNL     1     -34.802  15.988  -3.437  1.00 20.00    -0.010 C 
HETATM    6  C8  UNL     1     -35.994  14.130  -4.743  1.00 20.00     0.058 C 
HETATM    7 BR11 UNL     1     -35.594  14.728  -6.567  1.00 20.00    -0.091 Br
ENDROOT
BRANCH   5   8
HETATM    8  C10 UNL     1     -33.708  16.253  -2.404  1.00 20.00     0.037 C 
BRANCH   8   9
HETATM    9  C2  UNL     1     -33.019  17.575  -2.617  1.00 20.00    -0.093 C 
HETATM   10  C1  UNL     1     -33.059  18.203  -3.803  1.00 20.00     0.014 C 
HETATM   11  C9  UNL     1     -32.252  18.144  -1.457  1.00 20.00     0.042 C 
ENDBRANCH   8   9
ENDBRANCH   5   8
TORSDOF 2
ENDMDL
MODEL 9
REMARK VINA RESULT:      -3.8      2.052      3.105
REMARK  2 active torsions:
REMARK  status: ('A' for Active; 'I' for Inactive)
REMARK    1  A    between atoms: C2_2  and  C10_10 
REMARK    2  A    between atoms: C7_7  and  C10_10 
ROOT
HETATM    1  C3  UNL     1     -35.048  17.676  -4.578  1.00 20.00     0.002 C 
HETATM    2  C4  UNL     1     -35.005  18.208  -3.149  1.00 20.00     0.005 C 
HETATM    3  C5  UNL     1     -35.682  16.286  -4.647  1.00 20.00     0.016 C 
HETATM    4  C6  UNL     1     -34.914  15.842  -2.256  1.00 20.00     0.020 C 
HETATM    5  C7  UNL     1     -34.277  17.241  -2.207  1.00 20.00    -0.010 C 
HETATM    6  C8  UNL     1     -35.063  15.289  -3.672  1.00 20.00     0.058 C 
HETATM    7 BR11 UNL     1     -33.322  14.684  -4.343  1.00 20.00    -0.091 Br
ENDROOT
BRANCH   5   8
HETATM    8  C10 UNL     1     -34.280  17.780  -0.777  1.00 20.00     0.037 C 
BRANCH   8   9
HETATM    9  C2  UNL     1     -32.910  18.208  -0.318  1.00 20.00    -0.093 C 
HETATM   10  C1  UNL     1     -31.871  18.259  -1.167  1.00 20.00     0.014 C 
HETATM   11  C9  UNL     1     -32.747  18.536   1.139  1.00 20.00     0.042 C 
ENDBRANCH   8   9
ENDBRANCH   5   8
TORSDOF 2
ENDMDL
