MODEL 1
REMARK VINA RESULT:      -4.1      0.000      0.000
REMARK  4 active torsions:
REMARK  status: ('A' for Active; 'I' for Inactive)
REMARK    1  A    between atoms: C2_2  and  C9_9 
REMARK    2  A    between atoms: C5_5  and  C9_9 
REMARK    3  A    between atoms: C8_8  and  C9_9 
REMARK    4  A    between atoms: C9_9  and  O10_10 
ROOT
HETATM    1  C9  UNL     1     -42.003   6.776   0.030  1.00 20.00     0.083 C 
ENDROOT
BRANCH   1   2
HETATM    2  C2  UNL     1     -42.003   5.629  -0.990  1.00 20.00    -0.059 C 
HETATM    3  C1  UNL     1     -40.930   4.864  -1.258  1.00 20.00     0.017 C 
HETATM    4  C6  UNL     1     -43.297   5.355  -1.717  1.00 20.00     0.046 C 
ENDBRANCH   1   2
BRANCH   1   5
HETATM    5  C5  UNL     1     -41.837   8.179  -0.535  1.00 20.00     0.024 A 
HETATM    6  C3  UNL     1     -42.831   9.255  -0.197  1.00 20.00     0.008 A 
HETATM    7  C4  UNL     1     -41.438   9.316   0.365  1.00 20.00     0.008 A 
ENDBRANCH   1   5
BRANCH   1   8
HETATM    8  C8  UNL     1     -43.256   6.731   0.946  1.00 20.00     0.038 C 
HETATM    9  C7  UNL     1     -43.375   5.494   1.827  1.00 20.00     0.008 C 
ENDBRANCH   1   8
BRANCH   1  10
HETATM   10  O10 UNL     1     -40.880   6.570   0.910  1.00 20.00    -0.385 OA
HETATM   11  H26 UNL     1     -41.150   5.870   1.517  1.00 20.00     0.211 HD
ENDBRANCH   1  10
TORSDOF 4
ENDMDL
MODEL 2
REMARK VINA RESULT:      -4.0     10.871     12.599
REMARK  4 active torsions:
REMARK  status: ('A' for Active; 'I' for Inactive)
REMARK    1  A    between atoms: C2_2  and  C9_9 
REMARK    2  A    between atoms: C5_5  and  C9_9 
REMARK    3  A    between atoms: C8_8  and  C9_9 
REMARK    4  A    between atoms: C9_9  and  O10_10 
ROOT
HETATM    1  C9  UNL     1     -34.115  15.365  -4.441  1.00 20.00     0.083 C 
ENDROOT
BRANCH   1   2
HETATM    2  C2  UNL     1     -34.394  15.687  -5.916  1.00 20.00    -0.059 C 
HETATM    3  C1  UNL     1     -33.843  15.020  -6.946  1.00 20.00     0.017 C 
HETATM    4  C6  UNL     1     -35.355  16.814  -6.204  1.00 20.00     0.046 C 
ENDBRANCH   1   2
BRANCH   1   5
HETATM    5  C5  UNL     1     -34.505  16.436  -3.434  1.00 20.00     0.024 A 
HETATM    6  C3  UNL     1     -34.842  16.059  -2.018  1.00 20.00     0.008 A 
HETATM    7  C4  UNL     1     -33.569  16.801  -2.315  1.00 20.00     0.008 A 
ENDBRANCH   1   5
BRANCH   1   8
HETATM    8  C8  UNL     1     -34.737  14.006  -4.020  1.00 20.00     0.038 C 
HETATM    9  C7  UNL     1     -36.172  13.778  -4.480  1.00 20.00     0.008 C 
ENDBRANCH   1   8
BRANCH   1  10
HETATM   10  O10 UNL     1     -32.691  15.191  -4.300  1.00 20.00    -0.385 OA
HETATM   11  H26 UNL     1     -32.452  15.647  -3.484  1.00 20.00     0.211 HD
ENDBRANCH   1  10
TORSDOF 4
ENDMDL
MODEL 3
REMARK VINA RESULT:      -4.0     10.686     12.430
REMARK  4 active torsions:
REMARK  status: ('A' for Active; 'I' for Inactive)
REMARK    1  A    between atoms: C2_2  and  C9_9 
REMARK    2  A    between atoms: C5_5  and  C9_9 
REMARK    3  A    between atoms: C8_8  and  C9_9 
REMARK    4  A    between atoms: C9_9  and  O10_10 
ROOT
HETATM    1  C9  UNL     1     -35.444  14.896  -5.553  1.00 20.00     0.083 C 
ENDROOT
BRANCH   1   2
HETATM    2  C2  UNL     1     -34.674  15.781  -6.544  1.00 20.00    -0.059 C 
HETATM    3  C1  UNL     1     -33.938  15.300  -7.563  1.00 20.00     0.017 C 
HETATM    4  C6  UNL     1     -34.771  17.275  -6.352  1.00 20.00     0.046 C 
ENDBRANCH   1   2
BRANCH   1   5
HETATM    5  C5  UNL     1     -34.663  14.404  -4.344  1.00 20.00     0.024 A 
HETATM    6  C3  UNL     1     -33.209  14.755  -4.187  1.00 20.00     0.008 A 
HETATM    7  C4  UNL     1     -34.234  15.370  -3.274  1.00 20.00     0.008 A 
ENDBRANCH   1   5
BRANCH   1   8
HETATM    8  C8  UNL     1     -36.759  15.573  -5.080  1.00 20.00     0.038 C 
HETATM    9  C7  UNL     1     -37.729  14.662  -4.336  1.00 20.00     0.008 C 
ENDBRANCH   1   8
BRANCH   1  10
HETATM   10  O10 UNL     1     -35.858  13.713  -6.264  1.00 20.00    -0.385 OA
HETATM   11  H26 UNL     1     -36.654  13.965  -6.749  1.00 20.00     0.211 HD
ENDBRANCH   1  10
TORSDOF 4
ENDMDL
MODEL 4
REMARK VINA RESULT:      -3.9     10.815     12.658
REMARK  4 active torsions:
REMARK  status: ('A' for Active; 'I' for Inactive)
REMARK    1  A    between atoms: C2_2  and  C9_9 
REMARK    2  A    between atoms: C5_5  and  C9_9 
REMARK    3  A    between atoms: C8_8  and  C9_9 
REMARK    4  A    between atoms: C9_9  and  O10_10 
ROOT
HETATM    1  C9  UNL     1     -34.615  15.519  -4.842  1.00 20.00     0.083 C 
ENDROOT
BRANCH   1   2
HETATM    2  C2  UNL     1     -36.076  15.049  -4.905  1.00 20.00    -0.059 C 
HETATM    3  C1  UNL     1     -36.472  13.794  -4.628  1.00 20.00     0.017 C 
HETATM    4  C6  UNL     1     -37.113  16.075  -5.291  1.00 20.00     0.046 C 
ENDBRANCH   1   2
BRANCH   1   5
HETATM    5  C5  UNL     1     -33.923  15.386  -3.494  1.00 20.00     0.024 A 
HETATM    6  C3  UNL     1     -33.240  16.573  -2.872  1.00 20.00     0.008 A 
HETATM    7  C4  UNL     1     -34.512  16.039  -2.273  1.00 20.00     0.008 A 
ENDBRANCH   1   5
BRANCH   1   8
HETATM    8  C8  UNL     1     -33.746  14.846  -5.939  1.00 20.00     0.038 C 
HETATM    9  C7  UNL     1     -34.024  15.307  -7.364  1.00 20.00     0.008 C 
ENDBRANCH   1   8
BRANCH   1  10
HETATM   10  O10 UNL     1     -34.602  16.925  -5.156  1.00 20.00    -0.385 OA
HETATM   11  H26 UNL     1     -33.813  17.065  -5.695  1.00 20.00     0.211 HD
ENDBRANCH   1  10
TORSDOF 4
ENDMDL
MODEL 5
REMARK VINA RESULT:      -3.8     10.964     12.988
REMARK  4 active torsions:
REMARK  status: ('A' for Active; 'I' for Inactive)
REMARK    1  A    between atoms: C2_2  and  C9_9 
REMARK    2  A    between atoms: C5_5  and  C9_9 
REMARK    3  A    between atoms: C8_8  and  C9_9 
REMARK    4  A    between atoms: C9_9  and  O10_10 
ROOT
HETATM    1  C9  UNL     1     -34.122  15.188  -4.880  1.00 20.00     0.083 C 
ENDROOT
BRANCH   1   2
HETATM    2  C2  UNL     1     -33.727  16.457  -4.111  1.00 20.00    -0.059 C 
HETATM    3  C1  UNL     1     -33.105  16.447  -2.919  1.00 20.00     0.017 C 
HETATM    4  C6  UNL     1     -34.055  17.782  -4.754  1.00 20.00     0.046 C 
ENDBRANCH   1   2
BRANCH   1   5
HETATM    5  C5  UNL     1     -35.054  14.226  -4.157  1.00 20.00     0.024 A 
HETATM    6  C3  UNL     1     -36.436  14.665  -3.761  1.00 20.00     0.008 A 
HETATM    7  C4  UNL     1     -36.254  13.660  -4.864  1.00 20.00     0.008 A 
ENDBRANCH   1   5
BRANCH   1   8
HETATM    8  C8  UNL     1     -34.706  15.522  -6.280  1.00 20.00     0.038 C 
HETATM    9  C7  UNL     1     -33.816  15.154  -7.461  1.00 20.00     0.008 C 
ENDBRANCH   1   8
BRANCH   1  10
HETATM   10  O10 UNL     1     -32.914  14.447  -5.139  1.00 20.00    -0.385 OA
HETATM   11  H26 UNL     1     -32.734  13.951  -4.330  1.00 20.00     0.211 HD
ENDBRANCH   1  10
TORSDOF 4
ENDMDL
MODEL 6
REMARK VINA RESULT:      -3.8     10.343     12.292
REMARK  4 active torsions:
REMARK  status: ('A' for Active; 'I' for Inactive)
REMARK    1  A    between atoms: C2_2  and  C9_9 
REMARK    2  A    between atoms: C5_5  and  C9_9 
REMARK    3  A    between atoms: C8_8  and  C9_9 
REMARK    4  A    between atoms: C9_9  and  O10_10 
ROOT
HETATM    1  C9  UNL     1     -34.898  15.113  -3.988  1.00 20.00     0.083 C 
ENDROOT
BRANCH   1   2
HETATM    2  C2  UNL     1     -36.424  15.265  -4.043  1.00 20.00    -0.059 C 
HETATM    3  C1  UNL     1     -37.260  14.294  -4.451  1.00 20.00     0.017 C 
HETATM    4  C6  UNL     1     -37.000  16.587  -3.596  1.00 20.00     0.046 C 
ENDBRANCH   1   2
BRANCH   1   5
HETATM    5  C5  UNL     1     -34.123  15.684  -5.166  1.00 20.00     0.024 A 
HETATM    6  C3  UNL     1     -34.126  14.974  -6.492  1.00 20.00     0.008 A 
HETATM    7  C4  UNL     1     -34.855  16.279  -6.337  1.00 20.00     0.008 A 
ENDBRANCH   1   5
BRANCH   1   8
HETATM    8  C8  UNL     1     -34.310  15.669  -2.663  1.00 20.00     0.038 C 
HETATM    9  C7  UNL     1     -33.147  16.640  -2.823  1.00 20.00     0.008 C 
ENDBRANCH   1   8
BRANCH   1  10
HETATM   10  O10 UNL     1     -34.606  13.702  -3.972  1.00 20.00    -0.385 OA
HETATM   11  H26 UNL     1     -35.406  13.266  -4.291  1.00 20.00     0.211 HD
ENDBRANCH   1  10
TORSDOF 4
ENDMDL
MODEL 7
REMARK VINA RESULT:      -3.7     10.372     12.357
REMARK  4 active torsions:
REMARK  status: ('A' for Active; 'I' for Inactive)
REMARK    1  A    between atoms: C2_2  and  C9_9 
REMARK    2  A    between atoms: C5_5  and  C9_9 
REMARK    3  A    between atoms: C8_8  and  C9_9 
REMARK    4  A    between atoms: C9_9  and  O10_10 
ROOT
HETATM    1  C9  UNL     1     -35.444  15.819  -3.564  1.00 20.00     0.083 C 
ENDROOT
BRANCH   1   2
HETATM    2  C2  UNL     1     -34.625  16.383  -2.394  1.00 20.00    -0.059 C 
HETATM    3  C1  UNL     1     -35.135  16.638  -1.176  1.00 20.00     0.017 C 
HETATM    4  C6  UNL     1     -33.160  16.649  -2.644  1.00 20.00     0.046 C 
ENDBRANCH   1   2
BRANCH   1   5
HETATM    5  C5  UNL     1     -35.494  16.673  -4.822  1.00 20.00     0.024 A 
HETATM    6  C3  UNL     1     -36.816  17.103  -5.394  1.00 20.00     0.008 A 
HETATM    7  C4  UNL     1     -35.914  18.115  -4.743  1.00 20.00     0.008 A 
ENDBRANCH   1   5
BRANCH   1   8
HETATM    8  C8  UNL     1     -35.002  14.377  -3.933  1.00 20.00     0.038 C 
HETATM    9  C7  UNL     1     -36.090  13.497  -4.536  1.00 20.00     0.008 C 
ENDBRANCH   1   8
BRANCH   1  10
HETATM   10  O10 UNL     1     -36.808  15.697  -3.115  1.00 20.00    -0.385 OA
HETATM   11  H26 UNL     1     -37.117  16.601  -2.973  1.00 20.00     0.211 HD
ENDBRANCH   1  10
TORSDOF 4
ENDMDL
MODEL 8
REMARK VINA RESULT:      -3.7     10.867     12.744
REMARK  4 active torsions:
REMARK  status: ('A' for Active; 'I' for Inactive)
REMARK    1  A    between atoms: C2_2  and  C9_9 
REMARK    2  A    between atoms: C5_5  and  C9_9 
REMARK    3  A    between atoms: C8_8  and  C9_9 
REMARK    4  A    between atoms: C9_9  and  O10_10 
ROOT
HETATM    1  C9  UNL     1     -34.537  16.085  -3.034  1.00 20.00     0.083 C 
ENDROOT
BRANCH   1   2
HETATM    2  C2  UNL     1     -34.421  14.786  -3.844  1.00 20.00    -0.059 C 
HETATM    3  C1  UNL     1     -35.450  13.952  -4.075  1.00 20.00     0.017 C 
HETATM    4  C6  UNL     1     -33.064  14.450  -4.415  1.00 20.00     0.046 C 
ENDBRANCH   1   2
BRANCH   1   5
HETATM    5  C5  UNL     1     -33.232  16.675  -2.519  1.00 20.00     0.024 A 
HETATM    6  C3  UNL     1     -32.856  18.092  -2.855  1.00 20.00     0.008 A 
HETATM    7  C4  UNL     1     -33.248  17.732  -1.449  1.00 20.00     0.008 A 
ENDBRANCH   1   5
BRANCH   1   8
HETATM    8  C8  UNL     1     -35.330  17.175  -3.804  1.00 20.00     0.038 C 
HETATM    9  C7  UNL     1     -36.724  17.470  -3.264  1.00 20.00     0.008 C 
ENDBRANCH   1   8
BRANCH   1  10
HETATM   10  O10 UNL     1     -35.326  15.794  -1.864  1.00 20.00    -0.385 OA
HETATM   11  H26 UNL     1     -34.856  15.090  -1.401  1.00 20.00     0.211 HD
ENDBRANCH   1  10
TORSDOF 4
ENDMDL
MODEL 9
REMARK VINA RESULT:      -3.7     10.962     12.849
REMARK  4 active torsions:
REMARK  status: ('A' for Active; 'I' for Inactive)
REMARK    1  A    between atoms: C2_2  and  C9_9 
REMARK    2  A    between atoms: C5_5  and  C9_9 
REMARK    3  A    between atoms: C8_8  and  C9_9 
REMARK    4  A    between atoms: C9_9  and  O10_10 
ROOT
HETATM    1  C9  UNL     1     -34.658  15.547  -5.163  1.00 20.00     0.083 C 
ENDROOT
BRANCH   1   2
HETATM    2  C2  UNL     1     -35.153  16.985  -5.376  1.00 20.00    -0.059 C 
HETATM    3  C1  UNL     1     -34.359  18.004  -5.748  1.00 20.00     0.017 C 
HETATM    4  C6  UNL     1     -36.625  17.245  -5.160  1.00 20.00     0.046 C 
ENDBRANCH   1   2
BRANCH   1   5
HETATM    5  C5  UNL     1     -34.180  15.202  -3.760  1.00 20.00     0.024 A 
HETATM    6  C3  UNL     1     -33.168  16.073  -3.069  1.00 20.00     0.008 A 
HETATM    7  C4  UNL     1     -34.592  16.051  -2.589  1.00 20.00     0.008 A 
ENDBRANCH   1   5
BRANCH   1   8
HETATM    8  C8  UNL     1     -35.709  14.502  -5.624  1.00 20.00     0.038 C 
HETATM    9  C7  UNL     1     -36.196  13.547  -4.541  1.00 20.00     0.008 C 
ENDBRANCH   1   8
BRANCH   1  10
HETATM   10  O10 UNL     1     -33.521  15.351  -6.026  1.00 20.00    -0.385 OA
HETATM   11  H26 UNL     1     -33.562  14.428  -6.305  1.00 20.00     0.211 HD
ENDBRANCH   1  10
TORSDOF 4
ENDMDL
