MODEL 1
REMARK VINA RESULT:      -4.6      0.000      0.000
REMARK  3 active torsions:
REMARK  status: ('A' for Active; 'I' for Inactive)
REMARK    1  A    between atoms: C2_2  and  C10_10 
REMARK    2  A    between atoms: C5_5  and  C10_10 
REMARK    3  A    between atoms: C7_7  and  O11_11 
ROOT
HETATM    1  C3  UNL     1     -34.783  13.536  -3.787  1.00 20.00     0.008 C 
HETATM    2  C4  UNL     1     -35.958  13.373  -4.751  1.00 20.00     0.032 C 
HETATM    3  C5  UNL     1     -34.352  15.001  -3.913  1.00 20.00    -0.004 C 
HETATM    4  C6  UNL     1     -34.540  15.248  -5.417  1.00 20.00     0.015 C 
HETATM    5  C7  UNL     1     -35.856  14.532  -5.747  1.00 20.00     0.122 C 
HETATM    6  C9  UNL     1     -34.532  16.708  -5.847  1.00 20.00     0.013 C 
ENDROOT
BRANCH   3   7
HETATM    7  C10 UNL     1     -35.178  15.907  -2.999  1.00 20.00     0.038 C 
BRANCH   7   8
HETATM    8  C2  UNL     1     -34.327  16.713  -2.049  1.00 20.00    -0.093 C 
HETATM    9  C1  UNL     1     -33.054  17.026  -2.339  1.00 20.00     0.014 C 
HETATM   10  C8  UNL     1     -34.954  17.120  -0.746  1.00 20.00     0.042 C 
ENDBRANCH   7   8
ENDBRANCH   3   7
BRANCH   5  11
HETATM   11  O11 UNL     1     -35.846  14.037  -7.077  1.00 20.00    -0.395 OA
HETATM   12  H29 UNL     1     -36.593  13.422  -7.147  1.00 20.00     0.210 HD
ENDBRANCH   5  11
TORSDOF 3
ENDMDL
MODEL 2
REMARK VINA RESULT:      -4.6      0.088      1.061
REMARK  3 active torsions:
REMARK  status: ('A' for Active; 'I' for Inactive)
REMARK    1  A    between atoms: C2_2  and  C10_10 
REMARK    2  A    between atoms: C5_5  and  C10_10 
REMARK    3  A    between atoms: C7_7  and  O11_11 
ROOT
HETATM    1  C3  UNL     1     -34.765  13.613  -3.780  1.00 20.00     0.008 C 
HETATM    2  C4  UNL     1     -35.940  13.392  -4.733  1.00 20.00     0.032 C 
HETATM    3  C5  UNL     1     -34.397  15.093  -3.922  1.00 20.00    -0.004 C 
HETATM    4  C6  UNL     1     -34.608  15.319  -5.427  1.00 20.00     0.015 C 
HETATM    5  C7  UNL     1     -35.895  14.545  -5.740  1.00 20.00     0.122 C 
HETATM    6  C9  UNL     1     -34.665  16.774  -5.869  1.00 20.00     0.013 C 
ENDROOT
BRANCH   3   7
HETATM    7  C10 UNL     1     -35.253  15.972  -3.010  1.00 20.00     0.038 C 
BRANCH   7   8
HETATM    8  C2  UNL     1     -34.438  16.720  -1.983  1.00 20.00    -0.093 C 
HETATM    9  C1  UNL     1     -34.967  17.101  -0.810  1.00 20.00     0.014 C 
HETATM   10  C8  UNL     1     -33.018  17.049  -2.345  1.00 20.00     0.042 C 
ENDBRANCH   7   8
ENDBRANCH   3   7
BRANCH   5  11
HETATM   11  O11 UNL     1     -35.875  14.039  -7.065  1.00 20.00    -0.395 OA
HETATM   12  H29 UNL     1     -34.957  13.786  -7.250  1.00 20.00     0.210 HD
ENDBRANCH   5  11
TORSDOF 3
ENDMDL
MODEL 3
REMARK VINA RESULT:      -4.4     16.293     18.080
REMARK  3 active torsions:
REMARK  status: ('A' for Active; 'I' for Inactive)
REMARK    1  A    between atoms: C2_2  and  C10_10 
REMARK    2  A    between atoms: C5_5  and  C10_10 
REMARK    3  A    between atoms: C7_7  and  O11_11 
ROOT
HETATM    1  C3  UNL     1     -21.937  17.920  10.234  1.00 20.00     0.008 C 
HETATM    2  C4  UNL     1     -21.637  17.202   8.918  1.00 20.00     0.032 C 
HETATM    3  C5  UNL     1     -23.429  18.264  10.180  1.00 20.00    -0.004 C 
HETATM    4  C6  UNL     1     -23.606  18.632   8.700  1.00 20.00     0.015 C 
HETATM    5  C7  UNL     1     -22.766  17.586   7.956  1.00 20.00     0.122 C 
HETATM    6  C9  UNL     1     -25.046  18.697   8.209  1.00 20.00     0.013 C 
ENDROOT
BRANCH   3   7
HETATM    7  C10 UNL     1     -24.290  17.097  10.665  1.00 20.00     0.038 C 
BRANCH   7   8
HETATM    8  C2  UNL     1     -25.315  17.512  11.692  1.00 20.00    -0.093 C 
HETATM    9  C1  UNL     1     -26.073  16.607  12.332  1.00 20.00     0.014 C 
HETATM   10  C8  UNL     1     -25.475  18.984  11.942  1.00 20.00     0.042 C 
ENDBRANCH   7   8
ENDBRANCH   3   7
BRANCH   5  11
HETATM   11  O11 UNL     1     -22.228  18.124   6.758  1.00 20.00    -0.395 OA
HETATM   12  H29 UNL     1     -21.399  18.565   7.002  1.00 20.00     0.210 HD
ENDBRANCH   5  11
TORSDOF 3
ENDMDL
MODEL 4
REMARK VINA RESULT:      -4.4      0.919      2.193
REMARK  3 active torsions:
REMARK  status: ('A' for Active; 'I' for Inactive)
REMARK    1  A    between atoms: C2_2  and  C10_10 
REMARK    2  A    between atoms: C5_5  and  C10_10 
REMARK    3  A    between atoms: C7_7  and  O11_11 
ROOT
HETATM    1  C3  UNL     1     -35.016  17.020  -5.636  1.00 20.00     0.008 C 
HETATM    2  C4  UNL     1     -34.575  16.125  -6.795  1.00 20.00     0.032 C 
HETATM    3  C5  UNL     1     -35.400  16.063  -4.504  1.00 20.00    -0.004 C 
HETATM    4  C6  UNL     1     -36.067  14.919  -5.282  1.00 20.00     0.015 C 
HETATM    5  C7  UNL     1     -35.175  14.744  -6.517  1.00 20.00     0.122 C 
HETATM    6  C9  UNL     1     -36.266  13.626  -4.503  1.00 20.00     0.013 C 
ENDROOT
BRANCH   3   7
HETATM    7  C10 UNL     1     -34.180  15.658  -3.676  1.00 20.00     0.038 C 
BRANCH   7   8
HETATM    8  C2  UNL     1     -34.000  16.508  -2.443  1.00 20.00    -0.093 C 
HETATM    9  C1  UNL     1     -32.884  17.227  -2.242  1.00 20.00     0.014 C 
HETATM   10  C8  UNL     1     -35.110  16.489  -1.431  1.00 20.00     0.042 C 
ENDBRANCH   7   8
ENDBRANCH   3   7
BRANCH   5  11
HETATM   11  O11 UNL     1     -35.932  14.305  -7.634  1.00 20.00    -0.395 OA
HETATM   12  H29 UNL     1     -36.540  15.027  -7.856  1.00 20.00     0.210 HD
ENDBRANCH   5  11
TORSDOF 3
ENDMDL
MODEL 5
REMARK VINA RESULT:      -4.3      1.481      2.179
REMARK  3 active torsions:
REMARK  status: ('A' for Active; 'I' for Inactive)
REMARK    1  A    between atoms: C2_2  and  C10_10 
REMARK    2  A    between atoms: C5_5  and  C10_10 
REMARK    3  A    between atoms: C7_7  and  O11_11 
ROOT
HETATM    1  C3  UNL     1     -36.079  14.437  -4.026  1.00 20.00     0.008 C 
HETATM    2  C4  UNL     1     -35.500  14.639  -5.427  1.00 20.00     0.032 C 
HETATM    3  C5  UNL     1     -35.273  15.366  -3.113  1.00 20.00    -0.004 C 
HETATM    4  C6  UNL     1     -33.865  15.239  -3.713  1.00 20.00     0.015 C 
HETATM    5  C7  UNL     1     -34.107  15.244  -5.228  1.00 20.00     0.122 C 
HETATM    6  C9  UNL     1     -32.865  16.297  -3.266  1.00 20.00     0.013 C 
ENDROOT
BRANCH   3   7
HETATM    7  C10 UNL     1     -35.849  16.782  -3.106  1.00 20.00     0.038 C 
BRANCH   7   8
HETATM    8  C2  UNL     1     -36.111  17.301  -1.714  1.00 20.00    -0.093 C 
HETATM    9  C1  UNL     1     -35.324  16.963  -0.680  1.00 20.00     0.014 C 
HETATM   10  C8  UNL     1     -37.311  18.184  -1.527  1.00 20.00     0.042 C 
ENDBRANCH   7   8
ENDBRANCH   3   7
BRANCH   5  11
HETATM   11  O11 UNL     1     -33.132  14.465  -5.902  1.00 20.00    -0.395 OA
HETATM   12  H29 UNL     1     -33.509  14.240  -6.767  1.00 20.00     0.210 HD
ENDBRANCH   5  11
TORSDOF 3
ENDMDL
MODEL 6
REMARK VINA RESULT:      -4.3      1.036      1.665
REMARK  3 active torsions:
REMARK  status: ('A' for Active; 'I' for Inactive)
REMARK    1  A    between atoms: C2_2  and  C10_10 
REMARK    2  A    between atoms: C5_5  and  C10_10 
REMARK    3  A    between atoms: C7_7  and  O11_11 
ROOT
HETATM    1  C3  UNL     1     -37.017  15.603  -3.814  1.00 20.00     0.008 C 
HETATM    2  C4  UNL     1     -36.938  15.576  -5.341  1.00 20.00     0.032 C 
HETATM    3  C5  UNL     1     -35.570  15.472  -3.328  1.00 20.00    -0.004 C 
HETATM    4  C6  UNL     1     -34.993  14.480  -4.349  1.00 20.00     0.015 C 
HETATM    5  C7  UNL     1     -35.590  14.937  -5.686  1.00 20.00     0.122 C 
HETATM    6  C9  UNL     1     -33.474  14.380  -4.378  1.00 20.00     0.013 C 
ENDROOT
BRANCH   3   7
HETATM    7  C10 UNL     1     -34.871  16.830  -3.278  1.00 20.00     0.038 C 
BRANCH   7   8
HETATM    8  C2  UNL     1     -34.277  17.134  -1.925  1.00 20.00    -0.093 C 
HETATM    9  C1  UNL     1     -32.996  17.512  -1.789  1.00 20.00     0.014 C 
HETATM   10  C8  UNL     1     -35.172  16.961  -0.731  1.00 20.00     0.042 C 
ENDBRANCH   7   8
ENDBRANCH   3   7
BRANCH   5  11
HETATM   11  O11 UNL     1     -35.778  13.836  -6.562  1.00 20.00    -0.395 OA
HETATM   12  H29 UNL     1     -35.662  13.036  -6.027  1.00 20.00     0.210 HD
ENDBRANCH   5  11
TORSDOF 3
ENDMDL
MODEL 7
REMARK VINA RESULT:      -4.2      1.285      1.980
REMARK  3 active torsions:
REMARK  status: ('A' for Active; 'I' for Inactive)
REMARK    1  A    between atoms: C2_2  and  C10_10 
REMARK    2  A    between atoms: C5_5  and  C10_10 
REMARK    3  A    between atoms: C7_7  and  O11_11 
ROOT
HETATM    1  C3  UNL     1     -32.993  15.529  -3.709  1.00 20.00     0.008 C 
HETATM    2  C4  UNL     1     -33.531  14.269  -4.388  1.00 20.00     0.032 C 
HETATM    3  C5  UNL     1     -34.221  16.404  -3.440  1.00 20.00    -0.004 C 
HETATM    4  C6  UNL     1     -35.061  16.148  -4.700  1.00 20.00     0.015 C 
HETATM    5  C7  UNL     1     -34.907  14.642  -4.947  1.00 20.00     0.122 C 
HETATM    6  C9  UNL     1     -36.515  16.593  -4.619  1.00 20.00     0.013 C 
ENDROOT
BRANCH   3   7
HETATM    7  C10 UNL     1     -34.899  16.029  -2.122  1.00 20.00     0.038 C 
BRANCH   7   8
HETATM    8  C2  UNL     1     -34.749  17.092  -1.063  1.00 20.00    -0.093 C 
HETATM    9  C1  UNL     1     -35.568  17.144  -0.000  1.00 20.00     0.014 C 
HETATM   10  C8  UNL     1     -33.666  18.113  -1.266  1.00 20.00     0.042 C 
ENDBRANCH   7   8
ENDBRANCH   3   7
BRANCH   5  11
HETATM   11  O11 UNL     1     -34.972  14.344  -6.333  1.00 20.00    -0.395 OA
HETATM   12  H29 UNL     1     -35.788  13.837  -6.467  1.00 20.00     0.210 HD
ENDBRANCH   5  11
TORSDOF 3
ENDMDL
MODEL 8
REMARK VINA RESULT:      -4.2      1.428      1.744
REMARK  3 active torsions:
REMARK  status: ('A' for Active; 'I' for Inactive)
REMARK    1  A    between atoms: C2_2  and  C10_10 
REMARK    2  A    between atoms: C5_5  and  C10_10 
REMARK    3  A    between atoms: C7_7  and  O11_11 
ROOT
HETATM    1  C3  UNL     1     -34.159  14.579  -4.198  1.00 20.00     0.008 C 
HETATM    2  C4  UNL     1     -35.311  13.579  -4.095  1.00 20.00     0.032 C 
HETATM    3  C5  UNL     1     -34.720  15.903  -3.671  1.00 20.00    -0.004 C 
HETATM    4  C6  UNL     1     -36.154  15.869  -4.220  1.00 20.00     0.015 C 
HETATM    5  C7  UNL     1     -36.593  14.413  -4.014  1.00 20.00     0.122 C 
HETATM    6  C9  UNL     1     -37.116  16.874  -3.602  1.00 20.00     0.013 C 
ENDROOT
BRANCH   3   7
HETATM    7  C10 UNL     1     -34.611  15.992  -2.149  1.00 20.00     0.038 C 
BRANCH   7   8
HETATM    8  C2  UNL     1     -33.819  17.191  -1.687  1.00 20.00    -0.093 C 
HETATM    9  C1  UNL     1     -32.721  17.601  -2.342  1.00 20.00     0.014 C 
HETATM   10  C8  UNL     1     -34.292  17.885  -0.443  1.00 20.00     0.042 C 
ENDBRANCH   7   8
ENDBRANCH   3   7
BRANCH   5  11
HETATM   11  O11 UNL     1     -37.506  14.010  -5.023  1.00 20.00    -0.395 OA
HETATM   12  H29 UNL     1     -38.394  14.132  -4.654  1.00 20.00     0.210 HD
ENDBRANCH   5  11
TORSDOF 3
ENDMDL
MODEL 9
REMARK VINA RESULT:      -4.1      1.707      2.435
REMARK  3 active torsions:
REMARK  status: ('A' for Active; 'I' for Inactive)
REMARK    1  A    between atoms: C2_2  and  C10_10 
REMARK    2  A    between atoms: C5_5  and  C10_10 
REMARK    3  A    between atoms: C7_7  and  O11_11 
ROOT
HETATM    1  C3  UNL     1     -36.341  15.862  -3.176  1.00 20.00     0.008 C 
HETATM    2  C4  UNL     1     -36.834  14.866  -4.226  1.00 20.00     0.032 C 
HETATM    3  C5  UNL     1     -34.831  15.980  -3.404  1.00 20.00    -0.004 C 
HETATM    4  C6  UNL     1     -34.460  14.532  -3.758  1.00 20.00     0.015 C 
HETATM    5  C7  UNL     1     -35.603  14.071  -4.670  1.00 20.00     0.122 C 
HETATM    6  C9  UNL     1     -33.085  14.343  -4.384  1.00 20.00     0.013 C 
ENDROOT
BRANCH   3   7
HETATM    7  C10 UNL     1     -34.507  17.014  -4.482  1.00 20.00     0.038 C 
BRANCH   7   8
HETATM    8  C2  UNL     1     -33.516  18.054  -4.018  1.00 20.00    -0.093 C 
HETATM    9  C1  UNL     1     -33.240  19.139  -4.758  1.00 20.00     0.014 C 
HETATM   10  C8  UNL     1     -32.825  17.804  -2.708  1.00 20.00     0.042 C 
ENDBRANCH   7   8
ENDBRANCH   3   7
BRANCH   5  11
HETATM   11  O11 UNL     1     -35.839  12.679  -4.527  1.00 20.00    -0.395 OA
HETATM   12  H29 UNL     1     -36.593  12.589  -3.924  1.00 20.00     0.210 HD
ENDBRANCH   5  11
TORSDOF 3
ENDMDL
