MODEL 1
REMARK VINA RESULT:      -4.3      0.000      0.000
REMARK  3 active torsions:
REMARK  status: ('A' for Active; 'I' for Inactive)
REMARK    1  A    between atoms: C2_2  and  C9_9 
REMARK    2  A    between atoms: C6_6  and  C9_9 
REMARK    3  A    between atoms: C9_9  and  N10_10 
ROOT
HETATM    1  C9  UNL     1     -34.762  15.901  -5.246  1.00 20.00     0.254 C 
ENDROOT
BRANCH   1   2
HETATM    2  C2  UNL     1     -33.948  15.332  -4.096  1.00 20.00    -0.060 C 
HETATM    3  C1  UNL     1     -32.976  14.430  -4.319  1.00 20.00     0.016 C 
HETATM    4  C7  UNL     1     -34.256  15.794  -2.698  1.00 20.00     0.044 C 
ENDBRANCH   1   2
BRANCH   1   5
HETATM    5  C6  UNL     1     -36.147  15.289  -5.320  1.00 20.00     0.049 C 
HETATM    6  C3  UNL     1     -37.169  15.957  -4.426  1.00 20.00     0.035 C 
HETATM    7  C4  UNL     1     -38.238  14.888  -4.330  1.00 20.00     0.168 C 
HETATM    8  O11 UNL     1     -37.569  13.622  -4.423  1.00 20.00    -0.391 OA
HETATM    9  C5  UNL     1     -36.210  13.854  -4.828  1.00 20.00     0.174 C 
ENDBRANCH   1   5
BRANCH   1  10
HETATM   10  N10 UNL     1     -34.087  15.742  -6.537  1.00 20.00     0.088 N 
HETATM   11  C8  UNL     1     -35.000  16.031  -7.630  1.00 20.00     0.307 C 
HETATM   12  H28 UNL     1     -33.751  14.786  -6.615  1.00 20.00     0.316 HD
ENDBRANCH   1  10
TORSDOF 3
ENDMDL
MODEL 2
REMARK VINA RESULT:      -4.3      1.612      2.561
REMARK  3 active torsions:
REMARK  status: ('A' for Active; 'I' for Inactive)
REMARK    1  A    between atoms: C2_2  and  C9_9 
REMARK    2  A    between atoms: C6_6  and  C9_9 
REMARK    3  A    between atoms: C9_9  and  N10_10 
ROOT
HETATM    1  C9  UNL     1     -34.963  16.596  -3.468  1.00 20.00     0.254 C 
ENDROOT
BRANCH   1   2
HETATM    2  C2  UNL     1     -34.354  16.950  -2.122  1.00 20.00    -0.060 C 
HETATM    3  C1  UNL     1     -35.087  16.895  -0.997  1.00 20.00     0.016 C 
HETATM    4  C7  UNL     1     -32.910  17.372  -2.073  1.00 20.00     0.044 C 
ENDBRANCH   1   2
BRANCH   1   5
HETATM    5  C6  UNL     1     -35.617  15.229  -3.456  1.00 20.00     0.049 C 
HETATM    6  C3  UNL     1     -34.895  14.189  -4.284  1.00 20.00     0.035 C 
HETATM    7  C4  UNL     1     -35.979  13.150  -4.484  1.00 20.00     0.168 C 
HETATM    8  O11 UNL     1     -37.229  13.854  -4.511  1.00 20.00    -0.391 OA
HETATM    9  C5  UNL     1     -36.999  15.206  -4.083  1.00 20.00     0.174 C 
ENDBRANCH   1   5
BRANCH   1  10
HETATM   10  N10 UNL     1     -33.982  16.662  -4.556  1.00 20.00     0.088 N 
HETATM   11  C8  UNL     1     -34.382  17.647  -5.546  1.00 20.00     0.307 C 
HETATM   12  H28 UNL     1     -33.916  15.746  -4.991  1.00 20.00     0.316 HD
ENDBRANCH   1  10
TORSDOF 3
ENDMDL
MODEL 3
REMARK VINA RESULT:      -4.2      1.998      3.071
REMARK  3 active torsions:
REMARK  status: ('A' for Active; 'I' for Inactive)
REMARK    1  A    between atoms: C2_2  and  C9_9 
REMARK    2  A    between atoms: C6_6  and  C9_9 
REMARK    3  A    between atoms: C9_9  and  N10_10 
ROOT
HETATM    1  C9  UNL     1     -35.995  16.039  -3.216  1.00 20.00     0.254 C 
ENDROOT
BRANCH   1   2
HETATM    2  C2  UNL     1     -34.893  16.398  -2.234  1.00 20.00    -0.060 C 
HETATM    3  C1  UNL     1     -35.184  16.783  -0.980  1.00 20.00     0.016 C 
HETATM    4  C7  UNL     1     -33.463  16.321  -2.697  1.00 20.00     0.044 C 
ENDBRANCH   1   2
BRANCH   1   5
HETATM    5  C6  UNL     1     -35.474  15.228  -4.386  1.00 20.00     0.049 C 
HETATM    6  C3  UNL     1     -35.572  15.931  -5.721  1.00 20.00     0.035 C 
HETATM    7  C4  UNL     1     -35.467  14.769  -6.688  1.00 20.00     0.168 C 
HETATM    8  O11 UNL     1     -36.053  13.633  -6.036  1.00 20.00    -0.391 OA
HETATM    9  C5  UNL     1     -36.266  13.961  -4.654  1.00 20.00     0.174 C 
ENDBRANCH   1   5
BRANCH   1  10
HETATM   10  N10 UNL     1     -36.701  17.222  -3.716  1.00 20.00     0.088 N 
HETATM   11  C8  UNL     1     -38.103  17.180  -3.334  1.00 20.00     0.307 C 
HETATM   12  H28 UNL     1     -36.624  17.245  -4.729  1.00 20.00     0.316 HD
ENDBRANCH   1  10
TORSDOF 3
ENDMDL
MODEL 4
REMARK VINA RESULT:      -4.2      2.484      3.595
REMARK  3 active torsions:
REMARK  status: ('A' for Active; 'I' for Inactive)
REMARK    1  A    between atoms: C2_2  and  C9_9 
REMARK    2  A    between atoms: C6_6  and  C9_9 
REMARK    3  A    between atoms: C9_9  and  N10_10 
ROOT
HETATM    1  C9  UNL     1     -33.860  17.530  -2.707  1.00 20.00     0.254 C 
ENDROOT
BRANCH   1   2
HETATM    2  C2  UNL     1     -33.282  17.889  -1.348  1.00 20.00    -0.060 C 
HETATM    3  C1  UNL     1     -31.976  18.171  -1.207  1.00 20.00     0.016 C 
HETATM    4  C7  UNL     1     -34.203  17.914  -0.158  1.00 20.00     0.044 C 
ENDBRANCH   1   2
BRANCH   1   5
HETATM    5  C6  UNL     1     -34.351  16.097  -2.757  1.00 20.00     0.049 C 
HETATM    6  C3  UNL     1     -33.652  15.237  -3.786  1.00 20.00     0.035 C 
HETATM    7  C4  UNL     1     -34.634  14.095  -3.949  1.00 20.00     0.168 C 
HETATM    8  O11 UNL     1     -35.943  14.638  -3.726  1.00 20.00    -0.391 OA
HETATM    9  C5  UNL     1     -35.801  15.962  -3.187  1.00 20.00     0.174 C 
ENDBRANCH   1   5
BRANCH   1  10
HETATM   10  N10 UNL     1     -32.904  17.759  -3.795  1.00 20.00     0.088 N 
HETATM   11  C8  UNL     1     -33.316  18.891  -4.608  1.00 20.00     0.307 C 
HETATM   12  H28 UNL     1     -32.859  16.923  -4.371  1.00 20.00     0.316 HD
ENDBRANCH   1  10
TORSDOF 3
ENDMDL
MODEL 5
REMARK VINA RESULT:      -4.1      2.495      3.920
REMARK  3 active torsions:
REMARK  status: ('A' for Active; 'I' for Inactive)
REMARK    1  A    between atoms: C2_2  and  C9_9 
REMARK    2  A    between atoms: C6_6  and  C9_9 
REMARK    3  A    between atoms: C9_9  and  N10_10 
ROOT
HETATM    1  C9  UNL     1     -35.186  16.846  -2.352  1.00 20.00     0.254 C 
ENDROOT
BRANCH   1   2
HETATM    2  C2  UNL     1     -34.718  17.302  -0.980  1.00 20.00    -0.060 C 
HETATM    3  C1  UNL     1     -35.469  17.084   0.113  1.00 20.00     0.016 C 
HETATM    4  C7  UNL     1     -33.395  18.011  -0.870  1.00 20.00     0.044 C 
ENDBRANCH   1   2
BRANCH   1   5
HETATM    5  C6  UNL     1     -34.475  15.587  -2.808  1.00 20.00     0.049 C 
HETATM    6  C3  UNL     1     -33.278  15.839  -3.697  1.00 20.00     0.035 C 
HETATM    7  C4  UNL     1     -33.100  14.490  -4.362  1.00 20.00     0.168 C 
HETATM    8  O11 UNL     1     -34.407  13.907  -4.474  1.00 20.00    -0.391 OA
HETATM    9  C5  UNL     1     -35.323  14.690  -3.691  1.00 20.00     0.174 C 
ENDBRANCH   1   5
BRANCH   1  10
HETATM   10  N10 UNL     1     -35.032  17.892  -3.368  1.00 20.00     0.088 N 
HETATM   11  C8  UNL     1     -36.313  18.515  -3.657  1.00 20.00     0.307 C 
HETATM   12  H28 UNL     1     -34.657  17.472  -4.214  1.00 20.00     0.316 HD
ENDBRANCH   1  10
TORSDOF 3
ENDMDL
MODEL 6
REMARK VINA RESULT:      -4.1      3.249      4.718
REMARK  3 active torsions:
REMARK  status: ('A' for Active; 'I' for Inactive)
REMARK    1  A    between atoms: C2_2  and  C9_9 
REMARK    2  A    between atoms: C6_6  and  C9_9 
REMARK    3  A    between atoms: C9_9  and  N10_10 
ROOT
HETATM    1  C9  UNL     1     -34.601  16.271  -3.453  1.00 20.00     0.254 C 
ENDROOT
BRANCH   1   2
HETATM    2  C2  UNL     1     -34.345  14.877  -4.000  1.00 20.00    -0.060 C 
HETATM    3  C1  UNL     1     -33.111  14.500  -4.377  1.00 20.00     0.016 C 
HETATM    4  C7  UNL     1     -35.505  13.927  -4.120  1.00 20.00     0.044 C 
ENDBRANCH   1   2
BRANCH   1   5
HETATM    5  C6  UNL     1     -33.356  16.878  -2.834  1.00 20.00     0.049 C 
HETATM    6  C3  UNL     1     -33.546  17.375  -1.418  1.00 20.00     0.035 C 
HETATM    7  C4  UNL     1     -32.374  18.321  -1.266  1.00 20.00     0.168 C 
HETATM    8  O11 UNL     1     -32.115  18.875  -2.564  1.00 20.00    -0.391 OA
HETATM    9  C5  UNL     1     -32.876  18.137  -3.533  1.00 20.00     0.174 C 
ENDBRANCH   1   5
BRANCH   1  10
HETATM   10  N10 UNL     1     -35.694  16.293  -2.476  1.00 20.00     0.088 N 
HETATM   11  C8  UNL     1     -36.773  17.150  -2.937  1.00 20.00     0.307 C 
HETATM   12  H28 UNL     1     -35.335  16.641  -1.592  1.00 20.00     0.316 HD
ENDBRANCH   1  10
TORSDOF 3
ENDMDL
MODEL 7
REMARK VINA RESULT:      -4.0      3.063      4.340
REMARK  3 active torsions:
REMARK  status: ('A' for Active; 'I' for Inactive)
REMARK    1  A    between atoms: C2_2  and  C9_9 
REMARK    2  A    between atoms: C6_6  and  C9_9 
REMARK    3  A    between atoms: C9_9  and  N10_10 
ROOT
HETATM    1  C9  UNL     1     -35.058  16.114  -3.291  1.00 20.00     0.254 C 
ENDROOT
BRANCH   1   2
HETATM    2  C2  UNL     1     -34.481  14.842  -3.887  1.00 20.00    -0.060 C 
HETATM    3  C1  UNL     1     -33.184  14.767  -4.230  1.00 20.00     0.016 C 
HETATM    4  C7  UNL     1     -35.396  13.665  -4.096  1.00 20.00     0.044 C 
ENDBRANCH   1   2
BRANCH   1   5
HETATM    5  C6  UNL     1     -34.343  16.522  -2.018  1.00 20.00     0.049 C 
HETATM    6  C3  UNL     1     -35.264  16.951  -0.898  1.00 20.00     0.035 C 
HETATM    7  C4  UNL     1     -34.322  17.732  -0.007  1.00 20.00     0.168 C 
HETATM    8  O11 UNL     1     -33.338  18.329  -0.865  1.00 20.00    -0.391 OA
HETATM    9  C5  UNL     1     -33.467  17.752  -2.174  1.00 20.00     0.174 C 
ENDBRANCH   1   5
BRANCH   1  10
HETATM   10  N10 UNL     1     -36.497  16.003  -3.031  1.00 20.00     0.088 N 
HETATM   11  C8  UNL     1     -37.249  16.836  -3.954  1.00 20.00     0.307 C 
HETATM   12  H28 UNL     1     -36.679  16.300  -2.076  1.00 20.00     0.316 HD
ENDBRANCH   1  10
TORSDOF 3
ENDMDL
MODEL 8
REMARK VINA RESULT:      -4.0      1.106      2.697
REMARK  3 active torsions:
REMARK  status: ('A' for Active; 'I' for Inactive)
REMARK    1  A    between atoms: C2_2  and  C9_9 
REMARK    2  A    between atoms: C6_6  and  C9_9 
REMARK    3  A    between atoms: C9_9  and  N10_10 
ROOT
HETATM    1  C9  UNL     1     -34.755  15.611  -5.410  1.00 20.00     0.254 C 
ENDROOT
BRANCH   1   2
HETATM    2  C2  UNL     1     -34.386  16.277  -6.724  1.00 20.00    -0.060 C 
HETATM    3  C1  UNL     1     -34.403  17.615  -6.849  1.00 20.00     0.016 C 
HETATM    4  C7  UNL     1     -34.006  15.405  -7.891  1.00 20.00     0.044 C 
ENDBRANCH   1   2
BRANCH   1   5
HETATM    5  C6  UNL     1     -36.194  15.133  -5.398  1.00 20.00     0.049 C 
HETATM    6  C3  UNL     1     -37.116  15.960  -4.529  1.00 20.00     0.035 C 
HETATM    7  C4  UNL     1     -38.277  15.010  -4.323  1.00 20.00     0.168 C 
HETATM    8  O11 UNL     1     -37.735  13.681  -4.339  1.00 20.00    -0.391 OA
HETATM    9  C5  UNL     1     -36.375  13.751  -4.798  1.00 20.00     0.174 C 
ENDBRANCH   1   5
BRANCH   1  10
HETATM   10  N10 UNL     1     -34.520  16.487  -4.258  1.00 20.00     0.088 N 
HETATM   11  C8  UNL     1     -33.453  15.960  -3.424  1.00 20.00     0.307 C 
HETATM   12  H28 UNL     1     -35.378  16.550  -3.716  1.00 20.00     0.316 HD
ENDBRANCH   1  10
TORSDOF 3
ENDMDL
MODEL 9
REMARK VINA RESULT:      -4.0      1.000      1.300
REMARK  3 active torsions:
REMARK  status: ('A' for Active; 'I' for Inactive)
REMARK    1  A    between atoms: C2_2  and  C9_9 
REMARK    2  A    between atoms: C6_6  and  C9_9 
REMARK    3  A    between atoms: C9_9  and  N10_10 
ROOT
HETATM    1  C9  UNL     1     -34.779  15.721  -5.189  1.00 20.00     0.254 C 
ENDROOT
BRANCH   1   2
HETATM    2  C2  UNL     1     -33.773  15.359  -4.109  1.00 20.00    -0.060 C 
HETATM    3  C1  UNL     1     -32.835  14.421  -4.326  1.00 20.00     0.016 C 
HETATM    4  C7  UNL     1     -33.854  16.067  -2.783  1.00 20.00     0.044 C 
ENDBRANCH   1   2
BRANCH   1   5
HETATM    5  C6  UNL     1     -36.203  15.706  -4.669  1.00 20.00     0.049 C 
HETATM    6  C3  UNL     1     -36.721  14.329  -4.318  1.00 20.00     0.035 C 
HETATM    7  C4  UNL     1     -38.218  14.554  -4.322  1.00 20.00     0.168 C 
HETATM    8  O11 UNL     1     -38.482  15.576  -5.295  1.00 20.00    -0.391 OA
HETATM    9  C5  UNL     1     -37.231  16.164  -5.687  1.00 20.00     0.174 C 
ENDBRANCH   1   5
BRANCH   1  10
HETATM   10  N10 UNL     1     -34.675  14.846  -6.361  1.00 20.00     0.088 N 
HETATM   11  C8  UNL     1     -34.132  15.574  -7.495  1.00 20.00     0.307 C 
HETATM   12  H28 UNL     1     -35.602  14.497  -6.590  1.00 20.00     0.316 HD
ENDBRANCH   1  10
TORSDOF 3
ENDMDL
