MODEL 1
REMARK VINA RESULT:      -4.8      0.000      0.000
REMARK  4 active torsions:
REMARK  status: ('A' for Active; 'I' for Inactive)
REMARK    1  A    between atoms: C2_2  and  C8_8 
REMARK    2  A    between atoms: C6_6  and  C9_9 
REMARK    3  A    between atoms: C8_8  and  C9_9 
REMARK    4  A    between atoms: C9_9  and  O11_11 
ROOT
HETATM    1  C9  UNL     1     -35.752  13.915  -4.309  1.00 20.00     0.151 C 
ENDROOT
BRANCH   1   2
HETATM    2  C6  UNL     1     -35.893  14.355  -5.753  1.00 20.00     0.150 C 
HETATM    3  C4  UNL     1     -36.581  15.699  -5.912  1.00 20.00     0.036 C 
HETATM    4  C3  UNL     1     -36.024  16.167  -7.234  1.00 20.00     0.029 C 
HETATM    5  C5  UNL     1     -34.591  15.682  -7.158  1.00 20.00     0.168 C 
HETATM    6  O10 UNL     1     -34.593  14.497  -6.349  1.00 20.00    -0.383 OA
ENDBRANCH   1   2
BRANCH   1   7
HETATM    7  C8  UNL     1     -34.348  14.232  -3.776  1.00 20.00     0.067 C 
BRANCH   7   8
HETATM    8  C2  UNL     1     -34.266  15.553  -3.040  1.00 20.00    -0.091 C 
HETATM    9  C1  UNL     1     -35.229  15.943  -2.189  1.00 20.00     0.014 C 
HETATM   10  C7  UNL     1     -33.042  16.391  -3.271  1.00 20.00     0.042 C 
ENDBRANCH   7   8
ENDBRANCH   1   7
BRANCH   1  11
HETATM   11  O11 UNL     1     -35.980  12.507  -4.269  1.00 20.00    -0.393 OA
HETATM   12  H27 UNL     1     -36.224  12.243  -5.170  1.00 20.00     0.210 HD
ENDBRANCH   1  11
TORSDOF 4
ENDMDL
MODEL 2
REMARK VINA RESULT:      -4.8      0.067      1.059
REMARK  4 active torsions:
REMARK  status: ('A' for Active; 'I' for Inactive)
REMARK    1  A    between atoms: C2_2  and  C8_8 
REMARK    2  A    between atoms: C6_6  and  C9_9 
REMARK    3  A    between atoms: C8_8  and  C9_9 
REMARK    4  A    between atoms: C9_9  and  O11_11 
ROOT
HETATM    1  C9  UNL     1     -35.720  13.939  -4.309  1.00 20.00     0.151 C 
ENDROOT
BRANCH   1   2
HETATM    2  C6  UNL     1     -35.875  14.387  -5.749  1.00 20.00     0.150 C 
HETATM    3  C4  UNL     1     -36.547  15.742  -5.893  1.00 20.00     0.036 C 
HETATM    4  C3  UNL     1     -36.001  16.208  -7.220  1.00 20.00     0.029 C 
HETATM    5  C5  UNL     1     -34.574  15.704  -7.165  1.00 20.00     0.168 C 
HETATM    6  O10 UNL     1     -34.581  14.515  -6.361  1.00 20.00    -0.383 OA
ENDBRANCH   1   2
BRANCH   1   7
HETATM    7  C8  UNL     1     -34.294  14.199  -3.806  1.00 20.00     0.067 C 
BRANCH   7   8
HETATM    8  C2  UNL     1     -34.133  15.534  -3.110  1.00 20.00    -0.091 C 
HETATM    9  C1  UNL     1     -33.064  16.315  -3.330  1.00 20.00     0.014 C 
HETATM   10  C7  UNL     1     -35.241  15.966  -2.194  1.00 20.00     0.042 C 
ENDBRANCH   7   8
ENDBRANCH   1   7
BRANCH   1  11
HETATM   11  O11 UNL     1     -36.004  12.542  -4.267  1.00 20.00    -0.393 OA
HETATM   12  H27 UNL     1     -35.899  12.213  -5.173  1.00 20.00     0.210 HD
ENDBRANCH   1  11
TORSDOF 4
ENDMDL
MODEL 3
REMARK VINA RESULT:      -4.3      1.679      2.063
REMARK  4 active torsions:
REMARK  status: ('A' for Active; 'I' for Inactive)
REMARK    1  A    between atoms: C2_2  and  C8_8 
REMARK    2  A    between atoms: C6_6  and  C9_9 
REMARK    3  A    between atoms: C8_8  and  C9_9 
REMARK    4  A    between atoms: C9_9  and  O11_11 
ROOT
HETATM    1  C9  UNL     1     -33.429  15.050  -4.140  1.00 20.00     0.151 C 
ENDROOT
BRANCH   1   2
HETATM    2  C6  UNL     1     -34.343  14.904  -5.340  1.00 20.00     0.150 C 
HETATM    3  C4  UNL     1     -35.141  16.159  -5.651  1.00 20.00     0.036 C 
HETATM    4  C3  UNL     1     -35.401  15.992  -7.127  1.00 20.00     0.029 C 
HETATM    5  C5  UNL     1     -34.099  15.386  -7.607  1.00 20.00     0.168 C 
HETATM    6  O10 UNL     1     -33.563  14.625  -6.515  1.00 20.00    -0.383 OA
ENDBRANCH   1   2
BRANCH   1   7
HETATM    7  C8  UNL     1     -33.328  16.518  -3.704  1.00 20.00     0.067 C 
BRANCH   7   8
HETATM    8  C2  UNL     1     -33.843  16.769  -2.303  1.00 20.00    -0.091 C 
HETATM    9  C1  UNL     1     -34.958  16.175  -1.848  1.00 20.00     0.014 C 
HETATM   10  C7  UNL     1     -33.031  17.679  -1.428  1.00 20.00     0.042 C 
ENDBRANCH   7   8
ENDBRANCH   1   7
BRANCH   1  11
HETATM   11  O11 UNL     1     -32.143  14.567  -4.524  1.00 20.00    -0.393 OA
HETATM   12  H27 UNL     1     -32.102  13.641  -4.241  1.00 20.00     0.210 HD
ENDBRANCH   1  11
TORSDOF 4
ENDMDL
MODEL 4
REMARK VINA RESULT:      -4.3      1.225      1.626
REMARK  4 active torsions:
REMARK  status: ('A' for Active; 'I' for Inactive)
REMARK    1  A    between atoms: C2_2  and  C8_8 
REMARK    2  A    between atoms: C6_6  and  C9_9 
REMARK    3  A    between atoms: C8_8  and  C9_9 
REMARK    4  A    between atoms: C9_9  and  O11_11 
ROOT
HETATM    1  C9  UNL     1     -36.846  14.922  -4.156  1.00 20.00     0.151 C 
ENDROOT
BRANCH   1   2
HETATM    2  C6  UNL     1     -36.916  15.350  -5.609  1.00 20.00     0.150 C 
HETATM    3  C4  UNL     1     -36.319  16.722  -5.866  1.00 20.00     0.036 C 
HETATM    4  C3  UNL     1     -35.926  16.612  -7.319  1.00 20.00     0.029 C 
HETATM    5  C5  UNL     1     -35.436  15.181  -7.401  1.00 20.00     0.168 C 
HETATM    6  O10 UNL     1     -36.171  14.430  -6.424  1.00 20.00    -0.383 OA
ENDBRANCH   1   2
BRANCH   1   7
HETATM    7  C8  UNL     1     -35.520  14.207  -3.860  1.00 20.00     0.067 C 
BRANCH   7   8
HETATM    8  C2  UNL     1     -34.432  15.135  -3.362  1.00 20.00    -0.091 C 
HETATM    9  C1  UNL     1     -33.238  15.206  -3.972  1.00 20.00     0.014 C 
HETATM   10  C7  UNL     1     -34.759  16.003  -2.182  1.00 20.00     0.042 C 
ENDBRANCH   7   8
ENDBRANCH   1   7
BRANCH   1  11
HETATM   11  O11 UNL     1     -37.939  14.036  -3.921  1.00 20.00    -0.393 OA
HETATM   12  H27 UNL     1     -38.442  13.995  -4.749  1.00 20.00     0.210 HD
ENDBRANCH   1  11
TORSDOF 4
ENDMDL
MODEL 5
REMARK VINA RESULT:      -4.2     18.181     19.500
REMARK  4 active torsions:
REMARK  status: ('A' for Active; 'I' for Inactive)
REMARK    1  A    between atoms: C2_2  and  C8_8 
REMARK    2  A    between atoms: C6_6  and  C9_9 
REMARK    3  A    between atoms: C8_8  and  C9_9 
REMARK    4  A    between atoms: C9_9  and  O11_11 
ROOT
HETATM    1  C9  UNL     1     -22.991  17.122  11.278  1.00 20.00     0.151 C 
ENDROOT
BRANCH   1   2
HETATM    2  C6  UNL     1     -23.311  17.239   9.801  1.00 20.00     0.150 C 
HETATM    3  C4  UNL     1     -23.367  18.673   9.304  1.00 20.00     0.036 C 
HETATM    4  C3  UNL     1     -23.041  18.497   7.842  1.00 20.00     0.029 C 
HETATM    5  C5  UNL     1     -21.995  17.402   7.884  1.00 20.00     0.168 C 
HETATM    6  O10 UNL     1     -22.290  16.587   9.028  1.00 20.00    -0.383 OA
ENDBRANCH   1   2
BRANCH   1   7
HETATM    7  C8  UNL     1     -23.827  18.114  12.099  1.00 20.00     0.067 C 
BRANCH   7   8
HETATM    8  C2  UNL     1     -25.294  17.749  12.175  1.00 20.00    -0.091 C 
HETATM    9  C1  UNL     1     -26.255  18.681  12.070  1.00 20.00     0.014 C 
HETATM   10  C7  UNL     1     -25.631  16.295  12.332  1.00 20.00     0.042 C 
ENDBRANCH   7   8
ENDBRANCH   1   7
BRANCH   1  11
HETATM   11  O11 UNL     1     -21.603  17.409  11.436  1.00 20.00    -0.393 OA
HETATM   12  H27 UNL     1     -21.395  18.115  10.804  1.00 20.00     0.210 HD
ENDBRANCH   1  11
TORSDOF 4
ENDMDL
MODEL 6
REMARK VINA RESULT:      -4.2      1.798      2.819
REMARK  4 active torsions:
REMARK  status: ('A' for Active; 'I' for Inactive)
REMARK    1  A    between atoms: C2_2  and  C8_8 
REMARK    2  A    between atoms: C6_6  and  C9_9 
REMARK    3  A    between atoms: C8_8  and  C9_9 
REMARK    4  A    between atoms: C9_9  and  O11_11 
ROOT
HETATM    1  C9  UNL     1     -33.296  15.069  -3.929  1.00 20.00     0.151 C 
ENDROOT
BRANCH   1   2
HETATM    2  C6  UNL     1     -34.491  14.698  -4.784  1.00 20.00     0.150 C 
HETATM    3  C4  UNL     1     -35.482  13.788  -4.078  1.00 20.00     0.036 C 
HETATM    4  C3  UNL     1     -36.761  14.111  -4.811  1.00 20.00     0.029 C 
HETATM    5  C5  UNL     1     -36.625  15.602  -5.034  1.00 20.00     0.168 C 
HETATM    6  O10 UNL     1     -35.222  15.883  -5.142  1.00 20.00    -0.383 OA
ENDBRANCH   1   2
BRANCH   1   7
HETATM    7  C8  UNL     1     -33.238  16.586  -3.699  1.00 20.00     0.067 C 
BRANCH   7   8
HETATM    8  C2  UNL     1     -33.510  16.990  -2.266  1.00 20.00    -0.091 C 
HETATM    9  C1  UNL     1     -32.650  17.759  -1.578  1.00 20.00     0.014 C 
HETATM   10  C7  UNL     1     -34.802  16.529  -1.658  1.00 20.00     0.042 C 
ENDBRANCH   7   8
ENDBRANCH   1   7
BRANCH   1  11
HETATM   11  O11 UNL     1     -32.127  14.638  -4.623  1.00 20.00    -0.393 OA
HETATM   12  H27 UNL     1     -31.369  14.932  -4.094  1.00 20.00     0.210 HD
ENDBRANCH   1  11
TORSDOF 4
ENDMDL
MODEL 7
REMARK VINA RESULT:      -4.1      3.495      5.805
REMARK  4 active torsions:
REMARK  status: ('A' for Active; 'I' for Inactive)
REMARK    1  A    between atoms: C2_2  and  C8_8 
REMARK    2  A    between atoms: C6_6  and  C9_9 
REMARK    3  A    between atoms: C8_8  and  C9_9 
REMARK    4  A    between atoms: C9_9  and  O11_11 
ROOT
HETATM    1  C9  UNL     1     -33.299  17.993  -3.041  1.00 20.00     0.151 C 
ENDROOT
BRANCH   1   2
HETATM    2  C6  UNL     1     -32.903  18.754  -1.791  1.00 20.00     0.150 C 
HETATM    3  C4  UNL     1     -33.475  18.164  -0.514  1.00 20.00     0.036 C 
HETATM    4  C3  UNL     1     -32.472  18.634   0.510  1.00 20.00     0.029 C 
HETATM    5  C5  UNL     1     -31.169  18.515  -0.252  1.00 20.00     0.168 C 
HETATM    6  O10 UNL     1     -31.473  18.729  -1.638  1.00 20.00    -0.383 OA
ENDBRANCH   1   2
BRANCH   1   7
HETATM    7  C8  UNL     1     -32.938  16.506  -2.912  1.00 20.00     0.067 C 
BRANCH   7   8
HETATM    8  C2  UNL     1     -34.098  15.577  -3.197  1.00 20.00    -0.091 C 
HETATM    9  C1  UNL     1     -35.286  15.730  -2.590  1.00 20.00     0.014 C 
HETATM   10  C7  UNL     1     -33.877  14.499  -4.219  1.00 20.00     0.042 C 
ENDBRANCH   7   8
ENDBRANCH   1   7
BRANCH   1  11
HETATM   11  O11 UNL     1     -32.590  18.573  -4.134  1.00 20.00    -0.393 OA
HETATM   12  H27 UNL     1     -31.980  17.892  -4.458  1.00 20.00     0.210 HD
ENDBRANCH   1  11
TORSDOF 4
ENDMDL
MODEL 8
REMARK VINA RESULT:      -4.0     10.238     12.067
REMARK  4 active torsions:
REMARK  status: ('A' for Active; 'I' for Inactive)
REMARK    1  A    between atoms: C2_2  and  C8_8 
REMARK    2  A    between atoms: C6_6  and  C9_9 
REMARK    3  A    between atoms: C8_8  and  C9_9 
REMARK    4  A    between atoms: C9_9  and  O11_11 
ROOT
HETATM    1  C9  UNL     1     -32.700   7.503   3.437  1.00 20.00     0.151 C 
ENDROOT
BRANCH   1   2
HETATM    2  C6  UNL     1     -33.226   6.298   4.192  1.00 20.00     0.150 C 
HETATM    3  C4  UNL     1     -33.896   6.653   5.508  1.00 20.00     0.036 C 
HETATM    4  C3  UNL     1     -34.837   5.489   5.690  1.00 20.00     0.029 C 
HETATM    5  C5  UNL     1     -35.299   5.237   4.270  1.00 20.00     0.168 C 
HETATM    6  O10 UNL     1     -34.223   5.627   3.404  1.00 20.00    -0.383 OA
ENDBRANCH   1   2
BRANCH   1   7
HETATM    7  C8  UNL     1     -32.532   7.182   1.945  1.00 20.00     0.067 C 
BRANCH   7   8
HETATM    8  C2  UNL     1     -32.915   8.329   1.034  1.00 20.00    -0.091 C 
HETATM    9  C1  UNL     1     -33.033   9.584   1.498  1.00 20.00     0.014 C 
HETATM   10  C7  UNL     1     -33.118   8.011  -0.418  1.00 20.00     0.042 C 
ENDBRANCH   7   8
ENDBRANCH   1   7
BRANCH   1  11
HETATM   11  O11 UNL     1     -31.438   7.844   4.007  1.00 20.00    -0.393 OA
HETATM   12  H27 UNL     1     -31.128   7.056   4.479  1.00 20.00     0.210 HD
ENDBRANCH   1  11
TORSDOF 4
ENDMDL
MODEL 9
REMARK VINA RESULT:      -4.0      1.472      3.639
REMARK  4 active torsions:
REMARK  status: ('A' for Active; 'I' for Inactive)
REMARK    1  A    between atoms: C2_2  and  C8_8 
REMARK    2  A    between atoms: C6_6  and  C9_9 
REMARK    3  A    between atoms: C8_8  and  C9_9 
REMARK    4  A    between atoms: C9_9  and  O11_11 
ROOT
HETATM    1  C9  UNL     1     -35.828  13.910  -4.553  1.00 20.00     0.151 C 
ENDROOT
BRANCH   1   2
HETATM    2  C6  UNL     1     -34.678  14.388  -3.690  1.00 20.00     0.150 C 
HETATM    3  C4  UNL     1     -33.687  15.268  -4.432  1.00 20.00     0.036 C 
HETATM    4  C3  UNL     1     -33.103  16.081  -3.304  1.00 20.00     0.029 C 
HETATM    5  C5  UNL     1     -34.315  16.312  -2.425  1.00 20.00     0.168 C 
HETATM    6  O10 UNL     1     -35.181  15.181  -2.602  1.00 20.00    -0.383 OA
ENDBRANCH   1   2
BRANCH   1   7
HETATM    7  C8  UNL     1     -37.108  14.699  -4.244  1.00 20.00     0.067 C 
BRANCH   7   8
HETATM    8  C2  UNL     1     -37.266  15.946  -5.087  1.00 20.00    -0.091 C 
HETATM    9  C1  UNL     1     -36.857  15.985  -6.366  1.00 20.00     0.014 C 
HETATM   10  C7  UNL     1     -37.938  17.125  -4.446  1.00 20.00     0.042 C 
ENDBRANCH   7   8
ENDBRANCH   1   7
BRANCH   1  11
HETATM   11  O11 UNL     1     -36.028  12.527  -4.267  1.00 20.00    -0.393 OA
HETATM   12  H27 UNL     1     -36.880  12.285  -4.662  1.00 20.00     0.210 HD
ENDBRANCH   1  11
TORSDOF 4
ENDMDL
