MODEL 1
REMARK VINA RESULT:      -4.6      0.000      0.000
REMARK  5 active torsions:
REMARK  status: ('A' for Active; 'I' for Inactive)
REMARK    1  A    between atoms: C2_2  and  C6_6 
REMARK    2  A    between atoms: C6_6  and  C8_8 
REMARK    3  A    between atoms: C7_7  and  C8_8 
REMARK    4  A    between atoms: C7_7  and  C9_9 
REMARK    5  A    between atoms: C9_9  and  O10_10 
ROOT
HETATM    1  C4  UNL     1     -37.385  14.760  -4.304  1.00 20.00     0.010 C 
HETATM    2  C8  UNL     1     -35.936  15.071  -4.697  1.00 20.00    -0.012 C 
ENDROOT
BRANCH   2   3
HETATM    3  C6  UNL     1     -34.998  14.617  -3.551  1.00 20.00     0.037 C 
BRANCH   3   4
HETATM    4  C2  UNL     1     -34.318  15.740  -2.800  1.00 20.00    -0.093 C 
HETATM    5  C1  UNL     1     -33.105  16.190  -3.157  1.00 20.00     0.014 C 
HETATM    6  C3  UNL     1     -35.075  16.356  -1.658  1.00 20.00     0.042 C 
ENDBRANCH   3   4
ENDBRANCH   2   3
BRANCH   2   7
HETATM    7  C7  UNL     1     -35.549  14.402  -6.038  1.00 20.00     0.035 C 
BRANCH   7   8
HETATM    8  C9  UNL     1     -34.473  15.146  -6.838  1.00 20.00     0.114 C 
HETATM    9  C5  UNL     1     -34.531  16.646  -6.569  1.00 20.00     0.039 C 
BRANCH   8  10
HETATM   10  O10 UNL     1     -33.188  14.662  -6.462  1.00 20.00    -0.396 OA
HETATM   11  H28 UNL     1     -32.841  14.172  -7.224  1.00 20.00     0.210 HD
ENDBRANCH   8  10
ENDBRANCH   7   8
ENDBRANCH   2   7
TORSDOF 5
ENDMDL
MODEL 2
REMARK VINA RESULT:      -4.6     10.756     11.820
REMARK  5 active torsions:
REMARK  status: ('A' for Active; 'I' for Inactive)
REMARK    1  A    between atoms: C2_2  and  C6_6 
REMARK    2  A    between atoms: C6_6  and  C8_8 
REMARK    3  A    between atoms: C7_7  and  C8_8 
REMARK    4  A    between atoms: C7_7  and  C9_9 
REMARK    5  A    between atoms: C9_9  and  O10_10 
ROOT
HETATM    1  C4  UNL     1     -32.955   4.965   2.525  1.00 20.00     0.010 C 
HETATM    2  C8  UNL     1     -33.374   6.410   2.815  1.00 20.00    -0.012 C 
ENDROOT
BRANCH   2   3
HETATM    3  C6  UNL     1     -33.565   6.580   4.342  1.00 20.00     0.037 C 
BRANCH   3   4
HETATM    4  C2  UNL     1     -34.643   5.711   4.952  1.00 20.00    -0.093 C 
HETATM    5  C1  UNL     1     -34.579   5.307   6.230  1.00 20.00     0.014 C 
HETATM    6  C3  UNL     1     -35.808   5.350   4.075  1.00 20.00     0.042 C 
ENDBRANCH   3   4
ENDBRANCH   2   3
BRANCH   2   7
HETATM    7  C7  UNL     1     -32.348   7.428   2.261  1.00 20.00     0.035 C 
BRANCH   7   8
HETATM    8  C9  UNL     1     -32.662   7.954   0.854  1.00 20.00     0.114 C 
HETATM    9  C5  UNL     1     -33.048   9.428   0.896  1.00 20.00     0.039 C 
BRANCH   8  10
HETATM   10  O10 UNL     1     -31.512   7.803   0.029  1.00 20.00    -0.396 OA
HETATM   11  H28 UNL     1     -31.833   7.711  -0.882  1.00 20.00     0.210 HD
ENDBRANCH   8  10
ENDBRANCH   7   8
ENDBRANCH   2   7
TORSDOF 5
ENDMDL
MODEL 3
REMARK VINA RESULT:      -4.6      0.063      1.111
REMARK  5 active torsions:
REMARK  status: ('A' for Active; 'I' for Inactive)
REMARK    1  A    between atoms: C2_2  and  C6_6 
REMARK    2  A    between atoms: C6_6  and  C8_8 
REMARK    3  A    between atoms: C7_7  and  C8_8 
REMARK    4  A    between atoms: C7_7  and  C9_9 
REMARK    5  A    between atoms: C9_9  and  O10_10 
ROOT
HETATM    1  C4  UNL     1     -37.402  14.723  -4.285  1.00 20.00     0.010 C 
HETATM    2  C8  UNL     1     -35.957  15.056  -4.675  1.00 20.00    -0.012 C 
ENDROOT
BRANCH   2   3
HETATM    3  C6  UNL     1     -35.018  14.638  -3.517  1.00 20.00     0.037 C 
BRANCH   3   4
HETATM    4  C2  UNL     1     -34.420  15.785  -2.733  1.00 20.00    -0.093 C 
HETATM    5  C1  UNL     1     -35.057  16.324  -1.682  1.00 20.00     0.014 C 
HETATM    6  C3  UNL     1     -33.065  16.272  -3.160  1.00 20.00     0.042 C 
ENDBRANCH   3   4
ENDBRANCH   2   3
BRANCH   2   7
HETATM    7  C7  UNL     1     -35.550  14.373  -6.004  1.00 20.00     0.035 C 
BRANCH   7   8
HETATM    8  C9  UNL     1     -34.476  15.120  -6.805  1.00 20.00     0.114 C 
HETATM    9  C5  UNL     1     -34.549  16.621  -6.548  1.00 20.00     0.039 C 
BRANCH   8  10
HETATM   10  O10 UNL     1     -33.189  14.650  -6.417  1.00 20.00    -0.396 OA
HETATM   11  H28 UNL     1     -33.250  13.683  -6.368  1.00 20.00     0.210 HD
ENDBRANCH   8  10
ENDBRANCH   7   8
ENDBRANCH   2   7
TORSDOF 5
ENDMDL
MODEL 4
REMARK VINA RESULT:      -4.5      1.868      2.964
REMARK  5 active torsions:
REMARK  status: ('A' for Active; 'I' for Inactive)
REMARK    1  A    between atoms: C2_2  and  C6_6 
REMARK    2  A    between atoms: C6_6  and  C8_8 
REMARK    3  A    between atoms: C7_7  and  C8_8 
REMARK    4  A    between atoms: C7_7  and  C9_9 
REMARK    5  A    between atoms: C9_9  and  O10_10 
ROOT
HETATM    1  C4  UNL     1     -35.234  16.064  -2.043  1.00 20.00     0.010 C 
HETATM    2  C8  UNL     1     -34.415  15.850  -3.322  1.00 20.00    -0.012 C 
ENDROOT
BRANCH   2   3
HETATM    3  C6  UNL     1     -32.959  16.310  -3.067  1.00 20.00     0.037 C 
BRANCH   3   4
HETATM    4  C2  UNL     1     -32.806  17.767  -2.689  1.00 20.00    -0.093 C 
HETATM    5  C1  UNL     1     -32.279  18.135  -1.511  1.00 20.00     0.014 C 
HETATM    6  C3  UNL     1     -33.237  18.786  -3.705  1.00 20.00     0.042 C 
ENDBRANCH   3   4
ENDBRANCH   2   3
BRANCH   2   7
HETATM    7  C7  UNL     1     -34.464  14.376  -3.794  1.00 20.00     0.035 C 
BRANCH   7   8
HETATM    8  C9  UNL     1     -35.782  13.960  -4.459  1.00 20.00     0.114 C 
HETATM    9  C5  UNL     1     -35.873  14.507  -5.879  1.00 20.00     0.039 C 
BRANCH   8  10
HETATM   10  O10 UNL     1     -35.854  12.538  -4.509  1.00 20.00    -0.396 OA
HETATM   11  H28 UNL     1     -36.229  12.309  -5.374  1.00 20.00     0.210 HD
ENDBRANCH   8  10
ENDBRANCH   7   8
ENDBRANCH   2   7
TORSDOF 5
ENDMDL
MODEL 5
REMARK VINA RESULT:      -4.4      1.707      2.314
REMARK  5 active torsions:
REMARK  status: ('A' for Active; 'I' for Inactive)
REMARK    1  A    between atoms: C2_2  and  C6_6 
REMARK    2  A    between atoms: C6_6  and  C8_8 
REMARK    3  A    between atoms: C7_7  and  C8_8 
REMARK    4  A    between atoms: C7_7  and  C9_9 
REMARK    5  A    between atoms: C9_9  and  O10_10 
ROOT
HETATM    1  C4  UNL     1     -36.969  17.184  -3.438  1.00 20.00     0.010 C 
HETATM    2  C8  UNL     1     -36.111  15.947  -3.729  1.00 20.00    -0.012 C 
ENDROOT
BRANCH   2   3
HETATM    3  C6  UNL     1     -35.105  15.751  -2.568  1.00 20.00     0.037 C 
BRANCH   3   4
HETATM    4  C2  UNL     1     -33.665  16.063  -2.911  1.00 20.00    -0.093 C 
HETATM    5  C1  UNL     1     -32.994  15.356  -3.833  1.00 20.00     0.014 C 
HETATM    6  C3  UNL     1     -33.029  17.224  -2.201  1.00 20.00     0.042 C 
ENDBRANCH   3   4
ENDBRANCH   2   3
BRANCH   2   7
HETATM    7  C7  UNL     1     -36.979  14.683  -3.939  1.00 20.00     0.035 C 
BRANCH   7   8
HETATM    8  C9  UNL     1     -36.478  13.737  -5.038  1.00 20.00     0.114 C 
HETATM    9  C5  UNL     1     -35.661  14.493  -6.079  1.00 20.00     0.039 C 
BRANCH   8  10
HETATM   10  O10 UNL     1     -35.658  12.731  -4.452  1.00 20.00    -0.396 OA
HETATM   11  H28 UNL     1     -35.397  12.133  -5.171  1.00 20.00     0.210 HD
ENDBRANCH   8  10
ENDBRANCH   7   8
ENDBRANCH   2   7
TORSDOF 5
ENDMDL
MODEL 6
REMARK VINA RESULT:      -4.3      2.088      3.137
REMARK  5 active torsions:
REMARK  status: ('A' for Active; 'I' for Inactive)
REMARK    1  A    between atoms: C2_2  and  C6_6 
REMARK    2  A    between atoms: C6_6  and  C8_8 
REMARK    3  A    between atoms: C7_7  and  C8_8 
REMARK    4  A    between atoms: C7_7  and  C9_9 
REMARK    5  A    between atoms: C9_9  and  O10_10 
ROOT
HETATM    1  C4  UNL     1     -32.912  14.391  -4.379  1.00 20.00     0.010 C 
HETATM    2  C8  UNL     1     -34.206  14.976  -3.802  1.00 20.00    -0.012 C 
ENDROOT
BRANCH   2   3
HETATM    3  C6  UNL     1     -34.006  16.492  -3.560  1.00 20.00     0.037 C 
BRANCH   3   4
HETATM    4  C2  UNL     1     -34.070  16.922  -2.111  1.00 20.00    -0.093 C 
HETATM    5  C1  UNL     1     -35.112  16.599  -1.329  1.00 20.00     0.014 C 
HETATM    6  C3  UNL     1     -32.899  17.694  -1.573  1.00 20.00     0.042 C 
ENDBRANCH   3   4
ENDBRANCH   2   3
BRANCH   2   7
HETATM    7  C7  UNL     1     -35.419  14.710  -4.727  1.00 20.00     0.035 C 
BRANCH   7   8
HETATM    8  C9  UNL     1     -36.780  14.722  -4.019  1.00 20.00     0.114 C 
HETATM    9  C5  UNL     1     -37.551  15.997  -4.341  1.00 20.00     0.039 C 
BRANCH   8  10
HETATM   10  O10 UNL     1     -37.544  13.601  -4.451  1.00 20.00    -0.396 OA
HETATM   11  H28 UNL     1     -37.195  12.829  -3.979  1.00 20.00     0.210 HD
ENDBRANCH   8  10
ENDBRANCH   7   8
ENDBRANCH   2   7
TORSDOF 5
ENDMDL
MODEL 7
REMARK VINA RESULT:      -4.3     11.683     12.933
REMARK  5 active torsions:
REMARK  status: ('A' for Active; 'I' for Inactive)
REMARK    1  A    between atoms: C2_2  and  C6_6 
REMARK    2  A    between atoms: C6_6  and  C8_8 
REMARK    3  A    between atoms: C7_7  and  C8_8 
REMARK    4  A    between atoms: C7_7  and  C9_9 
REMARK    5  A    between atoms: C9_9  and  O10_10 
ROOT
HETATM    1  C4  UNL     1     -33.195   3.952   2.362  1.00 20.00     0.010 C 
HETATM    2  C8  UNL     1     -33.432   5.294   3.065  1.00 20.00    -0.012 C 
ENDROOT
BRANCH   2   3
HETATM    3  C6  UNL     1     -33.594   6.400   1.994  1.00 20.00     0.037 C 
BRANCH   3   4
HETATM    4  C2  UNL     1     -32.570   7.511   2.061  1.00 20.00    -0.093 C 
HETATM    5  C1  UNL     1     -31.711   7.611   3.087  1.00 20.00     0.014 C 
HETATM    6  C3  UNL     1     -32.531   8.476   0.911  1.00 20.00     0.042 C 
ENDBRANCH   3   4
ENDBRANCH   2   3
BRANCH   2   7
HETATM    7  C7  UNL     1     -34.659   5.239   4.007  1.00 20.00     0.035 C 
BRANCH   7   8
HETATM    8  C9  UNL     1     -34.328   5.363   5.500  1.00 20.00     0.114 C 
HETATM    9  C5  UNL     1     -34.010   6.807   5.870  1.00 20.00     0.039 C 
BRANCH   8  10
HETATM   10  O10 UNL     1     -35.445   4.927   6.267  1.00 20.00    -0.396 OA
HETATM   11  H28 UNL     1     -35.897   5.727   6.579  1.00 20.00     0.210 HD
ENDBRANCH   8  10
ENDBRANCH   7   8
ENDBRANCH   2   7
TORSDOF 5
ENDMDL
MODEL 8
REMARK VINA RESULT:      -4.2      1.867      2.946
REMARK  5 active torsions:
REMARK  status: ('A' for Active; 'I' for Inactive)
REMARK    1  A    between atoms: C2_2  and  C6_6 
REMARK    2  A    between atoms: C6_6  and  C8_8 
REMARK    3  A    between atoms: C7_7  and  C8_8 
REMARK    4  A    between atoms: C7_7  and  C9_9 
REMARK    5  A    between atoms: C9_9  and  O10_10 
ROOT
HETATM    1  C4  UNL     1     -34.180  16.853  -4.471  1.00 20.00     0.010 C 
HETATM    2  C8  UNL     1     -34.010  15.713  -3.460  1.00 20.00    -0.012 C 
ENDROOT
BRANCH   2   3
HETATM    3  C6  UNL     1     -35.054  15.886  -2.329  1.00 20.00     0.037 C 
BRANCH   3   4
HETATM    4  C2  UNL     1     -34.734  16.971  -1.325  1.00 20.00    -0.093 C 
HETATM    5  C1  UNL     1     -35.637  17.378  -0.419  1.00 20.00     0.014 C 
HETATM    6  C3  UNL     1     -33.348  17.549  -1.361  1.00 20.00     0.042 C 
ENDBRANCH   3   4
ENDBRANCH   2   3
BRANCH   2   7
HETATM    7  C7  UNL     1     -34.137  14.325  -4.134  1.00 20.00     0.035 C 
BRANCH   7   8
HETATM    8  C9  UNL     1     -35.579  13.848  -4.353  1.00 20.00     0.114 C 
HETATM    9  C5  UNL     1     -36.071  14.220  -5.747  1.00 20.00     0.039 C 
BRANCH   8  10
HETATM   10  O10 UNL     1     -35.632  12.433  -4.208  1.00 20.00    -0.396 OA
HETATM   11  H28 UNL     1     -35.998  12.257  -3.327  1.00 20.00     0.210 HD
ENDBRANCH   8  10
ENDBRANCH   7   8
ENDBRANCH   2   7
TORSDOF 5
ENDMDL
MODEL 9
REMARK VINA RESULT:      -4.2     10.539     11.843
REMARK  5 active torsions:
REMARK  status: ('A' for Active; 'I' for Inactive)
REMARK    1  A    between atoms: C2_2  and  C6_6 
REMARK    2  A    between atoms: C6_6  and  C8_8 
REMARK    3  A    between atoms: C7_7  and  C8_8 
REMARK    4  A    between atoms: C7_7  and  C9_9 
REMARK    5  A    between atoms: C9_9  and  O10_10 
ROOT
HETATM    1  C4  UNL     1     -32.178   7.384   3.984  1.00 20.00     0.010 C 
HETATM    2  C8  UNL     1     -33.035   7.036   2.762  1.00 20.00    -0.012 C 
ENDROOT
BRANCH   2   3
HETATM    3  C6  UNL     1     -32.275   7.459   1.480  1.00 20.00     0.037 C 
BRANCH   3   4
HETATM    4  C2  UNL     1     -32.902   8.603   0.714  1.00 20.00    -0.093 C 
HETATM    5  C1  UNL     1     -33.355   8.444  -0.539  1.00 20.00     0.014 C 
HETATM    6  C3  UNL     1     -33.030   9.918   1.430  1.00 20.00     0.042 C 
ENDBRANCH   3   4
ENDBRANCH   2   3
BRANCH   2   7
HETATM    7  C7  UNL     1     -33.401   5.533   2.727  1.00 20.00     0.035 C 
BRANCH   7   8
HETATM    8  C9  UNL     1     -34.024   4.994   4.021  1.00 20.00     0.114 C 
HETATM    9  C5  UNL     1     -35.387   5.627   4.276  1.00 20.00     0.039 C 
BRANCH   8  10
HETATM   10  O10 UNL     1     -34.185   3.584   3.914  1.00 20.00    -0.396 OA
HETATM   11  H28 UNL     1     -35.139   3.411   3.936  1.00 20.00     0.210 HD
ENDBRANCH   8  10
ENDBRANCH   7   8
ENDBRANCH   2   7
TORSDOF 5
ENDMDL
