MODEL 1
REMARK VINA RESULT:      -4.8      0.000      0.000
REMARK  2 active torsions:
REMARK  status: ('A' for Active; 'I' for Inactive)
REMARK    1  A    between atoms: C2_2  and  C3_3 
REMARK    2  A    between atoms: C3_3  and  C5_5 
ROOT
HETATM    1  C3  UNL     1     -33.269   5.802   2.927  1.00 20.00     0.159 C 
HETATM    2  O9  UNL     1     -32.732   4.735   2.625  1.00 20.00    -0.292 OA
ENDROOT
BRANCH   1   3
HETATM    3  C2  UNL     1     -32.554   7.098   2.674  1.00 20.00    -0.025 C 
HETATM    4  C1  UNL     1     -31.682   7.597   3.559  1.00 20.00     0.022 C 
HETATM    5  C7  UNL     1     -32.868   7.797   1.385  1.00 20.00     0.051 C 
ENDBRANCH   1   3
BRANCH   1   6
HETATM    6  C5  UNL     1     -34.642   5.815   3.549  1.00 20.00     0.064 A 
HETATM    7  C4  UNL     1     -34.984   4.731   4.510  1.00 20.00     0.018 A 
HETATM    8  C6  UNL     1     -34.792   6.141   4.995  1.00 20.00    -0.006 A 
HETATM    9  C8  UNL     1     -33.644   6.474   5.886  1.00 20.00     0.011 C 
ENDBRANCH   1   6
TORSDOF 2
ENDMDL
MODEL 2
REMARK VINA RESULT:      -4.5     11.153     12.342
REMARK  2 active torsions:
REMARK  status: ('A' for Active; 'I' for Inactive)
REMARK    1  A    between atoms: C2_2  and  C3_3 
REMARK    2  A    between atoms: C3_3  and  C5_5 
ROOT
HETATM    1  C3  UNL     1     -34.838  14.192  -4.093  1.00 20.00     0.159 C 
HETATM    2  O9  UNL     1     -34.358  13.069  -3.926  1.00 20.00    -0.292 OA
ENDROOT
BRANCH   1   3
HETATM    3  C2  UNL     1     -34.393  15.334  -3.227  1.00 20.00    -0.025 C 
HETATM    4  C1  UNL     1     -35.173  15.815  -2.250  1.00 20.00     0.022 C 
HETATM    5  C7  UNL     1     -33.035  15.903  -3.513  1.00 20.00     0.051 C 
ENDBRANCH   1   3
BRANCH   1   6
HETATM    6  C5  UNL     1     -35.872  14.426  -5.166  1.00 20.00     0.064 A 
HETATM    7  C4  UNL     1     -36.107  15.824  -5.618  1.00 20.00     0.018 A 
HETATM    8  C6  UNL     1     -35.437  14.835  -6.530  1.00 20.00    -0.006 A 
HETATM    9  C8  UNL     1     -34.010  15.024  -6.917  1.00 20.00     0.011 C 
ENDBRANCH   1   6
TORSDOF 2
ENDMDL
MODEL 3
REMARK VINA RESULT:      -4.4     11.390     12.313
REMARK  2 active torsions:
REMARK  status: ('A' for Active; 'I' for Inactive)
REMARK    1  A    between atoms: C2_2  and  C3_3 
REMARK    2  A    between atoms: C3_3  and  C5_5 
ROOT
HETATM    1  C3  UNL     1     -33.933  14.506  -4.526  1.00 20.00     0.159 C 
HETATM    2  O9  UNL     1     -34.013  13.340  -4.135  1.00 20.00    -0.292 OA
ENDROOT
BRANCH   1   3
HETATM    3  C2  UNL     1     -34.636  14.925  -5.784  1.00 20.00    -0.025 C 
HETATM    4  C1  UNL     1     -33.966  15.107  -6.930  1.00 20.00     0.022 C 
HETATM    5  C7  UNL     1     -36.119  15.125  -5.688  1.00 20.00     0.051 C 
ENDBRANCH   1   3
BRANCH   1   6
HETATM    6  C5  UNL     1     -33.131  15.517  -3.745  1.00 20.00     0.064 A 
HETATM    7  C4  UNL     1     -33.501  16.952  -3.873  1.00 20.00     0.018 A 
HETATM    8  C6  UNL     1     -33.756  16.216  -2.588  1.00 20.00    -0.006 A 
HETATM    9  C8  UNL     1     -35.154  15.968  -2.134  1.00 20.00     0.011 C 
ENDBRANCH   1   6
TORSDOF 2
ENDMDL
MODEL 4
REMARK VINA RESULT:      -4.3     15.887     16.466
REMARK  2 active torsions:
REMARK  status: ('A' for Active; 'I' for Inactive)
REMARK    1  A    between atoms: C2_2  and  C3_3 
REMARK    2  A    between atoms: C3_3  and  C5_5 
ROOT
HETATM    1  C3  UNL     1     -23.079  17.389  10.370  1.00 20.00     0.159 C 
HETATM    2  O9  UNL     1     -22.223  17.598  11.232  1.00 20.00    -0.292 OA
ENDROOT
BRANCH   1   3
HETATM    3  C2  UNL     1     -22.960  18.039   9.023  1.00 20.00    -0.025 C 
HETATM    4  C1  UNL     1     -22.148  17.544   8.079  1.00 20.00     0.022 C 
HETATM    5  C7  UNL     1     -23.795  19.263   8.793  1.00 20.00     0.051 C 
ENDBRANCH   1   3
BRANCH   1   6
HETATM    6  C5  UNL     1     -24.247  16.482  10.662  1.00 20.00     0.064 A 
HETATM    7  C4  UNL     1     -24.325  15.853  12.009  1.00 20.00     0.018 A 
HETATM    8  C6  UNL     1     -25.302  16.925  11.616  1.00 20.00    -0.006 A 
HETATM    9  C8  UNL     1     -25.283  18.244  12.309  1.00 20.00     0.011 C 
ENDBRANCH   1   6
TORSDOF 2
ENDMDL
MODEL 5
REMARK VINA RESULT:      -4.2      1.652      3.869
REMARK  2 active torsions:
REMARK  status: ('A' for Active; 'I' for Inactive)
REMARK    1  A    between atoms: C2_2  and  C3_3 
REMARK    2  A    between atoms: C3_3  and  C5_5 
ROOT
HETATM    1  C3  UNL     1     -33.780   6.652   4.662  1.00 20.00     0.159 C 
HETATM    2  O9  UNL     1     -33.124   7.134   5.586  1.00 20.00    -0.292 OA
ENDROOT
BRANCH   1   3
HETATM    3  C2  UNL     1     -34.850   5.639   4.951  1.00 20.00    -0.025 C 
HETATM    4  C1  UNL     1     -35.845   5.408   4.084  1.00 20.00     0.022 C 
HETATM    5  C7  UNL     1     -34.742   4.903   6.253  1.00 20.00     0.051 C 
ENDBRANCH   1   3
BRANCH   1   6
HETATM    6  C5  UNL     1     -33.515   7.074   3.238  1.00 20.00     0.064 A 
HETATM    7  C4  UNL     1     -32.104   7.096   2.767  1.00 20.00     0.018 A 
HETATM    8  C6  UNL     1     -33.061   6.062   2.244  1.00 20.00    -0.006 A 
HETATM    9  C8  UNL     1     -32.856   4.622   2.570  1.00 20.00     0.011 C 
ENDBRANCH   1   6
TORSDOF 2
ENDMDL
MODEL 6
REMARK VINA RESULT:      -4.1      1.536      3.526
REMARK  2 active torsions:
REMARK  status: ('A' for Active; 'I' for Inactive)
REMARK    1  A    between atoms: C2_2  and  C3_3 
REMARK    2  A    between atoms: C3_3  and  C5_5 
ROOT
HETATM    1  C3  UNL     1     -34.720   5.387   4.159  1.00 20.00     0.159 C 
HETATM    2  O9  UNL     1     -35.797   5.649   3.619  1.00 20.00    -0.292 OA
ENDROOT
BRANCH   1   3
HETATM    3  C2  UNL     1     -34.507   5.719   5.607  1.00 20.00    -0.025 C 
HETATM    4  C1  UNL     1     -34.923   4.898   6.580  1.00 20.00     0.022 C 
HETATM    5  C7  UNL     1     -33.806   7.012   5.903  1.00 20.00     0.051 C 
ENDBRANCH   1   3
BRANCH   1   6
HETATM    6  C5  UNL     1     -33.613   4.734   3.371  1.00 20.00     0.064 A 
HETATM    7  C4  UNL     1     -33.708   4.750   1.886  1.00 20.00     0.018 A 
HETATM    8  C6  UNL     1     -32.669   5.579   2.588  1.00 20.00    -0.006 A 
HETATM    9  C8  UNL     1     -32.744   7.067   2.540  1.00 20.00     0.011 C 
ENDBRANCH   1   6
TORSDOF 2
ENDMDL
MODEL 7
REMARK VINA RESULT:      -4.1     11.265     12.432
REMARK  2 active torsions:
REMARK  status: ('A' for Active; 'I' for Inactive)
REMARK    1  A    between atoms: C2_2  and  C3_3 
REMARK    2  A    between atoms: C3_3  and  C5_5 
ROOT
HETATM    1  C3  UNL     1     -36.002  14.315  -4.655  1.00 20.00     0.159 C 
HETATM    2  O9  UNL     1     -36.930  13.611  -4.252  1.00 20.00    -0.292 OA
ENDROOT
BRANCH   1   3
HETATM    3  C2  UNL     1     -36.177  15.150  -5.891  1.00 20.00    -0.025 C 
HETATM    4  C1  UNL     1     -35.608  14.803  -7.053  1.00 20.00     0.022 C 
HETATM    5  C7  UNL     1     -37.017  16.384  -5.753  1.00 20.00     0.051 C 
ENDBRANCH   1   3
BRANCH   1   6
HETATM    6  C5  UNL     1     -34.690  14.343  -3.913  1.00 20.00     0.064 A 
HETATM    7  C4  UNL     1     -33.776  15.492  -4.153  1.00 20.00     0.018 A 
HETATM    8  C6  UNL     1     -34.477  15.345  -2.832  1.00 20.00    -0.006 A 
HETATM    9  C8  UNL     1     -35.507  16.341  -2.419  1.00 20.00     0.011 C 
ENDBRANCH   1   6
TORSDOF 2
ENDMDL
MODEL 8
REMARK VINA RESULT:      -4.1     11.441     12.309
REMARK  2 active torsions:
REMARK  status: ('A' for Active; 'I' for Inactive)
REMARK    1  A    between atoms: C2_2  and  C3_3 
REMARK    2  A    between atoms: C3_3  and  C5_5 
ROOT
HETATM    1  C3  UNL     1     -34.274  15.068  -4.268  1.00 20.00     0.159 C 
HETATM    2  O9  UNL     1     -33.789  13.936  -4.322  1.00 20.00    -0.292 OA
ENDROOT
BRANCH   1   3
HETATM    3  C2  UNL     1     -34.000  15.945  -3.081  1.00 20.00    -0.025 C 
HETATM    4  C1  UNL     1     -32.859  16.638  -2.973  1.00 20.00     0.022 C 
HETATM    5  C7  UNL     1     -35.069  16.003  -2.030  1.00 20.00     0.051 C 
ENDBRANCH   1   3
BRANCH   1   6
HETATM    6  C5  UNL     1     -35.141  15.579  -5.391  1.00 20.00     0.064 A 
HETATM    7  C4  UNL     1     -35.621  14.601  -6.404  1.00 20.00     0.018 A 
HETATM    8  C6  UNL     1     -36.585  15.216  -5.429  1.00 20.00    -0.006 A 
HETATM    9  C8  UNL     1     -37.247  14.367  -4.398  1.00 20.00     0.011 C 
ENDBRANCH   1   6
TORSDOF 2
ENDMDL
MODEL 9
REMARK VINA RESULT:      -4.0     11.738     12.567
REMARK  2 active torsions:
REMARK  status: ('A' for Active; 'I' for Inactive)
REMARK    1  A    between atoms: C2_2  and  C3_3 
REMARK    2  A    between atoms: C3_3  and  C5_5 
ROOT
HETATM    1  C3  UNL     1     -34.567  15.698  -4.772  1.00 20.00     0.159 C 
HETATM    2  O9  UNL     1     -34.263  16.736  -5.362  1.00 20.00    -0.292 OA
ENDROOT
BRANCH   1   3
HETATM    3  C2  UNL     1     -35.480  14.703  -5.427  1.00 20.00    -0.025 C 
HETATM    4  C1  UNL     1     -35.690  14.715  -6.750  1.00 20.00     0.022 C 
HETATM    5  C7  UNL     1     -36.137  13.701  -4.526  1.00 20.00     0.051 C 
ENDBRANCH   1   3
BRANCH   1   6
HETATM    6  C5  UNL     1     -34.025  15.420  -3.392  1.00 20.00     0.064 A 
HETATM    7  C4  UNL     1     -33.312  16.518  -2.686  1.00 20.00     0.018 A 
HETATM    8  C6  UNL     1     -34.662  16.062  -2.209  1.00 20.00    -0.006 A 
HETATM    9  C8  UNL     1     -35.835  16.977  -2.302  1.00 20.00     0.011 C 
ENDBRANCH   1   6
TORSDOF 2
ENDMDL
