MODEL 1
REMARK VINA RESULT:      -4.4      0.000      0.000
REMARK  2 active torsions:
REMARK  status: ('A' for Active; 'I' for Inactive)
REMARK    1  A    between atoms: C2_2  and  C9_9 
REMARK    2  A    between atoms: C6_6  and  C9_9 
ROOT
HETATM    1  C3  UNL     1     -35.347  15.461  -3.005  1.00 20.00     0.006 C 
HETATM    2  C4  UNL     1     -34.910  14.181  -3.703  1.00 20.00     0.016 C 
HETATM    3  C5  UNL     1     -33.042  15.759  -3.697  1.00 20.00     0.020 C 
HETATM    4  C6  UNL     1     -34.021  16.070  -2.554  1.00 20.00    -0.010 C 
HETATM    5  C7  UNL     1     -33.655  14.586  -4.466  1.00 20.00     0.058 C 
HETATM    6 BR10 UNL     1     -34.138  15.156  -6.276  1.00 20.00    -0.091 Br
ENDROOT
BRANCH   4   7
HETATM    7  C9  UNL     1     -34.125  17.554  -2.242  1.00 20.00     0.037 C 
BRANCH   7   8
HETATM    8  C2  UNL     1     -33.404  17.938  -0.973  1.00 20.00    -0.093 C 
HETATM    9  C1  UNL     1     -34.053  18.043   0.198  1.00 20.00     0.014 C 
HETATM   10  C8  UNL     1     -31.936  18.231  -1.082  1.00 20.00     0.042 C 
ENDBRANCH   7   8
ENDBRANCH   4   7
TORSDOF 2
ENDMDL
MODEL 2
REMARK VINA RESULT:      -4.4      0.062      1.111
REMARK  2 active torsions:
REMARK  status: ('A' for Active; 'I' for Inactive)
REMARK    1  A    between atoms: C2_2  and  C9_9 
REMARK    2  A    between atoms: C6_6  and  C9_9 
ROOT
HETATM    1  C3  UNL     1     -35.328  15.419  -3.020  1.00 20.00     0.006 C 
HETATM    2  C4  UNL     1     -34.878  14.147  -3.727  1.00 20.00     0.016 C 
HETATM    3  C5  UNL     1     -33.037  15.756  -3.738  1.00 20.00     0.020 C 
HETATM    4  C6  UNL     1     -34.008  16.048  -2.583  1.00 20.00    -0.010 C 
HETATM    5  C7  UNL     1     -33.640  14.576  -4.503  1.00 20.00     0.058 C 
HETATM    6 BR10 UNL     1     -34.152  15.142  -6.306  1.00 20.00    -0.091 Br
ENDROOT
BRANCH   4   7
HETATM    7  C9  UNL     1     -34.133  17.530  -2.266  1.00 20.00     0.037 C 
BRANCH   7   8
HETATM    8  C2  UNL     1     -33.351  17.934  -1.040  1.00 20.00    -0.093 C 
HETATM    9  C1  UNL     1     -32.033  18.187  -1.100  1.00 20.00     0.014 C 
HETATM   10  C8  UNL     1     -34.102  18.008   0.257  1.00 20.00     0.042 C 
ENDBRANCH   7   8
ENDBRANCH   4   7
TORSDOF 2
ENDMDL
MODEL 3
REMARK VINA RESULT:      -4.1     10.789     11.864
REMARK  2 active torsions:
REMARK  status: ('A' for Active; 'I' for Inactive)
REMARK    1  A    between atoms: C2_2  and  C9_9 
REMARK    2  A    between atoms: C6_6  and  C9_9 
ROOT
HETATM    1  C3  UNL     1     -32.938   4.885   2.967  1.00 20.00     0.006 C 
HETATM    2  C4  UNL     1     -34.200   4.202   3.474  1.00 20.00     0.016 C 
HETATM    3  C5  UNL     1     -34.524   6.624   3.551  1.00 20.00     0.020 C 
HETATM    4  C6  UNL     1     -33.449   6.251   2.517  1.00 20.00    -0.010 C 
HETATM    5  C7  UNL     1     -34.951   5.308   4.204  1.00 20.00     0.058 C 
HETATM    6 BR10 UNL     1     -34.448   5.309   6.097  1.00 20.00    -0.091 Br
ENDROOT
BRANCH   4   7
HETATM    7  C9  UNL     1     -32.346   7.290   2.398  1.00 20.00     0.037 C 
BRANCH   7   8
HETATM    8  C2  UNL     1     -32.438   8.100   1.128  1.00 20.00    -0.093 C 
HETATM    9  C1  UNL     1     -31.852   7.691  -0.009  1.00 20.00     0.014 C 
HETATM   10  C8  UNL     1     -33.184   9.401   1.199  1.00 20.00     0.042 C 
ENDBRANCH   7   8
ENDBRANCH   4   7
TORSDOF 2
ENDMDL
MODEL 4
REMARK VINA RESULT:      -3.9      2.493      4.739
REMARK  2 active torsions:
REMARK  status: ('A' for Active; 'I' for Inactive)
REMARK    1  A    between atoms: C2_2  and  C9_9 
REMARK    2  A    between atoms: C6_6  and  C9_9 
ROOT
HETATM    1  C3  UNL     1     -34.389  16.595  -1.757  1.00 20.00     0.006 C 
HETATM    2  C4  UNL     1     -34.412  18.033  -1.259  1.00 20.00     0.016 C 
HETATM    3  C5  UNL     1     -32.836  17.863  -3.121  1.00 20.00     0.020 C 
HETATM    4  C6  UNL     1     -33.884  16.741  -3.190  1.00 20.00    -0.010 C 
HETATM    5  C7  UNL     1     -33.146  18.646  -1.843  1.00 20.00     0.058 C 
HETATM    6 BR10 UNL     1     -31.671  18.453  -0.570  1.00 20.00    -0.091 Br
ENDROOT
BRANCH   4   7
HETATM    7  C9  UNL     1     -33.336  15.443  -3.762  1.00 20.00     0.037 C 
BRANCH   7   8
HETATM    8  C2  UNL     1     -34.269  14.802  -4.760  1.00 20.00    -0.093 C 
HETATM    9  C1  UNL     1     -34.129  15.003  -6.081  1.00 20.00     0.014 C 
HETATM   10  C8  UNL     1     -35.381  13.957  -4.212  1.00 20.00     0.042 C 
ENDBRANCH   7   8
ENDBRANCH   4   7
TORSDOF 2
ENDMDL
MODEL 5
REMARK VINA RESULT:      -3.9      2.531      4.704
REMARK  2 active torsions:
REMARK  status: ('A' for Active; 'I' for Inactive)
REMARK    1  A    between atoms: C2_2  and  C9_9 
REMARK    2  A    between atoms: C6_6  and  C9_9 
ROOT
HETATM    1  C3  UNL     1     -33.193  17.826  -2.066  1.00 20.00     0.006 C 
HETATM    2  C4  UNL     1     -33.293  18.106  -0.573  1.00 20.00     0.016 C 
HETATM    3  C5  UNL     1     -35.134  16.638  -1.232  1.00 20.00     0.020 C 
HETATM    4  C6  UNL     1     -33.962  16.517  -2.218  1.00 20.00    -0.010 C 
HETATM    5  C7  UNL     1     -34.720  17.707  -0.218  1.00 20.00     0.058 C 
HETATM    6 BR10 UNL     1     -35.898  19.263  -0.373  1.00 20.00    -0.091 Br
ENDROOT
BRANCH   4   7
HETATM    7  C9  UNL     1     -34.406  16.251  -3.647  1.00 20.00     0.037 C 
BRANCH   7   8
HETATM    8  C2  UNL     1     -34.247  14.805  -4.051  1.00 20.00    -0.093 C 
HETATM    9  C1  UNL     1     -35.286  13.954  -4.034  1.00 20.00     0.014 C 
HETATM   10  C8  UNL     1     -32.870  14.351  -4.439  1.00 20.00     0.042 C 
ENDBRANCH   7   8
ENDBRANCH   4   7
TORSDOF 2
ENDMDL
MODEL 6
REMARK VINA RESULT:      -3.8      2.207      4.499
REMARK  2 active torsions:
REMARK  status: ('A' for Active; 'I' for Inactive)
REMARK    1  A    between atoms: C2_2  and  C9_9 
REMARK    2  A    between atoms: C6_6  and  C9_9 
ROOT
HETATM    1  C3  UNL     1     -33.148  16.590  -3.327  1.00 20.00     0.006 C 
HETATM    2  C4  UNL     1     -33.788  16.898  -1.981  1.00 20.00     0.016 C 
HETATM    3  C5  UNL     1     -35.089  15.156  -3.099  1.00 20.00     0.020 C 
HETATM    4  C6  UNL     1     -33.645  15.178  -3.624  1.00 20.00    -0.010 C 
HETATM    5  C7  UNL     1     -35.186  16.305  -2.093  1.00 20.00     0.058 C 
HETATM    6 BR10 UNL     1     -36.429  17.666  -2.755  1.00 20.00    -0.091 Br
ENDROOT
BRANCH   4   7
HETATM    7  C9  UNL     1     -33.536  14.805  -5.093  1.00 20.00     0.037 C 
BRANCH   7   8
HETATM    8  C2  UNL     1     -34.679  15.342  -5.920  1.00 20.00    -0.093 C 
HETATM    9  C1  UNL     1     -35.709  14.561  -6.284  1.00 20.00     0.014 C 
HETATM   10  C8  UNL     1     -34.597  16.779  -6.348  1.00 20.00     0.042 C 
ENDBRANCH   7   8
ENDBRANCH   4   7
TORSDOF 2
ENDMDL
MODEL 7
REMARK VINA RESULT:      -3.8      1.522      2.513
REMARK  2 active torsions:
REMARK  status: ('A' for Active; 'I' for Inactive)
REMARK    1  A    between atoms: C2_2  and  C9_9 
REMARK    2  A    between atoms: C6_6  and  C9_9 
ROOT
HETATM    1  C3  UNL     1     -35.312  14.628  -3.501  1.00 20.00     0.006 C 
HETATM    2  C4  UNL     1     -36.175  13.936  -4.547  1.00 20.00     0.016 C 
HETATM    3  C5  UNL     1     -34.253  14.961  -5.657  1.00 20.00     0.020 C 
HETATM    4  C6  UNL     1     -33.944  14.687  -4.176  1.00 20.00    -0.010 C 
HETATM    5  C7  UNL     1     -35.708  14.536  -5.867  1.00 20.00     0.058 C 
HETATM    6 BR10 UNL     1     -36.802  16.099  -6.307  1.00 20.00    -0.091 Br
ENDROOT
BRANCH   4   7
HETATM    7  C9  UNL     1     -33.019  15.721  -3.556  1.00 20.00     0.037 C 
BRANCH   7   8
HETATM    8  C2  UNL     1     -33.750  16.958  -3.093  1.00 20.00    -0.093 C 
HETATM    9  C1  UNL     1     -34.104  17.926  -3.954  1.00 20.00     0.014 C 
HETATM   10  C8  UNL     1     -34.032  17.076  -1.624  1.00 20.00     0.042 C 
ENDBRANCH   7   8
ENDBRANCH   4   7
TORSDOF 2
ENDMDL
MODEL 8
REMARK VINA RESULT:      -3.7      1.550      1.873
REMARK  2 active torsions:
REMARK  status: ('A' for Active; 'I' for Inactive)
REMARK    1  A    between atoms: C2_2  and  C9_9 
REMARK    2  A    between atoms: C6_6  and  C9_9 
ROOT
HETATM    1  C3  UNL     1     -35.327  16.771  -4.626  1.00 20.00     0.006 C 
HETATM    2  C4  UNL     1     -36.081  15.953  -5.666  1.00 20.00     0.016 C 
HETATM    3  C5  UNL     1     -34.278  14.588  -4.737  1.00 20.00     0.020 C 
HETATM    4  C6  UNL     1     -34.683  15.696  -3.753  1.00 20.00    -0.010 C 
HETATM    5  C7  UNL     1     -35.136  14.803  -5.986  1.00 20.00     0.058 C 
HETATM    6 BR10 UNL     1     -33.995  15.286  -7.502  1.00 20.00    -0.091 Br
ENDROOT
BRANCH   4   7
HETATM    7  C9  UNL     1     -33.519  16.220  -2.928  1.00 20.00     0.037 C 
BRANCH   7   8
HETATM    8  C2  UNL     1     -33.964  16.981  -1.703  1.00 20.00    -0.093 C 
HETATM    9  C1  UNL     1     -35.153  16.746  -1.124  1.00 20.00     0.014 C 
HETATM   10  C8  UNL     1     -33.036  18.039  -1.180  1.00 20.00     0.042 C 
ENDBRANCH   7   8
ENDBRANCH   4   7
TORSDOF 2
ENDMDL
MODEL 9
REMARK VINA RESULT:      -3.7      2.165      4.660
REMARK  2 active torsions:
REMARK  status: ('A' for Active; 'I' for Inactive)
REMARK    1  A    between atoms: C2_2  and  C9_9 
REMARK    2  A    between atoms: C6_6  and  C9_9 
ROOT
HETATM    1  C3  UNL     1     -33.746  14.767  -4.614  1.00 20.00     0.006 C 
HETATM    2  C4  UNL     1     -32.942  15.626  -3.649  1.00 20.00     0.016 C 
HETATM    3  C5  UNL     1     -35.219  15.389  -2.791  1.00 20.00     0.020 C 
HETATM    4  C6  UNL     1     -34.867  14.225  -3.732  1.00 20.00    -0.010 C 
HETATM    5  C7  UNL     1     -34.000  16.314  -2.797  1.00 20.00     0.058 C 
HETATM    6 BR10 UNL     1     -34.476  18.036  -3.599  1.00 20.00    -0.091 Br
ENDROOT
BRANCH   4   7
HETATM    7  C9  UNL     1     -36.058  13.718  -4.528  1.00 20.00     0.037 C 
BRANCH   7   8
HETATM    8  C2  UNL     1     -37.011  14.820  -4.924  1.00 20.00    -0.093 C 
HETATM    9  C1  UNL     1     -36.674  15.742  -5.840  1.00 20.00     0.014 C 
HETATM   10  C8  UNL     1     -38.338  14.861  -4.224  1.00 20.00     0.042 C 
ENDBRANCH   7   8
ENDBRANCH   4   7
TORSDOF 2
ENDMDL
