MODEL 1
REMARK VINA RESULT:      -3.9      0.000      0.000
REMARK  3 active torsions:
REMARK  status: ('A' for Active; 'I' for Inactive)
REMARK    1  A    between atoms: C1_1  and  C7_7 
REMARK    2  A    between atoms: C1_1  and  C8_8 
REMARK    3  A    between atoms: C8_8  and  O10_10 
ROOT
HETATM    1  C1  UNL     1     -34.964  14.704  -4.183  1.00 20.00     0.163 C 
HETATM    2  O9  UNL     1     -34.378  13.625  -4.055  1.00 20.00    -0.294 OA
ENDROOT
BRANCH   1   3
HETATM    3  C7  UNL     1     -34.465  15.948  -3.453  1.00 20.00     0.050 C 
HETATM    4  C2  UNL     1     -35.074  16.001  -2.056  1.00 20.00     0.017 C 
HETATM    5  C3  UNL     1     -32.941  15.933  -3.395  1.00 20.00     0.017 C 
ENDBRANCH   1   3
BRANCH   1   6
HETATM    6  C8  UNL     1     -36.206  14.831  -5.075  1.00 20.00     0.113 C 
HETATM    7  C4  UNL     1     -36.379  16.264  -5.565  1.00 20.00     0.054 C 
HETATM    8  C5  UNL     1     -37.457  14.317  -4.371  1.00 20.00     0.054 C 
BRANCH   6   9
HETATM    9  O10 UNL     1     -35.983  14.023  -6.231  1.00 20.00    -0.378 OA
HETATM   10  C6  UNL     1     -35.651  14.816  -7.358  1.00 20.00     0.203 C 
ENDBRANCH   6   9
ENDBRANCH   1   6
TORSDOF 3
ENDMDL
MODEL 2
REMARK VINA RESULT:      -3.9      1.615      2.830
REMARK  3 active torsions:
REMARK  status: ('A' for Active; 'I' for Inactive)
REMARK    1  A    between atoms: C1_1  and  C7_7 
REMARK    2  A    between atoms: C1_1  and  C8_8 
REMARK    3  A    between atoms: C8_8  and  O10_10 
ROOT
HETATM    1  C1  UNL     1     -34.437  16.065  -3.917  1.00 20.00     0.163 C 
HETATM    2  O9  UNL     1     -35.039  16.998  -4.456  1.00 20.00    -0.294 OA
ENDROOT
BRANCH   1   3
HETATM    3  C7  UNL     1     -33.987  16.171  -2.462  1.00 20.00     0.050 C 
HETATM    4  C2  UNL     1     -32.976  17.302  -2.319  1.00 20.00     0.017 C 
HETATM    5  C3  UNL     1     -35.199  16.392  -1.564  1.00 20.00     0.017 C 
ENDBRANCH   1   3
BRANCH   1   6
HETATM    6  C8  UNL     1     -34.122  14.775  -4.686  1.00 20.00     0.113 C 
HETATM    7  C4  UNL     1     -32.669  14.362  -4.481  1.00 20.00     0.054 C 
HETATM    8  C5  UNL     1     -34.472  14.904  -6.165  1.00 20.00     0.054 C 
BRANCH   6   9
HETATM    9  O10 UNL     1     -34.930  13.740  -4.127  1.00 20.00    -0.378 OA
HETATM   10  C6  UNL     1     -36.236  13.750  -4.678  1.00 20.00     0.203 C 
ENDBRANCH   6   9
ENDBRANCH   1   6
TORSDOF 3
ENDMDL
MODEL 3
REMARK VINA RESULT:      -3.9      1.590      2.004
REMARK  3 active torsions:
REMARK  status: ('A' for Active; 'I' for Inactive)
REMARK    1  A    between atoms: C1_1  and  C7_7 
REMARK    2  A    between atoms: C1_1  and  C8_8 
REMARK    3  A    between atoms: C8_8  and  O10_10 
ROOT
HETATM    1  C1  UNL     1     -35.173  16.021  -4.281  1.00 20.00     0.163 C 
HETATM    2  O9  UNL     1     -35.561  17.171  -4.507  1.00 20.00    -0.294 OA
ENDROOT
BRANCH   1   3
HETATM    3  C7  UNL     1     -34.366  15.708  -3.024  1.00 20.00     0.050 C 
HETATM    4  C2  UNL     1     -32.986  16.346  -3.128  1.00 20.00     0.017 C 
HETATM    5  C3  UNL     1     -35.118  16.206  -1.794  1.00 20.00     0.017 C 
ENDBRANCH   1   3
BRANCH   1   6
HETATM    6  C8  UNL     1     -35.487  14.874  -5.251  1.00 20.00     0.113 C 
HETATM    7  C4  UNL     1     -36.288  15.376  -6.446  1.00 20.00     0.054 C 
HETATM    8  C5  UNL     1     -36.188  13.718  -4.544  1.00 20.00     0.054 C 
BRANCH   6   9
HETATM    9  O10 UNL     1     -34.242  14.394  -5.758  1.00 20.00    -0.378 OA
HETATM   10  C6  UNL     1     -33.868  15.080  -6.941  1.00 20.00     0.203 C 
ENDBRANCH   6   9
ENDBRANCH   1   6
TORSDOF 3
ENDMDL
MODEL 4
REMARK VINA RESULT:      -3.8      1.562      2.602
REMARK  3 active torsions:
REMARK  status: ('A' for Active; 'I' for Inactive)
REMARK    1  A    between atoms: C1_1  and  C7_7 
REMARK    2  A    between atoms: C1_1  and  C8_8 
REMARK    3  A    between atoms: C8_8  and  O10_10 
ROOT
HETATM    1  C1  UNL     1     -35.478  15.923  -4.375  1.00 20.00     0.163 C 
HETATM    2  O9  UNL     1     -35.636  17.123  -4.619  1.00 20.00    -0.294 OA
ENDROOT
BRANCH   1   3
HETATM    3  C7  UNL     1     -34.605  15.481  -3.203  1.00 20.00     0.050 C 
HETATM    4  C2  UNL     1     -33.145  15.802  -3.502  1.00 20.00     0.017 C 
HETATM    5  C3  UNL     1     -35.074  16.166  -1.925  1.00 20.00     0.017 C 
ENDBRANCH   1   3
BRANCH   1   6
HETATM    6  C8  UNL     1     -36.147  14.843  -5.235  1.00 20.00     0.113 C 
HETATM    7  C4  UNL     1     -36.120  13.493  -4.528  1.00 20.00     0.054 C 
HETATM    8  C5  UNL     1     -35.525  14.768  -6.625  1.00 20.00     0.054 C 
BRANCH   6   9
HETATM    9  O10 UNL     1     -37.519  15.207  -5.380  1.00 20.00    -0.378 OA
HETATM   10  C6  UNL     1     -38.287  14.785  -4.265  1.00 20.00     0.203 C 
ENDBRANCH   6   9
ENDBRANCH   1   6
TORSDOF 3
ENDMDL
MODEL 5
REMARK VINA RESULT:      -3.7      1.733      2.684
REMARK  3 active torsions:
REMARK  status: ('A' for Active; 'I' for Inactive)
REMARK    1  A    between atoms: C1_1  and  C7_7 
REMARK    2  A    between atoms: C1_1  and  C8_8 
REMARK    3  A    between atoms: C8_8  and  O10_10 
ROOT
HETATM    1  C1  UNL     1     -34.460  16.350  -3.778  1.00 20.00     0.163 C 
HETATM    2  O9  UNL     1     -34.944  17.364  -4.289  1.00 20.00    -0.294 OA
ENDROOT
BRANCH   1   3
HETATM    3  C7  UNL     1     -33.973  16.370  -2.331  1.00 20.00     0.050 C 
HETATM    4  C2  UNL     1     -32.904  17.443  -2.164  1.00 20.00     0.017 C 
HETATM    5  C3  UNL     1     -35.153  16.611  -1.395  1.00 20.00     0.017 C 
ENDBRANCH   1   3
BRANCH   1   6
HETATM    6  C8  UNL     1     -34.331  15.044  -4.573  1.00 20.00     0.113 C 
HETATM    7  C4  UNL     1     -35.423  14.057  -4.177  1.00 20.00     0.054 C 
HETATM    8  C5  UNL     1     -32.939  14.437  -4.432  1.00 20.00     0.054 C 
BRANCH   6   9
HETATM    9  O10 UNL     1     -34.540  15.363  -5.948  1.00 20.00    -0.378 OA
HETATM   10  C6  UNL     1     -35.637  14.643  -6.484  1.00 20.00     0.203 C 
ENDBRANCH   6   9
ENDBRANCH   1   6
TORSDOF 3
ENDMDL
MODEL 6
REMARK VINA RESULT:      -3.7     17.770     19.224
REMARK  3 active torsions:
REMARK  status: ('A' for Active; 'I' for Inactive)
REMARK    1  A    between atoms: C1_1  and  C7_7 
REMARK    2  A    between atoms: C1_1  and  C8_8 
REMARK    3  A    between atoms: C8_8  and  O10_10 
ROOT
HETATM    1  C1  UNL     1     -23.532  17.165  10.222  1.00 20.00     0.163 C 
HETATM    2  O9  UNL     1     -24.012  16.028  10.179  1.00 20.00    -0.294 OA
ENDROOT
BRANCH   1   3
HETATM    3  C7  UNL     1     -23.563  17.971  11.518  1.00 20.00     0.050 C 
HETATM    4  C2  UNL     1     -24.821  17.625  12.306  1.00 20.00     0.017 C 
HETATM    5  C3  UNL     1     -22.304  17.687  12.330  1.00 20.00     0.017 C 
ENDBRANCH   1   3
BRANCH   1   6
HETATM    6  C8  UNL     1     -22.891  17.802   8.982  1.00 20.00     0.113 C 
HETATM    7  C4  UNL     1     -21.635  18.579   9.358  1.00 20.00     0.054 C 
HETATM    8  C5  UNL     1     -23.888  18.670   8.220  1.00 20.00     0.054 C 
BRANCH   6   9
HETATM    9  O10 UNL     1     -22.480  16.739   8.123  1.00 20.00    -0.378 OA
HETATM   10  C6  UNL     1     -21.380  17.124   7.316  1.00 20.00     0.203 C 
ENDBRANCH   6   9
ENDBRANCH   1   6
TORSDOF 3
ENDMDL
MODEL 7
REMARK VINA RESULT:      -3.5      1.469      2.162
REMARK  3 active torsions:
REMARK  status: ('A' for Active; 'I' for Inactive)
REMARK    1  A    between atoms: C1_1  and  C7_7 
REMARK    2  A    between atoms: C1_1  and  C8_8 
REMARK    3  A    between atoms: C8_8  and  O10_10 
ROOT
HETATM    1  C1  UNL     1     -33.984  15.075  -4.743  1.00 20.00     0.163 C 
HETATM    2  O9  UNL     1     -33.243  14.107  -4.549  1.00 20.00    -0.294 OA
ENDROOT
BRANCH   1   3
HETATM    3  C7  UNL     1     -34.203  16.115  -3.647  1.00 20.00     0.050 C 
HETATM    4  C2  UNL     1     -35.136  15.548  -2.582  1.00 20.00     0.017 C 
HETATM    5  C3  UNL     1     -32.861  16.522  -3.050  1.00 20.00     0.017 C 
ENDBRANCH   1   3
BRANCH   1   6
HETATM    6  C8  UNL     1     -34.707  15.266  -6.083  1.00 20.00     0.113 C 
HETATM    7  C4  UNL     1     -35.917  14.345  -6.184  1.00 20.00     0.054 C 
HETATM    8  C5  UNL     1     -33.757  15.085  -7.263  1.00 20.00     0.054 C 
BRANCH   6   9
HETATM    9  O10 UNL     1     -35.202  16.604  -6.112  1.00 20.00    -0.378 OA
HETATM   10  C6  UNL     1     -36.551  16.646  -6.547  1.00 20.00     0.203 C 
ENDBRANCH   6   9
ENDBRANCH   1   6
TORSDOF 3
ENDMDL
MODEL 8
REMARK VINA RESULT:      -3.5      1.714      4.048
REMARK  3 active torsions:
REMARK  status: ('A' for Active; 'I' for Inactive)
REMARK    1  A    between atoms: C1_1  and  C7_7 
REMARK    2  A    between atoms: C1_1  and  C8_8 
REMARK    3  A    between atoms: C8_8  and  O10_10 
ROOT
HETATM    1  C1  UNL     1     -33.946  15.092  -4.773  1.00 20.00     0.163 C 
HETATM    2  O9  UNL     1     -33.246  14.089  -4.606  1.00 20.00    -0.294 OA
ENDROOT
BRANCH   1   3
HETATM    3  C7  UNL     1     -34.676  15.317  -6.095  1.00 20.00     0.050 C 
HETATM    4  C2  UNL     1     -33.719  15.073  -7.256  1.00 20.00     0.017 C 
HETATM    5  C3  UNL     1     -35.891  14.398  -6.173  1.00 20.00     0.017 C 
ENDBRANCH   1   3
BRANCH   1   6
HETATM    6  C8  UNL     1     -34.106  16.141  -3.664  1.00 20.00     0.113 C 
HETATM    7  C4  UNL     1     -35.046  15.641  -2.574  1.00 20.00     0.054 C 
HETATM    8  C5  UNL     1     -34.554  17.487  -4.226  1.00 20.00     0.054 C 
BRANCH   6   9
HETATM    9  O10 UNL     1     -32.825  16.317  -3.059  1.00 20.00    -0.378 OA
HETATM   10  C6  UNL     1     -32.812  17.442  -2.196  1.00 20.00     0.203 C 
ENDBRANCH   6   9
ENDBRANCH   1   6
TORSDOF 3
ENDMDL
MODEL 9
REMARK VINA RESULT:      -3.4      1.522      3.576
REMARK  3 active torsions:
REMARK  status: ('A' for Active; 'I' for Inactive)
REMARK    1  A    between atoms: C1_1  and  C7_7 
REMARK    2  A    between atoms: C1_1  and  C8_8 
REMARK    3  A    between atoms: C8_8  and  O10_10 
ROOT
HETATM    1  C1  UNL     1     -35.087  15.662  -5.582  1.00 20.00     0.163 C 
HETATM    2  O9  UNL     1     -35.033  16.876  -5.365  1.00 20.00    -0.294 OA
ENDROOT
BRANCH   1   3
HETATM    3  C7  UNL     1     -35.227  15.135  -7.008  1.00 20.00     0.050 C 
HETATM    4  C2  UNL     1     -36.404  15.819  -7.694  1.00 20.00     0.017 C 
HETATM    5  C3  UNL     1     -33.928  15.367  -7.771  1.00 20.00     0.017 C 
ENDBRANCH   1   3
BRANCH   1   6
HETATM    6  C8  UNL     1     -35.017  14.647  -4.433  1.00 20.00     0.113 C 
HETATM    7  C4  UNL     1     -36.204  13.692  -4.478  1.00 20.00     0.054 C 
HETATM    8  C5  UNL     1     -34.897  15.340  -3.080  1.00 20.00     0.054 C 
BRANCH   6   9
HETATM    9  O10 UNL     1     -33.844  13.859  -4.634  1.00 20.00    -0.378 OA
HETATM   10  C6  UNL     1     -32.672  14.586  -4.306  1.00 20.00     0.203 C 
ENDBRANCH   6   9
ENDBRANCH   1   6
TORSDOF 3
ENDMDL
