MODEL 1
REMARK VINA RESULT:      -5.2      0.000      0.000
REMARK  3 active torsions:
REMARK  status: ('A' for Active; 'I' for Inactive)
REMARK    1  A    between atoms: C2_2  and  C9_9 
REMARK    2  A    between atoms: C3_3  and  C5_5 
REMARK    3  A    between atoms: C3_3  and  C9_9 
ROOT
HETATM    1  C3  UNL     1     -33.626   5.436   3.024  1.00 20.00     0.135 C 
HETATM    2  O10 UNL     1     -33.570   4.208   2.979  1.00 20.00    -0.297 OA
ENDROOT
BRANCH   1   3
HETATM    3  C5  UNL     1     -32.631   6.283   2.274  1.00 20.00     0.060 A 
HETATM    4  C4  UNL     1     -31.918   7.351   3.023  1.00 20.00     0.017 A 
HETATM    5  C6  UNL     1     -32.985   7.717   2.026  1.00 20.00    -0.007 A 
HETATM    6  C8  UNL     1     -32.614   8.340   0.725  1.00 20.00     0.011 C 
ENDBRANCH   1   3
BRANCH   1   7
HETATM    7  C9  UNL     1     -34.651   6.193   3.858  1.00 20.00     0.111 C 
BRANCH   7   8
HETATM    8  C2  UNL     1     -34.437   5.986   5.332  1.00 20.00    -0.086 C 
HETATM    9  C1  UNL     1     -34.859   4.874   5.955  1.00 20.00     0.014 C 
HETATM   10  C7  UNL     1     -33.701   7.068   6.069  1.00 20.00     0.043 C 
ENDBRANCH   7   8
ENDBRANCH   1   7
TORSDOF 3
ENDMDL
MODEL 2
REMARK VINA RESULT:      -4.4     16.356     17.243
REMARK  3 active torsions:
REMARK  status: ('A' for Active; 'I' for Inactive)
REMARK    1  A    between atoms: C2_2  and  C9_9 
REMARK    2  A    between atoms: C3_3  and  C5_5 
REMARK    3  A    between atoms: C3_3  and  C9_9 
ROOT
HETATM    1  C3  UNL     1     -23.047  17.576  11.603  1.00 20.00     0.135 C 
HETATM    2  O10 UNL     1     -21.949  17.793  12.112  1.00 20.00    -0.297 OA
ENDROOT
BRANCH   1   3
HETATM    3  C5  UNL     1     -24.319  17.925  12.332  1.00 20.00     0.060 A 
HETATM    4  C4  UNL     1     -25.420  16.927  12.332  1.00 20.00     0.017 A 
HETATM    5  C6  UNL     1     -25.544  18.182  11.509  1.00 20.00    -0.007 A 
HETATM    6  C8  UNL     1     -26.482  19.262  11.925  1.00 20.00     0.011 C 
ENDBRANCH   1   3
BRANCH   1   7
HETATM    7  C9  UNL     1     -23.219  16.910  10.245  1.00 20.00     0.111 C 
BRANCH   7   8
HETATM    8  C2  UNL     1     -22.652  17.749   9.133  1.00 20.00    -0.086 C 
HETATM    9  C1  UNL     1     -21.636  17.314   8.372  1.00 20.00     0.014 C 
HETATM   10  C7  UNL     1     -23.300  19.083   8.893  1.00 20.00     0.043 C 
ENDBRANCH   7   8
ENDBRANCH   1   7
TORSDOF 3
ENDMDL
MODEL 3
REMARK VINA RESULT:      -4.4     11.060     12.410
REMARK  3 active torsions:
REMARK  status: ('A' for Active; 'I' for Inactive)
REMARK    1  A    between atoms: C2_2  and  C9_9 
REMARK    2  A    between atoms: C3_3  and  C5_5 
REMARK    3  A    between atoms: C3_3  and  C9_9 
ROOT
HETATM    1  C3  UNL     1     -36.045  14.221  -4.729  1.00 20.00     0.135 C 
HETATM    2  O10 UNL     1     -37.072  13.573  -4.539  1.00 20.00    -0.297 OA
ENDROOT
BRANCH   1   3
HETATM    3  C5  UNL     1     -35.949  15.202  -5.869  1.00 20.00     0.060 A 
HETATM    4  C4  UNL     1     -36.058  14.675  -7.254  1.00 20.00     0.017 A 
HETATM    5  C6  UNL     1     -34.727  15.148  -6.733  1.00 20.00    -0.007 A 
HETATM    6  C8  UNL     1     -34.135  16.420  -7.231  1.00 20.00     0.011 C 
ENDBRANCH   1   3
BRANCH   1   7
HETATM    7  C9  UNL     1     -34.791  14.062  -3.879  1.00 20.00     0.111 C 
BRANCH   7   8
HETATM    8  C2  UNL     1     -34.429  15.337  -3.169  1.00 20.00    -0.086 C 
HETATM    9  C1  UNL     1     -35.254  15.900  -2.271  1.00 20.00     0.014 C 
HETATM   10  C7  UNL     1     -33.088  15.934  -3.487  1.00 20.00     0.043 C 
ENDBRANCH   7   8
ENDBRANCH   1   7
TORSDOF 3
ENDMDL
MODEL 4
REMARK VINA RESULT:      -4.3      0.897      3.939
REMARK  3 active torsions:
REMARK  status: ('A' for Active; 'I' for Inactive)
REMARK    1  A    between atoms: C2_2  and  C9_9 
REMARK    2  A    between atoms: C3_3  and  C5_5 
REMARK    3  A    between atoms: C3_3  and  C9_9 
ROOT
HETATM    1  C3  UNL     1     -33.470   5.182   2.746  1.00 20.00     0.135 C 
HETATM    2  O10 UNL     1     -32.866   4.277   2.172  1.00 20.00    -0.297 OA
ENDROOT
BRANCH   1   3
HETATM    3  C5  UNL     1     -34.017   4.985   4.136  1.00 20.00     0.060 A 
HETATM    4  C4  UNL     1     -35.480   5.155   4.341  1.00 20.00     0.017 A 
HETATM    5  C6  UNL     1     -34.523   6.194   4.862  1.00 20.00    -0.007 A 
HETATM    6  C8  UNL     1     -34.273   6.317   6.326  1.00 20.00     0.011 C 
ENDBRANCH   1   3
BRANCH   1   7
HETATM    7  C9  UNL     1     -33.752   6.533   2.104  1.00 20.00     0.111 C 
BRANCH   7   8
HETATM    8  C2  UNL     1     -32.525   7.402   2.061  1.00 20.00    -0.086 C 
HETATM    9  C1  UNL     1     -31.688   7.488   3.106  1.00 20.00     0.014 C 
HETATM   10  C7  UNL     1     -32.263   8.143   0.781  1.00 20.00     0.043 C 
ENDBRANCH   7   8
ENDBRANCH   1   7
TORSDOF 3
ENDMDL
MODEL 5
REMARK VINA RESULT:      -4.3     11.083     12.427
REMARK  3 active torsions:
REMARK  status: ('A' for Active; 'I' for Inactive)
REMARK    1  A    between atoms: C2_2  and  C9_9 
REMARK    2  A    between atoms: C3_3  and  C5_5 
REMARK    3  A    between atoms: C3_3  and  C9_9 
ROOT
HETATM    1  C3  UNL     1     -35.901  14.285  -4.605  1.00 20.00     0.135 C 
HETATM    2  O10 UNL     1     -36.885  13.606  -4.315  1.00 20.00    -0.297 OA
ENDROOT
BRANCH   1   3
HETATM    3  C5  UNL     1     -35.945  15.255  -5.757  1.00 20.00     0.060 A 
HETATM    4  C4  UNL     1     -35.927  14.702  -7.136  1.00 20.00     0.017 A 
HETATM    5  C6  UNL     1     -34.710  15.400  -6.591  1.00 20.00    -0.007 A 
HETATM    6  C8  UNL     1     -34.330  16.750  -7.095  1.00 20.00     0.011 C 
ENDBRANCH   1   3
BRANCH   1   7
HETATM    7  C9  UNL     1     -34.570  14.178  -3.873  1.00 20.00     0.111 C 
BRANCH   7   8
HETATM    8  C2  UNL     1     -34.232  15.444  -3.135  1.00 20.00    -0.086 C 
HETATM    9  C1  UNL     1     -33.086  16.105  -3.360  1.00 20.00     0.014 C 
HETATM   10  C7  UNL     1     -35.253  15.951  -2.156  1.00 20.00     0.043 C 
ENDBRANCH   7   8
ENDBRANCH   1   7
TORSDOF 3
ENDMDL
MODEL 6
REMARK VINA RESULT:      -4.2      0.903      4.383
REMARK  3 active torsions:
REMARK  status: ('A' for Active; 'I' for Inactive)
REMARK    1  A    between atoms: C2_2  and  C9_9 
REMARK    2  A    between atoms: C3_3  and  C5_5 
REMARK    3  A    between atoms: C3_3  and  C9_9 
ROOT
HETATM    1  C3  UNL     1     -33.120   6.359   2.955  1.00 20.00     0.135 C 
HETATM    2  O10 UNL     1     -33.192   5.307   2.322  1.00 20.00    -0.297 OA
ENDROOT
BRANCH   1   3
HETATM    3  C5  UNL     1     -34.042   6.626   4.116  1.00 20.00     0.060 A 
HETATM    4  C4  UNL     1     -33.467   7.255   5.334  1.00 20.00     0.017 A 
HETATM    5  C6  UNL     1     -33.861   5.802   5.352  1.00 20.00    -0.007 A 
HETATM    6  C8  UNL     1     -35.064   5.360   6.112  1.00 20.00     0.011 C 
ENDBRANCH   1   3
BRANCH   1   7
HETATM    7  C9  UNL     1     -32.149   7.477   2.603  1.00 20.00     0.111 C 
BRANCH   7   8
HETATM    8  C2  UNL     1     -32.522   8.161   1.317  1.00 20.00    -0.086 C 
HETATM    9  C1  UNL     1     -33.342   9.224   1.298  1.00 20.00     0.014 C 
HETATM   10  C7  UNL     1     -31.907   7.619   0.058  1.00 20.00     0.043 C 
ENDBRANCH   7   8
ENDBRANCH   1   7
TORSDOF 3
ENDMDL
MODEL 7
REMARK VINA RESULT:      -4.1     10.962     11.979
REMARK  3 active torsions:
REMARK  status: ('A' for Active; 'I' for Inactive)
REMARK    1  A    between atoms: C2_2  and  C9_9 
REMARK    2  A    between atoms: C3_3  and  C5_5 
REMARK    3  A    between atoms: C3_3  and  C9_9 
ROOT
HETATM    1  C3  UNL     1     -33.939  14.538  -4.107  1.00 20.00     0.135 C 
HETATM    2  O10 UNL     1     -32.835  14.144  -4.479  1.00 20.00    -0.297 OA
ENDROOT
BRANCH   1   3
HETATM    3  C5  UNL     1     -34.132  15.951  -3.621  1.00 20.00     0.060 A 
HETATM    4  C4  UNL     1     -33.136  16.502  -2.664  1.00 20.00     0.017 A 
HETATM    5  C6  UNL     1     -34.519  16.146  -2.187  1.00 20.00    -0.007 A 
HETATM    6  C8  UNL     1     -35.492  17.220  -1.840  1.00 20.00     0.011 C 
ENDBRANCH   1   3
BRANCH   1   7
HETATM    7  C9  UNL     1     -35.170  13.643  -4.061  1.00 20.00     0.111 C 
BRANCH   7   8
HETATM    8  C2  UNL     1     -36.289  14.184  -4.906  1.00 20.00    -0.086 C 
HETATM    9  C1  UNL     1     -37.499  14.448  -4.387  1.00 20.00     0.014 C 
HETATM   10  C7  UNL     1     -35.981  14.447  -6.353  1.00 20.00     0.043 C 
ENDBRANCH   7   8
ENDBRANCH   1   7
TORSDOF 3
ENDMDL
MODEL 8
REMARK VINA RESULT:      -4.1     15.796     16.661
REMARK  3 active torsions:
REMARK  status: ('A' for Active; 'I' for Inactive)
REMARK    1  A    between atoms: C2_2  and  C9_9 
REMARK    2  A    between atoms: C3_3  and  C5_5 
REMARK    3  A    between atoms: C3_3  and  C9_9 
ROOT
HETATM    1  C3  UNL     1     -22.971  17.841  11.681  1.00 20.00     0.135 C 
HETATM    2  O10 UNL     1     -22.085  17.290  12.332  1.00 20.00    -0.297 OA
ENDROOT
BRANCH   1   3
HETATM    3  C5  UNL     1     -22.726  18.282  10.261  1.00 20.00     0.060 A 
HETATM    4  C4  UNL     1     -23.879  18.286   9.323  1.00 20.00     0.017 A 
HETATM    5  C6  UNL     1     -22.804  17.241   9.187  1.00 20.00    -0.007 A 
HETATM    6  C8  UNL     1     -21.841  17.299   8.051  1.00 20.00     0.011 C 
ENDBRANCH   1   3
BRANCH   1   7
HETATM    7  C9  UNL     1     -24.345  18.163  12.251  1.00 20.00     0.111 C 
BRANCH   7   8
HETATM    8  C2  UNL     1     -25.282  16.991  12.151  1.00 20.00    -0.086 C 
HETATM    9  C1  UNL     1     -24.830  15.745  11.939  1.00 20.00     0.014 C 
HETATM   10  C7  UNL     1     -26.746  17.276  12.331  1.00 20.00     0.043 C 
ENDBRANCH   7   8
ENDBRANCH   1   7
TORSDOF 3
ENDMDL
MODEL 9
REMARK VINA RESULT:      -4.0     16.069     16.460
REMARK  3 active torsions:
REMARK  status: ('A' for Active; 'I' for Inactive)
REMARK    1  A    between atoms: C2_2  and  C9_9 
REMARK    2  A    between atoms: C3_3  and  C5_5 
REMARK    3  A    between atoms: C3_3  and  C9_9 
ROOT
HETATM    1  C3  UNL     1     -23.661  16.954  10.481  1.00 20.00     0.135 C 
HETATM    2  O10 UNL     1     -24.306  15.911  10.391  1.00 20.00    -0.297 OA
ENDROOT
BRANCH   1   3
HETATM    3  C5  UNL     1     -22.383  17.141   9.704  1.00 20.00     0.060 A 
HETATM    4  C4  UNL     1     -21.916  18.530   9.454  1.00 20.00     0.017 A 
HETATM    5  C6  UNL     1     -22.486  17.715   8.324  1.00 20.00    -0.007 A 
HETATM    6  C8  UNL     1     -21.594  17.189   7.253  1.00 20.00     0.011 C 
ENDBRANCH   1   3
BRANCH   1   7
HETATM    7  C9  UNL     1     -24.058  18.103  11.397  1.00 20.00     0.111 C 
BRANCH   7   8
HETATM    8  C2  UNL     1     -25.426  18.635  11.068  1.00 20.00    -0.086 C 
HETATM    9  C1  UNL     1     -26.429  18.596  11.960  1.00 20.00     0.014 C 
HETATM   10  C7  UNL     1     -25.609  19.242   9.706  1.00 20.00     0.043 C 
ENDBRANCH   7   8
ENDBRANCH   1   7
TORSDOF 3
ENDMDL
