MODEL 1
REMARK VINA RESULT:      -4.5      0.000      0.000
REMARK  2 active torsions:
REMARK  status: ('A' for Active; 'I' for Inactive)
REMARK    1  A    between atoms: C3_3  and  C7_7 
REMARK    2  A    between atoms: C3_3  and  O8_8 
ROOT
HETATM    1  C1  UNL     1     -31.879   7.324   3.498  1.00 20.00     0.045 A 
HETATM    2  C2  UNL     1     -32.857   7.783   2.447  1.00 20.00     0.019 A 
HETATM    3  C3  UNL     1     -33.115   6.509   3.217  1.00 20.00     0.065 A 
HETATM    4  C4  UNL     1     -32.475   7.760   1.008  1.00 20.00     0.013 C 
ENDROOT
BRANCH   3   5
HETATM    5  C7  UNL     1     -34.215   6.458   4.225  1.00 20.00     0.012 C 
HETATM    6  C5  UNL     1     -34.894   5.077   4.260  1.00 20.00     0.012 C 
HETATM    7  C6  UNL     1     -33.715   6.814   5.636  1.00 20.00     0.012 C 
ENDBRANCH   3   5
BRANCH   3   8
HETATM    8  O8  UNL     1     -32.904   5.266   2.528  1.00 20.00    -0.389 OA
HETATM    9  H22 UNL     1     -32.952   5.475   1.585  1.00 20.00     0.210 HD
ENDBRANCH   3   8
TORSDOF 2
ENDMDL
MODEL 2
REMARK VINA RESULT:      -3.9      9.039      9.750
REMARK  2 active torsions:
REMARK  status: ('A' for Active; 'I' for Inactive)
REMARK    1  A    between atoms: C3_3  and  C7_7 
REMARK    2  A    between atoms: C3_3  and  O8_8 
ROOT
HETATM    1  C1  UNL     1     -43.162   7.750   0.749  1.00 20.00     0.045 A 
HETATM    2  C2  UNL     1     -42.240   8.491  -0.184  1.00 20.00     0.019 A 
HETATM    3  C3  UNL     1     -41.982   7.038   0.138  1.00 20.00     0.065 A 
HETATM    4  C4  UNL     1     -41.359   9.573   0.338  1.00 20.00     0.013 C 
ENDROOT
BRANCH   3   5
HETATM    5  C7  UNL     1     -42.205   5.994  -0.905  1.00 20.00     0.012 C 
HETATM    6  C5  UNL     1     -40.938   5.155  -1.153  1.00 20.00     0.012 C 
HETATM    7  C6  UNL     1     -43.370   5.058  -0.538  1.00 20.00     0.012 C 
ENDBRANCH   3   5
BRANCH   3   8
HETATM    8  O8  UNL     1     -40.897   6.741   1.032  1.00 20.00    -0.389 OA
HETATM    9  H22 UNL     1     -40.484   5.937   0.689  1.00 20.00     0.210 HD
ENDBRANCH   3   8
TORSDOF 2
ENDMDL
MODEL 3
REMARK VINA RESULT:      -3.9     15.644     16.690
REMARK  2 active torsions:
REMARK  status: ('A' for Active; 'I' for Inactive)
REMARK    1  A    between atoms: C3_3  and  C7_7 
REMARK    2  A    between atoms: C3_3  and  O8_8 
ROOT
HETATM    1  C1  UNL     1     -22.841  17.374  11.917  1.00 20.00     0.045 A 
HETATM    2  C2  UNL     1     -23.924  16.468  11.390  1.00 20.00     0.019 A 
HETATM    3  C3  UNL     1     -23.546  17.717  10.630  1.00 20.00     0.065 A 
HETATM    4  C4  UNL     1     -25.223  16.357  12.111  1.00 20.00     0.013 C 
ENDROOT
BRANCH   3   5
HETATM    5  C7  UNL     1     -22.816  17.607   9.332  1.00 20.00     0.012 C 
HETATM    6  C5  UNL     1     -23.545  18.356   8.202  1.00 20.00     0.012 C 
HETATM    7  C6  UNL     1     -21.373  18.130   9.441  1.00 20.00     0.012 C 
ENDBRANCH   3   5
BRANCH   3   8
HETATM    8  O8  UNL     1     -24.456  18.828  10.689  1.00 20.00    -0.389 OA
HETATM    9  H22 UNL     1     -24.360  19.201  11.576  1.00 20.00     0.210 HD
ENDBRANCH   3   8
TORSDOF 2
ENDMDL
MODEL 4
REMARK VINA RESULT:      -3.8      1.603      3.746
REMARK  2 active torsions:
REMARK  status: ('A' for Active; 'I' for Inactive)
REMARK    1  A    between atoms: C3_3  and  C7_7 
REMARK    2  A    between atoms: C3_3  and  O8_8 
ROOT
HETATM    1  C1  UNL     1     -35.753   5.606   4.058  1.00 20.00     0.045 A 
HETATM    2  C2  UNL     1     -34.588   6.068   4.895  1.00 20.00     0.019 A 
HETATM    3  C3  UNL     1     -34.376   5.048   3.802  1.00 20.00     0.065 A 
HETATM    4  C4  UNL     1     -34.509   5.696   6.336  1.00 20.00     0.013 C 
ENDROOT
BRANCH   3   5
HETATM    5  C7  UNL     1     -33.640   5.428   2.561  1.00 20.00     0.012 C 
HETATM    6  C5  UNL     1     -32.674   6.601   2.807  1.00 20.00     0.012 C 
HETATM    7  C6  UNL     1     -32.857   4.241   1.973  1.00 20.00     0.012 C 
ENDBRANCH   3   5
BRANCH   3   8
HETATM    8  O8  UNL     1     -34.168   3.683   4.203  1.00 20.00    -0.389 OA
HETATM    9  H22 UNL     1     -33.311   3.427   3.836  1.00 20.00     0.210 HD
ENDBRANCH   3   8
TORSDOF 2
ENDMDL
MODEL 5
REMARK VINA RESULT:      -3.7     10.988     12.332
REMARK  2 active torsions:
REMARK  status: ('A' for Active; 'I' for Inactive)
REMARK    1  A    between atoms: C3_3  and  C7_7 
REMARK    2  A    between atoms: C3_3  and  O8_8 
ROOT
HETATM    1  C1  UNL     1     -34.658  14.798  -3.492  1.00 20.00     0.045 A 
HETATM    2  C2  UNL     1     -34.126  16.201  -3.636  1.00 20.00     0.019 A 
HETATM    3  C3  UNL     1     -33.916  15.195  -4.743  1.00 20.00     0.065 A 
HETATM    4  C4  UNL     1     -32.998  16.665  -2.780  1.00 20.00     0.013 C 
ENDROOT
BRANCH   3   5
HETATM    5  C7  UNL     1     -34.657  15.339  -6.031  1.00 20.00     0.012 C 
HETATM    6  C5  UNL     1     -33.741  15.106  -7.246  1.00 20.00     0.012 C 
HETATM    7  C6  UNL     1     -35.859  14.382  -6.110  1.00 20.00     0.012 C 
ENDBRANCH   3   5
BRANCH   3   8
HETATM    8  O8  UNL     1     -32.598  14.642  -4.893  1.00 20.00    -0.389 OA
HETATM    9  H22 UNL     1     -31.988  15.322  -4.576  1.00 20.00     0.210 HD
ENDBRANCH   3   8
TORSDOF 2
ENDMDL
MODEL 6
REMARK VINA RESULT:      -3.7      9.209      9.643
REMARK  2 active torsions:
REMARK  status: ('A' for Active; 'I' for Inactive)
REMARK    1  A    between atoms: C3_3  and  C7_7 
REMARK    2  A    between atoms: C3_3  and  O8_8 
ROOT
HETATM    1  C1  UNL     1     -42.095   7.925  -1.309  1.00 20.00     0.045 A 
HETATM    2  C2  UNL     1     -41.173   8.415  -0.223  1.00 20.00     0.019 A 
HETATM    3  C3  UNL     1     -42.145   7.294   0.059  1.00 20.00     0.065 A 
HETATM    4  C4  UNL     1     -41.358   9.773   0.360  1.00 20.00     0.013 C 
ENDROOT
BRANCH   3   5
HETATM    5  C7  UNL     1     -41.642   5.903   0.253  1.00 20.00     0.012 C 
HETATM    6  C5  UNL     1     -42.619   5.052   1.084  1.00 20.00     0.012 C 
HETATM    7  C6  UNL     1     -41.371   5.199  -1.089  1.00 20.00     0.012 C 
ENDBRANCH   3   5
BRANCH   3   8
HETATM    8  O8  UNL     1     -43.303   7.607   0.852  1.00 20.00    -0.389 OA
HETATM    9  H22 UNL     1     -43.397   8.568   0.814  1.00 20.00     0.210 HD
ENDBRANCH   3   8
TORSDOF 2
ENDMDL
MODEL 7
REMARK VINA RESULT:      -3.6     15.839     16.567
REMARK  2 active torsions:
REMARK  status: ('A' for Active; 'I' for Inactive)
REMARK    1  A    between atoms: C3_3  and  C7_7 
REMARK    2  A    between atoms: C3_3  and  O8_8 
ROOT
HETATM    1  C1  UNL     1     -25.332  18.862   9.882  1.00 20.00     0.045 A 
HETATM    2  C2  UNL     1     -25.502  18.896  11.379  1.00 20.00     0.019 A 
HETATM    3  C3  UNL     1     -24.539  17.918  10.749  1.00 20.00     0.065 A 
HETATM    4  C4  UNL     1     -26.779  18.444  11.997  1.00 20.00     0.013 C 
ENDROOT
BRANCH   3   5
HETATM    5  C7  UNL     1     -23.068  18.114  10.907  1.00 20.00     0.012 C 
HETATM    6  C5  UNL     1     -22.539  17.458  12.195  1.00 20.00     0.012 C 
HETATM    7  C6  UNL     1     -22.284  17.568   9.700  1.00 20.00     0.012 C 
ENDBRANCH   3   5
BRANCH   3   8
HETATM    8  O8  UNL     1     -24.936  16.538  10.699  1.00 20.00    -0.389 OA
HETATM    9  H22 UNL     1     -25.459  16.441   9.892  1.00 20.00     0.210 HD
ENDBRANCH   3   8
TORSDOF 2
ENDMDL
MODEL 8
REMARK VINA RESULT:      -3.6     10.984     11.566
REMARK  2 active torsions:
REMARK  status: ('A' for Active; 'I' for Inactive)
REMARK    1  A    between atoms: C3_3  and  C7_7 
REMARK    2  A    between atoms: C3_3  and  O8_8 
ROOT
HETATM    1  C1  UNL     1     -34.503  16.970  -3.272  1.00 20.00     0.045 A 
HETATM    2  C2  UNL     1     -34.562  16.286  -1.930  1.00 20.00     0.019 A 
HETATM    3  C3  UNL     1     -35.288  15.693  -3.114  1.00 20.00     0.065 A 
HETATM    4  C4  UNL     1     -35.300  16.918  -0.800  1.00 20.00     0.013 C 
ENDROOT
BRANCH   3   5
HETATM    5  C7  UNL     1     -34.788  14.432  -3.738  1.00 20.00     0.012 C 
HETATM    6  C5  UNL     1     -35.921  13.643  -4.417  1.00 20.00     0.012 C 
HETATM    7  C6  UNL     1     -33.674  14.705  -4.764  1.00 20.00     0.012 C 
ENDBRANCH   3   5
BRANCH   3   8
HETATM    8  O8  UNL     1     -36.719  15.827  -3.148  1.00 20.00    -0.389 OA
HETATM    9  H22 UNL     1     -37.053  15.284  -2.422  1.00 20.00     0.210 HD
ENDBRANCH   3   8
TORSDOF 2
ENDMDL
MODEL 9
REMARK VINA RESULT:      -3.5     11.493     12.441
REMARK  2 active torsions:
REMARK  status: ('A' for Active; 'I' for Inactive)
REMARK    1  A    between atoms: C3_3  and  C7_7 
REMARK    2  A    between atoms: C3_3  and  O8_8 
ROOT
HETATM    1  C1  UNL     1     -35.528  15.750  -5.071  1.00 20.00     0.045 A 
HETATM    2  C2  UNL     1     -34.299  14.986  -5.490  1.00 20.00     0.019 A 
HETATM    3  C3  UNL     1     -34.174  16.170  -4.561  1.00 20.00     0.065 A 
HETATM    4  C4  UNL     1     -33.824  15.048  -6.901  1.00 20.00     0.013 C 
ENDROOT
BRANCH   3   5
HETATM    5  C7  UNL     1     -33.823  15.957  -3.126  1.00 20.00     0.012 C 
HETATM    6  C5  UNL     1     -32.881  17.055  -2.599  1.00 20.00     0.012 C 
HETATM    7  C6  UNL     1     -35.075  15.891  -2.234  1.00 20.00     0.012 C 
ENDBRANCH   3   5
BRANCH   3   8
HETATM    8  O8  UNL     1     -33.647  17.389  -5.111  1.00 20.00    -0.389 OA
HETATM    9  H22 UNL     1     -33.581  18.007  -4.370  1.00 20.00     0.210 HD
ENDBRANCH   3   8
TORSDOF 2
ENDMDL
