MODEL 1
REMARK VINA RESULT:      -4.2      0.000      0.000
REMARK  3 active torsions:
REMARK  status: ('A' for Active; 'I' for Inactive)
REMARK    1  A    between atoms: C2_2  and  C6_6 
REMARK    2  A    between atoms: C3_3  and  C7_7 
REMARK    3  A    between atoms: C3_3  and  O8_8 
ROOT
HETATM    1  C1  UNL     1     -34.226   5.180   2.123  1.00 20.00     0.045 A 
HETATM    2  C2  UNL     1     -32.959   5.508   2.871  1.00 20.00     0.022 A 
HETATM    3  C3  UNL     1     -34.153   4.945   3.611  1.00 20.00     0.062 A 
ENDROOT
BRANCH   3   4
HETATM    4  C7  UNL     1     -34.980   5.773   4.538  1.00 20.00     0.034 C 
HETATM    5  C5  UNL     1     -34.750   5.436   5.988  1.00 20.00     0.008 C 
ENDBRANCH   3   4
BRANCH   3   6
HETATM    6  O8  UNL     1     -34.033   3.571   4.023  1.00 20.00    -0.389 OA
HETATM    7  H22 UNL     1     -34.908   3.182   3.894  1.00 20.00     0.210 HD
ENDBRANCH   3   6
BRANCH   2   8
HETATM    8  C6  UNL     1     -32.522   6.924   3.023  1.00 20.00     0.003 C 
HETATM    9  C4  UNL     1     -32.449   7.664   1.712  1.00 20.00     0.005 C 
ENDBRANCH   2   8
TORSDOF 3
ENDMDL
MODEL 2
REMARK VINA RESULT:      -4.0      1.816      2.699
REMARK  3 active torsions:
REMARK  status: ('A' for Active; 'I' for Inactive)
REMARK    1  A    between atoms: C2_2  and  C6_6 
REMARK    2  A    between atoms: C3_3  and  C7_7 
REMARK    3  A    between atoms: C3_3  and  O8_8 
ROOT
HETATM    1  C1  UNL     1     -31.743   7.277   3.342  1.00 20.00     0.045 A 
HETATM    2  C2  UNL     1     -32.728   7.848   2.354  1.00 20.00     0.022 A 
HETATM    3  C3  UNL     1     -33.096   6.632   3.177  1.00 20.00     0.062 A 
ENDROOT
BRANCH   3   4
HETATM    4  C7  UNL     1     -33.204   5.268   2.579  1.00 20.00     0.034 C 
HETATM    5  C5  UNL     1     -34.039   4.328   3.410  1.00 20.00     0.008 C 
ENDBRANCH   3   4
BRANCH   3   6
HETATM    6  O8  UNL     1     -34.035   6.867   4.242  1.00 20.00    -0.389 OA
HETATM    7  H22 UNL     1     -34.894   6.982   3.813  1.00 20.00     0.210 HD
ENDBRANCH   3   6
BRANCH   2   8
HETATM    8  C6  UNL     1     -32.457   7.769   0.891  1.00 20.00     0.003 C 
HETATM    9  C4  UNL     1     -33.144   8.856   0.105  1.00 20.00     0.005 C 
ENDBRANCH   2   8
TORSDOF 3
ENDMDL
MODEL 3
REMARK VINA RESULT:      -4.0     11.511     12.192
REMARK  3 active torsions:
REMARK  status: ('A' for Active; 'I' for Inactive)
REMARK    1  A    between atoms: C2_2  and  C6_6 
REMARK    2  A    between atoms: C3_3  and  C7_7 
REMARK    3  A    between atoms: C3_3  and  O8_8 
ROOT
HETATM    1  C1  UNL     1     -34.715  14.735  -5.175  1.00 20.00     0.045 A 
HETATM    2  C2  UNL     1     -34.510  14.521  -3.698  1.00 20.00     0.022 A 
HETATM    3  C3  UNL     1     -35.770  14.021  -4.370  1.00 20.00     0.062 A 
ENDROOT
BRANCH   3   4
HETATM    4  C7  UNL     1     -37.100  14.663  -4.148  1.00 20.00     0.034 C 
HETATM    5  C5  UNL     1     -37.440  15.685  -5.201  1.00 20.00     0.008 C 
ENDBRANCH   3   4
BRANCH   3   6
HETATM    6  O8  UNL     1     -35.846  12.596  -4.560  1.00 20.00    -0.389 OA
HETATM    7  H22 UNL     1     -34.933  12.280  -4.538  1.00 20.00     0.210 HD
ENDBRANCH   3   6
BRANCH   2   8
HETATM    8  C6  UNL     1     -34.511  15.681  -2.763  1.00 20.00     0.003 C 
HETATM    9  C4  UNL     1     -33.257  16.514  -2.855  1.00 20.00     0.005 C 
ENDBRANCH   2   8
TORSDOF 3
ENDMDL
MODEL 4
REMARK VINA RESULT:      -3.9      8.508      9.292
REMARK  3 active torsions:
REMARK  status: ('A' for Active; 'I' for Inactive)
REMARK    1  A    between atoms: C2_2  and  C6_6 
REMARK    2  A    between atoms: C3_3  and  C7_7 
REMARK    3  A    between atoms: C3_3  and  O8_8 
ROOT
HETATM    1  C1  UNL     1     -40.804   5.679  -0.722  1.00 20.00     0.045 A 
HETATM    2  C2  UNL     1     -41.146   6.912   0.073  1.00 20.00     0.022 A 
HETATM    3  C3  UNL     1     -42.049   5.699   0.127  1.00 20.00     0.062 A 
ENDROOT
BRANCH   3   4
HETATM    4  C7  UNL     1     -43.394   5.677  -0.521  1.00 20.00     0.034 C 
HETATM    5  C5  UNL     1     -43.416   4.880  -1.799  1.00 20.00     0.008 C 
ENDBRANCH   3   4
BRANCH   3   6
HETATM    6  O8  UNL     1     -41.988   4.937   1.347  1.00 20.00    -0.389 OA
HETATM    7  H22 UNL     1     -41.347   5.392   1.908  1.00 20.00     0.210 HD
ENDBRANCH   3   6
BRANCH   2   8
HETATM    8  C6  UNL     1     -41.540   8.170  -0.622  1.00 20.00     0.003 C 
HETATM    9  C4  UNL     1     -41.465   9.384   0.267  1.00 20.00     0.005 C 
ENDBRANCH   2   8
TORSDOF 3
ENDMDL
MODEL 5
REMARK VINA RESULT:      -3.9     16.595     17.410
REMARK  3 active torsions:
REMARK  status: ('A' for Active; 'I' for Inactive)
REMARK    1  A    between atoms: C2_2  and  C6_6 
REMARK    2  A    between atoms: C3_3  and  C7_7 
REMARK    3  A    between atoms: C3_3  and  O8_8 
ROOT
HETATM    1  C1  UNL     1     -21.809  18.080   9.489  1.00 20.00     0.045 A 
HETATM    2  C2  UNL     1     -22.768  16.927   9.338  1.00 20.00     0.022 A 
HETATM    3  C3  UNL     1     -22.840  18.104   8.389  1.00 20.00     0.062 A 
ENDROOT
BRANCH   3   4
HETATM    4  C7  UNL     1     -23.955  19.096   8.433  1.00 20.00     0.034 C 
HETATM    5  C5  UNL     1     -24.724  19.172   7.139  1.00 20.00     0.008 C 
ENDBRANCH   3   4
BRANCH   3   6
HETATM    6  O8  UNL     1     -22.344  17.859   7.060  1.00 20.00    -0.389 OA
HETATM    7  H22 UNL     1     -22.620  16.960   6.839  1.00 20.00     0.210 HD
ENDBRANCH   3   6
BRANCH   2   8
HETATM    8  C6  UNL     1     -23.808  16.673  10.374  1.00 20.00     0.003 C 
HETATM    9  C4  UNL     1     -23.311  16.905  11.778  1.00 20.00     0.005 C 
ENDBRANCH   2   8
TORSDOF 3
ENDMDL
MODEL 6
REMARK VINA RESULT:      -3.9     11.558     12.544
REMARK  3 active torsions:
REMARK  status: ('A' for Active; 'I' for Inactive)
REMARK    1  A    between atoms: C2_2  and  C6_6 
REMARK    2  A    between atoms: C3_3  and  C7_7 
REMARK    3  A    between atoms: C3_3  and  O8_8 
ROOT
HETATM    1  C1  UNL     1     -34.387  16.322  -4.868  1.00 20.00     0.045 A 
HETATM    2  C2  UNL     1     -33.422  16.147  -3.724  1.00 20.00     0.022 A 
HETATM    3  C3  UNL     1     -33.902  14.941  -4.503  1.00 20.00     0.062 A 
ENDROOT
BRANCH   3   4
HETATM    4  C7  UNL     1     -34.853  13.946  -3.925  1.00 20.00     0.034 C 
HETATM    5  C5  UNL     1     -36.130  13.827  -4.716  1.00 20.00     0.008 C 
ENDBRANCH   3   4
BRANCH   3   6
HETATM    6  O8  UNL     1     -32.938  14.359  -5.399  1.00 20.00    -0.389 OA
HETATM    7  H22 UNL     1     -32.977  13.406  -5.242  1.00 20.00     0.210 HD
ENDBRANCH   3   6
BRANCH   2   8
HETATM    8  C6  UNL     1     -33.857  16.418  -2.325  1.00 20.00     0.003 C 
HETATM    9  C4  UNL     1     -33.149  17.595  -1.705  1.00 20.00     0.005 C 
ENDBRANCH   2   8
TORSDOF 3
ENDMDL
MODEL 7
REMARK VINA RESULT:      -3.7      8.622      9.649
REMARK  3 active torsions:
REMARK  status: ('A' for Active; 'I' for Inactive)
REMARK    1  A    between atoms: C2_2  and  C6_6 
REMARK    2  A    between atoms: C3_3  and  C7_7 
REMARK    3  A    between atoms: C3_3  and  O8_8 
ROOT
HETATM    1  C1  UNL     1     -41.189   7.002  -1.273  1.00 20.00     0.045 A 
HETATM    2  C2  UNL     1     -41.373   6.450   0.117  1.00 20.00     0.022 A 
HETATM    3  C3  UNL     1     -41.511   5.541  -1.085  1.00 20.00     0.062 A 
ENDROOT
BRANCH   3   4
HETATM    4  C7  UNL     1     -42.831   5.006  -1.531  1.00 20.00     0.034 C 
HETATM    5  C5  UNL     1     -42.704   3.781  -2.400  1.00 20.00     0.008 C 
ENDBRANCH   3   4
BRANCH   3   6
HETATM    6  O8  UNL     1     -40.420   4.627  -1.297  1.00 20.00    -0.389 OA
HETATM    7  H22 UNL     1     -39.683   4.973  -0.777  1.00 20.00     0.210 HD
ENDBRANCH   3   6
BRANCH   2   8
HETATM    8  C6  UNL     1     -42.542   6.865   0.942  1.00 20.00     0.003 C 
HETATM    9  C4  UNL     1     -43.107   8.203   0.535  1.00 20.00     0.005 C 
ENDBRANCH   2   8
TORSDOF 3
ENDMDL
MODEL 8
REMARK VINA RESULT:      -3.7     16.714     17.442
REMARK  3 active torsions:
REMARK  status: ('A' for Active; 'I' for Inactive)
REMARK    1  A    between atoms: C2_2  and  C6_6 
REMARK    2  A    between atoms: C3_3  and  C7_7 
REMARK    3  A    between atoms: C3_3  and  O8_8 
ROOT
HETATM    1  C1  UNL     1     -23.417  17.778  12.143  1.00 20.00     0.045 A 
HETATM    2  C2  UNL     1     -24.913  17.636  12.033  1.00 20.00     0.022 A 
HETATM    3  C3  UNL     1     -24.034  17.353  10.834  1.00 20.00     0.062 A 
ENDROOT
BRANCH   3   4
HETATM    4  C7  UNL     1     -23.980  18.266   9.653  1.00 20.00     0.034 C 
HETATM    5  C5  UNL     1     -22.572  18.610   9.243  1.00 20.00     0.008 C 
ENDBRANCH   3   4
BRANCH   3   6
HETATM    6  O8  UNL     1     -23.882  15.964  10.492  1.00 20.00    -0.389 OA
HETATM    7  H22 UNL     1     -24.619  15.757   9.902  1.00 20.00     0.210 HD
ENDBRANCH   3   6
BRANCH   2   8
HETATM    8  C6  UNL     1     -25.791  18.837  12.114  1.00 20.00     0.003 C 
HETATM    9  C4  UNL     1     -27.254  18.510  11.958  1.00 20.00     0.005 C 
ENDBRANCH   2   8
TORSDOF 3
ENDMDL
MODEL 9
REMARK VINA RESULT:      -3.7     11.809     12.902
REMARK  3 active torsions:
REMARK  status: ('A' for Active; 'I' for Inactive)
REMARK    1  A    between atoms: C2_2  and  C6_6 
REMARK    2  A    between atoms: C3_3  and  C7_7 
REMARK    3  A    between atoms: C3_3  and  O8_8 
ROOT
HETATM    1  C1  UNL     1     -32.988  15.975  -3.497  1.00 20.00     0.045 A 
HETATM    2  C2  UNL     1     -34.222  15.205  -3.103  1.00 20.00     0.022 A 
HETATM    3  C3  UNL     1     -33.714  15.148  -4.528  1.00 20.00     0.062 A 
ENDROOT
BRANCH   3   4
HETATM    4  C7  UNL     1     -34.426  15.819  -5.655  1.00 20.00     0.034 C 
HETATM    5  C5  UNL     1     -34.131  15.189  -6.992  1.00 20.00     0.008 C 
ENDBRANCH   3   4
BRANCH   3   6
HETATM    6  O8  UNL     1     -33.073  13.916  -4.907  1.00 20.00    -0.389 OA
HETATM    7  H22 UNL     1     -32.730  13.536  -4.087  1.00 20.00     0.210 HD
ENDBRANCH   3   6
BRANCH   2   8
HETATM    8  C6  UNL     1     -35.471  15.926  -2.730  1.00 20.00     0.003 C 
HETATM    9  C4  UNL     1     -35.334  16.726  -1.460  1.00 20.00     0.005 C 
ENDBRANCH   2   8
TORSDOF 3
ENDMDL
