MODEL 1
REMARK VINA RESULT:      -3.9      0.000      0.000
REMARK  5 active torsions:
REMARK  status: ('A' for Active; 'I' for Inactive)
REMARK    1  A    between atoms: C4_4  and  C7_7 
REMARK    2  A    between atoms: C5_5  and  C8_8 
REMARK    3  A    between atoms: C6_6  and  C7_7 
REMARK    4  A    between atoms: C6_6  and  O9_9 
REMARK    5  A    between atoms: C7_7  and  C8_8 
ROOT
HETATM    1  C7  UNL     1     -35.896  14.069  -4.672  1.00 20.00     0.027 C 
ENDROOT
BRANCH   1   2
HETATM    2  C4  UNL     1     -35.649  14.481  -6.140  1.00 20.00     0.004 C 
HETATM    3  C1  UNL     1     -36.140  15.887  -6.467  1.00 20.00     0.005 C 
ENDBRANCH   1   2
BRANCH   1   4
HETATM    4  C6  UNL     1     -37.154  14.763  -4.111  1.00 20.00     0.173 C 
BRANCH   4   5
HETATM    5  O9  UNL     1     -38.321  13.985  -4.347  1.00 20.00    -0.396 OA
HETATM    6  C3  UNL     1     -39.492  14.790  -4.345  1.00 20.00     0.201 C 
ENDBRANCH   4   5
ENDBRANCH   1   4
BRANCH   1   7
HETATM    7  C8  UNL     1     -34.656  14.301  -3.758  1.00 20.00     0.088 C 
HETATM    8 CL10 UNL     1     -33.177  14.478  -4.771  1.00 20.00    -0.125 Cl
BRANCH   7   9
HETATM    9  C5  UNL     1     -34.788  15.501  -2.805  1.00 20.00     0.016 C 
HETATM   10  C2  UNL     1     -33.533  16.367  -2.747  1.00 20.00     0.006 C 
ENDBRANCH   7   9
ENDBRANCH   1   7
TORSDOF 5
ENDMDL
MODEL 2
REMARK VINA RESULT:      -3.6      1.655      3.079
REMARK  5 active torsions:
REMARK  status: ('A' for Active; 'I' for Inactive)
REMARK    1  A    between atoms: C4_4  and  C7_7 
REMARK    2  A    between atoms: C5_5  and  C8_8 
REMARK    3  A    between atoms: C6_6  and  C7_7 
REMARK    4  A    between atoms: C6_6  and  O9_9 
REMARK    5  A    between atoms: C7_7  and  C8_8 
ROOT
HETATM    1  C7  UNL     1     -35.756  15.132  -4.373  1.00 20.00     0.027 C 
ENDROOT
BRANCH   1   2
HETATM    2  C4  UNL     1     -34.662  15.138  -3.282  1.00 20.00     0.004 C 
HETATM    3  C1  UNL     1     -34.993  16.037  -2.095  1.00 20.00     0.005 C 
ENDBRANCH   1   2
BRANCH   1   4
HETATM    4  C6  UNL     1     -36.316  13.710  -4.580  1.00 20.00     0.173 C 
BRANCH   4   5
HETATM    5  O9  UNL     1     -37.733  13.692  -4.461  1.00 20.00    -0.396 OA
HETATM    6  C3  UNL     1     -38.250  14.990  -4.200  1.00 20.00     0.201 C 
ENDBRANCH   4   5
ENDBRANCH   1   4
BRANCH   1   7
HETATM    7  C8  UNL     1     -35.278  15.762  -5.715  1.00 20.00     0.088 C 
HETATM    8 CL10 UNL     1     -34.825  17.486  -5.452  1.00 20.00    -0.125 Cl
BRANCH   7   9
HETATM    9  C5  UNL     1     -34.119  15.010  -6.391  1.00 20.00     0.016 C 
HETATM   10  C2  UNL     1     -33.939  15.376  -7.862  1.00 20.00     0.006 C 
ENDBRANCH   7   9
ENDBRANCH   1   7
TORSDOF 5
ENDMDL
MODEL 3
REMARK VINA RESULT:      -3.6      1.632      2.848
REMARK  5 active torsions:
REMARK  status: ('A' for Active; 'I' for Inactive)
REMARK    1  A    between atoms: C4_4  and  C7_7 
REMARK    2  A    between atoms: C5_5  and  C8_8 
REMARK    3  A    between atoms: C6_6  and  C7_7 
REMARK    4  A    between atoms: C6_6  and  O9_9 
REMARK    5  A    between atoms: C7_7  and  C8_8 
ROOT
HETATM    1  C7  UNL     1     -35.524  14.998  -4.452  1.00 20.00     0.027 C 
ENDROOT
BRANCH   1   2
HETATM    2  C4  UNL     1     -34.596  15.057  -3.217  1.00 20.00     0.004 C 
HETATM    3  C1  UNL     1     -35.051  16.060  -2.162  1.00 20.00     0.005 C 
ENDBRANCH   1   2
BRANCH   1   4
HETATM    4  C6  UNL     1     -36.170  13.604  -4.586  1.00 20.00     0.173 C 
BRANCH   4   5
HETATM    5  O9  UNL     1     -37.583  13.675  -4.444  1.00 20.00    -0.396 OA
HETATM    6  C3  UNL     1     -38.024  15.018  -4.294  1.00 20.00     0.201 C 
ENDBRANCH   4   5
ENDBRANCH   1   4
BRANCH   1   7
HETATM    7  C8  UNL     1     -34.812  15.430  -5.768  1.00 20.00     0.088 C 
HETATM    8 CL10 UNL     1     -35.740  14.827  -7.189  1.00 20.00    -0.125 Cl
BRANCH   7   9
HETATM    9  C5  UNL     1     -34.579  16.945  -5.894  1.00 20.00     0.016 C 
HETATM   10  C2  UNL     1     -35.827  17.774  -5.602  1.00 20.00     0.006 C 
ENDBRANCH   7   9
ENDBRANCH   1   7
TORSDOF 5
ENDMDL
MODEL 4
REMARK VINA RESULT:      -3.6      1.849      2.388
REMARK  5 active torsions:
REMARK  status: ('A' for Active; 'I' for Inactive)
REMARK    1  A    between atoms: C4_4  and  C7_7 
REMARK    2  A    between atoms: C5_5  and  C8_8 
REMARK    3  A    between atoms: C6_6  and  C7_7 
REMARK    4  A    between atoms: C6_6  and  O9_9 
REMARK    5  A    between atoms: C7_7  and  C8_8 
ROOT
HETATM    1  C7  UNL     1     -35.740  14.885  -3.781  1.00 20.00     0.027 C 
ENDROOT
BRANCH   1   2
HETATM    2  C4  UNL     1     -34.405  14.119  -3.910  1.00 20.00     0.004 C 
HETATM    3  C1  UNL     1     -33.195  15.031  -4.079  1.00 20.00     0.005 C 
ENDBRANCH   1   2
BRANCH   1   4
HETATM    4  C6  UNL     1     -36.731  14.449  -4.879  1.00 20.00     0.173 C 
BRANCH   4   5
HETATM    5  O9  UNL     1     -37.899  13.864  -4.317  1.00 20.00    -0.396 OA
HETATM    6  C3  UNL     1     -38.954  14.811  -4.207  1.00 20.00     0.201 C 
ENDBRANCH   4   5
ENDBRANCH   1   4
BRANCH   1   7
HETATM    7  C8  UNL     1     -35.554  16.431  -3.757  1.00 20.00     0.088 C 
HETATM    8 CL10 UNL     1     -36.409  17.171  -5.160  1.00 20.00    -0.125 Cl
BRANCH   7   9
HETATM    9  C5  UNL     1     -36.008  17.104  -2.450  1.00 20.00     0.016 C 
HETATM   10  C2  UNL     1     -35.159  16.712  -1.243  1.00 20.00     0.006 C 
ENDBRANCH   7   9
ENDBRANCH   1   7
TORSDOF 5
ENDMDL
MODEL 5
REMARK VINA RESULT:      -3.6      4.273      6.604
REMARK  5 active torsions:
REMARK  status: ('A' for Active; 'I' for Inactive)
REMARK    1  A    between atoms: C4_4  and  C7_7 
REMARK    2  A    between atoms: C5_5  and  C8_8 
REMARK    3  A    between atoms: C6_6  and  C7_7 
REMARK    4  A    between atoms: C6_6  and  O9_9 
REMARK    5  A    between atoms: C7_7  and  C8_8 
ROOT
HETATM    1  C7  UNL     1     -33.036  17.951  -1.106  1.00 20.00     0.027 C 
ENDROOT
BRANCH   1   2
HETATM    2  C4  UNL     1     -34.216  18.352  -0.193  1.00 20.00     0.004 C 
HETATM    3  C1  UNL     1     -35.253  17.248  -0.018  1.00 20.00     0.005 C 
ENDBRANCH   1   2
BRANCH   1   4
HETATM    4  C6  UNL     1     -31.903  18.994  -1.028  1.00 20.00     0.173 C 
BRANCH   4   5
HETATM    5  O9  UNL     1     -30.690  18.407  -0.574  1.00 20.00    -0.396 OA
HETATM    6  C3  UNL     1     -30.682  18.259   0.840  1.00 20.00     0.201 C 
ENDBRANCH   4   5
ENDBRANCH   1   4
BRANCH   1   7
HETATM    7  C8  UNL     1     -33.470  17.681  -2.577  1.00 20.00     0.088 C 
HETATM    8 CL10 UNL     1     -32.662  18.859  -3.676  1.00 20.00    -0.125 Cl
BRANCH   7   9
HETATM    9  C5  UNL     1     -33.210  16.245  -3.061  1.00 20.00     0.016 C 
HETATM   10  C2  UNL     1     -34.469  15.383  -3.097  1.00 20.00     0.006 C 
ENDBRANCH   7   9
ENDBRANCH   1   7
TORSDOF 5
ENDMDL
MODEL 6
REMARK VINA RESULT:      -3.6      1.553      2.307
REMARK  5 active torsions:
REMARK  status: ('A' for Active; 'I' for Inactive)
REMARK    1  A    between atoms: C4_4  and  C7_7 
REMARK    2  A    between atoms: C5_5  and  C8_8 
REMARK    3  A    between atoms: C6_6  and  C7_7 
REMARK    4  A    between atoms: C6_6  and  O9_9 
REMARK    5  A    between atoms: C7_7  and  C8_8 
ROOT
HETATM    1  C7  UNL     1     -35.796  15.336  -4.258  1.00 20.00     0.027 C 
ENDROOT
BRANCH   1   2
HETATM    2  C4  UNL     1     -36.869  16.302  -3.708  1.00 20.00     0.004 C 
HETATM    3  C1  UNL     1     -37.045  17.559  -4.553  1.00 20.00     0.005 C 
ENDBRANCH   1   2
BRANCH   1   4
HETATM    4  C6  UNL     1     -36.436  14.012  -4.723  1.00 20.00     0.173 C 
BRANCH   4   5
HETATM    5  O9  UNL     1     -36.004  13.661  -6.031  1.00 20.00    -0.396 OA
HETATM    6  C3  UNL     1     -35.665  14.812  -6.793  1.00 20.00     0.201 C 
ENDBRANCH   4   5
ENDBRANCH   1   4
BRANCH   1   7
HETATM    7  C8  UNL     1     -34.630  15.089  -3.256  1.00 20.00     0.088 C 
HETATM    8 CL10 UNL     1     -33.091  14.843  -4.160  1.00 20.00    -0.125 Cl
BRANCH   7   9
HETATM    9  C5  UNL     1     -34.452  16.198  -2.205  1.00 20.00     0.016 C 
HETATM   10  C2  UNL     1     -33.173  17.008  -2.393  1.00 20.00     0.006 C 
ENDBRANCH   7   9
ENDBRANCH   1   7
TORSDOF 5
ENDMDL
MODEL 7
REMARK VINA RESULT:      -3.5      2.299      3.363
REMARK  5 active torsions:
REMARK  status: ('A' for Active; 'I' for Inactive)
REMARK    1  A    between atoms: C4_4  and  C7_7 
REMARK    2  A    between atoms: C5_5  and  C8_8 
REMARK    3  A    between atoms: C6_6  and  C7_7 
REMARK    4  A    between atoms: C6_6  and  O9_9 
REMARK    5  A    between atoms: C7_7  and  C8_8 
ROOT
HETATM    1  C7  UNL     1     -34.726  15.207  -4.020  1.00 20.00     0.027 C 
ENDROOT
BRANCH   1   2
HETATM    2  C4  UNL     1     -35.668  13.984  -3.964  1.00 20.00     0.004 C 
HETATM    3  C1  UNL     1     -37.074  14.276  -4.478  1.00 20.00     0.005 C 
ENDBRANCH   1   2
BRANCH   1   4
HETATM    4  C6  UNL     1     -33.446  14.878  -4.815  1.00 20.00     0.173 C 
BRANCH   4   5
HETATM    5  O9  UNL     1     -33.753  14.469  -6.142  1.00 20.00    -0.396 OA
HETATM    6  C3  UNL     1     -34.221  15.558  -6.927  1.00 20.00     0.201 C 
ENDBRANCH   4   5
ENDBRANCH   1   4
BRANCH   1   7
HETATM    7  C8  UNL     1     -34.395  15.785  -2.612  1.00 20.00     0.088 C 
HETATM    8 CL10 UNL     1     -32.878  16.754  -2.692  1.00 20.00    -0.125 Cl
BRANCH   7   9
HETATM    9  C5  UNL     1     -35.524  16.624  -1.990  1.00 20.00     0.016 C 
HETATM   10  C2  UNL     1     -35.268  16.994  -0.532  1.00 20.00     0.006 C 
ENDBRANCH   7   9
ENDBRANCH   1   7
TORSDOF 5
ENDMDL
MODEL 8
REMARK VINA RESULT:      -3.4      2.507      4.527
REMARK  5 active torsions:
REMARK  status: ('A' for Active; 'I' for Inactive)
REMARK    1  A    between atoms: C4_4  and  C7_7 
REMARK    2  A    between atoms: C5_5  and  C8_8 
REMARK    3  A    between atoms: C6_6  and  C7_7 
REMARK    4  A    between atoms: C6_6  and  O9_9 
REMARK    5  A    between atoms: C7_7  and  C8_8 
ROOT
HETATM    1  C7  UNL     1     -33.955  15.884  -2.632  1.00 20.00     0.027 C 
ENDROOT
BRANCH   1   2
HETATM    2  C4  UNL     1     -35.312  16.235  -1.982  1.00 20.00     0.004 C 
HETATM    3  C1  UNL     1     -35.180  17.059  -0.706  1.00 20.00     0.005 C 
ENDBRANCH   1   2
BRANCH   1   4
HETATM    4  C6  UNL     1     -33.089  17.148  -2.810  1.00 20.00     0.173 C 
BRANCH   4   5
HETATM    5  O9  UNL     1     -33.361  17.788  -4.050  1.00 20.00    -0.396 OA
HETATM    6  C3  UNL     1     -33.774  19.135  -3.861  1.00 20.00     0.201 C 
ENDBRANCH   4   5
ENDBRANCH   1   4
BRANCH   1   7
HETATM    7  C8  UNL     1     -34.106  15.098  -3.967  1.00 20.00     0.088 C 
HETATM    8 CL10 UNL     1     -32.519  14.385  -4.438  1.00 20.00    -0.125 Cl
BRANCH   7   9
HETATM    9  C5  UNL     1     -35.187  14.004  -3.940  1.00 20.00     0.016 C 
HETATM   10  C2  UNL     1     -36.161  14.088  -5.112  1.00 20.00     0.006 C 
ENDBRANCH   7   9
ENDBRANCH   1   7
TORSDOF 5
ENDMDL
MODEL 9
REMARK VINA RESULT:      -3.3     17.820     19.265
REMARK  5 active torsions:
REMARK  status: ('A' for Active; 'I' for Inactive)
REMARK    1  A    between atoms: C4_4  and  C7_7 
REMARK    2  A    between atoms: C5_5  and  C8_8 
REMARK    3  A    between atoms: C6_6  and  C7_7 
REMARK    4  A    between atoms: C6_6  and  O9_9 
REMARK    5  A    between atoms: C7_7  and  C8_8 
ROOT
HETATM    1  C7  UNL     1     -23.623  17.721  10.949  1.00 20.00     0.027 C 
ENDROOT
BRANCH   1   2
HETATM    2  C4  UNL     1     -24.265  16.371  10.559  1.00 20.00     0.004 C 
HETATM    3  C1  UNL     1     -24.661  15.517  11.758  1.00 20.00     0.005 C 
ENDBRANCH   1   2
BRANCH   1   4
HETATM    4  C6  UNL     1     -24.606  18.577  11.775  1.00 20.00     0.173 C 
BRANCH   4   5
HETATM    5  O9  UNL     1     -25.843  18.744  11.093  1.00 20.00    -0.396 OA
HETATM    6  C3  UNL     1     -26.948  18.529  11.961  1.00 20.00     0.201 C 
ENDBRANCH   4   5
ENDBRANCH   1   4
BRANCH   1   7
HETATM    7  C8  UNL     1     -23.067  18.506   9.725  1.00 20.00     0.088 C 
HETATM    8 CL10 UNL     1     -21.293  18.227   9.577  1.00 20.00    -0.125 Cl
BRANCH   7   9
HETATM    9  C5  UNL     1     -23.764  18.180   8.393  1.00 20.00     0.016 C 
HETATM   10  C2  UNL     1     -24.749  19.257   7.947  1.00 20.00     0.006 C 
ENDBRANCH   7   9
ENDBRANCH   1   7
TORSDOF 5
ENDMDL
