MODEL 1
REMARK VINA RESULT:      -4.2      0.000      0.000
REMARK  3 active torsions:
REMARK  status: ('A' for Active; 'I' for Inactive)
REMARK    1  A    between atoms: C3_3  and  C9_9 
REMARK    2  A    between atoms: C3_3  and  O10_10 
REMARK    3  A    between atoms: C8_8  and  C9_9 
ROOT
HETATM    1  C1  UNL     1     -33.222  17.012  -3.713  1.00 20.00     0.046 A 
HETATM    2  C2  UNL     1     -33.663  15.994  -2.694  1.00 20.00     0.019 A 
HETATM    3  C3  UNL     1     -33.513  15.598  -4.146  1.00 20.00     0.068 A 
HETATM    4  C4  UNL     1     -34.993  16.120  -2.034  1.00 20.00     0.013 C 
ENDROOT
BRANCH   3   5
HETATM    5  C9  UNL     1     -34.727  15.303  -5.048  1.00 20.00    -0.017 C 
HETATM    6  C6  UNL     1     -35.617  16.556  -5.096  1.00 20.00     0.018 C 
HETATM    7  C7  UNL     1     -34.218  14.989  -6.465  1.00 20.00     0.018 C 
BRANCH   5   8
HETATM    8  C8  UNL     1     -35.493  14.095  -4.448  1.00 20.00     0.007 C 
HETATM    9  C5  UNL     1     -37.011  14.219  -4.423  1.00 20.00     0.006 C 
ENDBRANCH   5   8
ENDBRANCH   3   5
BRANCH   3  10
HETATM   10  O10 UNL     1     -32.364  14.785  -4.449  1.00 20.00    -0.389 OA
HETATM   11  H28 UNL     1     -31.909  14.651  -3.608  1.00 20.00     0.210 HD
ENDBRANCH   3  10
TORSDOF 3
ENDMDL
MODEL 2
REMARK VINA RESULT:      -4.0      1.137      2.054
REMARK  3 active torsions:
REMARK  status: ('A' for Active; 'I' for Inactive)
REMARK    1  A    between atoms: C3_3  and  C9_9 
REMARK    2  A    between atoms: C3_3  and  O10_10 
REMARK    3  A    between atoms: C8_8  and  C9_9 
ROOT
HETATM    1  C1  UNL     1     -33.147  16.077  -3.661  1.00 20.00     0.046 A 
HETATM    2  C2  UNL     1     -34.258  15.204  -3.138  1.00 20.00     0.019 A 
HETATM    3  C3  UNL     1     -33.725  14.996  -4.539  1.00 20.00     0.068 A 
HETATM    4  C4  UNL     1     -35.606  15.781  -2.873  1.00 20.00     0.013 C 
ENDROOT
BRANCH   3   5
HETATM    5  C9  UNL     1     -34.539  15.374  -5.792  1.00 20.00    -0.017 C 
HETATM    6  C6  UNL     1     -33.707  15.028  -7.038  1.00 20.00     0.018 C 
HETATM    7  C7  UNL     1     -35.833  14.543  -5.802  1.00 20.00     0.018 C 
BRANCH   5   8
HETATM    8  C8  UNL     1     -34.848  16.892  -5.729  1.00 20.00     0.007 C 
HETATM    9  C5  UNL     1     -36.209  17.315  -6.265  1.00 20.00     0.006 C 
ENDBRANCH   5   8
ENDBRANCH   3   5
BRANCH   3  10
HETATM   10  O10 UNL     1     -32.903  13.828  -4.720  1.00 20.00    -0.389 OA
HETATM   11  H28 UNL     1     -33.041  13.286  -3.934  1.00 20.00     0.210 HD
ENDBRANCH   3  10
TORSDOF 3
ENDMDL
MODEL 3
REMARK VINA RESULT:      -4.0      1.507      3.251
REMARK  3 active torsions:
REMARK  status: ('A' for Active; 'I' for Inactive)
REMARK    1  A    between atoms: C3_3  and  C9_9 
REMARK    2  A    between atoms: C3_3  and  O10_10 
REMARK    3  A    between atoms: C8_8  and  C9_9 
ROOT
HETATM    1  C1  UNL     1     -36.443  13.843  -4.526  1.00 20.00     0.046 A 
HETATM    2  C2  UNL     1     -36.849  15.152  -5.152  1.00 20.00     0.019 A 
HETATM    3  C3  UNL     1     -35.393  14.741  -5.130  1.00 20.00     0.068 A 
HETATM    4  C4  UNL     1     -37.379  16.257  -4.306  1.00 20.00     0.013 C 
ENDROOT
BRANCH   3   5
HETATM    5  C9  UNL     1     -34.357  15.433  -4.224  1.00 20.00    -0.017 C 
HETATM    6  C6  UNL     1     -33.016  14.693  -4.359  1.00 20.00     0.018 C 
HETATM    7  C7  UNL     1     -34.183  16.885  -4.701  1.00 20.00     0.018 C 
BRANCH   5   8
HETATM    8  C8  UNL     1     -34.879  15.382  -2.764  1.00 20.00     0.007 C 
HETATM    9  C5  UNL     1     -34.519  16.575  -1.888  1.00 20.00     0.006 C 
ENDBRANCH   5   8
ENDBRANCH   3   5
BRANCH   3  10
HETATM   10  O10 UNL     1     -34.853  14.313  -6.394  1.00 20.00    -0.389 OA
HETATM   11  H28 UNL     1     -34.908  15.080  -6.977  1.00 20.00     0.210 HD
ENDBRANCH   3  10
TORSDOF 3
ENDMDL
MODEL 4
REMARK VINA RESULT:      -4.0      0.480      1.994
REMARK  3 active torsions:
REMARK  status: ('A' for Active; 'I' for Inactive)
REMARK    1  A    between atoms: C3_3  and  C9_9 
REMARK    2  A    between atoms: C3_3  and  O10_10 
REMARK    3  A    between atoms: C8_8  and  C9_9 
ROOT
HETATM    1  C1  UNL     1     -33.343  17.004  -3.767  1.00 20.00     0.046 A 
HETATM    2  C2  UNL     1     -33.721  15.984  -2.724  1.00 20.00     0.019 A 
HETATM    3  C3  UNL     1     -33.616  15.579  -4.178  1.00 20.00     0.068 A 
HETATM    4  C4  UNL     1     -35.027  16.083  -2.015  1.00 20.00     0.013 C 
ENDROOT
BRANCH   3   5
HETATM    5  C9  UNL     1     -34.855  15.247  -5.031  1.00 20.00    -0.017 C 
HETATM    6  C6  UNL     1     -35.578  14.047  -4.396  1.00 20.00     0.018 C 
HETATM    7  C7  UNL     1     -35.794  16.465  -5.022  1.00 20.00     0.018 C 
BRANCH   5   8
HETATM    8  C8  UNL     1     -34.380  14.917  -6.469  1.00 20.00     0.007 C 
HETATM    9  C5  UNL     1     -34.245  16.105  -7.412  1.00 20.00     0.006 C 
ENDBRANCH   5   8
ENDBRANCH   3   5
BRANCH   3  10
HETATM   10  O10 UNL     1     -32.459  14.792  -4.518  1.00 20.00    -0.389 OA
HETATM   11  H28 UNL     1     -32.700  14.302  -5.315  1.00 20.00     0.210 HD
ENDBRANCH   3  10
TORSDOF 3
ENDMDL
MODEL 5
REMARK VINA RESULT:      -3.9      1.133      2.879
REMARK  3 active torsions:
REMARK  status: ('A' for Active; 'I' for Inactive)
REMARK    1  A    between atoms: C3_3  and  C9_9 
REMARK    2  A    between atoms: C3_3  and  O10_10 
REMARK    3  A    between atoms: C8_8  and  C9_9 
ROOT
HETATM    1  C1  UNL     1     -35.292  15.355  -6.736  1.00 20.00     0.046 A 
HETATM    2  C2  UNL     1     -34.531  16.528  -6.174  1.00 20.00     0.019 A 
HETATM    3  C3  UNL     1     -34.368  15.153  -5.562  1.00 20.00     0.068 A 
HETATM    4  C4  UNL     1     -35.254  17.630  -5.480  1.00 20.00     0.013 C 
ENDROOT
BRANCH   3   5
HETATM    5  C9  UNL     1     -34.946  14.795  -4.179  1.00 20.00    -0.017 C 
HETATM    6  C6  UNL     1     -36.439  15.163  -4.163  1.00 20.00     0.018 C 
HETATM    7  C7  UNL     1     -34.796  13.280  -3.965  1.00 20.00     0.018 C 
BRANCH   5   8
HETATM    8  C8  UNL     1     -34.162  15.593  -3.105  1.00 20.00     0.007 C 
HETATM    9  C5  UNL     1     -34.995  16.174  -1.970  1.00 20.00     0.006 C 
ENDBRANCH   5   8
ENDBRANCH   3   5
BRANCH   3  10
HETATM   10  O10 UNL     1     -33.122  14.492  -5.850  1.00 20.00    -0.389 OA
HETATM   11  H28 UNL     1     -32.875  14.033  -5.038  1.00 20.00     0.210 HD
ENDBRANCH   3  10
TORSDOF 3
ENDMDL
MODEL 6
REMARK VINA RESULT:      -3.9      1.335      3.139
REMARK  3 active torsions:
REMARK  status: ('A' for Active; 'I' for Inactive)
REMARK    1  A    between atoms: C3_3  and  C9_9 
REMARK    2  A    between atoms: C3_3  and  O10_10 
REMARK    3  A    between atoms: C8_8  and  C9_9 
ROOT
HETATM    1  C1  UNL     1     -35.746  14.471  -5.994  1.00 20.00     0.046 A 
HETATM    2  C2  UNL     1     -35.508  15.903  -6.397  1.00 20.00     0.019 A 
HETATM    3  C3  UNL     1     -34.376  15.078  -5.823  1.00 20.00     0.068 A 
HETATM    4  C4  UNL     1     -36.149  17.014  -5.639  1.00 20.00     0.013 C 
ENDROOT
BRANCH   3   5
HETATM    5  C9  UNL     1     -33.813  15.324  -4.411  1.00 20.00    -0.017 C 
HETATM    6  C6  UNL     1     -32.547  14.470  -4.233  1.00 20.00     0.018 C 
HETATM    7  C7  UNL     1     -33.442  16.811  -4.285  1.00 20.00     0.018 C 
BRANCH   5   8
HETATM    8  C8  UNL     1     -34.902  14.930  -3.380  1.00 20.00     0.007 C 
HETATM    9  C5  UNL     1     -35.099  15.898  -2.220  1.00 20.00     0.006 C 
ENDBRANCH   5   8
ENDBRANCH   3   5
BRANCH   3  10
HETATM   10  O10 UNL     1     -33.380  14.653  -6.772  1.00 20.00    -0.389 OA
HETATM   11  H28 UNL     1     -33.869  14.324  -7.536  1.00 20.00     0.210 HD
ENDBRANCH   3  10
TORSDOF 3
ENDMDL
MODEL 7
REMARK VINA RESULT:      -3.8      1.504      3.310
REMARK  3 active torsions:
REMARK  status: ('A' for Active; 'I' for Inactive)
REMARK    1  A    between atoms: C3_3  and  C9_9 
REMARK    2  A    between atoms: C3_3  and  O10_10 
REMARK    3  A    between atoms: C8_8  and  C9_9 
ROOT
HETATM    1  C1  UNL     1     -34.805  15.192  -6.332  1.00 20.00     0.046 A 
HETATM    2  C2  UNL     1     -36.024  15.005  -5.466  1.00 20.00     0.019 A 
HETATM    3  C3  UNL     1     -34.964  16.012  -5.076  1.00 20.00     0.068 A 
HETATM    4  C4  UNL     1     -36.229  13.731  -4.721  1.00 20.00     0.013 C 
ENDROOT
BRANCH   3   5
HETATM    5  C9  UNL     1     -34.015  15.787  -3.883  1.00 20.00    -0.017 C 
HETATM    6  C6  UNL     1     -33.042  14.652  -4.241  1.00 20.00     0.018 C 
HETATM    7  C7  UNL     1     -33.218  17.080  -3.642  1.00 20.00     0.018 C 
BRANCH   5   8
HETATM    8  C8  UNL     1     -34.874  15.419  -2.645  1.00 20.00     0.007 C 
HETATM    9  C5  UNL     1     -35.059  16.525  -1.614  1.00 20.00     0.006 C 
ENDBRANCH   5   8
ENDBRANCH   3   5
BRANCH   3  10
HETATM   10  O10 UNL     1     -35.323  17.393  -5.270  1.00 20.00    -0.389 OA
HETATM   11  H28 UNL     1     -34.505  17.845  -5.512  1.00 20.00     0.210 HD
ENDBRANCH   3  10
TORSDOF 3
ENDMDL
MODEL 8
REMARK VINA RESULT:      -3.7      2.168      3.723
REMARK  3 active torsions:
REMARK  status: ('A' for Active; 'I' for Inactive)
REMARK    1  A    between atoms: C3_3  and  C9_9 
REMARK    2  A    between atoms: C3_3  and  O10_10 
REMARK    3  A    between atoms: C8_8  and  C9_9 
ROOT
HETATM    1  C1  UNL     1     -36.086  14.687  -5.412  1.00 20.00     0.046 A 
HETATM    2  C2  UNL     1     -35.393  13.937  -4.304  1.00 20.00     0.019 A 
HETATM    3  C3  UNL     1     -36.387  15.029  -3.974  1.00 20.00     0.068 A 
HETATM    4  C4  UNL     1     -33.927  14.099  -4.089  1.00 20.00     0.013 C 
ENDROOT
BRANCH   3   5
HETATM    5  C9  UNL     1     -35.951  16.391  -3.399  1.00 20.00    -0.017 C 
HETATM    6  C6  UNL     1     -35.080  17.107  -4.445  1.00 20.00     0.018 C 
HETATM    7  C7  UNL     1     -37.210  17.231  -3.128  1.00 20.00     0.018 C 
BRANCH   5   8
HETATM    8  C8  UNL     1     -35.157  16.132  -2.092  1.00 20.00     0.007 C 
HETATM    9  C5  UNL     1     -33.952  17.035  -1.859  1.00 20.00     0.006 C 
ENDBRANCH   5   8
ENDBRANCH   3   5
BRANCH   3  10
HETATM   10  O10 UNL     1     -37.658  14.577  -3.475  1.00 20.00    -0.389 OA
HETATM   11  H28 UNL     1     -37.459  14.037  -2.699  1.00 20.00     0.210 HD
ENDBRANCH   3  10
TORSDOF 3
ENDMDL
MODEL 9
REMARK VINA RESULT:      -3.7      1.810      3.442
REMARK  3 active torsions:
REMARK  status: ('A' for Active; 'I' for Inactive)
REMARK    1  A    between atoms: C3_3  and  C9_9 
REMARK    2  A    between atoms: C3_3  and  O10_10 
REMARK    3  A    between atoms: C8_8  and  C9_9 
ROOT
HETATM    1  C1  UNL     1     -34.388  17.326  -5.429  1.00 20.00     0.046 A 
HETATM    2  C2  UNL     1     -34.939  16.125  -6.153  1.00 20.00     0.019 A 
HETATM    3  C3  UNL     1     -35.208  16.310  -4.675  1.00 20.00     0.068 A 
HETATM    4  C4  UNL     1     -34.020  15.074  -6.673  1.00 20.00     0.013 C 
ENDROOT
BRANCH   3   5
HETATM    5  C9  UNL     1     -34.543  15.426  -3.603  1.00 20.00    -0.017 C 
HETATM    6  C6  UNL     1     -34.915  13.959  -3.878  1.00 20.00     0.018 C 
HETATM    7  C7  UNL     1     -33.018  15.590  -3.711  1.00 20.00     0.018 C 
BRANCH   5   8
HETATM    8  C8  UNL     1     -35.058  15.882  -2.213  1.00 20.00     0.007 C 
HETATM    9  C5  UNL     1     -34.312  17.049  -1.579  1.00 20.00     0.006 C 
ENDBRANCH   5   8
ENDBRANCH   3   5
BRANCH   3  10
HETATM   10  O10 UNL     1     -36.548  16.711  -4.337  1.00 20.00    -0.389 OA
HETATM   11  H28 UNL     1     -36.469  17.232  -3.528  1.00 20.00     0.210 HD
ENDBRANCH   3  10
TORSDOF 3
ENDMDL
